# generated using pymatgen
data_Cs27Sn14Pb13I81
_symmetry_space_group_name_H-M   'P 1'
_cell_length_a   18.98397789
_cell_length_b   18.96863573
_cell_length_c   18.97512198
_cell_angle_alpha   90.00218796
_cell_angle_beta   89.99896969
_cell_angle_gamma   90.00176007
_symmetry_Int_Tables_number   1
_chemical_formula_structural   Cs27Sn14Pb13I81
_chemical_formula_sum   'Cs27 Sn14 Pb13 I81'
_cell_volume   6832.94447441
_cell_formula_units_Z   1
loop_
 _symmetry_equiv_pos_site_id
 _symmetry_equiv_pos_as_xyz
  1  'x, y, z'
loop_
 _atom_site_type_symbol
 _atom_site_label
 _atom_site_symmetry_multiplicity
 _atom_site_fract_x
 _atom_site_fract_y
 _atom_site_fract_z
 _atom_site_occupancy
  Cs  Cs0  1  -0.00038583  -0.00055147  0.00327020  1
  Cs  Cs1  1  0.00231611  -0.00189270  0.33402176  1
  Cs  Cs2  1  0.00197027  0.00065410  0.66355277  1
  Cs  Cs3  1  0.00016842  0.33377717  0.00186790  1
  Cs  Cs4  1  -0.00160801  0.33368810  0.33158028  1
  Cs  Cs5  1  -0.00128496  0.33494953  0.66717610  1
  Cs  Cs6  1  -0.00445260  0.66540193  -0.00142963  1
  Cs  Cs7  1  0.00163261  0.66830170  0.33271178  1
  Cs  Cs8  1  0.00160007  0.66593201  0.66895620  1
  Cs  Cs9  1  0.33256802  0.00188005  0.00128098  1
  Cs  Cs10  1  0.33047585  -0.00000043  0.33571282  1
  Cs  Cs11  1  0.33247498  0.00079013  0.66443337  1
  Cs  Cs12  1  0.33316242  0.33180353  -0.00143768  1
  Cs  Cs13  1  0.33323700  0.33351409  0.33235236  1
  Cs  Cs14  1  0.33183666  0.33218730  0.66839856  1
  Cs  Cs15  1  0.34402239  0.66480210  -0.00130854  1
  Cs  Cs16  1  0.33498783  0.66596702  0.33319999  1
  Cs  Cs17  1  0.33064641  0.66643491  0.66627962  1
  Cs  Cs18  1  0.66762977  -0.00236260  -0.00176853  1
  Cs  Cs19  1  0.66758106  0.00132675  0.33495733  1
  Cs  Cs20  1  0.66552293  0.00131623  0.66676114  1
  Cs  Cs21  1  0.66727153  0.33067017  0.00353030  1
  Cs  Cs22  1  0.66884080  0.33551390  0.33312538  1
  Cs  Cs23  1  0.67052355  0.33570367  0.66335991  1
  Cs  Cs24  1  0.66076817  0.67578521  -0.00558987  1
  Cs  Cs25  1  0.66232196  0.66295072  0.33135767  1
  Cs  Cs26  1  0.66804239  0.66107309  0.67278180  1
  Sn  Sn27  1  0.83378283  0.16654310  0.83392295  1
  Sn  Sn28  1  0.50082294  0.16651624  0.16717831  1
  Sn  Sn29  1  0.16617013  0.16563557  0.83254257  1
  Sn  Sn30  1  0.50038536  0.83381948  0.50019092  1
  Sn  Sn31  1  0.16651106  0.49968077  0.49901595  1
  Sn  Sn32  1  0.50013248  0.16650898  0.83285595  1
  Sn  Sn33  1  0.16671563  0.83316456  0.50053429  1
  Sn  Sn34  1  0.16714537  0.16719139  0.50051778  1
  Sn  Sn35  1  0.16662432  0.83435927  0.83327288  1
  Sn  Sn36  1  0.83379044  0.50011520  0.16638497  1
  Sn  Sn37  1  0.16615530  0.50023461  0.16696034  1
  Sn  Sn38  1  0.83283606  0.83287539  0.49995461  1
  Sn  Sn39  1  0.83285001  0.16687436  0.16621358  1
  Sn  Sn40  1  0.49934865  0.16623079  0.49989092  1
  Pb  Pb41  1  0.49774035  0.49959579  0.50021512  1
  Pb  Pb42  1  0.50015288  0.49708878  0.83312587  1
  Pb  Pb43  1  0.83329320  0.83335845  0.16859330  1
  Pb  Pb44  1  0.83565938  0.83593759  0.83090692  1
  Pb  Pb45  1  0.49986031  0.83650666  0.16923052  1
  Pb  Pb46  1  0.83576999  0.50298983  0.49791119  1
  Pb  Pb47  1  0.16678693  0.83014052  0.16596638  1
  Pb  Pb48  1  0.49748134  0.83590800  0.83052620  1
  Pb  Pb49  1  0.16645188  0.16800807  0.16665493  1
  Pb  Pb50  1  0.83331464  0.49769375  0.83635109  1
  Pb  Pb51  1  0.50029664  0.49781453  0.16666062  1
  Pb  Pb52  1  0.16670782  0.50001858  0.83373287  1
  Pb  Pb53  1  0.83344062  0.16558450  0.49972587  1
  I  I54  1  0.16626027  0.00013943  0.16946673  1
  I  I55  1  0.16750730  0.00026402  0.50423133  1
  I  I56  1  0.16696600  0.00169549  0.82449151  1
  I  I57  1  0.16580467  0.33569291  0.17163972  1
  I  I58  1  0.17157738  0.33204637  0.50036307  1
  I  I59  1  0.16768477  0.32966759  0.82980722  1
  I  I60  1  0.15919369  0.66233995  0.17261971  1
  I  I61  1  0.16635358  0.66771711  0.50002440  1
  I  I62  1  0.16573260  0.66950584  0.82805310  1
  I  I63  1  0.50537348  0.00493805  0.16422341  1
  I  I64  1  0.49440709  0.00140844  0.49939037  1
  I  I65  1  0.50202755  0.00436135  0.83565423  1
  I  I66  1  0.50060041  0.32909056  0.16953980  1
  I  I67  1  0.49534379  0.32935604  0.50025945  1
  I  I68  1  0.49487218  0.32772366  0.83036802  1
  I  I69  1  0.49989581  0.66673260  0.16850281  1
  I  I70  1  0.49809033  0.66972544  0.49861818  1
  I  I71  1  0.49806151  0.66740720  0.83300057  1
  I  I72  1  0.82914963  0.00343366  0.16354346  1
  I  I73  1  0.83886496  -0.00217594  0.49813943  1
  I  I74  1  0.83118377  0.00427699  0.84013272  1
  I  I75  1  0.83379742  0.33188284  0.16393725  1
  I  I76  1  0.83362267  0.33339682  0.50181949  1
  I  I77  1  0.83646439  0.32874449  0.83221546  1
  I  I78  1  0.84078247  0.66378508  0.17132696  1
  I  I79  1  0.83365261  0.67095600  0.49775463  1
  I  I80  1  0.83590424  0.66707792  0.83366164  1
  I  I81  1  0.16924303  0.16424855  -0.00276684  1
  I  I82  1  0.16939012  0.16396589  0.33636933  1
  I  I83  1  0.16924359  0.16765488  0.66583902  1
  I  I84  1  0.16220382  0.49733506  0.00285299  1
  I  I85  1  0.16339919  0.49881411  0.33444318  1
  I  I86  1  0.16808381  0.49994353  0.66370117  1
  I  I87  1  0.16539787  0.83997468  -0.00323209  1
  I  I88  1  0.16669509  0.83715970  0.33702519  1
  I  I89  1  0.16673841  0.83300549  0.66471813  1
  I  I90  1  0.49916997  0.16959860  -0.00027155  1
  I  I91  1  0.49935629  0.16313069  0.33419139  1
  I  I92  1  0.49820370  0.16211631  0.66609188  1
  I  I93  1  0.49530418  0.49808944  0.00025325  1
  I  I94  1  0.50073021  0.49727105  0.33346169  1
  I  I95  1  0.49789103  0.49747992  0.66631492  1
  I  I96  1  0.49829985  0.83324784  -0.00048850  1
  I  I97  1  0.49565890  0.83934215  0.33763629  1
  I  I98  1  0.50051601  0.84084574  0.66252867  1
  I  I99  1  0.83112002  0.17049817  0.00011877  1
  I  I100  1  0.83040298  0.16908094  0.33082334  1
  I  I101  1  0.83197995  0.16336321  0.66892197  1
  I  I102  1  0.84297781  0.49709837  0.00431663  1
  I  I103  1  0.83560503  0.49087337  0.33029843  1
  I  I104  1  0.83439876  0.49887869  0.66659790  1
  I  I105  1  0.83595820  0.83189329  -0.00032048  1
  I  I106  1  0.83792452  0.83754525  0.33682415  1
  I  I107  1  0.83277435  0.83656786  0.66291910  1
  I  I108  1  -0.00237079  0.16917227  0.16395610  1
  I  I109  1  0.00309245  0.16535131  0.50239592  1
  I  I110  1  0.00088541  0.16348573  0.83307260  1
  I  I111  1  0.00017514  0.49230793  0.17124971  1
  I  I112  1  0.00408591  0.49769294  0.49854319  1
  I  I113  1  0.00021043  0.49670797  0.83119838  1
  I  I114  1  0.00017299  0.83903832  0.17073356  1
  I  I115  1  0.00176952  0.83467139  0.50275270  1
  I  I116  1  0.00356035  0.83929509  0.82640263  1
  I  I117  1  0.33548772  0.16800858  0.16527128  1
  I  I118  1  0.33264784  0.16286538  0.50159401  1
  I  I119  1  0.33281909  0.16344654  0.83272929  1
  I  I120  1  0.33057095  0.49892760  0.17131199  1
  I  I121  1  0.32921978  0.50307346  0.49371273  1
  I  I122  1  0.33288478  0.49758192  0.83598151  1
  I  I123  1  0.33318859  0.83361828  0.16911849  1
  I  I124  1  0.33228964  0.83509551  0.50319495  1
  I  I125  1  0.32956673  0.83851042  0.82761958  1
  I  I126  1  0.66694188  0.17220214  0.16500493  1
  I  I127  1  0.66407228  0.16124670  0.50195600  1
  I  I128  1  0.66641053  0.16825205  0.83378472  1
  I  I129  1  0.66961603  0.49505755  0.16802660  1
  I  I130  1  0.66684907  0.49955092  0.49806610  1
  I  I131  1  0.66694489  0.49948682  0.83387507  1
  I  I132  1  0.66658511  0.82893860  0.16940162  1
  I  I133  1  0.66587001  0.84211052  0.49706522  1
  I  I134  1  0.66651605  0.83408038  0.83185765  1
