# generated using pymatgen
data_Cs27Sn14Pb13I81
_symmetry_space_group_name_H-M   'P 1'
_cell_length_a   18.97939022
_cell_length_b   18.97665705
_cell_length_c   18.97064231
_cell_angle_alpha   89.99835062
_cell_angle_beta   90.00143522
_cell_angle_gamma   89.99945147
_symmetry_Int_Tables_number   1
_chemical_formula_structural   Cs27Sn14Pb13I81
_chemical_formula_sum   'Cs27 Sn14 Pb13 I81'
_cell_volume   6832.56857656
_cell_formula_units_Z   1
loop_
 _symmetry_equiv_pos_site_id
 _symmetry_equiv_pos_as_xyz
  1  'x, y, z'
loop_
 _atom_site_type_symbol
 _atom_site_label
 _atom_site_symmetry_multiplicity
 _atom_site_fract_x
 _atom_site_fract_y
 _atom_site_fract_z
 _atom_site_occupancy
  Cs  Cs0  1  0.00136627  -0.00208056  0.00152748  1
  Cs  Cs1  1  -0.00033490  0.00069406  0.33416212  1
  Cs  Cs2  1  0.00222565  0.00292493  0.66281964  1
  Cs  Cs3  1  -0.00130576  0.33563095  0.00192756  1
  Cs  Cs4  1  0.00172886  0.33194985  0.33355352  1
  Cs  Cs5  1  -0.00043039  0.33287261  0.66294223  1
  Cs  Cs6  1  0.00019577  0.66512156  -0.00228463  1
  Cs  Cs7  1  -0.00176111  0.66825456  0.33375489  1
  Cs  Cs8  1  0.00183027  0.66558126  0.67014519  1
  Cs  Cs9  1  0.33138711  0.00104199  -0.00120580  1
  Cs  Cs10  1  0.33293647  0.00257349  0.33440650  1
  Cs  Cs11  1  0.33110687  -0.00017351  0.66698509  1
  Cs  Cs12  1  0.33365180  0.33397599  0.00184913  1
  Cs  Cs13  1  0.33328564  0.33260257  0.33116331  1
  Cs  Cs14  1  0.33264585  0.33228642  0.66680458  1
  Cs  Cs15  1  0.33269853  0.66452910  -0.00106275  1
  Cs  Cs16  1  0.33942775  0.66411792  0.33231129  1
  Cs  Cs17  1  0.33212461  0.66814296  0.66868278  1
  Cs  Cs18  1  0.66712945  0.00191559  0.00013525  1
  Cs  Cs19  1  0.66484504  -0.01059379  0.33148266  1
  Cs  Cs20  1  0.66798860  0.00341586  0.66798825  1
  Cs  Cs21  1  0.66960111  0.33037172  -0.00297579  1
  Cs  Cs22  1  0.66493858  0.33648619  0.33513567  1
  Cs  Cs23  1  0.67014289  0.33301377  0.66828981  1
  Cs  Cs24  1  0.66857509  0.66819915  0.00051536  1
  Cs  Cs25  1  0.65997245  0.67517028  0.34191887  1
  Cs  Cs26  1  0.66584203  0.66507816  0.66209546  1
  Sn  Sn27  1  0.16678719  0.83196622  0.49844586  1
  Sn  Sn28  1  0.50019108  0.50072229  0.83359747  1
  Sn  Sn29  1  0.83319393  0.50081189  0.83402652  1
  Sn  Sn30  1  0.16684555  0.83348703  0.16781916  1
  Sn  Sn31  1  0.50134443  0.83256782  0.83363633  1
  Sn  Sn32  1  0.83270963  0.49999945  0.16674076  1
  Sn  Sn33  1  0.16640837  0.16604780  0.16578483  1
  Sn  Sn34  1  0.83328914  0.16733620  0.16687809  1
  Sn  Sn35  1  0.16674116  0.50101244  0.50033435  1
  Sn  Sn36  1  0.50024190  0.16676482  0.16762731  1
  Sn  Sn37  1  0.50031327  0.16683317  0.49914673  1
  Sn  Sn38  1  0.16665981  0.49867506  0.83274166  1
  Sn  Sn39  1  0.83225257  0.83277526  0.83337309  1
  Sn  Sn40  1  0.16635058  0.16796803  0.83420017  1
  Pb  Pb41  1  0.16643686  0.83311086  0.83351588  1
  Pb  Pb42  1  0.49745571  0.83534401  0.16422991  1
  Pb  Pb43  1  0.83619628  0.16677847  0.83493255  1
  Pb  Pb44  1  0.49754963  0.49805634  0.50250116  1
  Pb  Pb45  1  0.83586469  0.83324520  0.50325099  1
  Pb  Pb46  1  0.83537922  0.50005845  0.49986466  1
  Pb  Pb47  1  0.83010623  0.16662731  0.49617131  1
  Pb  Pb48  1  0.49754910  0.83532961  0.50274160  1
  Pb  Pb49  1  0.16776791  0.16696038  0.49946845  1
  Pb  Pb50  1  0.83515288  0.83287894  0.16497014  1
  Pb  Pb51  1  0.50328719  0.49806251  0.16448140  1
  Pb  Pb52  1  0.16521404  0.50002014  0.16668080  1
  Pb  Pb53  1  0.49812776  0.16690031  0.83373223  1
  I  I54  1  0.16478131  0.00153486  0.16495383  1
  I  I55  1  0.16855183  -0.00183561  0.50100704  1
  I  I56  1  0.16774269  0.00188538  0.83429115  1
  I  I57  1  0.16818204  0.33052556  0.16525998  1
  I  I58  1  0.16796714  0.33559840  0.50276977  1
  I  I59  1  0.16771448  0.33436754  0.83301851  1
  I  I60  1  0.16347185  0.66879525  0.16572371  1
  I  I61  1  0.16616526  0.66636817  0.50253934  1
  I  I62  1  0.16646391  0.66401434  0.83276383  1
  I  I63  1  0.50408161  0.00371801  0.16729401  1
  I  I64  1  0.49592641  0.00296797  0.49798926  1
  I  I65  1  0.50165192  -0.00194895  0.83357831  1
  I  I66  1  0.49277668  0.32976581  0.16734523  1
  I  I67  1  0.49571321  0.33039744  0.49769150  1
  I  I68  1  0.50124021  0.33589952  0.83359832  1
  I  I69  1  0.49888109  0.66667921  0.16658620  1
  I  I70  1  0.50005310  0.66667845  0.49948732  1
  I  I71  1  0.49654835  0.66593095  0.83337687  1
  I  I72  1  0.83292920  0.00269379  0.16439081  1
  I  I73  1  0.83749921  0.00002605  0.50217214  1
  I  I74  1  0.83038524  -0.00225381  0.83509415  1
  I  I75  1  0.83622062  0.33292578  0.15922304  1
  I  I76  1  0.83656203  0.33326264  0.50535745  1
  I  I77  1  0.83107058  0.33630622  0.83565063  1
  I  I78  1  0.83886805  0.66399104  0.16134250  1
  I  I79  1  0.83175900  0.66662429  0.49449882  1
  I  I80  1  0.83657151  0.66514259  0.83974972  1
  I  I81  1  0.16966049  0.16565927  0.00090379  1
  I  I82  1  0.16533065  0.16586461  0.33018078  1
  I  I83  1  0.16956548  0.16648510  0.66885697  1
  I  I84  1  0.16784007  0.49926769  -0.00298455  1
  I  I85  1  0.16399799  0.49992197  0.33545672  1
  I  I86  1  0.16489877  0.49990472  0.66858352  1
  I  I87  1  0.16645023  0.83610401  0.00184869  1
  I  I88  1  0.16566571  0.83523610  0.33290951  1
  I  I89  1  0.16707409  0.83328856  0.66511474  1
  I  I90  1  0.50008541  0.16663370  0.00261720  1
  I  I91  1  0.49548727  0.16735104  0.33196631  1
  I  I92  1  0.49469499  0.16612783  0.66538677  1
  I  I93  1  0.49263208  0.50097548  -0.00389474  1
  I  I94  1  0.49928481  0.49950021  0.33326836  1
  I  I95  1  0.50398135  0.50051561  0.67092235  1
  I  I96  1  0.49998898  0.83212895  -0.00368245  1
  I  I97  1  0.50054102  0.83316059  0.33326825  1
  I  I98  1  0.50006393  0.83226126  0.67059503  1
  I  I99  1  0.82922549  0.16798114  0.00298463  1
  I  I100  1  0.84216411  0.17313208  0.32810992  1
  I  I101  1  0.83375926  0.16667563  0.66674224  1
  I  I102  1  0.83685342  0.49908847  -0.00150742  1
  I  I103  1  0.83827431  0.49266716  0.33020026  1
  I  I104  1  0.83235659  0.50407815  0.67032308  1
  I  I105  1  0.83364003  0.83196356  -0.00311895  1
  I  I106  1  0.83372195  0.83361405  0.33319460  1
  I  I107  1  0.83214776  0.82659281  0.67147548  1
  I  I108  1  0.00086828  0.16668322  0.16023766  1
  I  I109  1  0.00010560  0.16627712  0.50081740  1
  I  I110  1  0.00422790  0.16899152  0.83788823  1
  I  I111  1  -0.00245180  0.49399540  0.15949824  1
  I  I112  1  0.00362580  0.50175012  0.50685508  1
  I  I113  1  0.00020120  0.50101260  0.83383856  1
  I  I114  1  0.00319350  0.83957290  0.16678651  1
  I  I115  1  0.00412403  0.83185294  0.49898558  1
  I  I116  1  -0.00176095  0.82999991  0.83424121  1
  I  I117  1  0.33245784  0.16185438  0.16596239  1
  I  I118  1  0.33526601  0.16671081  0.49562548  1
  I  I119  1  0.33016690  0.16936719  0.83833987  1
  I  I120  1  0.33339209  0.49892581  0.16526265  1
  I  I121  1  0.32951693  0.50304750  0.50554458  1
  I  I122  1  0.33253153  0.50012054  0.82879356  1
  I  I123  1  0.32939906  0.83876605  0.16682764  1
  I  I124  1  0.32965770  0.83054691  0.49968077  1
  I  I125  1  0.33484041  0.83134435  0.83325960  1
  I  I126  1  0.66680211  0.17264450  0.16945905  1
  I  I127  1  0.66238227  0.16755564  0.49918109  1
  I  I128  1  0.66682684  0.16810277  0.83371119  1
  I  I129  1  0.67107084  0.49327115  0.15913171  1
  I  I130  1  0.66639424  0.49747254  0.50104849  1
  I  I131  1  0.66714381  0.50379876  0.83900751  1
  I  I132  1  0.66657506  0.83514085  0.16594508  1
  I  I133  1  0.66632847  0.83484194  0.49888732  1
  I  I134  1  0.66671894  0.82666881  0.83474795  1
