# generated using pymatgen
data_Cs27Sn13Pb14I81
_symmetry_space_group_name_H-M   'P 1'
_cell_length_a   18.97518403
_cell_length_b   18.98031096
_cell_length_c   18.97513833
_cell_angle_alpha   89.99773697
_cell_angle_beta   89.99843244
_cell_angle_gamma   90.00168150
_symmetry_Int_Tables_number   1
_chemical_formula_structural   Cs27Sn13Pb14I81
_chemical_formula_sum   'Cs27 Sn13 Pb14 I81'
_cell_volume   6833.98891282
_cell_formula_units_Z   1
loop_
 _symmetry_equiv_pos_site_id
 _symmetry_equiv_pos_as_xyz
  1  'x, y, z'
loop_
 _atom_site_type_symbol
 _atom_site_label
 _atom_site_symmetry_multiplicity
 _atom_site_fract_x
 _atom_site_fract_y
 _atom_site_fract_z
 _atom_site_occupancy
  Cs  Cs0  1  0.00354274  0.00366086  -0.00129992  1
  Cs  Cs1  1  -0.00071324  -0.00027931  0.33573279  1
  Cs  Cs2  1  -0.00265837  -0.00339661  0.66492205  1
  Cs  Cs3  1  0.00034985  0.33402922  0.00022907  1
  Cs  Cs4  1  0.00255307  0.33430800  0.33015489  1
  Cs  Cs5  1  -0.00162586  0.33441411  0.66896932  1
  Cs  Cs6  1  -0.00259992  0.66371824  -0.00179253  1
  Cs  Cs7  1  -0.00385855  0.66750751  0.33709927  1
  Cs  Cs8  1  0.00069726  0.66810751  0.66639016  1
  Cs  Cs9  1  0.33266514  -0.00311204  0.00090658  1
  Cs  Cs10  1  0.33354468  0.00145351  0.33055750  1
  Cs  Cs11  1  0.33455216  -0.00460538  0.66897944  1
  Cs  Cs12  1  0.33015990  0.33328408  0.00266715  1
  Cs  Cs13  1  0.33242944  0.33320786  0.33311530  1
  Cs  Cs14  1  0.34011428  0.33661690  0.66345996  1
  Cs  Cs15  1  0.33492223  0.66925730  -0.00172047  1
  Cs  Cs16  1  0.33339945  0.66563228  0.33689328  1
  Cs  Cs17  1  0.33536386  0.66755112  0.66441312  1
  Cs  Cs18  1  0.66318792  -0.00189538  -0.00194089  1
  Cs  Cs19  1  0.66747474  -0.00517535  0.33665251  1
  Cs  Cs20  1  0.66850812  0.01032669  0.66371963  1
  Cs  Cs21  1  0.66711944  0.33355360  -0.00139931  1
  Cs  Cs22  1  0.66530021  0.33326346  0.33344220  1
  Cs  Cs23  1  0.66129685  0.32865759  0.66563340  1
  Cs  Cs24  1  0.66712109  0.66905806  0.00096794  1
  Cs  Cs25  1  0.67127705  0.67247530  0.33015497  1
  Cs  Cs26  1  0.66577850  0.66306145  0.66870265  1
  Sn  Sn27  1  0.49987908  0.83329652  0.50014517  1
  Sn  Sn28  1  0.49922325  0.49964326  0.16648646  1
  Sn  Sn29  1  0.16605788  0.83258725  0.16690000  1
  Sn  Sn30  1  0.83334937  0.83308500  0.83349194  1
  Sn  Sn31  1  0.83396410  0.50048052  0.83226847  1
  Sn  Sn32  1  0.16669350  0.16666753  0.16656500  1
  Sn  Sn33  1  0.83311286  0.16636577  0.16667070  1
  Sn  Sn34  1  0.83347771  0.49940172  0.50100077  1
  Sn  Sn35  1  0.16664664  0.16689102  0.50063582  1
  Sn  Sn36  1  0.50012682  0.16730718  0.16661924  1
  Sn  Sn37  1  0.16671750  0.16763623  0.83268741  1
  Sn  Sn38  1  0.16732071  0.50058684  0.16606230  1
  Sn  Sn39  1  0.16632186  0.49929238  0.83376660  1
  Pb  Pb40  1  0.49661144  0.16686341  0.83590551  1
  Pb  Pb41  1  0.83513569  0.16735003  0.83508822  1
  Pb  Pb42  1  0.50292380  0.83342015  0.83070932  1
  Pb  Pb43  1  0.83348080  0.49852957  0.16602525  1
  Pb  Pb44  1  0.49799134  0.83314395  0.16776964  1
  Pb  Pb45  1  0.16537217  0.49827158  0.50025541  1
  Pb  Pb46  1  0.16796633  0.83555965  0.49781128  1
  Pb  Pb47  1  0.49968575  0.49996024  0.83571808  1
  Pb  Pb48  1  0.16529065  0.83274894  0.83506562  1
  Pb  Pb49  1  0.83151378  0.83144033  0.50256432  1
  Pb  Pb50  1  0.50259404  0.50154474  0.49697409  1
  Pb  Pb51  1  0.83585530  0.83612250  0.16465125  1
  Pb  Pb52  1  0.49760306  0.16511654  0.49753136  1
  Pb  Pb53  1  0.83541069  0.16892589  0.49770390  1
  I  I54  1  0.16693958  0.00203095  0.16613693  1
  I  I55  1  0.16641919  0.00373683  0.49847221  1
  I  I56  1  0.16523764  0.00274006  0.83621917  1
  I  I57  1  0.16708411  0.33268604  0.16596643  1
  I  I58  1  0.16601028  0.33035788  0.49336833  1
  I  I59  1  0.15990712  0.33381664  0.84041052  1
  I  I60  1  0.17174972  0.66518740  0.16141837  1
  I  I61  1  0.16654375  0.66658997  0.49847922  1
  I  I62  1  0.16392374  0.66332204  0.83945566  1
  I  I63  1  0.49759826  0.00282429  0.16792927  1
  I  I64  1  0.50012134  -0.00239230  0.49677402  1
  I  I65  1  0.49981305  0.00016897  0.83652095  1
  I  I66  1  0.49446415  0.33287702  0.16714561  1
  I  I67  1  0.50031510  0.33330094  0.50010727  1
  I  I68  1  0.50537874  0.33341602  0.83052702  1
  I  I69  1  0.49520275  0.66391286  0.16800350  1
  I  I70  1  0.49858291  0.66901821  0.49682861  1
  I  I71  1  0.49577232  0.66657803  0.83623419  1
  I  I72  1  0.83428677  0.00401922  0.16525394  1
  I  I73  1  0.83312024  0.00017814  0.50049127  1
  I  I74  1  0.83533429  -0.00163661  0.83668736  1
  I  I75  1  0.83865455  0.33068890  0.16507925  1
  I  I76  1  0.83346906  0.33651455  0.50615624  1
  I  I77  1  0.83694330  0.33637769  0.83239125  1
  I  I78  1  0.83353130  0.66664760  0.16858581  1
  I  I79  1  0.83479141  0.66350944  0.49849028  1
  I  I80  1  0.84000216  0.66499748  0.83091729  1
  I  I81  1  0.16608547  0.16745197  0.00158363  1
  I  I82  1  0.16690273  0.16677834  0.33109265  1
  I  I83  1  0.16463648  0.17137363  0.66752198  1
  I  I84  1  0.16401155  0.49487700  0.00090205  1
  I  I85  1  0.16828934  0.49769276  0.33004892  1
  I  I86  1  0.16310421  0.49512206  0.66983001  1
  I  I87  1  0.16740516  0.83880957  0.00318724  1
  I  I88  1  0.16681692  0.83382389  0.32945034  1
  I  I89  1  0.16699158  0.83465641  0.66674952  1
  I  I90  1  0.49807549  0.16927025  0.00444388  1
  I  I91  1  0.49616979  0.17041621  0.32924452  1
  I  I92  1  0.49897873  0.16480304  0.66645268  1
  I  I93  1  0.49991366  0.49653687  0.00394420  1
  I  I94  1  0.49416424  0.49536484  0.32917872  1
  I  I95  1  0.49756204  0.50210787  0.66647936  1
  I  I96  1  0.49996728  0.83380858  0.00014449  1
  I  I97  1  0.49976084  0.83370886  0.33528715  1
  I  I98  1  0.49715044  0.83251366  0.66321287  1
  I  I99  1  0.83716047  0.16927326  0.00322693  1
  I  I100  1  0.83707795  0.16897019  0.32961502  1
  I  I101  1  0.83605638  0.16447852  0.66676345  1
  I  I102  1  0.83536951  0.50187749  -0.00262930  1
  I  I103  1  0.83356484  0.49722341  0.33461204  1
  I  I104  1  0.84062657  0.50425762  0.66806670  1
  I  I105  1  0.83368706  0.82523949  -0.00271848  1
  I  I106  1  0.83327820  0.83229474  0.33332425  1
  I  I107  1  0.83566648  0.83233010  0.67020336  1
  I  I108  1  0.00207819  0.16740350  0.16624045  1
  I  I109  1  0.00343771  0.16614289  0.49549568  1
  I  I110  1  0.00346675  0.16805698  0.83843823  1
  I  I111  1  0.00310017  0.49752404  0.16556092  1
  I  I112  1  -0.00251201  0.49969592  0.49805902  1
  I  I113  1  0.00077875  0.49946518  0.83683132  1
  I  I114  1  0.00389356  0.83332261  0.16688571  1
  I  I115  1  -0.00012923  0.83392342  0.49917688  1
  I  I116  1  -0.00247861  0.83177332  0.83424253  1
  I  I117  1  0.33161385  0.16749932  0.16681765  1
  I  I118  1  0.32959106  0.16796185  0.49642438  1
  I  I119  1  0.32818473  0.17201321  0.83616070  1
  I  I120  1  0.33143699  0.49489869  0.16257188  1
  I  I121  1  0.33339088  0.50006723  0.50154810  1
  I  I122  1  0.32970448  0.49513406  0.83675349  1
  I  I123  1  0.33001644  0.83847181  0.16601181  1
  I  I124  1  0.33560577  0.83295296  0.49864040  1
  I  I125  1  0.33314648  0.83375157  0.83377130  1
  I  I126  1  0.66620540  0.17304854  0.16638152  1
  I  I127  1  0.66663705  0.16597201  0.49772925  1
  I  I128  1  0.66671450  0.16606250  0.83605435  1
  I  I129  1  0.66454677  0.49440141  0.16750323  1
  I  I130  1  0.67027456  0.49962734  0.50480154  1
  I  I131  1  0.66981422  0.50450551  0.83225777  1
  I  I132  1  0.66676551  0.83367380  0.16713967  1
  I  I133  1  0.66404959  0.83325402  0.49620689  1
  I  I134  1  0.67076801  0.82594807  0.83634396  1
