# generated using pymatgen
data_Cs27Sn14Pb13I81
_symmetry_space_group_name_H-M   'P 1'
_cell_length_a   18.97475174
_cell_length_b   18.99130889
_cell_length_c   18.96309485
_cell_angle_alpha   89.99996295
_cell_angle_beta   89.99897020
_cell_angle_gamma   90.00022374
_symmetry_Int_Tables_number   1
_chemical_formula_structural   Cs27Sn14Pb13I81
_chemical_formula_sum   'Cs27 Sn14 Pb13 I81'
_cell_volume   6833.45308636
_cell_formula_units_Z   1
loop_
 _symmetry_equiv_pos_site_id
 _symmetry_equiv_pos_as_xyz
  1  'x, y, z'
loop_
 _atom_site_type_symbol
 _atom_site_label
 _atom_site_symmetry_multiplicity
 _atom_site_fract_x
 _atom_site_fract_y
 _atom_site_fract_z
 _atom_site_occupancy
  Cs  Cs0  1  -0.00019502  -0.00557101  0.00701677  1
  Cs  Cs1  1  0.00115079  0.00330996  0.33408449  1
  Cs  Cs2  1  -0.00120250  -0.00051222  0.66595877  1
  Cs  Cs3  1  0.00145392  0.33446876  0.00891328  1
  Cs  Cs4  1  -0.00086878  0.33319859  0.33028528  1
  Cs  Cs5  1  -0.00164483  0.33280788  0.66572898  1
  Cs  Cs6  1  0.00782257  0.67237415  0.00583286  1
  Cs  Cs7  1  -0.00126270  0.66293857  0.33501704  1
  Cs  Cs8  1  0.00052132  0.66799504  0.66624936  1
  Cs  Cs9  1  0.33455180  0.00045849  0.00198281  1
  Cs  Cs10  1  0.33512996  -0.00392096  0.33216232  1
  Cs  Cs11  1  0.33324792  0.00392906  0.66616491  1
  Cs  Cs12  1  0.33484499  0.33358522  -0.00177453  1
  Cs  Cs13  1  0.33495895  0.33284972  0.33426230  1
  Cs  Cs14  1  0.33364477  0.33212522  0.66714793  1
  Cs  Cs15  1  0.32809060  0.66621453  -0.00035359  1
  Cs  Cs16  1  0.33777665  0.67235947  0.33453379  1
  Cs  Cs17  1  0.33107522  0.66480672  0.66697235  1
  Cs  Cs18  1  0.66668446  -0.00147003  -0.00141019  1
  Cs  Cs19  1  0.66385967  -0.00391445  0.33163809  1
  Cs  Cs20  1  0.66867427  0.00250178  0.66828942  1
  Cs  Cs21  1  0.66463649  0.33325393  -0.00211255  1
  Cs  Cs22  1  0.66647956  0.33486609  0.33276435  1
  Cs  Cs23  1  0.66781624  0.33316450  0.66816178  1
  Cs  Cs24  1  0.66725300  0.66736378  0.00012263  1
  Cs  Cs25  1  0.66394379  0.66834676  0.33098495  1
  Cs  Cs26  1  0.66880739  0.66373731  0.66762568  1
  Sn  Sn27  1  0.49990302  0.83304659  0.83262001  1
  Sn  Sn28  1  0.16588492  0.16689789  0.50097460  1
  Sn  Sn29  1  0.50005538  0.16677414  0.83398440  1
  Sn  Sn30  1  0.16565173  0.16694334  0.83311213  1
  Sn  Sn31  1  0.83389386  0.16681311  0.50059881  1
  Sn  Sn32  1  0.50030329  0.16775858  0.16583053  1
  Sn  Sn33  1  0.49997132  0.49897900  0.16550598  1
  Sn  Sn34  1  0.16595081  0.49944457  0.50038142  1
  Sn  Sn35  1  0.83378621  0.83347162  0.50047449  1
  Sn  Sn36  1  0.16584223  0.83367109  0.50067665  1
  Sn  Sn37  1  0.50054498  0.50010422  0.83394518  1
  Sn  Sn38  1  0.83404846  0.49964751  0.50096711  1
  Sn  Sn39  1  0.83439327  0.16761377  0.83321855  1
  Sn  Sn40  1  0.83368584  0.49941087  0.83336860  1
  Pb  Pb41  1  0.83135911  0.49993945  0.16595107  1
  Pb  Pb42  1  0.16574248  0.49789689  0.83174975  1
  Pb  Pb43  1  0.50004299  0.83307180  0.16343819  1
  Pb  Pb44  1  0.83335950  0.83326340  0.16988902  1
  Pb  Pb45  1  0.50041330  0.16665107  0.50013185  1
  Pb  Pb46  1  0.83213394  0.83309500  0.83176706  1
  Pb  Pb47  1  0.16974139  0.49982930  0.16998840  1
  Pb  Pb48  1  0.16913768  0.16679201  0.16694586  1
  Pb  Pb49  1  0.50046828  0.49994831  0.50046864  1
  Pb  Pb50  1  0.16862955  0.83620982  0.83114431  1
  Pb  Pb51  1  0.50029068  0.83337265  0.50263507  1
  Pb  Pb52  1  0.16662378  0.83344018  0.16995222  1
  Pb  Pb53  1  0.83084252  0.16672124  0.16635378  1
  I  I54  1  0.17065539  0.00034363  0.16847308  1
  I  I55  1  0.16136029  0.00089831  0.50408302  1
  I  I56  1  0.16738651  0.00444592  0.82644756  1
  I  I57  1  0.16596129  0.33324826  0.17048379  1
  I  I58  1  0.16225363  0.33259700  0.50359800  1
  I  I59  1  0.17321118  0.32987540  0.82599957  1
  I  I60  1  0.17023899  0.66650703  0.16659723  1
  I  I61  1  0.16143235  0.66646113  0.49921108  1
  I  I62  1  0.16910753  0.66660463  0.83090168  1
  I  I63  1  0.49979503  0.00279166  0.16356317  1
  I  I64  1  0.49997339  0.00017556  0.49969958  1
  I  I65  1  0.50006086  0.00182949  0.83554866  1
  I  I66  1  0.50007390  0.33310631  0.15868722  1
  I  I67  1  0.49845351  0.33330566  0.50223653  1
  I  I68  1  0.50067478  0.33295122  0.83724008  1
  I  I69  1  0.50071244  0.66359306  0.16462502  1
  I  I70  1  0.49910534  0.66651448  0.49966949  1
  I  I71  1  0.50550939  0.66519657  0.83525471  1
  I  I72  1  0.82921254  0.00025873  0.16619356  1
  I  I73  1  0.83843610  0.00101025  0.50427939  1
  I  I74  1  0.83050504  0.00324638  0.82805409  1
  I  I75  1  0.83407519  0.33327576  0.17312299  1
  I  I76  1  0.83851277  0.33316360  0.50410144  1
  I  I77  1  0.82596977  0.33280987  0.82335455  1
  I  I78  1  0.82848579  0.66643317  0.16697069  1
  I  I79  1  0.83863038  0.66582661  0.50386832  1
  I  I80  1  0.82503902  0.66355037  0.82701655  1
  I  I81  1  0.16552782  0.16789807  -0.00332128  1
  I  I82  1  0.16320090  0.16611970  0.33722279  1
  I  I83  1  0.16999149  0.16660138  0.66591444  1
  I  I84  1  0.16454992  0.49799291  -0.00009981  1
  I  I85  1  0.16096505  0.49686901  0.33851760  1
  I  I86  1  0.16907007  0.50148699  0.66322679  1
  I  I87  1  0.16865510  0.83444609  -0.00042828  1
  I  I88  1  0.16497957  0.83677710  0.33871314  1
  I  I89  1  0.16336759  0.83142380  0.66286190  1
  I  I90  1  0.49970527  0.16706961  -0.00227341  1
  I  I91  1  0.49975908  0.17156573  0.33085124  1
  I  I92  1  0.49960640  0.16812887  0.67014340  1
  I  I93  1  0.50594356  0.49844484  -0.00203149  1
  I  I94  1  0.49914901  0.49485525  0.33105019  1
  I  I95  1  0.50098090  0.49770347  0.67007499  1
  I  I96  1  0.50123572  0.83503123  -0.00435750  1
  I  I97  1  0.49958771  0.83337913  0.33335715  1
  I  I98  1  0.49993086  0.83462301  0.67032052  1
  I  I99  1  0.83475431  0.17252704  -0.00397439  1
  I  I100  1  0.83714452  0.16693468  0.33695284  1
  I  I101  1  0.83062439  0.16706753  0.66657342  1
  I  I102  1  0.82867405  0.49267177  -0.00390750  1
  I  I103  1  0.83587224  0.49969259  0.33687429  1
  I  I104  1  0.82942592  0.49885058  0.66614551  1
  I  I105  1  0.83021974  0.83399520  -0.00044103  1
  I  I106  1  0.83558536  0.83376784  0.33897003  1
  I  I107  1  0.83622796  0.83370229  0.66322241  1
  I  I108  1  -0.00003234  0.16553529  0.16462965  1
  I  I109  1  -0.00023491  0.16597168  0.50747344  1
  I  I110  1  -0.00093319  0.17187363  0.82492661  1
  I  I111  1  0.00008715  0.50107003  0.16484412  1
  I  I112  1  -0.00104196  0.50060690  0.50576366  1
  I  I113  1  -0.00339696  0.49504795  0.82805530  1
  I  I114  1  0.00007638  0.83349306  0.16086977  1
  I  I115  1  -0.00021207  0.83356065  0.50158719  1
  I  I116  1  0.00011635  0.83278422  0.83395703  1
  I  I117  1  0.33716513  0.17060019  0.16271221  1
  I  I118  1  0.33040570  0.16669592  0.50308494  1
  I  I119  1  0.33398465  0.16639732  0.83194036  1
  I  I120  1  0.33768547  0.49521723  0.16062875  1
  I  I121  1  0.33067718  0.49964484  0.49975570  1
  I  I122  1  0.33606827  0.49872639  0.83486100  1
  I  I123  1  0.33376491  0.83395909  0.17110810  1
  I  I124  1  0.33035252  0.83368729  0.50085223  1
  I  I125  1  0.33676861  0.83260723  0.83059083  1
  I  I126  1  0.66286882  0.17078514  0.16320238  1
  I  I127  1  0.67010961  0.16733064  0.50317821  1
  I  I128  1  0.66658631  0.16700563  0.83217621  1
  I  I129  1  0.66323705  0.49534798  0.16829334  1
  I  I130  1  0.67003901  0.49933395  0.50090092  1
  I  I131  1  0.66628319  0.49549721  0.83008493  1
  I  I132  1  0.66617039  0.83388436  0.17173042  1
  I  I133  1  0.66991278  0.83356110  0.50098756  1
  I  I134  1  0.66397403  0.83805499  0.83004322  1
