# generated using pymatgen
data_Cs27Sn14Pb13I81
_symmetry_space_group_name_H-M   'P 1'
_cell_length_a   18.97992996
_cell_length_b   18.97711859
_cell_length_c   18.97567202
_cell_angle_alpha   90.00097274
_cell_angle_beta   90.00103668
_cell_angle_gamma   89.99930422
_symmetry_Int_Tables_number   1
_chemical_formula_structural   Cs27Sn14Pb13I81
_chemical_formula_sum   'Cs27 Sn14 Pb13 I81'
_cell_volume   6834.74069015
_cell_formula_units_Z   1
loop_
 _symmetry_equiv_pos_site_id
 _symmetry_equiv_pos_as_xyz
  1  'x, y, z'
loop_
 _atom_site_type_symbol
 _atom_site_label
 _atom_site_symmetry_multiplicity
 _atom_site_fract_x
 _atom_site_fract_y
 _atom_site_fract_z
 _atom_site_occupancy
  Cs  Cs0  1  -0.00565975  -0.00574379  0.00117972  1
  Cs  Cs1  1  -0.00270645  -0.00149854  0.33557451  1
  Cs  Cs2  1  -0.00027905  -0.00158886  0.66312072  1
  Cs  Cs3  1  0.00073762  0.33353696  -0.00011246  1
  Cs  Cs4  1  0.00139509  0.33429638  0.33298287  1
  Cs  Cs5  1  0.00087990  0.33387480  0.66780960  1
  Cs  Cs6  1  0.00258514  0.67026222  -0.00244558  1
  Cs  Cs7  1  0.00023450  0.66468610  0.33554717  1
  Cs  Cs8  1  -0.00090841  0.66583844  0.66430608  1
  Cs  Cs9  1  0.33285063  -0.00174873  -0.00142024  1
  Cs  Cs10  1  0.33597446  0.00326519  0.33304396  1
  Cs  Cs11  1  0.33590767  0.00411048  0.66835585  1
  Cs  Cs12  1  0.33367817  0.33407345  0.00010504  1
  Cs  Cs13  1  0.33276348  0.33297520  0.33115022  1
  Cs  Cs14  1  0.33322601  0.33125601  0.66917374  1
  Cs  Cs15  1  0.33186369  0.66909052  0.00033023  1
  Cs  Cs16  1  0.33444907  0.66518219  0.33159944  1
  Cs  Cs17  1  0.33458290  0.66692023  0.66828271  1
  Cs  Cs18  1  0.67299302  -0.00272260  0.00158053  1
  Cs  Cs19  1  0.66869789  -0.00386110  0.33213082  1
  Cs  Cs20  1  0.66503448  -0.00337002  0.66659868  1
  Cs  Cs21  1  0.66418335  0.33220027  -0.00032208  1
  Cs  Cs22  1  0.66511792  0.33496024  0.33177454  1
  Cs  Cs23  1  0.66515989  0.33397783  0.66970004  1
  Cs  Cs24  1  0.66593449  0.67055879  -0.00284561  1
  Cs  Cs25  1  0.66482085  0.66545405  0.33533587  1
  Cs  Cs26  1  0.66611784  0.66840409  0.66600330  1
  Sn  Sn27  1  0.49896826  0.49922818  0.83441735  1
  Sn  Sn28  1  0.16629986  0.50054801  0.50005782  1
  Sn  Sn29  1  0.16648405  0.49934119  0.16640770  1
  Sn  Sn30  1  0.83394762  0.49946429  0.49934591  1
  Sn  Sn31  1  0.49933443  0.16742249  0.16556824  1
  Sn  Sn32  1  0.16686908  0.16716490  0.16556124  1
  Sn  Sn33  1  0.49933615  0.16758865  0.83483260  1
  Sn  Sn34  1  0.83347829  0.49970053  0.16689388  1
  Sn  Sn35  1  0.83425854  0.83263042  0.49978971  1
  Sn  Sn36  1  0.16743245  0.49919620  0.83348925  1
  Sn  Sn37  1  0.16692563  0.83248514  0.49979099  1
  Sn  Sn38  1  0.83304864  0.16760291  0.50009376  1
  Sn  Sn39  1  0.49992186  0.49934762  0.16546326  1
  Sn  Sn40  1  0.16673502  0.16732660  0.83467227  1
  Pb  Pb41  1  0.83355881  0.82969695  0.16903205  1
  Pb  Pb42  1  0.49926499  0.83329122  0.49988254  1
  Pb  Pb43  1  0.83358039  0.83320538  0.83068401  1
  Pb  Pb44  1  0.16536347  0.16715034  0.49982321  1
  Pb  Pb45  1  0.49966014  0.83357796  0.83363039  1
  Pb  Pb46  1  0.83339638  0.49992438  0.83355808  1
  Pb  Pb47  1  0.16676003  0.83367728  0.83090010  1
  Pb  Pb48  1  0.50267775  0.16689428  0.49972422  1
  Pb  Pb49  1  0.83355637  0.16687162  0.83134717  1
  Pb  Pb50  1  0.83356911  0.16875023  0.16839498  1
  Pb  Pb51  1  0.16682568  0.83375718  0.16910793  1
  Pb  Pb52  1  0.49974001  0.83361705  0.16650987  1
  Pb  Pb53  1  0.49946760  0.49982359  0.50020609  1
  I  I54  1  0.17254549  0.00372608  0.16406642  1
  I  I55  1  0.16078988  -0.00174661  0.50006607  1
  I  I56  1  0.17161071  0.00368349  0.83534658  1
  I  I57  1  0.16727081  0.33475538  0.16951376  1
  I  I58  1  0.16164812  0.33655863  0.49977337  1
  I  I59  1  0.17041481  0.33448596  0.83052448  1
  I  I60  1  0.16684521  0.66278293  0.16454920  1
  I  I61  1  0.15844829  0.66447248  0.50015699  1
  I  I62  1  0.17008764  0.66293519  0.83583844  1
  I  I63  1  0.49461532  0.00399588  0.16391336  1
  I  I64  1  0.50022830  0.00027757  0.50042111  1
  I  I65  1  0.49513791  0.00391363  0.83535922  1
  I  I66  1  0.49948520  0.33442715  0.16342647  1
  I  I67  1  0.50168109  0.33348464  0.50029304  1
  I  I68  1  0.49602226  0.33385291  0.83645206  1
  I  I69  1  0.49942873  0.66250521  0.16403942  1
  I  I70  1  0.50465849  0.66618013  0.50024126  1
  I  I71  1  0.49630460  0.66294052  0.83660480  1
  I  I72  1  0.83224372  0.00008183  0.16921045  1
  I  I73  1  0.83803095  -0.00043723  0.50176421  1
  I  I74  1  0.83285507  0.00028545  0.83087221  1
  I  I75  1  0.83383675  0.33684936  0.17478495  1
  I  I76  1  0.83787611  0.33500621  0.49641458  1
  I  I77  1  0.83349743  0.33360191  0.82689488  1
  I  I78  1  0.83373008  0.66131200  0.17238033  1
  I  I79  1  0.83811088  0.66555069  0.49598018  1
  I  I80  1  0.83254079  0.66607763  0.83180199  1
  I  I81  1  0.17036002  0.17616725  0.00023335  1
  I  I82  1  0.17004323  0.17031578  0.33057327  1
  I  I83  1  0.16975931  0.16973942  0.66913901  1
  I  I84  1  0.16639316  0.49509079  0.00039195  1
  I  I85  1  0.16587820  0.49986502  0.33290595  1
  I  I86  1  0.16596066  0.49979192  0.66673636  1
  I  I87  1  0.16769047  0.83026624  0.00000346  1
  I  I88  1  0.16111913  0.82875821  0.33713081  1
  I  I89  1  0.16064947  0.82874513  0.66288502  1
  I  I90  1  0.49606449  0.17282435  0.00022364  1
  I  I91  1  0.49549446  0.17175917  0.32980165  1
  I  I92  1  0.49602283  0.17091495  0.66993391  1
  I  I93  1  0.49782314  0.49592639  0.00051312  1
  I  I94  1  0.49832214  0.49592718  0.33013900  1
  I  I95  1  0.49733235  0.49580152  0.66981655  1
  I  I96  1  0.50022665  0.83140437  0.00003197  1
  I  I97  1  0.50073077  0.83344113  0.33325121  1
  I  I98  1  0.50195860  0.83311303  0.66673499  1
  I  I99  1  0.83328540  0.16888630  0.00021591  1
  I  I100  1  0.83435227  0.16520829  0.33653180  1
  I  I101  1  0.83450521  0.16923558  0.66294434  1
  I  I102  1  0.83574472  0.49741505  0.00314608  1
  I  I103  1  0.83621650  0.50007489  0.33419888  1
  I  I104  1  0.83662853  0.50143890  0.66328764  1
  I  I105  1  0.83180487  0.83309461  0.00042791  1
  I  I106  1  0.83804054  0.83632010  0.33726754  1
  I  I107  1  0.83754185  0.82952073  0.66188332  1
  I  I108  1  0.00313897  0.17177011  0.16438270  1
  I  I109  1  -0.00260849  0.16713257  0.49979523  1
  I  I110  1  0.00362180  0.17251495  0.83566943  1
  I  I111  1  0.00120233  0.49581653  0.16896392  1
  I  I112  1  0.00034232  0.50081353  0.49721643  1
  I  I113  1  0.00351632  0.49576943  0.83422816  1
  I  I114  1  0.00013614  0.83531198  0.16498111  1
  I  I115  1  -0.00030958  0.83188030  0.50024064  1
  I  I116  1  0.00046045  0.83321787  0.83506237  1
  I  I117  1  0.33294215  0.17480668  0.16545748  1
  I  I118  1  0.33329581  0.16584044  0.50009572  1
  I  I119  1  0.33288099  0.17130382  0.83470011  1
  I  I120  1  0.33270185  0.49667641  0.16804688  1
  I  I121  1  0.32978296  0.50477624  0.49760304  1
  I  I122  1  0.33247465  0.49654579  0.83440515  1
  I  I123  1  0.33312651  0.82805510  0.17180114  1
  I  I124  1  0.32972582  0.82684732  0.50015859  1
  I  I125  1  0.33308054  0.83240954  0.82778457  1
  I  I126  1  0.66379990  0.17162053  0.16425616  1
  I  I127  1  0.67075123  0.16713790  0.49993743  1
  I  I128  1  0.66323299  0.17205635  0.83562277  1
  I  I129  1  0.66609404  0.49602522  0.16865972  1
  I  I130  1  0.66970829  0.50143551  0.49680117  1
  I  I131  1  0.66349748  0.49542476  0.83530421  1
  I  I132  1  0.66679250  0.83389666  0.17073071  1
  I  I133  1  0.67012707  0.83204426  0.49994792  1
  I  I134  1  0.66649638  0.83259051  0.82938449  1
