# generated using pymatgen
data_Cs27Sn13Pb14I81
_symmetry_space_group_name_H-M   'P 1'
_cell_length_a   18.98500734
_cell_length_b   18.97253009
_cell_length_c   18.97553461
_cell_angle_alpha   89.99972815
_cell_angle_beta   90.00001982
_cell_angle_gamma   90.00075220
_symmetry_Int_Tables_number   1
_chemical_formula_structural   Cs27Sn13Pb14I81
_chemical_formula_sum   'Cs27 Sn13 Pb14 I81'
_cell_volume   6834.86655931
_cell_formula_units_Z   1
loop_
 _symmetry_equiv_pos_site_id
 _symmetry_equiv_pos_as_xyz
  1  'x, y, z'
loop_
 _atom_site_type_symbol
 _atom_site_label
 _atom_site_symmetry_multiplicity
 _atom_site_fract_x
 _atom_site_fract_y
 _atom_site_fract_z
 _atom_site_occupancy
  Cs  Cs0  1  -0.00106769  -0.00050517  -0.00221748  1
  Cs  Cs1  1  0.00135752  0.00148691  0.33154877  1
  Cs  Cs2  1  -0.00098100  -0.00123931  0.67401585  1
  Cs  Cs3  1  -0.00036723  0.33906123  -0.00679512  1
  Cs  Cs4  1  0.00160638  0.33232543  0.33330138  1
  Cs  Cs5  1  -0.00029656  0.33107390  0.67150198  1
  Cs  Cs6  1  0.00044422  0.66213568  -0.00568351  1
  Cs  Cs7  1  0.00067080  0.66522428  0.33318495  1
  Cs  Cs8  1  -0.00709792  0.67035613  0.67170630  1
  Cs  Cs9  1  0.33601615  -0.00040421  0.00195703  1
  Cs  Cs10  1  0.33292207  0.00057162  0.33254021  1
  Cs  Cs11  1  0.33364232  0.00027521  0.66688926  1
  Cs  Cs12  1  0.33333033  0.33949602  -0.00137164  1
  Cs  Cs13  1  0.33108577  0.33101398  0.33369452  1
  Cs  Cs14  1  0.33296275  0.33314597  0.66684037  1
  Cs  Cs15  1  0.33276861  0.66225842  -0.00143304  1
  Cs  Cs16  1  0.33237756  0.66735724  0.33447616  1
  Cs  Cs17  1  0.33503108  0.66493819  0.66624214  1
  Cs  Cs18  1  0.66418563  0.00043440  0.00316384  1
  Cs  Cs19  1  0.66657205  0.00046240  0.33143011  1
  Cs  Cs20  1  0.66673356  -0.00195754  0.66701305  1
  Cs  Cs21  1  0.66650128  0.33809045  -0.00133051  1
  Cs  Cs22  1  0.66860921  0.33304495  0.33294385  1
  Cs  Cs23  1  0.66761501  0.33742319  0.66846059  1
  Cs  Cs24  1  0.66530866  0.65977885  0.00037476  1
  Cs  Cs25  1  0.66889035  0.66161047  0.34106883  1
  Cs  Cs26  1  0.67282070  0.66171663  0.65816474  1
  Sn  Sn27  1  0.16666445  0.83383952  0.49955910  1
  Sn  Sn28  1  0.83368665  0.16592283  0.49943837  1
  Sn  Sn29  1  0.83372265  0.16607078  0.16715459  1
  Sn  Sn30  1  0.50020591  0.83389013  0.83381082  1
  Sn  Sn31  1  0.50027292  0.16616165  0.50000297  1
  Sn  Sn32  1  0.16640930  0.16604827  0.16674770  1
  Sn  Sn33  1  0.16645491  0.83418365  0.16714701  1
  Sn  Sn34  1  0.50026436  0.83358016  0.16619444  1
  Sn  Sn35  1  0.16621421  0.16598674  0.49955254  1
  Sn  Sn36  1  0.16649961  0.50011604  0.49994846  1
  Sn  Sn37  1  0.49986029  0.16636829  0.16650853  1
  Sn  Sn38  1  0.83325180  0.83378007  0.16674684  1
  Sn  Sn39  1  0.49982708  0.16564215  0.83372889  1
  Pb  Pb40  1  0.49839922  0.83515322  0.49942557  1
  Pb  Pb41  1  0.49784972  0.49686352  0.49962997  1
  Pb  Pb42  1  0.83310586  0.50010332  0.83324121  1
  Pb  Pb43  1  0.83645077  0.49683123  0.49961275  1
  Pb  Pb44  1  0.16897667  0.83366490  0.83408051  1
  Pb  Pb45  1  0.83032987  0.16636755  0.83411718  1
  Pb  Pb46  1  0.83360159  0.49979494  0.16695662  1
  Pb  Pb47  1  0.16666619  0.50007223  0.16828706  1
  Pb  Pb48  1  0.49984206  0.50038957  0.16715208  1
  Pb  Pb49  1  0.16689458  0.50019974  0.82980623  1
  Pb  Pb50  1  0.16909093  0.16645064  0.83410229  1
  Pb  Pb51  1  0.83608148  0.83592034  0.49770448  1
  Pb  Pb52  1  0.49993723  0.50069660  0.83310339  1
  Pb  Pb53  1  0.82974648  0.83371934  0.83660884  1
  I  I54  1  0.16805214  0.00057821  0.17457065  1
  I  I55  1  0.16826061  0.00129500  0.49486407  1
  I  I56  1  0.16561814  0.00013297  0.82736459  1
  I  I57  1  0.16789709  0.32951913  0.17122867  1
  I  I58  1  0.16773664  0.33104996  0.49571958  1
  I  I59  1  0.16955143  0.33303300  0.83422728  1
  I  I60  1  0.16782625  0.67045407  0.17107809  1
  I  I61  1  0.16902536  0.66772704  0.49427943  1
  I  I62  1  0.17038782  0.66699626  0.83452480  1
  I  I63  1  0.49935264  0.00115182  0.16625943  1
  I  I64  1  0.49704622  0.00396289  0.49940652  1
  I  I65  1  0.49882051  0.00104209  0.83497204  1
  I  I66  1  0.49957356  0.32886984  0.16637712  1
  I  I67  1  0.49796385  0.32779685  0.49935283  1
  I  I68  1  0.49962865  0.32987701  0.83383031  1
  I  I69  1  0.49858834  0.67080968  0.16061549  1
  I  I70  1  0.49746030  0.66691389  0.50047631  1
  I  I71  1  0.49781268  0.67034749  0.84097866  1
  I  I72  1  0.83281991  0.00114597  0.17072524  1
  I  I73  1  0.83403923  0.00416566  0.49752670  1
  I  I74  1  0.83606816  0.00011770  0.83005911  1
  I  I75  1  0.83244312  0.32896803  0.17093354  1
  I  I76  1  0.83335345  0.32835565  0.49312965  1
  I  I77  1  0.83116094  0.33265767  0.83488974  1
  I  I78  1  0.83331745  0.67030826  0.16557303  1
  I  I79  1  0.83401265  0.66693426  0.49905604  1
  I  I80  1  0.83151895  0.66725936  0.83456144  1
  I  I81  1  0.16634738  0.16076826  0.00401636  1
  I  I82  1  0.17069258  0.16652948  0.33364793  1
  I  I83  1  0.16687116  0.16693176  0.66310577  1
  I  I84  1  0.16672142  0.49935712  -0.00005866  1
  I  I85  1  0.16725147  0.49802944  0.33628004  1
  I  I86  1  0.16871672  0.49674943  0.66164638  1
  I  I87  1  0.16519110  0.83974838  0.00411929  1
  I  I88  1  0.16971141  0.83474775  0.33244048  1
  I  I89  1  0.16928777  0.83484317  0.66351901  1
  I  I90  1  0.49985486  0.16218153  0.00139401  1
  I  I91  1  0.49910843  0.16360578  0.33273150  1
  I  I92  1  0.49828598  0.16313728  0.66610374  1
  I  I93  1  0.49917620  0.49524611  0.00009804  1
  I  I94  1  0.49986202  0.50058815  0.33345597  1
  I  I95  1  0.49786210  0.49949570  0.66643047  1
  I  I96  1  0.49780391  0.84279129  0.00172303  1
  I  I97  1  0.50019591  0.83828254  0.32980639  1
  I  I98  1  0.49558826  0.83955934  0.66859302  1
  I  I99  1  0.83394782  0.16252886  0.00402079  1
  I  I100  1  0.82965914  0.16380792  0.33265092  1
  I  I101  1  0.83493161  0.16833736  0.66367469  1
  I  I102  1  0.83398169  0.49731176  0.00035003  1
  I  I103  1  0.83250577  0.50130134  0.33346497  1
  I  I104  1  0.83380007  0.49857617  0.66605381  1
  I  I105  1  0.83962256  0.84180778  0.00495137  1
  I  I106  1  0.82752106  0.83616173  0.32946164  1
  I  I107  1  0.83414356  0.83380401  0.66653408  1
  I  I108  1  0.00048514  0.16036716  0.17604338  1
  I  I109  1  0.00104235  0.16772754  0.49193590  1
  I  I110  1  -0.00011396  0.16853665  0.83258334  1
  I  I111  1  0.00017508  0.49915347  0.16792127  1
  I  I112  1  0.00415979  0.49791174  0.49749723  1
  I  I113  1  0.00020196  0.49923949  0.83405061  1
  I  I114  1  0.00070278  0.84058641  0.17358079  1
  I  I115  1  0.00433458  0.83523471  0.49453178  1
  I  I116  1  -0.00020925  0.83152251  0.83314753  1
  I  I117  1  0.33341732  0.16124540  0.17031412  1
  I  I118  1  0.33277924  0.16714062  0.49752182  1
  I  I119  1  0.33716364  0.16281103  0.83254825  1
  I  I120  1  0.33321415  0.49871338  0.16753649  1
  I  I121  1  0.32989070  0.49764301  0.49882134  1
  I  I122  1  0.33352051  0.49896875  0.83352736  1
  I  I123  1  0.33329976  0.83975337  0.16717244  1
  I  I124  1  0.33009824  0.83629797  0.49495053  1
  I  I125  1  0.33675015  0.83875099  0.83854628  1
  I  I126  1  0.66611684  0.16102879  0.17009192  1
  I  I127  1  0.66622542  0.16584857  0.49643548  1
  I  I128  1  0.66222147  0.16255635  0.83298846  1
  I  I129  1  0.66668258  0.49899792  0.16646230  1
  I  I130  1  0.66702847  0.49963682  0.50117016  1
  I  I131  1  0.66618164  0.49833118  0.83314886  1
  I  I132  1  0.66603362  0.84200261  0.16086818  1
  I  I133  1  0.66679845  0.83470680  0.49999912  1
  I  I134  1  0.66187289  0.84059476  0.83775378  1
