# generated using pymatgen
data_Cs27Sn14Pb13I81
_symmetry_space_group_name_H-M   'P 1'
_cell_length_a   18.98252578
_cell_length_b   18.97257229
_cell_length_c   18.96855334
_cell_angle_alpha   89.99882491
_cell_angle_beta   90.00115325
_cell_angle_gamma   90.00111925
_symmetry_Int_Tables_number   1
_chemical_formula_structural   Cs27Sn14Pb13I81
_chemical_formula_sum   'Cs27 Sn14 Pb13 I81'
_cell_volume   6831.47407392
_cell_formula_units_Z   1
loop_
 _symmetry_equiv_pos_site_id
 _symmetry_equiv_pos_as_xyz
  1  'x, y, z'
loop_
 _atom_site_type_symbol
 _atom_site_label
 _atom_site_symmetry_multiplicity
 _atom_site_fract_x
 _atom_site_fract_y
 _atom_site_fract_z
 _atom_site_occupancy
  Cs  Cs0  1  -0.00027797  -0.00164629  0.00122532  1
  Cs  Cs1  1  0.00024711  0.00167778  0.33232319  1
  Cs  Cs2  1  -0.00295132  -0.00111215  0.66549373  1
  Cs  Cs3  1  0.00112112  0.33551030  0.00111472  1
  Cs  Cs4  1  -0.00115123  0.32985092  0.33177751  1
  Cs  Cs5  1  -0.00280711  0.34401072  0.66629457  1
  Cs  Cs6  1  -0.00190555  0.66696958  -0.00009545  1
  Cs  Cs7  1  0.00375718  0.66807051  0.33148586  1
  Cs  Cs8  1  0.00138402  0.66111781  0.66582247  1
  Cs  Cs9  1  0.33113706  0.00303920  -0.00283580  1
  Cs  Cs10  1  0.33199087  0.00101003  0.33547033  1
  Cs  Cs11  1  0.33415158  0.00023685  0.66793801  1
  Cs  Cs12  1  0.33236054  0.33073076  -0.00058213  1
  Cs  Cs13  1  0.33488202  0.33196812  0.33097128  1
  Cs  Cs14  1  0.33033367  0.33182873  0.67168906  1
  Cs  Cs15  1  0.33585666  0.66672182  0.00068663  1
  Cs  Cs16  1  0.34012837  0.66557599  0.34189355  1
  Cs  Cs17  1  0.33275450  0.66745144  0.65820295  1
  Cs  Cs18  1  0.66834168  -0.00197614  -0.00101029  1
  Cs  Cs19  1  0.66795419  0.00017142  0.33309653  1
  Cs  Cs20  1  0.66952227  0.00064356  0.66898437  1
  Cs  Cs21  1  0.66601464  0.33310014  0.00008156  1
  Cs  Cs22  1  0.66649883  0.33271781  0.33598225  1
  Cs  Cs23  1  0.67175648  0.33493929  0.66383296  1
  Cs  Cs24  1  0.66516217  0.66817681  0.00020020  1
  Cs  Cs25  1  0.65420183  0.66845626  0.33058718  1
  Cs  Cs26  1  0.66691291  0.66450789  0.66845164  1
  Sn  Sn27  1  0.49914548  0.16638922  0.49967160  1
  Sn  Sn28  1  0.16710999  0.83300885  0.16634091  1
  Sn  Sn29  1  0.16638738  0.50027354  0.16657762  1
  Sn  Sn30  1  0.83349733  0.49963709  0.16689983  1
  Sn  Sn31  1  0.50014433  0.16621169  0.16716083  1
  Sn  Sn32  1  0.16703025  0.16667310  0.49994955  1
  Sn  Sn33  1  0.16666140  0.16656690  0.16711423  1
  Sn  Sn34  1  0.16648705  0.83336055  0.83368666  1
  Sn  Sn35  1  0.83329111  0.16733337  0.16559868  1
  Sn  Sn36  1  0.83381692  0.83379864  0.83232912  1
  Sn  Sn37  1  0.83337478  0.83288599  0.50026373  1
  Sn  Sn38  1  0.49978778  0.83242870  0.83342551  1
  Sn  Sn39  1  0.83396077  0.16653880  0.83407464  1
  Sn  Sn40  1  0.49982520  0.50069307  0.83344150  1
  Pb  Pb41  1  0.16502670  0.83524915  0.50001660  1
  Pb  Pb42  1  0.16368322  0.16517254  0.83313561  1
  Pb  Pb43  1  0.83477771  0.83314974  0.16652631  1
  Pb  Pb44  1  0.83193227  0.50057091  0.83548411  1
  Pb  Pb45  1  0.49686697  0.83611266  0.16466237  1
  Pb  Pb46  1  0.49975720  0.49774753  0.16523100  1
  Pb  Pb47  1  0.83317111  0.50367977  0.49606522  1
  Pb  Pb48  1  0.16885569  0.50310961  0.83564457  1
  Pb  Pb49  1  0.16658595  0.49678406  0.49696011  1
  Pb  Pb50  1  0.83370881  0.16571713  0.49976252  1
  Pb  Pb51  1  0.50210588  0.16644054  0.83317890  1
  Pb  Pb52  1  0.50229658  0.83585364  0.50270233  1
  Pb  Pb53  1  0.49993894  0.49679230  0.50296091  1
  I  I54  1  0.16595513  0.00095432  0.16613272  1
  I  I55  1  0.16924758  0.00311378  0.49310888  1
  I  I56  1  0.17104834  -0.00297967  0.83954686  1
  I  I57  1  0.16566620  0.33211952  0.17132961  1
  I  I58  1  0.16906986  0.32854241  0.49543720  1
  I  I59  1  0.16792187  0.33338583  0.83359920  1
  I  I60  1  0.15888683  0.66692262  0.15939352  1
  I  I61  1  0.16510757  0.66676515  0.49912419  1
  I  I62  1  0.16051955  0.67127164  0.83903789  1
  I  I63  1  0.50226902  0.00427244  0.16743055  1
  I  I64  1  0.49645206  0.00354989  0.49725042  1
  I  I65  1  0.49935678  -0.00248614  0.83391413  1
  I  I66  1  0.49621359  0.32954074  0.16634191  1
  I  I67  1  0.49806255  0.32887796  0.49704531  1
  I  I68  1  0.50226974  0.33481026  0.83447374  1
  I  I69  1  0.50096878  0.66691813  0.16637919  1
  I  I70  1  0.50136974  0.66690755  0.49845578  1
  I  I71  1  0.50309721  0.66806284  0.83601818  1
  I  I72  1  0.83420972  0.00279100  0.16553014  1
  I  I73  1  0.83340632  -0.00207236  0.50056853  1
  I  I74  1  0.83047090  -0.00067696  0.83602429  1
  I  I75  1  0.83801890  0.33129885  0.16103888  1
  I  I76  1  0.83314267  0.33335804  0.50329665  1
  I  I77  1  0.83034757  0.33096555  0.83572412  1
  I  I78  1  0.83937836  0.66448000  0.16602563  1
  I  I79  1  0.83529099  0.67118180  0.50838252  1
  I  I80  1  0.83466005  0.67000657  0.83155017  1
  I  I81  1  0.16937186  0.16765623  0.00326971  1
  I  I82  1  0.16507819  0.16425919  0.33104891  1
  I  I83  1  0.17161659  0.16227746  0.66440335  1
  I  I84  1  0.16324846  0.49344618  0.00374360  1
  I  I85  1  0.16330541  0.50540150  0.32849119  1
  I  I86  1  0.16761940  0.49922285  0.66678825  1
  I  I87  1  0.16413149  0.83689637  0.00027751  1
  I  I88  1  0.16229848  0.83352282  0.33037985  1
  I  I89  1  0.16824834  0.83686970  0.66960017  1
  I  I90  1  0.49733986  0.16670622  0.00249611  1
  I  I91  1  0.50131189  0.16708813  0.33207017  1
  I  I92  1  0.49649860  0.16563157  0.66451363  1
  I  I93  1  0.50072995  0.50197134  -0.00246710  1
  I  I94  1  0.50026051  0.50104970  0.33318873  1
  I  I95  1  0.50150410  0.50324148  0.67070172  1
  I  I96  1  0.50624298  0.83273762  -0.00337332  1
  I  I97  1  0.50110985  0.83234541  0.33331787  1
  I  I98  1  0.49498261  0.83268475  0.67084995  1
  I  I99  1  0.83265573  0.16359632  0.00118083  1
  I  I100  1  0.83376319  0.16795308  0.33013167  1
  I  I101  1  0.83152136  0.16237331  0.66900225  1
  I  I102  1  0.83706516  0.49930098  0.00332686  1
  I  I103  1  0.83747191  0.49206115  0.32835482  1
  I  I104  1  0.83148326  0.49628545  0.66674208  1
  I  I105  1  0.83193323  0.83519455  -0.00272266  1
  I  I106  1  0.83710572  0.83558371  0.33498802  1
  I  I107  1  0.83422987  0.84150963  0.66891708  1
  I  I108  1  0.00039758  0.16664220  0.16709205  1
  I  I109  1  0.00227355  0.16329631  0.49506618  1
  I  I110  1  -0.00404073  0.16040114  0.83777497  1
  I  I111  1  0.00043897  0.49455801  0.16510086  1
  I  I112  1  -0.00016435  0.49714299  0.50418371  1
  I  I113  1  0.00012786  0.49967005  0.83287235  1
  I  I114  1  0.00281423  0.83823739  0.16159188  1
  I  I115  1  -0.00259534  0.83791866  0.50518926  1
  I  I116  1  -0.00047087  0.84008748  0.83466299  1
  I  I117  1  0.33247879  0.16640282  0.17070200  1
  I  I118  1  0.33303267  0.16551613  0.49157425  1
  I  I119  1  0.33318861  0.16555114  0.83542923  1
  I  I120  1  0.33054826  0.49813696  0.16361386  1
  I  I121  1  0.33328707  0.50366054  0.49795058  1
  I  I122  1  0.33649241  0.50230602  0.83663800  1
  I  I123  1  0.32876333  0.83355083  0.16116883  1
  I  I124  1  0.33344238  0.83338139  0.50062596  1
  I  I125  1  0.33306746  0.83054286  0.84005798  1
  I  I126  1  0.66744843  0.17120963  0.16616926  1
  I  I127  1  0.66481153  0.16462422  0.49715042  1
  I  I128  1  0.66976523  0.16095347  0.83756216  1
  I  I129  1  0.66902905  0.49518562  0.16455149  1
  I  I130  1  0.66666522  0.49672432  0.49773331  1
  I  I131  1  0.66432107  0.50449921  0.83709236  1
  I  I132  1  0.66645828  0.83347573  0.16618870  1
  I  I133  1  0.66993773  0.83710488  0.50388294  1
  I  I134  1  0.66734244  0.83454327  0.82904579  1
