# generated using pymatgen
data_Cs27Sn13Pb14I81
_symmetry_space_group_name_H-M   'P 1'
_cell_length_a   18.97928776
_cell_length_b   18.97839612
_cell_length_c   18.97057846
_cell_angle_alpha   89.99930720
_cell_angle_beta   89.99836733
_cell_angle_gamma   89.99874179
_symmetry_Int_Tables_number   1
_chemical_formula_structural   Cs27Sn13Pb14I81
_chemical_formula_sum   'Cs27 Sn13 Pb14 I81'
_cell_volume   6833.13484531
_cell_formula_units_Z   1
loop_
 _symmetry_equiv_pos_site_id
 _symmetry_equiv_pos_as_xyz
  1  'x, y, z'
loop_
 _atom_site_type_symbol
 _atom_site_label
 _atom_site_symmetry_multiplicity
 _atom_site_fract_x
 _atom_site_fract_y
 _atom_site_fract_z
 _atom_site_occupancy
  Cs  Cs0  1  -0.00338147  0.00297255  0.00050555  1
  Cs  Cs1  1  -0.00025839  -0.00207925  0.33534222  1
  Cs  Cs2  1  0.00159535  0.00023929  0.66446055  1
  Cs  Cs3  1  0.00053672  0.33121707  -0.00006977  1
  Cs  Cs4  1  -0.00235993  0.33185201  0.33043533  1
  Cs  Cs5  1  -0.00054661  0.33748051  0.66890259  1
  Cs  Cs6  1  -0.00030505  0.66887154  0.00320180  1
  Cs  Cs7  1  0.00266169  0.66979731  0.33096734  1
  Cs  Cs8  1  0.00081321  0.66153031  0.66690080  1
  Cs  Cs9  1  0.33620790  0.00234602  -0.00243242  1
  Cs  Cs10  1  0.32961376  0.00081125  0.33960678  1
  Cs  Cs11  1  0.33217664  0.00014314  0.66474786  1
  Cs  Cs12  1  0.33203113  0.33336118  -0.00034205  1
  Cs  Cs13  1  0.33811757  0.33348614  0.33372620  1
  Cs  Cs14  1  0.33337725  0.33312697  0.66738171  1
  Cs  Cs15  1  0.33502585  0.66561429  0.00317929  1
  Cs  Cs16  1  0.33226791  0.66523539  0.32421620  1
  Cs  Cs17  1  0.33098746  0.66656574  0.66929698  1
  Cs  Cs18  1  0.66657014  -0.00387531  -0.00126018  1
  Cs  Cs19  1  0.66871755  0.00056114  0.33443365  1
  Cs  Cs20  1  0.66667344  -0.00277288  0.66632598  1
  Cs  Cs21  1  0.66791940  0.33039013  0.00023485  1
  Cs  Cs22  1  0.66658611  0.33463820  0.33479032  1
  Cs  Cs23  1  0.66827566  0.33764792  0.66494270  1
  Cs  Cs24  1  0.66487786  0.67917265  -0.00030535  1
  Cs  Cs25  1  0.66400715  0.66459252  0.33471506  1
  Cs  Cs26  1  0.66893448  0.66657416  0.66538828  1
  Sn  Sn27  1  0.49998358  0.83313231  0.49989187  1
  Sn  Sn28  1  0.16643746  0.83348795  0.83364173  1
  Sn  Sn29  1  0.16730597  0.16654856  0.83390482  1
  Sn  Sn30  1  0.83273865  0.83375651  0.50008148  1
  Sn  Sn31  1  0.83289877  0.49963854  0.16601552  1
  Sn  Sn32  1  0.16698572  0.16672849  0.16631197  1
  Sn  Sn33  1  0.49983582  0.49939423  0.83350169  1
  Sn  Sn34  1  0.50003694  0.16662766  0.16632951  1
  Sn  Sn35  1  0.83343599  0.16644523  0.49975113  1
  Sn  Sn36  1  0.49955356  0.16766613  0.83361083  1
  Sn  Sn37  1  0.16750451  0.50003950  0.83301165  1
  Sn  Sn38  1  0.16708843  0.49961203  0.49966715  1
  Sn  Sn39  1  0.83303808  0.16742620  0.16755884  1
  Pb  Pb40  1  0.83303763  0.50015262  0.83629056  1
  Pb  Pb41  1  0.49973727  0.83653829  0.16940573  1
  Pb  Pb42  1  0.49764080  0.50231294  0.50205706  1
  Pb  Pb43  1  0.83513675  0.50009616  0.49794929  1
  Pb  Pb44  1  0.83326227  0.83386142  0.16900809  1
  Pb  Pb45  1  0.83294834  0.16668678  0.83330180  1
  Pb  Pb46  1  0.16684051  0.83663345  0.16379597  1
  Pb  Pb47  1  0.16657589  0.83097305  0.50161846  1
  Pb  Pb48  1  0.50251975  0.49790055  0.16384078  1
  Pb  Pb49  1  0.83613695  0.83327312  0.83049826  1
  Pb  Pb50  1  0.16534591  0.49777560  0.16588239  1
  Pb  Pb51  1  0.49810344  0.83360798  0.83162517  1
  Pb  Pb52  1  0.16459930  0.16868741  0.50047370  1
  Pb  Pb53  1  0.50216885  0.16562812  0.50075291  1
  I  I54  1  0.16335047  0.00505560  0.16327157  1
  I  I55  1  0.16684870  0.00015005  0.50094821  1
  I  I56  1  0.17007702  0.00156607  0.83715564  1
  I  I57  1  0.16685311  0.32957385  0.16120342  1
  I  I58  1  0.16454365  0.33610223  0.50644263  1
  I  I59  1  0.17025606  0.33289551  0.83341829  1
  I  I60  1  0.16311315  0.66647145  0.16674628  1
  I  I61  1  0.16405405  0.66338329  0.50668735  1
  I  I62  1  0.16942837  0.66551824  0.82656378  1
  I  I63  1  0.50329716  0.00493091  0.15852576  1
  I  I64  1  0.50105698  -0.00223112  0.50177442  1
  I  I65  1  0.49593901  0.00322325  0.83617149  1
  I  I66  1  0.49786599  0.32941169  0.16630502  1
  I  I67  1  0.50075679  0.33336829  0.49888626  1
  I  I68  1  0.49164220  0.33226519  0.83602119  1
  I  I69  1  0.50247118  0.66656890  0.16572207  1
  I  I70  1  0.50766743  0.66992192  0.50317208  1
  I  I71  1  0.49555644  0.66421011  0.83082947  1
  I  I72  1  0.83407612  0.00377538  0.16845247  1
  I  I73  1  0.83160195  0.00075208  0.49464262  1
  I  I74  1  0.83372662  0.00022409  0.83691491  1
  I  I75  1  0.83413228  0.33094931  0.17221442  1
  I  I76  1  0.83526489  0.33085255  0.49734359  1
  I  I77  1  0.83740327  0.33323670  0.82874735  1
  I  I78  1  0.83556164  0.66426232  0.16690523  1
  I  I79  1  0.83115663  0.66912073  0.49961286  1
  I  I80  1  0.83329923  0.66659728  0.83388637  1
  I  I81  1  0.16464096  0.16844178  -0.00083204  1
  I  I82  1  0.16821897  0.16902561  0.33079776  1
  I  I83  1  0.16998632  0.16525697  0.67000156  1
  I  I84  1  0.16899551  0.50081786  -0.00348142  1
  I  I85  1  0.16316296  0.49921367  0.33508003  1
  I  I86  1  0.16794995  0.49796829  0.66854482  1
  I  I87  1  0.16778577  0.82729477  -0.00430309  1
  I  I88  1  0.16609165  0.83276530  0.33347204  1
  I  I89  1  0.16659803  0.83857294  0.66966080  1
  I  I90  1  0.50044434  0.16992743  -0.00042065  1
  I  I91  1  0.49782695  0.16416138  0.33068398  1
  I  I92  1  0.49534387  0.16822464  0.66988287  1
  I  I93  1  0.49180889  0.49877205  -0.00403741  1
  I  I94  1  0.49871495  0.49972232  0.33312074  1
  I  I95  1  0.49861753  0.49264517  0.67021176  1
  I  I96  1  0.49900793  0.83189230  -0.00020745  1
  I  I97  1  0.50379865  0.83442926  0.33715765  1
  I  I98  1  0.50397234  0.83622411  0.66402937  1
  I  I99  1  0.83475105  0.17117713  0.00305945  1
  I  I100  1  0.83393981  0.16657114  0.33228046  1
  I  I101  1  0.83412994  0.16224257  0.66399461  1
  I  I102  1  0.83646741  0.49042157  0.00375662  1
  I  I103  1  0.83600832  0.49655455  0.33031392  1
  I  I104  1  0.83319617  0.49942329  0.66672334  1
  I  I105  1  0.83428243  0.83365868  0.00006591  1
  I  I106  1  0.83167395  0.83585237  0.33688302  1
  I  I107  1  0.82956578  0.83970870  0.66265097  1
  I  I108  1  -0.00012410  0.17042605  0.16562825  1
  I  I109  1  -0.00322050  0.16103240  0.49585867  1
  I  I110  1  0.00321885  0.16756294  0.83609903  1
  I  I111  1  -0.00241343  0.49284822  0.16557777  1
  I  I112  1  0.00284258  0.50078106  0.50752999  1
  I  I113  1  0.00341898  0.49855829  0.83006486  1
  I  I114  1  0.00006342  0.83522225  0.16857859  1
  I  I115  1  -0.00246141  0.83677119  0.50108695  1
  I  I116  1  0.00428618  0.83399495  0.83168148  1
  I  I117  1  0.33323479  0.16590314  0.16082147  1
  I  I118  1  0.33328442  0.16483027  0.49708838  1
  I  I119  1  0.33257430  0.16729643  0.84039478  1
  I  I120  1  0.33347518  0.49894055  0.16901881  1
  I  I121  1  0.32981971  0.50019359  0.50201212  1
  I  I122  1  0.33206618  0.49841933  0.82929895  1
  I  I123  1  0.33325853  0.83275379  0.17092858  1
  I  I124  1  0.33531435  0.83400001  0.50282975  1
  I  I125  1  0.33028383  0.83445559  0.82908243  1
  I  I126  1  0.66692938  0.17068957  0.16659653  1
  I  I127  1  0.67009896  0.16559826  0.49610587  1
  I  I128  1  0.66336373  0.17105784  0.83601493  1
  I  I129  1  0.67001695  0.49241304  0.16785854  1
  I  I130  1  0.66665892  0.49909273  0.50115104  1
  I  I131  1  0.66352860  0.49312432  0.83393606  1
  I  I132  1  0.66659645  0.83531474  0.16332217  1
  I  I133  1  0.66744652  0.83805802  0.50087136  1
  I  I134  1  0.66643788  0.83340889  0.83383756  1
