# generated using pymatgen
data_Cs27Sn14Pb13I81
_symmetry_space_group_name_H-M   'P 1'
_cell_length_a   18.97498736
_cell_length_b   18.97498735
_cell_length_c   18.98104950
_cell_angle_alpha   89.99941177
_cell_angle_beta   90.00058829
_cell_angle_gamma   89.99941679
_symmetry_Int_Tables_number   1
_chemical_formula_structural   Cs27Sn14Pb13I81
_chemical_formula_sum   'Cs27 Sn14 Pb13 I81'
_cell_volume   6834.12962563
_cell_formula_units_Z   1
loop_
 _symmetry_equiv_pos_site_id
 _symmetry_equiv_pos_as_xyz
  1  'x, y, z'
loop_
 _atom_site_type_symbol
 _atom_site_label
 _atom_site_symmetry_multiplicity
 _atom_site_fract_x
 _atom_site_fract_y
 _atom_site_fract_z
 _atom_site_occupancy
  Cs  Cs0  1  -0.00035920  -0.00112739  0.00254238  1
  Cs  Cs1  1  -0.00046942  -0.00267038  0.33198413  1
  Cs  Cs2  1  0.00151986  0.00010790  0.66295015  1
  Cs  Cs3  1  0.00090408  0.33342752  -0.00218781  1
  Cs  Cs4  1  -0.00280921  0.33448832  0.33442917  1
  Cs  Cs5  1  0.00269330  0.33336804  0.66793763  1
  Cs  Cs6  1  -0.00068393  0.66733417  0.00061365  1
  Cs  Cs7  1  0.00088149  0.66754810  0.33333332  1
  Cs  Cs8  1  0.00066741  0.66598268  0.66605286  1
  Cs  Cs9  1  0.33311734  0.00182269  0.00215236  1
  Cs  Cs10  1  0.34032695  0.00699375  0.33333327  1
  Cs  Cs11  1  0.33515630  -0.00021591  0.66451438  1
  Cs  Cs12  1  0.33441822  0.32916263  -0.00167766  1
  Cs  Cs13  1  0.33500486  0.33075511  0.33000886  1
  Cs  Cs14  1  0.33221649  0.33386821  0.67014150  1
  Cs  Cs15  1  0.33344128  0.66818638  0.00371651  1
  Cs  Cs16  1  0.33066291  0.66619732  0.33468256  1
  Cs  Cs17  1  0.33220601  0.66630747  0.66412412  1
  Cs  Cs18  1  0.66720152  -0.00111691  -0.00347494  1
  Cs  Cs19  1  0.66408876  0.00167175  0.33665784  1
  Cs  Cs20  1  0.66249582  0.00108493  0.66834425  1
  Cs  Cs21  1  0.66644414  0.33291535  -0.00086828  1
  Cs  Cs22  1  0.66791822  0.33458484  0.33333320  1
  Cs  Cs23  1  0.66624863  0.33311094  0.66753486  1
  Cs  Cs24  1  0.66670145  0.66936003  -0.00127091  1
  Cs  Cs25  1  0.66782169  0.66385748  0.33223733  1
  Cs  Cs26  1  0.66676093  0.66757072  0.66885440  1
  Sn  Sn27  1  0.83364204  0.83318498  0.16755479  1
  Sn  Sn28  1  0.16604274  0.83282416  0.49935744  1
  Sn  Sn29  1  0.16615749  0.83270937  0.16730924  1
  Sn  Sn30  1  0.50009328  0.49995231  0.83294758  1
  Sn  Sn31  1  0.83377505  0.83237609  0.49935262  1
  Sn  Sn32  1  0.83428098  0.50017856  0.16697694  1
  Sn  Sn33  1  0.16570943  0.50044174  0.16731404  1
  Sn  Sn34  1  0.83351191  0.50094757  0.49968975  1
  Sn  Sn35  1  0.16651842  0.83318506  0.83333329  1
  Sn  Sn36  1  0.50082957  0.16749626  0.83333335  1
  Sn  Sn37  1  0.49995795  0.50017295  0.50078756  1
  Sn  Sn38  1  0.83350630  0.16662459  0.16587910  1
  Sn  Sn39  1  0.16651836  0.50030871  0.49911188  1
  Sn  Sn40  1  0.83328564  0.16675992  0.83371908  1
  Pb  Pb41  1  0.50028035  0.83086750  0.49977112  1
  Pb  Pb42  1  0.49728626  0.83316338  0.83329356  1
  Pb  Pb43  1  0.83183826  0.49850490  0.83333332  1
  Pb  Pb44  1  0.16649675  0.16395294  0.83337316  1
  Pb  Pb45  1  0.50323950  0.16673815  0.16430033  1
  Pb  Pb46  1  0.16871518  0.50183106  0.83390469  1
  Pb  Pb47  1  0.16653312  0.16681251  0.49967175  1
  Pb  Pb48  1  0.16420078  0.16694698  0.16689548  1
  Pb  Pb49  1  0.50007152  0.16990612  0.50236628  1
  Pb  Pb50  1  0.83516437  0.83538193  0.83276196  1
  Pb  Pb51  1  0.50014588  0.83319981  0.16699493  1
  Pb  Pb52  1  0.49979722  0.50014533  0.16668560  1
  Pb  Pb53  1  0.83347866  0.16646391  0.49998112  1
  I  I54  1  0.16236125  -0.00352672  0.16622561  1
  I  I55  1  0.16035489  -0.00402867  0.50022710  1
  I  I56  1  0.16759453  -0.00410946  0.83359363  1
  I  I57  1  0.16321995  0.33692476  0.17165759  1
  I  I58  1  0.16533819  0.33768267  0.49609470  1
  I  I59  1  0.16603292  0.33346292  0.83290544  1
  I  I60  1  0.15942548  0.66678186  0.16665141  1
  I  I61  1  0.16634014  0.66636948  0.49976398  1
  I  I62  1  0.16748288  0.66969764  0.83315934  1
  I  I63  1  0.49825395  0.00013287  0.16387644  1
  I  I64  1  0.49974855  -0.00000884  0.50170111  1
  I  I65  1  0.50388378  0.00281121  0.83511370  1
  I  I66  1  0.49917329  0.33361453  0.16889405  1
  I  I67  1  0.50094021  0.33821873  0.50071339  1
  I  I68  1  0.50331683  0.33362126  0.82872310  1
  I  I69  1  0.50509004  0.66628536  0.16191526  1
  I  I70  1  0.50011777  0.66269377  0.50735783  1
  I  I71  1  0.49903534  0.66374172  0.82907295  1
  I  I72  1  0.83781620  -0.00110979  0.16605506  1
  I  I73  1  0.83956999  -0.00334679  0.49713923  1
  I  I74  1  0.82736891  0.00325678  0.83758243  1
  I  I75  1  0.83646029  0.33458355  0.16724636  1
  I  I76  1  0.83350161  0.33682545  0.49681441  1
  I  I77  1  0.83196895  0.33048382  0.83728944  1
  I  I78  1  0.83711531  0.66649644  0.17141209  1
  I  I79  1  0.83384132  0.66594396  0.49305013  1
  I  I80  1  0.83138700  0.66674519  0.83581654  1
  I  I81  1  0.16865431  0.16690526  0.00007497  1
  I  I82  1  0.16539513  0.16295524  0.33315047  1
  I  I83  1  0.16382143  0.16638933  0.66680043  1
  I  I84  1  0.16269856  0.50445507  0.00310422  1
  I  I85  1  0.16765170  0.50751792  0.33374529  1
  I  I86  1  0.16426169  0.50405740  0.66369979  1
  I  I87  1  0.16309171  0.82964559  0.00160654  1
  I  I88  1  0.16055244  0.82721903  0.33333333  1
  I  I89  1  0.16297847  0.82975811  0.66506016  1
  I  I90  1  0.50056203  0.17473573  -0.00357673  1
  I  I91  1  0.49981128  0.16647789  0.33333332  1
  I  I92  1  0.50806929  0.16722889  0.67024339  1
  I  I93  1  0.49992602  0.49531248  -0.00262570  1
  I  I94  1  0.50046436  0.50236069  0.33631141  1
  I  I95  1  0.49995864  0.49607255  0.66580942  1
  I  I96  1  0.49972280  0.83048824  -0.00013376  1
  I  I97  1  0.49628832  0.83206150  0.33351623  1
  I  I98  1  0.50023864  0.83532098  0.66659165  1
  I  I99  1  0.82940614  0.16662533  0.00085729  1
  I  I100  1  0.83569371  0.16713103  0.33035528  1
  I  I101  1  0.82864575  0.16659270  0.66929236  1
  I  I102  1  0.83637386  0.50235461  0.00323878  1
  I  I103  1  0.83137936  0.49804608  0.33333334  1
  I  I104  1  0.83568791  0.50304046  0.66342788  1
  I  I105  1  0.83739046  0.83092827  0.00296690  1
  I  I106  1  0.84085129  0.83431828  0.33292134  1
  I  I107  1  0.83778861  0.82936538  0.66356243  1
  I  I108  1  -0.00397291  0.16678458  0.15930920  1
  I  I109  1  -0.00038134  0.17175640  0.50475122  1
  I  I110  1  -0.00292492  0.16570205  0.83759365  1
  I  I111  1  -0.00072276  0.50050787  0.17361675  1
  I  I112  1  -0.00017026  0.50378203  0.49525456  1
  I  I113  1  0.00007854  0.49805391  0.83084997  1
  I  I114  1  -0.00029714  0.83300690  0.16690255  1
  I  I115  1  0.00011521  0.82609233  0.50001511  1
  I  I116  1  0.00303098  0.83414936  0.83350789  1
  I  I117  1  0.33332451  0.16641548  0.16496574  1
  I  I118  1  0.33346623  0.16492109  0.50279032  1
  I  I119  1  0.33614454  0.17055060  0.83155262  1
  I  I120  1  0.32998650  0.50623677  0.16952721  1
  I  I121  1  0.33222355  0.50448273  0.50061167  1
  I  I122  1  0.33659012  0.49403538  0.82908441  1
  I  I123  1  0.32930465  0.82702128  0.16643950  1
  I  I124  1  0.32980663  0.82902767  0.50044129  1
  I  I125  1  0.32922386  0.83426140  0.83307294  1
  I  I126  1  0.67155207  0.16760656  0.16595318  1
  I  I127  1  0.66694787  0.16583963  0.49777265  1
  I  I128  1  0.66695458  0.16998336  0.83794384  1
  I  I129  1  0.67015873  0.50016828  0.16985227  1
  I  I130  1  0.66791685  0.50312717  0.49942042  1
  I  I131  1  0.66381711  0.49863549  0.82937727  1
  I  I132  1  0.67101602  0.83200509  0.17057213  1
  I  I133  1  0.67025811  0.82988658  0.49500901  1
  I  I134  1  0.66679627  0.83269979  0.83376116  1
