# generated using pymatgen
data_Cs27Sn13Pb14I81
_symmetry_space_group_name_H-M   'P 1'
_cell_length_a   18.98231062
_cell_length_b   18.97672619
_cell_length_c   18.97407801
_cell_angle_alpha   89.99954509
_cell_angle_beta   90.00011209
_cell_angle_gamma   89.99963448
_symmetry_Int_Tables_number   1
_chemical_formula_structural   Cs27Sn13Pb14I81
_chemical_formula_sum   'Cs27 Sn13 Pb14 I81'
_cell_volume   6834.88243472
_cell_formula_units_Z   1
loop_
 _symmetry_equiv_pos_site_id
 _symmetry_equiv_pos_as_xyz
  1  'x, y, z'
loop_
 _atom_site_type_symbol
 _atom_site_label
 _atom_site_symmetry_multiplicity
 _atom_site_fract_x
 _atom_site_fract_y
 _atom_site_fract_z
 _atom_site_occupancy
  Cs  Cs0  1  -0.00049975  -0.00195247  0.00084128  1
  Cs  Cs1  1  0.00035882  -0.00274772  0.33390742  1
  Cs  Cs2  1  -0.00215898  -0.00454356  0.66462227  1
  Cs  Cs3  1  -0.00052991  0.33338705  -0.00069555  1
  Cs  Cs4  1  0.00083389  0.33301172  0.33398131  1
  Cs  Cs5  1  0.00163728  0.33354099  0.66470083  1
  Cs  Cs6  1  -0.00712886  0.67210439  -0.00509636  1
  Cs  Cs7  1  -0.00321517  0.67220982  0.33367664  1
  Cs  Cs8  1  0.00208951  0.67478731  0.66847381  1
  Cs  Cs9  1  0.33253184  -0.00212404  0.00288094  1
  Cs  Cs10  1  0.33417576  0.00072309  0.33236164  1
  Cs  Cs11  1  0.33584715  0.00048591  0.66821143  1
  Cs  Cs12  1  0.33034383  0.33514228  0.00339140  1
  Cs  Cs13  1  0.33309034  0.33364397  0.33355034  1
  Cs  Cs14  1  0.33298265  0.33350774  0.66533804  1
  Cs  Cs15  1  0.33266596  0.66707435  -0.00625464  1
  Cs  Cs16  1  0.33556512  0.66448129  0.33348236  1
  Cs  Cs17  1  0.33234344  0.66623066  0.67307749  1
  Cs  Cs18  1  0.66691027  0.00113602  -0.00763684  1
  Cs  Cs19  1  0.66436214  0.00028613  0.33376492  1
  Cs  Cs20  1  0.66601584  0.00181103  0.67503960  1
  Cs  Cs21  1  0.67137525  0.33453110  -0.00374069  1
  Cs  Cs22  1  0.66647372  0.33446146  0.33388967  1
  Cs  Cs23  1  0.66641270  0.33039113  0.66909713  1
  Cs  Cs24  1  0.67267214  0.66515574  -0.00467957  1
  Cs  Cs25  1  0.66582410  0.66511936  0.33286318  1
  Cs  Cs26  1  0.66557101  0.66906082  0.66993036  1
  Sn  Sn27  1  0.16601449  0.16717169  0.49981274  1
  Sn  Sn28  1  0.16632676  0.16741361  0.16699188  1
  Sn  Sn29  1  0.16661072  0.49990181  0.16746381  1
  Sn  Sn30  1  0.49995508  0.50083072  0.49946461  1
  Sn  Sn31  1  0.16685674  0.16691824  0.83321229  1
  Sn  Sn32  1  0.16629746  0.49964649  0.49873515  1
  Sn  Sn33  1  0.50036562  0.16707805  0.16702689  1
  Sn  Sn34  1  0.49994771  0.83266007  0.16742553  1
  Sn  Sn35  1  0.49977681  0.83238519  0.49920342  1
  Sn  Sn36  1  0.83349077  0.16682816  0.16785845  1
  Sn  Sn37  1  0.83360961  0.49941270  0.49962884  1
  Sn  Sn38  1  0.49949398  0.50024325  0.16710318  1
  Sn  Sn39  1  0.83385312  0.16750697  0.49879347  1
  Pb  Pb40  1  0.83331361  0.83353298  0.83318579  1
  Pb  Pb41  1  0.83383433  0.49827409  0.16836839  1
  Pb  Pb42  1  0.83383669  0.49953002  0.82932336  1
  Pb  Pb43  1  0.50004489  0.16709339  0.49864840  1
  Pb  Pb44  1  0.16689594  0.83640404  0.83342070  1
  Pb  Pb45  1  0.83615403  0.16695726  0.83285430  1
  Pb  Pb46  1  0.83028580  0.83379594  0.49974620  1
  Pb  Pb47  1  0.16861545  0.83229921  0.16692409  1
  Pb  Pb48  1  0.49979344  0.83324638  0.83371441  1
  Pb  Pb49  1  0.16936585  0.83304297  0.49964851  1
  Pb  Pb50  1  0.83013805  0.83638378  0.16702498  1
  Pb  Pb51  1  0.49721043  0.16721009  0.83717044  1
  Pb  Pb52  1  0.16648885  0.49828808  0.83355374  1
  Pb  Pb53  1  0.49989417  0.49960056  0.83365150  1
  I  I54  1  0.16788868  0.00361050  0.16693331  1
  I  I55  1  0.16343928  0.00368392  0.49915944  1
  I  I56  1  0.16735718  0.00489181  0.83411551  1
  I  I57  1  0.17205892  0.33209072  0.16757863  1
  I  I58  1  0.16856613  0.33289379  0.49938252  1
  I  I59  1  0.16690318  0.33008563  0.83389034  1
  I  I60  1  0.17226327  0.66255446  0.17344854  1
  I  I61  1  0.16393431  0.66276972  0.49453781  1
  I  I62  1  0.16719300  0.66649454  0.83288066  1
  I  I63  1  0.49914111  0.00071810  0.17133161  1
  I  I64  1  0.49908882  -0.00157093  0.49481685  1
  I  I65  1  0.49921695  0.00027225  0.83162776  1
  I  I66  1  0.49772607  0.33353189  0.17137601  1
  I  I67  1  0.49955290  0.33633060  0.49583031  1
  I  I68  1  0.50057028  0.33321784  0.83095709  1
  I  I69  1  0.49408361  0.66537210  0.17263471  1
  I  I70  1  0.50036114  0.66510218  0.49165419  1
  I  I71  1  0.49901000  0.66650373  0.83639116  1
  I  I72  1  0.83604335  0.00508587  0.17297480  1
  I  I73  1  0.83800399  0.00370825  0.49648126  1
  I  I74  1  0.83323957  0.00075434  0.83129049  1
  I  I75  1  0.82919949  0.32980298  0.16887582  1
  I  I76  1  0.83216796  0.33273540  0.49579003  1
  I  I77  1  0.83203321  0.33290585  0.83583032  1
  I  I78  1  0.83376750  0.66650084  0.16780929  1
  I  I79  1  0.83605482  0.66341853  0.49972738  1
  I  I80  1  0.83356800  0.66643300  0.83348753  1
  I  I81  1  0.16826590  0.17011810  0.00202353  1
  I  I82  1  0.16656333  0.17044348  0.33301202  1
  I  I83  1  0.16254145  0.17073644  0.66484062  1
  I  I84  1  0.17449304  0.49406429  0.00389110  1
  I  I85  1  0.16962129  0.49067173  0.33382972  1
  I  I86  1  0.16815232  0.49518961  0.66284951  1
  I  I87  1  0.17052301  0.83384155  0.00033845  1
  I  I88  1  0.16565670  0.83973842  0.33334799  1
  I  I89  1  0.16982189  0.83322959  0.66630607  1
  I  I90  1  0.50124805  0.16592326  0.00583186  1
  I  I91  1  0.49597658  0.16632971  0.33019878  1
  I  I92  1  0.50013545  0.16545370  0.66659241  1
  I  I93  1  0.49398022  0.49968099  0.00435232  1
  I  I94  1  0.49884317  0.50024373  0.33332419  1
  I  I95  1  0.49893665  0.50474557  0.66259625  1
  I  I96  1  0.49872439  0.83503456  0.00379295  1
  I  I97  1  0.49949124  0.83299120  0.33273286  1
  I  I98  1  0.49986329  0.82856927  0.66341253  1
  I  I99  1  0.83244950  0.16584148  0.00325202  1
  I  I100  1  0.83756158  0.17011440  0.33358755  1
  I  I101  1  0.83676599  0.17033579  0.66285809  1
  I  I102  1  0.83230409  0.49873578  0.00028480  1
  I  I103  1  0.83212060  0.49689998  0.33672619  1
  I  I104  1  0.83221711  0.49190628  0.66068494  1
  I  I105  1  0.83097069  0.83483687  0.00045309  1
  I  I106  1  0.83506234  0.83328828  0.33343025  1
  I  I107  1  0.83041838  0.83556772  0.66594799  1
  I  I108  1  0.00117625  0.17185365  0.16666578  1
  I  I109  1  0.00089230  0.17407938  0.49599489  1
  I  I110  1  0.00372192  0.16806774  0.83810482  1
  I  I111  1  0.00323801  0.49271476  0.17097021  1
  I  I112  1  0.00097084  0.49254390  0.49612018  1
  I  I113  1  0.00027949  0.49819171  0.83573262  1
  I  I114  1  -0.00018886  0.83387864  0.16513768  1
  I  I115  1  -0.00003920  0.83154399  0.50203622  1
  I  I116  1  0.00022542  0.83331056  0.83286970  1
  I  I117  1  0.33291944  0.16659050  0.16686870  1
  I  I118  1  0.33041114  0.16882224  0.49916627  1
  I  I119  1  0.32949001  0.16728592  0.83028112  1
  I  I120  1  0.33361223  0.49395922  0.17442659  1
  I  I121  1  0.33311526  0.49864997  0.49596794  1
  I  I122  1  0.33319865  0.49879358  0.82912521  1
  I  I123  1  0.33691353  0.83940291  0.17120587  1
  I  I124  1  0.33716004  0.83131197  0.49481562  1
  I  I125  1  0.33353910  0.83414926  0.83296588  1
  I  I126  1  0.66642334  0.16626513  0.17322865  1
  I  I127  1  0.66904240  0.16946698  0.49439399  1
  I  I128  1  0.66679746  0.16500974  0.83280966  1
  I  I129  1  0.66368139  0.49875278  0.17139145  1
  I  I130  1  0.66598938  0.49943108  0.49519707  1
  I  I131  1  0.66676277  0.49952961  0.83480360  1
  I  I132  1  0.66182890  0.83192822  0.17247436  1
  I  I133  1  0.66247991  0.82977200  0.49432101  1
  I  I134  1  0.66619746  0.83569350  0.83267998  1
