# generated using pymatgen
data_Cs27Sn14Pb13I81
_symmetry_space_group_name_H-M   'P 1'
_cell_length_a   19.01652263
_cell_length_b   19.01652270
_cell_length_c   19.02726384
_cell_angle_alpha   90.00184514
_cell_angle_beta   89.99815489
_cell_angle_gamma   90.00145847
_symmetry_Int_Tables_number   1
_chemical_formula_structural   Cs27Sn14Pb13I81
_chemical_formula_sum   'Cs27 Sn14 Pb13 I81'
_cell_volume   6880.79391255
_cell_formula_units_Z   1
loop_
 _symmetry_equiv_pos_site_id
 _symmetry_equiv_pos_as_xyz
  1  'x, y, z'
loop_
 _atom_site_type_symbol
 _atom_site_label
 _atom_site_symmetry_multiplicity
 _atom_site_fract_x
 _atom_site_fract_y
 _atom_site_fract_z
 _atom_site_occupancy
  Cs  Cs0  1  -0.00517256  0.00063768  0.00457501  1
  Cs  Cs1  1  -0.00018791  0.00061894  0.33092550  1
  Cs  Cs2  1  -0.00009041  0.00091837  0.66591643  1
  Cs  Cs3  1  -0.00007467  0.33388409  -0.00019962  1
  Cs  Cs4  1  -0.00001358  0.33332787  0.33286393  1
  Cs  Cs5  1  -0.00026313  0.33472862  0.66647727  1
  Cs  Cs6  1  0.00108847  0.66557793  0.00180368  1
  Cs  Cs7  1  0.00080742  0.66585927  0.33734072  1
  Cs  Cs8  1  0.00216771  0.66449908  0.66157861  1
  Cs  Cs9  1  0.32971104  0.00371055  -0.00166149  1
  Cs  Cs10  1  0.34010917  0.00520753  0.33403563  1
  Cs  Cs11  1  0.33387336  -0.00030861  0.66677146  1
  Cs  Cs12  1  0.33453430  0.33213226  -0.00248356  1
  Cs  Cs13  1  0.33578281  0.33088358  0.32755343  1
  Cs  Cs14  1  0.33137038  0.33529626  0.67027541  1
  Cs  Cs15  1  0.33278247  0.66674138  -0.00019968  1
  Cs  Cs16  1  0.33333890  0.66668019  0.33286416  1
  Cs  Cs17  1  0.33193792  0.66692979  0.66647726  1
  Cs  Cs18  1  0.68261713  -0.01595027  0.00549247  1
  Cs  Cs19  1  0.65653026  0.01013562  0.33044956  1
  Cs  Cs20  1  0.66476283  0.00190351  0.66411724  1
  Cs  Cs21  1  0.66295604  0.33695553  -0.00166136  1
  Cs  Cs22  1  0.66145926  0.32655782  0.33403599  1
  Cs  Cs23  1  0.66697534  0.33279348  0.66677133  1
  Cs  Cs24  1  0.66602895  0.67183885  0.00457467  1
  Cs  Cs25  1  0.66604757  0.66685446  0.33092561  1
  Cs  Cs26  1  0.66574839  0.66675695  0.66591637  1
  Sn  Sn27  1  0.16629161  0.83335723  0.83328695  1
  Sn  Sn28  1  0.50098856  0.50035041  0.50109301  1
  Sn  Sn29  1  0.49993634  0.49975388  0.83212412  1
  Sn  Sn30  1  0.83433835  0.49974760  0.16709182  1
  Sn  Sn31  1  0.16691909  0.83232828  0.16709183  1
  Sn  Sn32  1  0.83365494  0.83301181  0.49993416  1
  Sn  Sn33  1  0.83330950  0.50037502  0.83328691  1
  Sn  Sn34  1  0.83180233  0.50064937  0.49975433  1
  Sn  Sn35  1  0.16601728  0.83486436  0.49975432  1
  Sn  Sn36  1  0.16691279  0.16673031  0.83212413  1
  Sn  Sn37  1  0.16648847  0.50017820  0.83430945  1
  Sn  Sn38  1  0.16578721  0.50087947  0.16551341  1
  Sn  Sn39  1  0.50013971  0.16652700  0.83372499  1
  Sn  Sn40  1  0.16631620  0.16567800  0.50109297  1
  Pb  Pb41  1  0.83624409  0.83042252  0.83048885  1
  Pb  Pb42  1  0.16688490  0.49978177  0.49957892  1
  Pb  Pb43  1  0.16660002  0.16684026  0.16609618  1
  Pb  Pb44  1  0.83309693  0.16861640  0.83335279  1
  Pb  Pb45  1  0.83596169  0.83070490  0.17026212  1
  Pb  Pb46  1  0.83327800  0.16975119  0.16655239  1
  Pb  Pb47  1  0.49703975  0.16962690  0.50273042  1
  Pb  Pb48  1  0.50003554  0.83110747  0.50016541  1
  Pb  Pb49  1  0.49691545  0.83338865  0.16655227  1
  Pb  Pb50  1  0.83555912  0.16663102  0.50016539  1
  Pb  Pb51  1  0.50008870  0.16657794  0.16169996  1
  Pb  Pb52  1  0.49982637  0.50006664  0.16609615  1
  Pb  Pb53  1  0.49805032  0.83356976  0.83335281  1
  I  I54  1  0.16751909  -0.00284568  0.16349022  1
  I  I55  1  0.15973234  -0.00126226  0.50426522  1
  I  I56  1  0.17455733  0.00012446  0.83182613  1
  I  I57  1  0.16270991  0.33651229  0.16413099  1
  I  I58  1  0.16712668  0.33157885  0.50449307  1
  I  I59  1  0.16689587  0.33452916  0.83260494  1
  I  I60  1  0.16253068  0.66551257  0.16281907  1
  I  I61  1  0.16622495  0.66866188  0.50283303  1
  I  I62  1  0.16618987  0.66568915  0.83337641  1
  I  I63  1  0.49708574  0.00024330  0.16856552  1
  I  I64  1  0.50331535  0.00027944  0.50049905  1
  I  I65  1  0.48943506  0.00321198  0.83273689  1
  I  I66  1  0.49644744  0.33384768  0.17179259  1
  I  I67  1  0.50634051  0.33719560  0.50121505  1
  I  I68  1  0.49287756  0.33533958  0.82875743  1
  I  I69  1  0.50151591  0.66608375  0.16346799  1
  I  I70  1  0.49731259  0.66309975  0.50856026  1
  I  I71  1  0.49856211  0.66312116  0.82955126  1
  I  I72  1  0.83473920  -0.00078206  0.16649246  1
  I  I73  1  0.83954956  -0.00316361  0.50166870  1
  I  I74  1  0.83221307  -0.00042140  0.83175068  1
  I  I75  1  0.84383369  0.33877374  0.16953605  1
  I  I76  1  0.83111487  0.33711583  0.50044231  1
  I  I77  1  0.84068126  0.33776819  0.82973321  1
  I  I78  1  0.83552724  0.66292170  0.16220074  1
  I  I79  1  0.83849000  0.66489310  0.50129260  1
  I  I80  1  0.83242934  0.66201207  0.83617509  1
  I  I81  1  0.17211328  0.16568302  -0.00344779  1
  I  I82  1  0.16444185  0.16477035  0.33582277  1
  I  I83  1  0.16988666  0.16476732  0.66782917  1
  I  I84  1  0.16381100  0.50285571  -0.00146268  1
  I  I85  1  0.16361644  0.50305016  0.33100911  1
  I  I86  1  0.16488453  0.50178206  0.66950724  1
  I  I87  1  0.16986884  0.83103289  -0.00052837  1
  I  I88  1  0.16089089  0.83061356  0.33386977  1
  I  I89  1  0.16315606  0.83222528  0.66667819  1
  I  I90  1  0.48620450  0.18046244  -0.00536217  1
  I  I91  1  0.49857377  0.16809284  0.33337031  1
  I  I92  1  0.49662156  0.17004477  0.67004265  1
  I  I93  1  0.50098343  0.49455347  -0.00344780  1
  I  I94  1  0.50189640  0.50222441  0.33582278  1
  I  I95  1  0.50189980  0.49678024  0.66782915  1
  I  I96  1  0.49952383  0.82966966  -0.00028354  1
  I  I97  1  0.49600048  0.82891450  0.33366917  1
  I  I98  1  0.49599024  0.83387530  0.66672187  1
  I  I99  1  0.83699660  0.16714227  -0.00028358  1
  I  I100  1  0.83775296  0.17066663  0.33366919  1
  I  I101  1  0.83279146  0.17067677  0.66672188  1
  I  I102  1  0.83563399  0.49679855  -0.00052837  1
  I  I103  1  0.83605301  0.50577508  0.33386981  1
  I  I104  1  0.83444102  0.50351064  0.66667820  1
  I  I105  1  0.83281561  0.83385095  0.00022156  1
  I  I106  1  0.84348342  0.82318372  0.33732785  1
  I  I107  1  0.84144069  0.82522562  0.66331809  1
  I  I108  1  0.00058295  0.16515115  0.16346735  1
  I  I109  1  0.00356691  0.16935446  0.50856066  1
  I  I110  1  0.00354551  0.16810480  0.82955129  1
  I  I111  1  0.00115410  0.50413548  0.16281909  1
  I  I112  1  -0.00199524  0.50044193  0.50283314  1
  I  I113  1  0.00097747  0.50047682  0.83337634  1
  I  I114  1  0.00374500  0.83113987  0.16220011  1
  I  I115  1  0.00177354  0.82817600  0.50129297  1
  I  I116  1  0.00465467  0.83423730  0.83617519  1
  I  I117  1  0.33281899  0.17021934  0.17179273  1
  I  I118  1  0.32947106  0.16032623  0.50121472  1
  I  I119  1  0.33132712  0.17378916  0.82875764  1
  I  I120  1  0.33015437  0.50395719  0.16413106  1
  I  I121  1  0.33508781  0.49954021  0.50449330  1
  I  I122  1  0.33213749  0.49977090  0.83260464  1
  I  I123  1  0.32789289  0.82283262  0.16953672  1
  I  I124  1  0.32955084  0.83555163  0.50044214  1
  I  I125  1  0.32889851  0.82598538  0.82973282  1
  I  I126  1  0.66642335  0.16958049  0.16856571  1
  I  I127  1  0.66638725  0.16335104  0.50049894  1
  I  I128  1  0.66345466  0.17723163  0.83273667  1
  I  I129  1  0.66951233  0.49914788  0.16348990  1
  I  I130  1  0.66792893  0.50693403  0.50426499  1
  I  I131  1  0.66654214  0.49210946  0.83182658  1
  I  I132  1  0.66744874  0.83192778  0.16649250  1
  I  I133  1  0.66983026  0.82711798  0.50166839  1
  I  I134  1  0.66708807  0.83445371  0.83175087  1
