# generated using pymatgen
data_Cs27Sn14Pb13I81
_symmetry_space_group_name_H-M   'P 1'
_cell_length_a   18.96958931
_cell_length_b   18.97593812
_cell_length_c   18.98025944
_cell_angle_alpha   89.99943802
_cell_angle_beta   89.99980951
_cell_angle_gamma   90.00176559
_symmetry_Int_Tables_number   1
_chemical_formula_structural   Cs27Sn14Pb13I81
_chemical_formula_sum   'Cs27 Sn14 Pb13 I81'
_cell_volume   6832.24337653
_cell_formula_units_Z   1
loop_
 _symmetry_equiv_pos_site_id
 _symmetry_equiv_pos_as_xyz
  1  'x, y, z'
loop_
 _atom_site_type_symbol
 _atom_site_label
 _atom_site_symmetry_multiplicity
 _atom_site_fract_x
 _atom_site_fract_y
 _atom_site_fract_z
 _atom_site_occupancy
  Cs  Cs0  1  -0.00177578  -0.00149616  0.00205727  1
  Cs  Cs1  1  -0.00138983  -0.00323339  0.32994800  1
  Cs  Cs2  1  -0.00036426  0.00249945  0.66671738  1
  Cs  Cs3  1  0.00122546  0.33447734  -0.00207564  1
  Cs  Cs4  1  0.00125059  0.34190866  0.33649196  1
  Cs  Cs5  1  -0.00208652  0.33217210  0.66719220  1
  Cs  Cs6  1  -0.00490465  0.66680230  0.01077200  1
  Cs  Cs7  1  0.00890278  0.66156982  0.32522896  1
  Cs  Cs8  1  0.00361650  0.66446158  0.66369868  1
  Cs  Cs9  1  0.33005510  0.00199857  -0.00176595  1
  Cs  Cs10  1  0.33322297  0.00249844  0.33183432  1
  Cs  Cs11  1  0.33273298  -0.00086579  0.66859442  1
  Cs  Cs12  1  0.33393698  0.33063129  -0.00044852  1
  Cs  Cs13  1  0.33430207  0.33272002  0.32944493  1
  Cs  Cs14  1  0.33399936  0.33172406  0.66876215  1
  Cs  Cs15  1  0.33515542  0.66854556  -0.00452329  1
  Cs  Cs16  1  0.33207644  0.66487636  0.33643138  1
  Cs  Cs17  1  0.33293391  0.66934836  0.66642964  1
  Cs  Cs18  1  0.66771962  0.00041094  -0.00024637  1
  Cs  Cs19  1  0.66676561  -0.00114154  0.33506777  1
  Cs  Cs20  1  0.66698246  -0.00023399  0.66602638  1
  Cs  Cs21  1  0.66569135  0.33284251  -0.00191320  1
  Cs  Cs22  1  0.66442097  0.33151589  0.33844096  1
  Cs  Cs23  1  0.66806127  0.33260130  0.66677461  1
  Cs  Cs24  1  0.66815922  0.66669321  0.00179893  1
  Cs  Cs25  1  0.66520002  0.67003205  0.33042969  1
  Cs  Cs26  1  0.66469070  0.66766292  0.66773660  1
  Sn  Sn27  1  0.16674154  0.16720988  0.83249665  1
  Sn  Sn28  1  0.83332017  0.83280342  0.50062380  1
  Sn  Sn29  1  0.83318283  0.16741874  0.16644067  1
  Sn  Sn30  1  0.50023449  0.50077479  0.16635715  1
  Sn  Sn31  1  0.50055595  0.83352294  0.49926960  1
  Sn  Sn32  1  0.49908169  0.16643533  0.50106012  1
  Sn  Sn33  1  0.83323230  0.16582855  0.83428065  1
  Sn  Sn34  1  0.49932174  0.49919487  0.83323821  1
  Sn  Sn35  1  0.16736139  0.16634571  0.50042261  1
  Sn  Sn36  1  0.16741263  0.49970181  0.83332852  1
  Sn  Sn37  1  0.83346365  0.83360710  0.83214163  1
  Sn  Sn38  1  0.50006864  0.16707562  0.83257704  1
  Sn  Sn39  1  0.50024598  0.49992936  0.50036199  1
  Sn  Sn40  1  0.49987572  0.83308190  0.16729035  1
  Pb  Pb41  1  0.50140667  0.16657714  0.16667587  1
  Pb  Pb42  1  0.16312957  0.83303576  0.83335133  1
  Pb  Pb43  1  0.83059369  0.49697192  0.16679957  1
  Pb  Pb44  1  0.83122308  0.50374473  0.49997627  1
  Pb  Pb45  1  0.83144702  0.83484759  0.16712265  1
  Pb  Pb46  1  0.17034070  0.83345873  0.16667693  1
  Pb  Pb47  1  0.16368454  0.16686414  0.16677155  1
  Pb  Pb48  1  0.16986637  0.49970021  0.16346166  1
  Pb  Pb49  1  0.16685757  0.83569123  0.50008040  1
  Pb  Pb50  1  0.83350973  0.16532610  0.50016728  1
  Pb  Pb51  1  0.83335262  0.50014061  0.83313839  1
  Pb  Pb52  1  0.50147080  0.83341572  0.83314125  1
  Pb  Pb53  1  0.16934416  0.49739961  0.50237923  1
  I  I54  1  0.16951746  0.00047750  0.16415571  1
  I  I55  1  0.17314013  0.00379772  0.50789548  1
  I  I56  1  0.17062568  0.00357874  0.82984867  1
  I  I57  1  0.16902644  0.33322058  0.16870107  1
  I  I58  1  0.17057547  0.32932221  0.50203255  1
  I  I59  1  0.16638354  0.33175980  0.82984569  1
  I  I60  1  0.16232311  0.66636010  0.16495020  1
  I  I61  1  0.16701692  0.66637177  0.50183334  1
  I  I62  1  0.17355867  0.66364097  0.83302092  1
  I  I63  1  0.50317948  -0.00208745  0.17042168  1
  I  I64  1  0.50075995  0.00041633  0.49983058  1
  I  I65  1  0.49824437  0.00307757  0.83091149  1
  I  I66  1  0.50185831  0.33573531  0.16833101  1
  I  I67  1  0.49600105  0.33272682  0.50003064  1
  I  I68  1  0.50173443  0.33250177  0.83131097  1
  I  I69  1  0.50139020  0.66639223  0.16902700  1
  I  I70  1  0.50576565  0.66677358  0.49989786  1
  I  I71  1  0.49720280  0.66400535  0.83147456  1
  I  I72  1  0.82950374  0.00258128  0.16406802  1
  I  I73  1  0.82584146  -0.00240755  0.50165291  1
  I  I74  1  0.83165079  0.00158792  0.83340835  1
  I  I75  1  0.83093454  0.32924319  0.15860198  1
  I  I76  1  0.83214460  0.33325529  0.50017790  1
  I  I77  1  0.83235832  0.32998657  0.83705667  1
  I  I78  1  0.83326596  0.66675172  0.16505683  1
  I  I79  1  0.82601756  0.67172692  0.50778463  1
  I  I80  1  0.83067007  0.66952666  0.82897774  1
  I  I81  1  0.17055544  0.17003015  -0.00376593  1
  I  I82  1  0.17212262  0.16460757  0.33642210  1
  I  I83  1  0.16616431  0.16982392  0.66803685  1
  I  I84  1  0.17209825  0.49205122  -0.00440418  1
  I  I85  1  0.16670660  0.49879799  0.33345159  1
  I  I86  1  0.17266452  0.49803294  0.67022518  1
  I  I87  1  0.16712904  0.83626834  -0.00033821  1
  I  I88  1  0.16113054  0.83623674  0.33361010  1
  I  I89  1  0.17177504  0.83180593  0.66681797  1
  I  I90  1  0.49839272  0.16922594  -0.00307730  1
  I  I91  1  0.49823002  0.16866713  0.33626610  1
  I  I92  1  0.50182791  0.16904199  0.66711065  1
  I  I93  1  0.49670092  0.49949836  -0.00100699  1
  I  I94  1  0.50281891  0.49977504  0.33401963  1
  I  I95  1  0.49690866  0.49932916  0.66705865  1
  I  I96  1  0.50255525  0.83016117  0.00178276  1
  I  I97  1  0.50626507  0.83154179  0.33483875  1
  I  I98  1  0.50249117  0.83190480  0.66396126  1
  I  I99  1  0.83162577  0.16067016  -0.00260631  1
  I  I100  1  0.83030597  0.16402953  0.33172175  1
  I  I101  1  0.83263450  0.16455370  0.66964503  1
  I  I102  1  0.83034765  0.50462327  -0.00025593  1
  I  I103  1  0.83137603  0.49738801  0.33339413  1
  I  I104  1  0.82995680  0.49549318  0.66673371  1
  I  I105  1  0.83179132  0.83630641  -0.00237781  1
  I  I106  1  0.82802763  0.83766564  0.33603684  1
  I  I107  1  0.82555768  0.84044173  0.66677313  1
  I  I108  1  -0.00404516  0.16333362  0.16180225  1
  I  I109  1  0.00229309  0.16389116  0.50418350  1
  I  I110  1  0.00012154  0.16697341  0.83261202  1
  I  I111  1  0.00017318  0.50003993  0.16537582  1
  I  I112  1  0.00049494  0.49912298  0.50193361  1
  I  I113  1  0.00273504  0.49523616  0.83190923  1
  I  I114  1  -0.00043291  0.83497503  0.16662615  1
  I  I115  1  -0.00295098  0.83827473  0.50630978  1
  I  I116  1  -0.00476009  0.83893263  0.82704145  1
  I  I117  1  0.33354971  0.16617595  0.16447805  1
  I  I118  1  0.33534326  0.16464511  0.50756335  1
  I  I119  1  0.33418926  0.17119165  0.82906569  1
  I  I120  1  0.33809981  0.50174554  0.16995579  1
  I  I121  1  0.33800003  0.50550731  0.49794131  1
  I  I122  1  0.33520308  0.49179606  0.83403892  1
  I  I123  1  0.33870377  0.83134058  0.17243810  1
  I  I124  1  0.33717433  0.83136962  0.49610766  1
  I  I125  1  0.33342339  0.83585524  0.83410932  1
  I  I126  1  0.66892185  0.16639706  0.16126380  1
  I  I127  1  0.66344559  0.16851269  0.50271519  1
  I  I128  1  0.66592333  0.16716000  0.83318897  1
  I  I129  1  0.66216887  0.50412554  0.16264536  1
  I  I130  1  0.66190097  0.49275633  0.50388798  1
  I  I131  1  0.66305796  0.49631371  0.83307581  1
  I  I132  1  0.66344687  0.82998697  0.16818072  1
  I  I133  1  0.66485260  0.83644915  0.50036571  1
  I  I134  1  0.66920961  0.83847180  0.83226986  1
