# generated using pymatgen
data_Cs27Sn13Pb14I81
_symmetry_space_group_name_H-M   'P 1'
_cell_length_a   18.96972001
_cell_length_b   18.97851636
_cell_length_c   18.98280795
_cell_angle_alpha   90.00089329
_cell_angle_beta   90.00000376
_cell_angle_gamma   89.99793218
_symmetry_Int_Tables_number   1
_chemical_formula_structural   Cs27Sn13Pb14I81
_chemical_formula_sum   'Cs27 Sn13 Pb14 I81'
_cell_volume   6834.13625237
_cell_formula_units_Z   1
loop_
 _symmetry_equiv_pos_site_id
 _symmetry_equiv_pos_as_xyz
  1  'x, y, z'
loop_
 _atom_site_type_symbol
 _atom_site_label
 _atom_site_symmetry_multiplicity
 _atom_site_fract_x
 _atom_site_fract_y
 _atom_site_fract_z
 _atom_site_occupancy
  Cs  Cs0  1  -0.00062871  0.00139950  0.00327929  1
  Cs  Cs1  1  0.00177253  0.00218470  0.32923842  1
  Cs  Cs2  1  -0.00107942  -0.00167284  0.66628373  1
  Cs  Cs3  1  0.00148381  0.33561270  -0.00203083  1
  Cs  Cs4  1  -0.00091296  0.33341611  0.33193105  1
  Cs  Cs5  1  0.00455786  0.33349517  0.67124921  1
  Cs  Cs6  1  -0.00345475  0.66302279  -0.00315033  1
  Cs  Cs7  1  0.00106849  0.66408315  0.33442191  1
  Cs  Cs8  1  -0.00215711  0.66809783  0.66792941  1
  Cs  Cs9  1  0.33319992  -0.00280541  0.00198192  1
  Cs  Cs10  1  0.33143386  -0.00312858  0.33320117  1
  Cs  Cs11  1  0.33271964  0.00108050  0.66562955  1
  Cs  Cs12  1  0.33542700  0.33501479  -0.00153103  1
  Cs  Cs13  1  0.33278336  0.33370121  0.33629489  1
  Cs  Cs14  1  0.33230206  0.33236910  0.66598817  1
  Cs  Cs15  1  0.33415227  0.66735949  0.00106170  1
  Cs  Cs16  1  0.33268538  0.66849732  0.33278809  1
  Cs  Cs17  1  0.33165831  0.66639787  0.66667661  1
  Cs  Cs18  1  0.66690071  0.00174370  -0.00070710  1
  Cs  Cs19  1  0.66610030  -0.00070019  0.33283876  1
  Cs  Cs20  1  0.66860633  -0.00039030  0.66708367  1
  Cs  Cs21  1  0.66515395  0.33078255  0.00184877  1
  Cs  Cs22  1  0.66763139  0.33457346  0.33220959  1
  Cs  Cs23  1  0.66367136  0.33136408  0.66351528  1
  Cs  Cs24  1  0.66669862  0.66594470  -0.00027021  1
  Cs  Cs25  1  0.66779219  0.66673546  0.34127791  1
  Cs  Cs26  1  0.67336189  0.66883735  0.66001831  1
  Sn  Sn27  1  0.83294869  0.83344341  0.16658113  1
  Sn  Sn28  1  0.50027063  0.16709680  0.16620194  1
  Sn  Sn29  1  0.83243658  0.16593171  0.16646897  1
  Sn  Sn30  1  0.49970300  0.83316113  0.83318405  1
  Sn  Sn31  1  0.83274821  0.16677220  0.83349243  1
  Sn  Sn32  1  0.50057156  0.16653874  0.83416444  1
  Sn  Sn33  1  0.83344271  0.16683569  0.49988636  1
  Sn  Sn34  1  0.16673446  0.83290432  0.50054840  1
  Sn  Sn35  1  0.50026529  0.50022217  0.83363412  1
  Sn  Sn36  1  0.16689669  0.50056247  0.49942294  1
  Sn  Sn37  1  0.16757585  0.49984531  0.16710265  1
  Sn  Sn38  1  0.16710331  0.83358153  0.83298052  1
  Sn  Sn39  1  0.49932094  0.49947444  0.16627451  1
  Pb  Pb40  1  0.16466762  0.83084342  0.16621250  1
  Pb  Pb41  1  0.83244882  0.49955531  0.16664711  1
  Pb  Pb42  1  0.16749703  0.16408541  0.83361907  1
  Pb  Pb43  1  0.82991082  0.49709960  0.83323624  1
  Pb  Pb44  1  0.50196409  0.83302362  0.16496774  1
  Pb  Pb45  1  0.49795314  0.50000755  0.49975279  1
  Pb  Pb46  1  0.49776169  0.83345468  0.50287218  1
  Pb  Pb47  1  0.16445839  0.16655717  0.49994511  1
  Pb  Pb48  1  0.16876638  0.50220662  0.83346060  1
  Pb  Pb49  1  0.16740576  0.16922043  0.16646863  1
  Pb  Pb50  1  0.50185235  0.16653004  0.49956292  1
  Pb  Pb51  1  0.83310330  0.83525769  0.83496289  1
  Pb  Pb52  1  0.83594935  0.83545914  0.49755296  1
  Pb  Pb53  1  0.83628676  0.49744399  0.50030506  1
  I  I54  1  0.16802709  -0.00020442  0.16788181  1
  I  I55  1  0.16535027  -0.00292300  0.50478213  1
  I  I56  1  0.17148272  -0.00376337  0.82738285  1
  I  I57  1  0.16566916  0.33716793  0.17216612  1
  I  I58  1  0.16555728  0.33619411  0.49567054  1
  I  I59  1  0.16616451  0.33351099  0.83230441  1
  I  I60  1  0.17152306  0.66317367  0.16787626  1
  I  I61  1  0.16723167  0.66665005  0.49972329  1
  I  I62  1  0.17165724  0.66999095  0.83279857  1
  I  I63  1  0.50331064  0.00286199  0.16216874  1
  I  I64  1  0.49685325  0.00004243  0.49941698  1
  I  I65  1  0.50017647  0.00083914  0.83705902  1
  I  I66  1  0.50192345  0.33284194  0.15875755  1
  I  I67  1  0.49721626  0.33324902  0.50477365  1
  I  I68  1  0.50459263  0.33274861  0.83782784  1
  I  I69  1  0.49708690  0.66377947  0.16159351  1
  I  I70  1  0.50264767  0.66668044  0.49914762  1
  I  I71  1  0.49297523  0.66655376  0.83866883  1
  I  I72  1  0.82930290  0.00202120  0.16635338  1
  I  I73  1  0.83523508  0.00335482  0.50221283  1
  I  I74  1  0.82806035  0.00346200  0.83222129  1
  I  I75  1  0.83242360  0.32982993  0.16660796  1
  I  I76  1  0.83399167  0.32931796  0.49657691  1
  I  I77  1  0.83054342  0.32860361  0.83716319  1
  I  I78  1  0.83467604  0.66882724  0.16557854  1
  I  I79  1  0.83205470  0.66688995  0.49792553  1
  I  I80  1  0.83294401  0.66686892  0.83567554  1
  I  I81  1  0.16088006  0.16623212  0.00002674  1
  I  I82  1  0.16616154  0.16273665  0.33316049  1
  I  I83  1  0.16618241  0.17109134  0.66683204  1
  I  I84  1  0.16838642  0.50044124  0.00240158  1
  I  I85  1  0.17175496  0.50521893  0.33296546  1
  I  I86  1  0.16726851  0.50161879  0.66448430  1
  I  I87  1  0.17001962  0.83331515  -0.00257557  1
  I  I88  1  0.16343844  0.83118253  0.33544219  1
  I  I89  1  0.17018348  0.82806852  0.66683374  1
  I  I90  1  0.50798426  0.16792823  -0.00033186  1
  I  I91  1  0.50422761  0.17219858  0.32965034  1
  I  I92  1  0.50366501  0.16753224  0.67021179  1
  I  I93  1  0.49384961  0.49836324  0.00038042  1
  I  I94  1  0.49837559  0.49395871  0.32986723  1
  I  I95  1  0.49850285  0.49771898  0.66992621  1
  I  I96  1  0.49364009  0.83412062  -0.00330233  1
  I  I97  1  0.49970469  0.83399033  0.33307993  1
  I  I98  1  0.49970054  0.83412391  0.67155705  1
  I  I99  1  0.82852161  0.16239765  0.00046141  1
  I  I100  1  0.83067278  0.16309256  0.33188917  1
  I  I101  1  0.82948253  0.16739586  0.66768489  1
  I  I102  1  0.84043677  0.49934830  0.00010327  1
  I  I103  1  0.82978372  0.49787535  0.33321852  1
  I  I104  1  0.83353881  0.49881967  0.66683375  1
  I  I105  1  0.83575339  0.83952225  0.00263107  1
  I  I106  1  0.83401182  0.83923890  0.32989724  1
  I  I107  1  0.83216962  0.83554089  0.66670087  1
  I  I108  1  -0.00314235  0.16379959  0.16623626  1
  I  I109  1  -0.00375751  0.16672896  0.49932480  1
  I  I110  1  -0.00290178  0.16462798  0.83404845  1
  I  I111  1  0.00236677  0.50041159  0.17138960  1
  I  I112  1  0.00427812  0.50366255  0.49333705  1
  I  I113  1  0.00017780  0.49978649  0.83392382  1
  I  I114  1  -0.00298945  0.83999680  0.16518003  1
  I  I115  1  0.00366880  0.82910869  0.50745817  1
  I  I116  1  0.00238674  0.83452199  0.83063418  1
  I  I117  1  0.33702453  0.16859204  0.16054754  1
  I  I118  1  0.33316665  0.16682536  0.50042246  1
  I  I119  1  0.33726170  0.16851183  0.83825736  1
  I  I120  1  0.33431385  0.49509031  0.16621807  1
  I  I121  1  0.32989053  0.50261819  0.49857497  1
  I  I122  1  0.33682847  0.49447833  0.83466533  1
  I  I123  1  0.33338512  0.83607041  0.16807900  1
  I  I124  1  0.32950775  0.83084678  0.49945767  1
  I  I125  1  0.33405251  0.83562529  0.83062410  1
  I  I126  1  0.66663896  0.16879761  0.16540564  1
  I  I127  1  0.67000505  0.16629075  0.50022306  1
  I  I128  1  0.66583928  0.16487650  0.83441004  1
  I  I129  1  0.66322180  0.49767691  0.16072620  1
  I  I130  1  0.66667484  0.49941175  0.49943335  1
  I  I131  1  0.66169157  0.50471165  0.84118994  1
  I  I132  1  0.66968790  0.83483242  0.16372336  1
  I  I133  1  0.66709945  0.83365128  0.50064171  1
  I  I134  1  0.66367721  0.83267625  0.83695676  1
