# generated using pymatgen
data_Cs27Sn13Pb14I81
_symmetry_space_group_name_H-M   'P 1'
_cell_length_a   18.98405832
_cell_length_b   18.99850958
_cell_length_c   18.99335371
_cell_angle_alpha   90.00082675
_cell_angle_beta   90.00102323
_cell_angle_gamma   89.99820798
_symmetry_Int_Tables_number   1
_chemical_formula_structural   Cs27Sn13Pb14I81
_chemical_formula_sum   'Cs27 Sn13 Pb14 I81'
_cell_volume   6850.31035103
_cell_formula_units_Z   1
loop_
 _symmetry_equiv_pos_site_id
 _symmetry_equiv_pos_as_xyz
  1  'x, y, z'
loop_
 _atom_site_type_symbol
 _atom_site_label
 _atom_site_symmetry_multiplicity
 _atom_site_fract_x
 _atom_site_fract_y
 _atom_site_fract_z
 _atom_site_occupancy
  Cs  Cs0  1  0.00021681  -0.00110816  0.00193259  1
  Cs  Cs1  1  0.00202304  0.00099733  0.33187227  1
  Cs  Cs2  1  -0.00663170  0.00038733  0.66517648  1
  Cs  Cs3  1  0.00103924  0.33391953  0.00255814  1
  Cs  Cs4  1  -0.00021560  0.33300412  0.33031409  1
  Cs  Cs5  1  0.00314870  0.33450841  0.66814534  1
  Cs  Cs6  1  -0.00102878  0.66664653  0.00186841  1
  Cs  Cs7  1  0.00031083  0.66585770  0.33019475  1
  Cs  Cs8  1  -0.00017192  0.66556935  0.66601655  1
  Cs  Cs9  1  0.33458646  -0.00027664  -0.00012376  1
  Cs  Cs10  1  0.33206096  -0.00151188  0.33312557  1
  Cs  Cs11  1  0.33297189  0.00125150  0.66829093  1
  Cs  Cs12  1  0.33476908  0.32943410  -0.00337264  1
  Cs  Cs13  1  0.33884719  0.33462760  0.33607215  1
  Cs  Cs14  1  0.33126942  0.33472390  0.66868544  1
  Cs  Cs15  1  0.33536803  0.66889293  -0.00187746  1
  Cs  Cs16  1  0.33879759  0.66672920  0.33640712  1
  Cs  Cs17  1  0.33246539  0.66397343  0.66799874  1
  Cs  Cs18  1  0.66487497  0.00235454  -0.00213596  1
  Cs  Cs19  1  0.65921733  0.00006291  0.34239655  1
  Cs  Cs20  1  0.67508780  0.00693479  0.65908907  1
  Cs  Cs21  1  0.66453755  0.33524172  0.00025081  1
  Cs  Cs22  1  0.66184380  0.33365891  0.33499072  1
  Cs  Cs23  1  0.66697553  0.32553035  0.66577600  1
  Cs  Cs24  1  0.66670191  0.66546540  -0.00156520  1
  Cs  Cs25  1  0.65954746  0.66680493  0.33535224  1
  Cs  Cs26  1  0.66794644  0.66944821  0.66976446  1
  Sn  Sn27  1  0.50001616  0.83323259  0.83305030  1
  Sn  Sn28  1  0.83374298  0.50020773  0.16706317  1
  Sn  Sn29  1  0.83328942  0.83350597  0.16689925  1
  Sn  Sn30  1  0.16617151  0.83374596  0.49986699  1
  Sn  Sn31  1  0.16615478  0.83297354  0.16684036  1
  Sn  Sn32  1  0.83356319  0.16637986  0.16678652  1
  Sn  Sn33  1  0.16620365  0.16621683  0.49905159  1
  Sn  Sn34  1  0.83365357  0.50027408  0.49956932  1
  Sn  Sn35  1  0.50091928  0.50067425  0.83351661  1
  Sn  Sn36  1  0.16681167  0.50019460  0.16660711  1
  Sn  Sn37  1  0.16618879  0.16668216  0.16754478  1
  Sn  Sn38  1  0.83271362  0.50002778  0.83334848  1
  Sn  Sn39  1  0.16683810  0.83324504  0.83328746  1
  Pb  Pb40  1  0.16511114  0.50005380  0.49742295  1
  Pb  Pb41  1  0.16635767  0.50207910  0.83578109  1
  Pb  Pb42  1  0.49648853  0.16665400  0.49996955  1
  Pb  Pb43  1  0.50010594  0.16609943  0.83327891  1
  Pb  Pb44  1  0.50005997  0.83338128  0.16477270  1
  Pb  Pb45  1  0.50011263  0.50009040  0.16461979  1
  Pb  Pb46  1  0.83371636  0.16958139  0.83607631  1
  Pb  Pb47  1  0.49729081  0.83330034  0.50354153  1
  Pb  Pb48  1  0.83596638  0.16904328  0.49699136  1
  Pb  Pb49  1  0.83343724  0.83190761  0.83520592  1
  Pb  Pb50  1  0.16637218  0.16359703  0.83368168  1
  Pb  Pb51  1  0.83569754  0.83136200  0.49694545  1
  Pb  Pb52  1  0.49973867  0.16649379  0.16674000  1
  Pb  Pb53  1  0.50307838  0.50013689  0.50342033  1
  I  I54  1  0.16079264  -0.00064159  0.16659800  1
  I  I55  1  0.16708629  -0.00070449  0.49427452  1
  I  I56  1  0.17332782  -0.00444916  0.83886962  1
  I  I57  1  0.15929263  0.33330002  0.17051952  1
  I  I58  1  0.16447793  0.33095995  0.49473690  1
  I  I59  1  0.16775538  0.33350200  0.83328541  1
  I  I60  1  0.15970715  0.66728588  0.16548205  1
  I  I61  1  0.16493352  0.66942307  0.49923543  1
  I  I62  1  0.16751420  0.66993259  0.83359146  1
  I  I63  1  0.50031270  -0.00010467  0.16194125  1
  I  I64  1  0.50395737  -0.00021362  0.50263730  1
  I  I65  1  0.49209606  -0.00355366  0.83634122  1
  I  I66  1  0.49882139  0.33343824  0.16271805  1
  I  I67  1  0.49746642  0.33362071  0.50206625  1
  I  I68  1  0.50488131  0.33652269  0.83493420  1
  I  I69  1  0.49916228  0.66665981  0.16713390  1
  I  I70  1  0.49676960  0.66667025  0.49720946  1
  I  I71  1  0.49941893  0.66657976  0.83519392  1
  I  I72  1  0.84228826  -0.00030387  0.16441346  1
  I  I73  1  0.83177174  0.00009583  0.50020993  1
  I  I74  1  0.83260484  -0.00006173  0.83519137  1
  I  I75  1  0.84071342  0.33426351  0.16546466  1
  I  I76  1  0.83613318  0.33673394  0.49894896  1
  I  I77  1  0.82755030  0.33809957  0.83557096  1
  I  I78  1  0.84110060  0.66594772  0.16522051  1
  I  I79  1  0.83697651  0.66364460  0.49782651  1
  I  I80  1  0.83303879  0.66363394  0.83727993  1
  I  I81  1  0.16309257  0.16700306  0.00369475  1
  I  I82  1  0.16196416  0.16143590  0.33171747  1
  I  I83  1  0.16826997  0.16305242  0.66376238  1
  I  I84  1  0.16063193  0.49943353  0.00382314  1
  I  I85  1  0.15968052  0.50409393  0.32935780  1
  I  I86  1  0.16521316  0.49983844  0.66674510  1
  I  I87  1  0.16691446  0.83257125  0.00119006  1
  I  I88  1  0.16061742  0.83441897  0.33205919  1
  I  I89  1  0.17254126  0.83691594  0.66667927  1
  I  I90  1  0.49708254  0.16714312  -0.00005484  1
  I  I91  1  0.50269836  0.16747126  0.33332823  1
  I  I92  1  0.49814192  0.16777569  0.66667068  1
  I  I93  1  0.50550094  0.50439267  -0.00300977  1
  I  I94  1  0.50023165  0.49924040  0.33351490  1
  I  I95  1  0.50264957  0.50551772  0.67125063  1
  I  I96  1  0.49301619  0.82835178  -0.00297541  1
  I  I97  1  0.49987397  0.83373721  0.33365728  1
  I  I98  1  0.49381325  0.82647114  0.67133475  1
  I  I99  1  0.84134587  0.16814152  0.00436920  1
  I  I100  1  0.83722915  0.16906806  0.32909731  1
  I  I101  1  0.83391711  0.16815150  0.66621484  1
  I  I102  1  0.83323385  0.50017070  0.00121679  1
  I  I103  1  0.84100368  0.49970446  0.33149186  1
  I  I104  1  0.82926049  0.50209498  0.66717527  1
  I  I105  1  0.83994728  0.83054207  0.00343424  1
  I  I106  1  0.84046067  0.83083044  0.32876822  1
  I  I107  1  0.83487666  0.83006615  0.66654676  1
  I  I108  1  0.00089015  0.16729923  0.16952773  1
  I  I109  1  0.00360576  0.16174836  0.49763548  1
  I  I110  1  0.00014481  0.16747255  0.83155722  1
  I  I111  1  -0.00080858  0.50033599  0.16372809  1
  I  I112  1  -0.00273626  0.50058987  0.50494353  1
  I  I113  1  -0.00286638  0.50119022  0.83333829  1
  I  I114  1  0.00143232  0.83244943  0.16371038  1
  I  I115  1  0.00391399  0.83675218  0.50544166  1
  I  I116  1  0.00296846  0.83194558  0.83337870  1
  I  I117  1  0.32908997  0.16616855  0.16977241  1
  I  I118  1  0.32831229  0.16357806  0.49187965  1
  I  I119  1  0.33299735  0.17218239  0.83543341  1
  I  I120  1  0.33009663  0.50049071  0.16533262  1
  I  I121  1  0.33316358  0.49929547  0.49972125  1
  I  I122  1  0.33522370  0.50267113  0.83597196  1
  I  I123  1  0.32935254  0.83359999  0.16812204  1
  I  I124  1  0.32874603  0.83556085  0.49247839  1
  I  I125  1  0.33220275  0.82690143  0.83572720  1
  I  I126  1  0.67018384  0.16887647  0.16374244  1
  I  I127  1  0.66716967  0.16759712  0.49941107  1
  I  I128  1  0.66697059  0.16233145  0.83562168  1
  I  I129  1  0.67056358  0.49986504  0.16777163  1
  I  I130  1  0.67105063  0.50040975  0.49114488  1
  I  I131  1  0.66747861  0.50702355  0.83679638  1
  I  I132  1  0.66995291  0.83096695  0.16334638  1
  I  I133  1  0.66693549  0.83203729  0.49925638  1
  I  I134  1  0.66444608  0.82847602  0.83817135  1
