# generated using pymatgen
data_Cs27Sn14Pb13I81
_symmetry_space_group_name_H-M   'P 1'
_cell_length_a   18.97877668
_cell_length_b   18.97013422
_cell_length_c   18.97518304
_cell_angle_alpha   89.99969745
_cell_angle_beta   89.99916576
_cell_angle_gamma   89.99958002
_symmetry_Int_Tables_number   1
_chemical_formula_structural   Cs27Sn14Pb13I81
_chemical_formula_sum   'Cs27 Sn14 Pb13 I81'
_cell_volume   6831.63402706
_cell_formula_units_Z   1
loop_
 _symmetry_equiv_pos_site_id
 _symmetry_equiv_pos_as_xyz
  1  'x, y, z'
loop_
 _atom_site_type_symbol
 _atom_site_label
 _atom_site_symmetry_multiplicity
 _atom_site_fract_x
 _atom_site_fract_y
 _atom_site_fract_z
 _atom_site_occupancy
  Cs  Cs0  1  0.00062952  0.00136502  0.00091328  1
  Cs  Cs1  1  -0.00054211  0.00088078  0.33253770  1
  Cs  Cs2  1  -0.00046296  -0.00194334  0.66568803  1
  Cs  Cs3  1  0.00133270  0.33378487  -0.00167195  1
  Cs  Cs4  1  0.00267290  0.33276637  0.33525092  1
  Cs  Cs5  1  -0.00039276  0.33441455  0.66657735  1
  Cs  Cs6  1  -0.00477738  0.66205761  0.00344250  1
  Cs  Cs7  1  -0.00041103  0.66677564  0.33303933  1
  Cs  Cs8  1  -0.00034917  0.66658214  0.66571789  1
  Cs  Cs9  1  0.33248263  0.00227556  -0.00189131  1
  Cs  Cs10  1  0.33088915  -0.00134006  0.33498885  1
  Cs  Cs11  1  0.33200959  -0.00920530  0.66764767  1
  Cs  Cs12  1  0.33190897  0.33081988  -0.00130925  1
  Cs  Cs13  1  0.33277424  0.33642365  0.33321449  1
  Cs  Cs14  1  0.33229483  0.33352654  0.66941716  1
  Cs  Cs15  1  0.33662846  0.66848766  0.00008500  1
  Cs  Cs16  1  0.34234608  0.66406611  0.33346484  1
  Cs  Cs17  1  0.33317943  0.67500713  0.66624912  1
  Cs  Cs18  1  0.66687549  -0.00031928  0.00052259  1
  Cs  Cs19  1  0.66703142  0.00090258  0.33409163  1
  Cs  Cs20  1  0.66860769  0.00102310  0.66466047  1
  Cs  Cs21  1  0.66749056  0.33286731  -0.00391365  1
  Cs  Cs22  1  0.65990582  0.33082706  0.34020092  1
  Cs  Cs23  1  0.66590211  0.33340246  0.66620732  1
  Cs  Cs24  1  0.67029230  0.66863659  0.00807382  1
  Cs  Cs25  1  0.66011907  0.66727913  0.32539728  1
  Cs  Cs26  1  0.66893748  0.66514523  0.66687825  1
  Sn  Sn27  1  0.49973881  0.16707344  0.83378390  1
  Sn  Sn28  1  0.49895816  0.49968710  0.83316134  1
  Sn  Sn29  1  0.16764614  0.49967047  0.83240220  1
  Sn  Sn30  1  0.16663486  0.16593091  0.16670920  1
  Sn  Sn31  1  0.49977164  0.16673589  0.16598720  1
  Sn  Sn32  1  0.16659424  0.83351544  0.16658765  1
  Sn  Sn33  1  0.16671139  0.16691715  0.83272434  1
  Sn  Sn34  1  0.16603169  0.49954288  0.50108753  1
  Sn  Sn35  1  0.83381198  0.50105288  0.49970392  1
  Sn  Sn36  1  0.16670525  0.16711453  0.50061144  1
  Sn  Sn37  1  0.83359517  0.16582059  0.83389095  1
  Sn  Sn38  1  0.83355652  0.83196315  0.50021543  1
  Sn  Sn39  1  0.83370068  0.83399089  0.83289509  1
  Sn  Sn40  1  0.83330736  0.16717814  0.16611237  1
  Pb  Pb41  1  0.83520414  0.16689848  0.50032692  1
  Pb  Pb42  1  0.16430359  0.83265176  0.83534354  1
  Pb  Pb43  1  0.49924623  0.49992091  0.50278771  1
  Pb  Pb44  1  0.49708203  0.83653083  0.16631694  1
  Pb  Pb45  1  0.49629431  0.16650610  0.50098706  1
  Pb  Pb46  1  0.16670490  0.49971736  0.16649757  1
  Pb  Pb47  1  0.83498643  0.83549249  0.16683707  1
  Pb  Pb48  1  0.16505779  0.83245970  0.49785095  1
  Pb  Pb49  1  0.50301794  0.83350976  0.83341391  1
  Pb  Pb50  1  0.50356263  0.83338368  0.50002933  1
  Pb  Pb51  1  0.83326360  0.49629207  0.17028130  1
  Pb  Pb52  1  0.49996703  0.49694841  0.16332199  1
  Pb  Pb53  1  0.83352576  0.49964735  0.83210657  1
  I  I54  1  0.16616466  0.00311274  0.16664799  1
  I  I55  1  0.16534406  0.00269570  0.50187268  1
  I  I56  1  0.16889708  0.00335646  0.83136728  1
  I  I57  1  0.16660519  0.32944502  0.16656323  1
  I  I58  1  0.16016635  0.33298364  0.49897329  1
  I  I59  1  0.16473302  0.33160309  0.83482817  1
  I  I60  1  0.16352222  0.66902015  0.16612284  1
  I  I61  1  0.16348010  0.66347993  0.50423013  1
  I  I62  1  0.16979117  0.66350827  0.82957024  1
  I  I63  1  0.50244014  0.00470239  0.15889426  1
  I  I64  1  0.49975289  0.00042955  0.50206349  1
  I  I65  1  0.49694828  0.00380252  0.83771547  1
  I  I66  1  0.49614153  0.32876312  0.16593538  1
  I  I67  1  0.50659275  0.33306231  0.49710042  1
  I  I68  1  0.50117967  0.33159821  0.83719940  1
  I  I69  1  0.49875594  0.66667774  0.16639687  1
  I  I70  1  0.49449416  0.66642486  0.50234873  1
  I  I71  1  0.49478045  0.66370508  0.82992865  1
  I  I72  1  0.83256120  0.00390394  0.16735317  1
  I  I73  1  0.83540715  -0.00161096  0.50125933  1
  I  I74  1  0.83383860  0.00188161  0.83101146  1
  I  I75  1  0.83823249  0.32821726  0.15925012  1
  I  I76  1  0.83642347  0.33544763  0.49999514  1
  I  I77  1  0.83381210  0.33007196  0.83593314  1
  I  I78  1  0.83601476  0.66667588  0.16352542  1
  I  I79  1  0.84085299  0.66653229  0.50817103  1
  I  I80  1  0.83438155  0.66867982  0.82994988  1
  I  I81  1  0.16632699  0.16661361  -0.00053448  1
  I  I82  1  0.16500817  0.16641664  0.33282967  1
  I  I83  1  0.16499164  0.17187216  0.66768400  1
  I  I84  1  0.16986321  0.49574545  -0.00334089  1
  I  I85  1  0.16071493  0.49539359  0.33631843  1
  I  I86  1  0.16561868  0.49090957  0.66713736  1
  I  I87  1  0.16421979  0.84003528  0.00277538  1
  I  I88  1  0.16279346  0.84077421  0.33046236  1
  I  I89  1  0.16672018  0.83651314  0.66673448  1
  I  I90  1  0.49615652  0.17031849  -0.00087421  1
  I  I91  1  0.50179537  0.16505657  0.33055822  1
  I  I92  1  0.50262205  0.17135754  0.67060103  1
  I  I93  1  0.49330363  0.49750008  -0.00458587  1
  I  I94  1  0.50025124  0.49943384  0.33333139  1
  I  I95  1  0.49997447  0.49035359  0.67046260  1
  I  I96  1  0.50300392  0.82999992  -0.00017562  1
  I  I97  1  0.50163440  0.83474773  0.33297449  1
  I  I98  1  0.49605930  0.83683910  0.66706724  1
  I  I99  1  0.83718571  0.16139319  -0.00128995  1
  I  I100  1  0.83446311  0.16666831  0.33101856  1
  I  I101  1  0.83333443  0.16599806  0.66963830  1
  I  I102  1  0.83387351  0.50304491  -0.00008294  1
  I  I103  1  0.84182293  0.50472707  0.33812500  1
  I  I104  1  0.83534334  0.49834470  0.66419920  1
  I  I105  1  0.83443006  0.83615256  -0.00245853  1
  I  I106  1  0.83642783  0.83151643  0.33578994  1
  I  I107  1  0.83504162  0.83695352  0.66705869  1
  I  I108  1  0.00079870  0.16275499  0.16411867  1
  I  I109  1  0.00329141  0.16763269  0.49961527  1
  I  I110  1  0.00057736  0.16712720  0.83593374  1
  I  I111  1  0.00007053  0.49728603  0.16119329  1
  I  I112  1  0.00107179  0.49868029  0.50657118  1
  I  I113  1  0.00275325  0.49590224  0.83145575  1
  I  I114  1  0.00256422  0.84164219  0.16624319  1
  I  I115  1  -0.00271502  0.83334790  0.50382881  1
  I  I116  1  -0.00330083  0.83857040  0.83015000  1
  I  I117  1  0.33241612  0.16301577  0.16330098  1
  I  I118  1  0.32813396  0.17343542  0.49837118  1
  I  I119  1  0.33246783  0.17223312  0.83677961  1
  I  I120  1  0.33313500  0.49946202  0.17229469  1
  I  I121  1  0.32971602  0.49365515  0.50038957  1
  I  I122  1  0.33199814  0.49001414  0.82850967  1
  I  I123  1  0.32929924  0.83925663  0.16650081  1
  I  I124  1  0.33292699  0.83368312  0.49859975  1
  I  I125  1  0.33304870  0.83552602  0.83475123  1
  I  I126  1  0.66691961  0.16789199  0.15916110  1
  I  I127  1  0.66672225  0.16635187  0.49887686  1
  I  I128  1  0.66692691  0.16695017  0.84007420  1
  I  I129  1  0.66672146  0.50008451  0.16611659  1
  I  I130  1  0.66934402  0.50321100  0.50171715  1
  I  I131  1  0.66478956  0.49502895  0.83137571  1
  I  I132  1  0.66678397  0.83430560  0.16727649  1
  I  I133  1  0.67192775  0.82943886  0.50415807  1
  I  I134  1  0.67096133  0.83800087  0.82955169  1
