# generated using pymatgen
data_Cs27Sn14Pb13I81
_symmetry_space_group_name_H-M   'P 1'
_cell_length_a   19.26078547
_cell_length_b   19.24075602
_cell_length_c   19.27270401
_cell_angle_alpha   89.97248858
_cell_angle_beta   89.99790772
_cell_angle_gamma   90.01799133
_symmetry_Int_Tables_number   1
_chemical_formula_structural   Cs27Sn14Pb13I81
_chemical_formula_sum   'Cs27 Sn14 Pb13 I81'
_cell_volume   7142.31017018
_cell_formula_units_Z   1
loop_
 _symmetry_equiv_pos_site_id
 _symmetry_equiv_pos_as_xyz
  1  'x, y, z'
loop_
 _atom_site_type_symbol
 _atom_site_label
 _atom_site_symmetry_multiplicity
 _atom_site_fract_x
 _atom_site_fract_y
 _atom_site_fract_z
 _atom_site_occupancy
  Cs  Cs0  1  -0.00449282  0.00890061  0.02622978  1
  Cs  Cs1  1  -0.00752619  0.00952578  0.32304665  1
  Cs  Cs2  1  -0.02632465  -0.00702604  0.65420305  1
  Cs  Cs3  1  0.00198232  0.31172627  -0.02960655  1
  Cs  Cs4  1  0.00780937  0.33792954  0.34915572  1
  Cs  Cs5  1  -0.00250518  0.34081573  0.68615220  1
  Cs  Cs6  1  -0.00997699  0.68048953  0.03949424  1
  Cs  Cs7  1  0.02530510  0.64658859  0.32965745  1
  Cs  Cs8  1  -0.01060194  0.66369321  0.64054461  1
  Cs  Cs9  1  0.34566386  -0.00157395  -0.01570706  1
  Cs  Cs10  1  0.34747619  0.02271048  0.33992221  1
  Cs  Cs11  1  0.33065164  -0.01294206  0.68082588  1
  Cs  Cs12  1  0.33212159  0.33103008  -0.02135376  1
  Cs  Cs13  1  0.34432662  0.31120231  0.31398759  1
  Cs  Cs14  1  0.34308936  0.32629067  0.69213637  1
  Cs  Cs15  1  0.33129124  0.65254996  -0.03462554  1
  Cs  Cs16  1  0.30240097  0.65344096  0.33759885  1
  Cs  Cs17  1  0.33380959  0.68449080  0.68252553  1
  Cs  Cs18  1  0.66412430  -0.00926082  0.00710320  1
  Cs  Cs19  1  0.66891294  -0.00258607  0.35218328  1
  Cs  Cs20  1  0.67321301  -0.01827838  0.65040557  1
  Cs  Cs21  1  0.67820387  0.35230794  -0.01770494  1
  Cs  Cs22  1  0.64795811  0.33912696  0.33688279  1
  Cs  Cs23  1  0.66370824  0.35396253  0.67900455  1
  Cs  Cs24  1  0.67190950  0.66807010  0.03374960  1
  Cs  Cs25  1  0.65823207  0.67215680  0.32474567  1
  Cs  Cs26  1  0.66868947  0.69378013  0.65611806  1
  Sn  Sn27  1  0.50410041  0.16538707  0.83337813  1
  Sn  Sn28  1  0.16551280  0.16460591  0.50156535  1
  Sn  Sn29  1  0.16801130  0.16316736  0.82971904  1
  Sn  Sn30  1  0.83447062  0.17104348  0.49787422  1
  Sn  Sn31  1  0.49973502  0.50223807  0.50004903  1
  Sn  Sn32  1  0.49463782  0.83620245  0.16986182  1
  Sn  Sn33  1  0.82986382  0.17020755  0.17013044  1
  Sn  Sn34  1  0.50262375  0.16561317  0.16251511  1
  Sn  Sn35  1  0.83463277  0.83233243  0.49806965  1
  Sn  Sn36  1  0.49465091  0.82930375  0.49391453  1
  Sn  Sn37  1  0.16551152  0.49976019  0.83181934  1
  Sn  Sn38  1  0.83687359  0.83195994  0.83326875  1
  Sn  Sn39  1  0.16634102  0.16697520  0.16827593  1
  Sn  Sn40  1  0.50039432  0.50045354  0.83128777  1
  Pb  Pb41  1  0.16748646  0.83674818  0.49884578  1
  Pb  Pb42  1  0.83064016  0.16305763  0.83119705  1
  Pb  Pb43  1  0.50009446  0.16890993  0.50307517  1
  Pb  Pb44  1  0.82977642  0.49853993  0.49761412  1
  Pb  Pb45  1  0.50306140  0.83370421  0.83469261  1
  Pb  Pb46  1  0.83271400  0.49389186  0.16981686  1
  Pb  Pb47  1  0.17166174  0.83763240  0.16835431  1
  Pb  Pb48  1  0.49752045  0.50080587  0.16778889  1
  Pb  Pb49  1  0.17146281  0.49476011  0.50399944  1
  Pb  Pb50  1  0.83096034  0.83723671  0.17006245  1
  Pb  Pb51  1  0.16068555  0.83436440  0.83237736  1
  Pb  Pb52  1  0.83575621  0.50639931  0.83051283  1
  Pb  Pb53  1  0.16980935  0.49406760  0.16219560  1
  I  I54  1  0.14863722  0.00274993  0.15333466  1
  I  I55  1  0.18539548  0.00281178  0.51193226  1
  I  I56  1  0.19075572  0.00236038  0.83774309  1
  I  I57  1  0.17850736  0.33032313  0.19173459  1
  I  I58  1  0.15008879  0.32954619  0.48517859  1
  I  I59  1  0.17412272  0.33254816  0.83894928  1
  I  I60  1  0.16442275  0.66690920  0.16879559  1
  I  I61  1  0.15336740  0.66737421  0.50031591  1
  I  I62  1  0.18678607  0.66351617  0.82552416  1
  I  I63  1  0.49802458  0.00202859  0.16243163  1
  I  I64  1  0.49944926  -0.00129719  0.49583926  1
  I  I65  1  0.48120414  0.00246914  0.83531562  1
  I  I66  1  0.49818531  0.33098831  0.17773584  1
  I  I67  1  0.49653367  0.33657274  0.49377955  1
  I  I68  1  0.49374879  0.33303349  0.83462784  1
  I  I69  1  0.52193897  0.66954158  0.16705599  1
  I  I70  1  0.53392496  0.66706144  0.49980889  1
  I  I71  1  0.48149026  0.66449242  0.83005185  1
  I  I72  1  0.85124621  0.00220559  0.16155482  1
  I  I73  1  0.82359401  0.00027309  0.50477097  1
  I  I74  1  0.82738686  -0.00265988  0.83248179  1
  I  I75  1  0.81496970  0.32867691  0.19023262  1
  I  I76  1  0.84867778  0.33047134  0.47424646  1
  I  I77  1  0.83360341  0.33196421  0.84365918  1
  I  I78  1  0.82195245  0.66839115  0.16308598  1
  I  I79  1  0.82354406  0.66792026  0.53005313  1
  I  I80  1  0.82965119  0.66840325  0.79572938  1
  I  I81  1  0.16422928  0.18595373  0.00122074  1
  I  I82  1  0.16890846  0.14958246  0.33155128  1
  I  I83  1  0.17441042  0.18332093  0.66739570  1
  I  I84  1  0.19896178  0.49415554  -0.00153533  1
  I  I85  1  0.16029541  0.50269788  0.33459284  1
  I  I86  1  0.16026418  0.47673869  0.66939531  1
  I  I87  1  0.15567027  0.82496212  -0.00104798  1
  I  I88  1  0.14035605  0.82348296  0.33461308  1
  I  I89  1  0.19553933  0.83689218  0.66668278  1
  I  I90  1  0.48556528  0.16372860  0.00146752  1
  I  I91  1  0.49369445  0.17030861  0.33231144  1
  I  I92  1  0.48323410  0.17032018  0.66993959  1
  I  I93  1  0.48198613  0.49869986  -0.00251662  1
  I  I94  1  0.52245105  0.50048477  0.33659739  1
  I  I95  1  0.49104511  0.48602361  0.66717716  1
  I  I96  1  0.50452979  0.84070920  0.00189002  1
  I  I97  1  0.52913483  0.83673380  0.33338048  1
  I  I98  1  0.50168409  0.83415976  0.66492687  1
  I  I99  1  0.84669013  0.16490204  0.00090809  1
  I  I100  1  0.83856638  0.14157583  0.33244868  1
  I  I101  1  0.84480179  0.16438323  0.66276263  1
  I  I102  1  0.82072693  0.51299131  -0.00250160  1
  I  I103  1  0.82278780  0.52945928  0.33313891  1
  I  I104  1  0.84465408  0.47191434  0.66617766  1
  I  I105  1  0.83592783  0.82246666  -0.00346013  1
  I  I106  1  0.82061520  0.84281301  0.33756423  1
  I  I107  1  0.82005938  0.84888994  0.66463569  1
  I  I108  1  0.00062099  0.17153039  0.16168383  1
  I  I109  1  0.00158901  0.14113204  0.48793815  1
  I  I110  1  0.00272256  0.17241919  0.82932024  1
  I  I111  1  -0.00119302  0.51806530  0.16414313  1
  I  I112  1  -0.00203470  0.51166065  0.49248041  1
  I  I113  1  0.00266096  0.47768294  0.84115256  1
  I  I114  1  -0.00159795  0.83466057  0.16408313  1
  I  I115  1  -0.00147595  0.83790987  0.52784915  1
  I  I116  1  -0.00202027  0.83682443  0.80033397  1
  I  I117  1  0.33197728  0.15454352  0.17536073  1
  I  I118  1  0.33100610  0.17421750  0.48417309  1
  I  I119  1  0.33256751  0.17726400  0.84271069  1
  I  I120  1  0.33399227  0.50501004  0.19687440  1
  I  I121  1  0.33585920  0.52938866  0.49505470  1
  I  I122  1  0.33355622  0.49044812  0.82425767  1
  I  I123  1  0.33708073  0.84854331  0.18897313  1
  I  I124  1  0.33700429  0.81579784  0.48283646  1
  I  I125  1  0.33419680  0.83223735  0.84066580  1
  I  I126  1  0.66734966  0.14593115  0.16464459  1
  I  I127  1  0.66881309  0.16724991  0.48539907  1
  I  I128  1  0.66328966  0.18425869  0.84775126  1
  I  I129  1  0.66472741  0.49118475  0.14897429  1
  I  I130  1  0.66601361  0.48037788  0.52140595  1
  I  I131  1  0.66555350  0.48292979  0.82989080  1
  I  I132  1  0.66637005  0.84691057  0.15360148  1
  I  I133  1  0.66721061  0.84362767  0.50517511  1
  I  I134  1  0.66772113  0.84267782  0.82864435  1
