# generated using pymatgen
data_Cs27Sn13Pb14I81
_symmetry_space_group_name_H-M   'P 1'
_cell_length_a   18.98073554
_cell_length_b   18.98014424
_cell_length_c   18.97109069
_cell_angle_alpha   90.00061890
_cell_angle_beta   90.00341298
_cell_angle_gamma   90.00025842
_symmetry_Int_Tables_number   1
_chemical_formula_structural   Cs27Sn13Pb14I81
_chemical_formula_sum   'Cs27 Sn13 Pb14 I81'
_cell_volume   6834.47007152
_cell_formula_units_Z   1
loop_
 _symmetry_equiv_pos_site_id
 _symmetry_equiv_pos_as_xyz
  1  'x, y, z'
loop_
 _atom_site_type_symbol
 _atom_site_label
 _atom_site_symmetry_multiplicity
 _atom_site_fract_x
 _atom_site_fract_y
 _atom_site_fract_z
 _atom_site_occupancy
  Cs  Cs0  1  -0.00398162  0.00202652  -0.00723242  1
  Cs  Cs1  1  0.00112539  -0.00439818  0.33288975  1
  Cs  Cs2  1  0.00099339  0.00284209  0.67335514  1
  Cs  Cs3  1  -0.00198210  0.33453173  0.00125049  1
  Cs  Cs4  1  0.00347214  0.33922789  0.33260118  1
  Cs  Cs5  1  0.00159903  0.33279523  0.66675917  1
  Cs  Cs6  1  -0.00234011  0.66564776  0.00312691  1
  Cs  Cs7  1  0.00122293  0.66581225  0.33184448  1
  Cs  Cs8  1  -0.00041203  0.66529508  0.66498290  1
  Cs  Cs9  1  0.33090121  -0.00065963  0.00171444  1
  Cs  Cs10  1  0.33486212  -0.00000457  0.33240535  1
  Cs  Cs11  1  0.32928650  0.00249477  0.66911830  1
  Cs  Cs12  1  0.33583806  0.33425602  0.00008340  1
  Cs  Cs13  1  0.33144828  0.33030794  0.33380155  1
  Cs  Cs14  1  0.33112606  0.33046824  0.66628721  1
  Cs  Cs15  1  0.33626127  0.66710934  -0.00178356  1
  Cs  Cs16  1  0.33232441  0.66780497  0.33288728  1
  Cs  Cs17  1  0.33696450  0.66693116  0.66917394  1
  Cs  Cs18  1  0.67608900  0.00381223  -0.00080285  1
  Cs  Cs19  1  0.66404449  0.00130736  0.33319193  1
  Cs  Cs20  1  0.66863045  -0.00005793  0.66521439  1
  Cs  Cs21  1  0.66627715  0.33004781  0.00140875  1
  Cs  Cs22  1  0.66530109  0.32991122  0.33241997  1
  Cs  Cs23  1  0.66629806  0.33654410  0.66622169  1
  Cs  Cs24  1  0.66469895  0.66808617  -0.00163616  1
  Cs  Cs25  1  0.66654177  0.66764758  0.33551254  1
  Cs  Cs26  1  0.66481714  0.66429688  0.66598505  1
  Sn  Sn27  1  0.16725672  0.83431272  0.16711592  1
  Sn  Sn28  1  0.83420596  0.50024948  0.83277150  1
  Sn  Sn29  1  0.16636781  0.16574481  0.16686581  1
  Sn  Sn30  1  0.50030876  0.50029111  0.49888567  1
  Sn  Sn31  1  0.49956888  0.83269494  0.16721888  1
  Sn  Sn32  1  0.83272179  0.49975979  0.50043708  1
  Sn  Sn33  1  0.50000190  0.16616111  0.83312076  1
  Sn  Sn34  1  0.50006045  0.50062675  0.16790190  1
  Sn  Sn35  1  0.16701846  0.83321274  0.49980909  1
  Sn  Sn36  1  0.83336249  0.83342410  0.49991680  1
  Sn  Sn37  1  0.83366903  0.16698485  0.49952041  1
  Sn  Sn38  1  0.16585076  0.50043496  0.83325458  1
  Sn  Sn39  1  0.49957880  0.83274288  0.49942132  1
  Pb  Pb40  1  0.83031302  0.50011603  0.16724179  1
  Pb  Pb41  1  0.83641883  0.16669080  0.16929094  1
  Pb  Pb42  1  0.16809640  0.16896974  0.83573356  1
  Pb  Pb43  1  0.49872749  0.16577644  0.16507486  1
  Pb  Pb44  1  0.16414018  0.16392386  0.49819822  1
  Pb  Pb45  1  0.50006492  0.83606718  0.83353390  1
  Pb  Pb46  1  0.50125959  0.16639835  0.50145798  1
  Pb  Pb47  1  0.83160589  0.16933924  0.83101701  1
  Pb  Pb48  1  0.16666457  0.83124502  0.83397275  1
  Pb  Pb49  1  0.16721914  0.50210137  0.50145558  1
  Pb  Pb50  1  0.83310980  0.83334516  0.16866346  1
  Pb  Pb51  1  0.50049518  0.49875313  0.83296317  1
  Pb  Pb52  1  0.16909824  0.50099630  0.16471677  1
  Pb  Pb53  1  0.83321767  0.83063211  0.83053080  1
  I  I54  1  0.17382415  -0.00168041  0.17165761  1
  I  I55  1  0.16863449  -0.00436397  0.49898288  1
  I  I56  1  0.16832469  0.00000143  0.83134296  1
  I  I57  1  0.16825225  0.33185442  0.16423864  1
  I  I58  1  0.16646118  0.33337303  0.49927765  1
  I  I59  1  0.16401894  0.33667294  0.83372273  1
  I  I60  1  0.16863876  0.66990711  0.17009655  1
  I  I61  1  0.16262314  0.67016309  0.49393751  1
  I  I62  1  0.16464465  0.66343189  0.83417642  1
  I  I63  1  0.49700086  -0.00346115  0.17169145  1
  I  I64  1  0.50156552  -0.00344518  0.49657909  1
  I  I65  1  0.49883085  0.00325185  0.83221739  1
  I  I66  1  0.49879071  0.33572658  0.16915174  1
  I  I67  1  0.50540895  0.33631704  0.49795506  1
  I  I68  1  0.49991930  0.33146520  0.83351521  1
  I  I69  1  0.49439286  0.66727250  0.16994715  1
  I  I70  1  0.50447895  0.66681140  0.49753255  1
  I  I71  1  0.50010830  0.66665217  0.83347585  1
  I  I72  1  0.82795413  -0.00005596  0.16915691  1
  I  I73  1  0.83206349  -0.00110149  0.49759983  1
  I  I74  1  0.83202381  0.00025102  0.83204685  1
  I  I75  1  0.83324830  0.33353723  0.16934515  1
  I  I76  1  0.82771416  0.33484450  0.50423020  1
  I  I77  1  0.83612913  0.33702841  0.82632847  1
  I  I78  1  0.83854965  0.66661399  0.16781484  1
  I  I79  1  0.83176027  0.66648823  0.50412290  1
  I  I80  1  0.83497365  0.66262298  0.82784336  1
  I  I81  1  0.16829857  0.15951449  0.00339171  1
  I  I82  1  0.16850611  0.16695482  0.33041132  1
  I  I83  1  0.16695779  0.16580987  0.66659656  1
  I  I84  1  0.16263082  0.50084536  -0.00301274  1
  I  I85  1  0.16434112  0.49830210  0.33327024  1
  I  I86  1  0.16771575  0.50132928  0.66918592  1
  I  I87  1  0.17353351  0.83519825  0.00361592  1
  I  I88  1  0.16720515  0.83567607  0.33369175  1
  I  I89  1  0.16726098  0.83091173  0.66346796  1
  I  I90  1  0.49895727  0.16994987  -0.00242145  1
  I  I91  1  0.50059236  0.16776431  0.33339823  1
  I  I92  1  0.50041946  0.16886437  0.66898785  1
  I  I93  1  0.49864335  0.50299760  0.00225321  1
  I  I94  1  0.50504453  0.50336515  0.33450222  1
  I  I95  1  0.50175237  0.50370119  0.66362659  1
  I  I96  1  0.49297938  0.82803826  0.00356144  1
  I  I97  1  0.49956123  0.82958082  0.33430983  1
  I  I98  1  0.50021171  0.82863202  0.66293506  1
  I  I99  1  0.83238086  0.16815290  -0.00020346  1
  I  I100  1  0.83009193  0.16928289  0.33750403  1
  I  I101  1  0.83310853  0.16343282  0.66304501  1
  I  I102  1  0.83603878  0.49894555  -0.00263709  1
  I  I103  1  0.83152454  0.50089122  0.33727492  1
  I  I104  1  0.83069431  0.50092864  0.66486231  1
  I  I105  1  0.83310778  0.83239234  -0.00003150  1
  I  I106  1  0.83347423  0.82934373  0.33760429  1
  I  I107  1  0.83272273  0.83544589  0.66162619  1
  I  I108  1  0.00419496  0.16051941  0.16611574  1
  I  I109  1  -0.00380397  0.16880351  0.50004401  1
  I  I110  1  -0.00016315  0.16630877  0.83350874  1
  I  I111  1  0.00010532  0.49969478  0.16783133  1
  I  I112  1  -0.00275179  0.50085076  0.50300729  1
  I  I113  1  -0.00088059  0.49987959  0.82717543  1
  I  I114  1  0.00313221  0.83632774  0.17157161  1
  I  I115  1  -0.00006412  0.83229785  0.49577932  1
  I  I116  1  -0.00001853  0.83525362  0.83310211  1
  I  I117  1  0.33089884  0.16555067  0.16684198  1
  I  I118  1  0.33309459  0.16756991  0.50111920  1
  I  I119  1  0.33567534  0.17046803  0.83119408  1
  I  I120  1  0.33690072  0.50096870  0.17038734  1
  I  I121  1  0.33649538  0.50452833  0.49868656  1
  I  I122  1  0.33192179  0.49853601  0.83391333  1
  I  I123  1  0.33367117  0.83322355  0.17504710  1
  I  I124  1  0.33416131  0.82799581  0.49584682  1
  I  I125  1  0.33342579  0.82999165  0.82778764  1
  I  I126  1  0.66666180  0.16688717  0.16504625  1
  I  I127  1  0.66931552  0.16331664  0.50121413  1
  I  I128  1  0.66409029  0.16896741  0.83488690  1
  I  I129  1  0.66235312  0.50559425  0.16569391  1
  I  I130  1  0.66680042  0.50467063  0.50273360  1
  I  I131  1  0.66898986  0.49836666  0.83029890  1
  I  I132  1  0.66312748  0.82854757  0.17065334  1
  I  I133  1  0.66623078  0.83207820  0.49689034  1
  I  I134  1  0.66653491  0.83129335  0.83394839  1
