# generated using pymatgen
data_Cs27Sn14Pb13I81
_symmetry_space_group_name_H-M   'P 1'
_cell_length_a   19.02003611
_cell_length_b   19.01920149
_cell_length_c   19.02003610
_cell_angle_alpha   89.99954936
_cell_angle_beta   90.00540693
_cell_angle_gamma   89.99954939
_symmetry_Int_Tables_number   1
_chemical_formula_structural   Cs27Sn14Pb13I81
_chemical_formula_sum   'Cs27 Sn14 Pb13 I81'
_cell_volume   6880.42002546
_cell_formula_units_Z   1
loop_
 _symmetry_equiv_pos_site_id
 _symmetry_equiv_pos_as_xyz
  1  'x, y, z'
loop_
 _atom_site_type_symbol
 _atom_site_label
 _atom_site_symmetry_multiplicity
 _atom_site_fract_x
 _atom_site_fract_y
 _atom_site_fract_z
 _atom_site_occupancy
  Cs  Cs0  1  0.00096010  -0.00453482  0.00096003  1
  Cs  Cs1  1  0.00108465  0.00219093  0.33464062  1
  Cs  Cs2  1  0.00132781  0.00079708  0.66566237  1
  Cs  Cs3  1  -0.00242416  0.35629524  -0.00242451  1
  Cs  Cs4  1  0.00236849  0.33082438  0.33568392  1
  Cs  Cs5  1  -0.00161427  0.33022590  0.66613735  1
  Cs  Cs6  1  0.00150613  0.65929354  0.00150617  1
  Cs  Cs7  1  -0.00125606  0.66646092  0.33293492  1
  Cs  Cs8  1  0.00168111  0.66789107  0.66614746  1
  Cs  Cs9  1  0.33464071  0.00219096  0.00108470  1
  Cs  Cs10  1  0.32945532  0.00716837  0.32945533  1
  Cs  Cs11  1  0.32987202  -0.00188616  0.66903910  1
  Cs  Cs12  1  0.33568407  0.33082440  0.00236842  1
  Cs  Cs13  1  0.33341352  0.32302311  0.33341368  1
  Cs  Cs14  1  0.33273517  0.33423204  0.66587491  1
  Cs  Cs15  1  0.33293515  0.66646067  -0.00125591  1
  Cs  Cs16  1  0.33761963  0.66665735  0.33761961  1
  Cs  Cs17  1  0.33509763  0.66586650  0.66490173  1
  Cs  Cs18  1  0.66566222  0.00079716  0.00132764  1
  Cs  Cs19  1  0.66903925  -0.00188613  0.32987206  1
  Cs  Cs20  1  0.66873997  0.00067410  0.66874000  1
  Cs  Cs21  1  0.66613742  0.33022606  -0.00161445  1
  Cs  Cs22  1  0.66587519  0.33423166  0.33273522  1
  Cs  Cs23  1  0.66877250  0.32493457  0.66877230  1
  Cs  Cs24  1  0.66614744  0.66789094  0.00168121  1
  Cs  Cs25  1  0.66490165  0.66586640  0.33509757  1
  Cs  Cs26  1  0.66156054  0.66917328  0.66156053  1
  Sn  Sn27  1  0.50003616  0.83264248  0.83429519  1
  Sn  Sn28  1  0.83404718  0.50090787  0.50030375  1
  Sn  Sn29  1  0.16592388  0.83236155  0.50038917  1
  Sn  Sn30  1  0.50042015  0.16568824  0.50042017  1
  Sn  Sn31  1  0.16571499  0.50122190  0.49989838  1
  Sn  Sn32  1  0.50030374  0.50090788  0.83404722  1
  Sn  Sn33  1  0.83433189  0.16614359  0.16588476  1
  Sn  Sn34  1  0.16588481  0.16614362  0.83433187  1
  Sn  Sn35  1  0.83429513  0.83264249  0.50003617  1
  Sn  Sn36  1  0.49989841  0.50122185  0.16571504  1
  Sn  Sn37  1  0.16657364  0.83394748  0.83277535  1
  Sn  Sn38  1  0.83341125  0.83292657  0.83341129  1
  Sn  Sn39  1  0.50038920  0.83236156  0.16592387  1
  Sn  Sn40  1  0.83277534  0.83394753  0.16657361  1
  Pb  Pb41  1  0.16672282  0.83316394  0.16672277  1
  Pb  Pb42  1  0.83035298  0.50327812  0.83035299  1
  Pb  Pb43  1  0.83632551  0.16419153  0.83632556  1
  Pb  Pb44  1  0.16279996  0.16676036  0.16279995  1
  Pb  Pb45  1  0.49972729  0.83527853  0.49972726  1
  Pb  Pb46  1  0.17005527  0.50036916  0.17005532  1
  Pb  Pb47  1  0.83125269  0.50092098  0.16895471  1
  Pb  Pb48  1  0.50179581  0.16599598  0.16797872  1
  Pb  Pb49  1  0.16895469  0.50092098  0.83125271  1
  Pb  Pb50  1  0.50018009  0.49819018  0.50018004  1
  Pb  Pb51  1  0.49841920  0.16588871  0.83194093  1
  Pb  Pb52  1  0.16797869  0.16599592  0.50179578  1
  Pb  Pb53  1  0.83194094  0.16588867  0.49841928  1
  I  I54  1  0.17366670  -0.00018499  0.17366750  1
  I  I55  1  0.16294395  -0.00332454  0.50225460  1
  I  I56  1  0.16946683  -0.00282091  0.82530446  1
  I  I57  1  0.16732917  0.33330920  0.16732856  1
  I  I58  1  0.16412112  0.33565700  0.50152517  1
  I  I59  1  0.17073430  0.33171625  0.83105019  1
  I  I60  1  0.16039554  0.66689727  0.16039539  1
  I  I61  1  0.16387366  0.66807869  0.50726364  1
  I  I62  1  0.16484061  0.67036150  0.83097804  1
  I  I63  1  0.50225489  -0.00332452  0.16294400  1
  I  I64  1  0.50013801  0.00240689  0.50013769  1
  I  I65  1  0.50221765  -0.00388942  0.83664003  1
  I  I66  1  0.50152516  0.33565708  0.16412067  1
  I  I67  1  0.49954472  0.33102319  0.49954533  1
  I  I68  1  0.49643320  0.33574251  0.83573694  1
  I  I69  1  0.50726343  0.66807875  0.16387367  1
  I  I70  1  0.49958854  0.66704307  0.49958863  1
  I  I71  1  0.49742220  0.66855148  0.83637896  1
  I  I72  1  0.82530486  -0.00282093  0.16946700  1
  I  I73  1  0.83663977  -0.00388940  0.50221753  1
  I  I74  1  0.82596194  -0.00438226  0.82596198  1
  I  I75  1  0.83104950  0.33171624  0.17073425  1
  I  I76  1  0.83573676  0.33574245  0.49643327  1
  I  I77  1  0.83322371  0.33360691  0.83322386  1
  I  I78  1  0.83097809  0.67036144  0.16484077  1
  I  I79  1  0.83637915  0.66855142  0.49742228  1
  I  I80  1  0.84107832  0.67128653  0.84107811  1
  I  I81  1  0.17177904  0.15482965  -0.00432197  1
  I  I82  1  0.16925836  0.16722430  0.33303725  1
  I  I83  1  0.16786059  0.16358415  0.66908439  1
  I  I84  1  0.16476563  0.49891323  0.00000190  1
  I  I85  1  0.16407570  0.50792547  0.33786522  1
  I  I86  1  0.16629410  0.50193449  0.66370812  1
  I  I87  1  0.16523474  0.83896074  -0.00308858  1
  I  I88  1  0.16384991  0.82837146  0.33639691  1
  I  I89  1  0.16424539  0.83350484  0.66683228  1
  I  I90  1  0.49910856  0.16825103  -0.00003335  1
  I  I91  1  0.49826094  0.16796360  0.33552340  1
  I  I92  1  0.50121028  0.16840486  0.66449257  1
  I  I93  1  0.49997275  0.50439611  -0.00021910  1
  I  I94  1  0.50115399  0.50473949  0.33135411  1
  I  I95  1  0.49896069  0.50556599  0.66876391  1
  I  I96  1  0.50351232  0.82992125  -0.00051002  1
  I  I97  1  0.50450016  0.82938616  0.33085521  1
  I  I98  1  0.50217309  0.82976890  0.66930214  1
  I  I99  1  0.82936539  0.15863524  0.00352300  1
  I  I100  1  0.83078445  0.15881363  0.33104323  1
  I  I101  1  0.83188949  0.16756267  0.66700721  1
  I  I102  1  0.83513590  0.49854306  -0.00020011  1
  I  I103  1  0.83350860  0.50732898  0.33645245  1
  I  I104  1  0.83490000  0.50531070  0.66289617  1
  I  I105  1  0.83128681  0.84106855  -0.00009559  1
  I  I106  1  0.83191596  0.83333723  0.33348989  1
  I  I107  1  0.83266294  0.82728003  0.66662691  1
  I  I108  1  -0.00432201  0.15483058  0.17177989  1
  I  I109  1  -0.00003337  0.16825111  0.49910830  1
  I  I110  1  0.00352293  0.15863543  0.82936504  1
  I  I111  1  0.00000190  0.49891304  0.16476541  1
  I  I112  1  -0.00021910  0.50439581  0.49997321  1
  I  I113  1  -0.00020014  0.49854285  0.83513580  1
  I  I114  1  -0.00308854  0.83896030  0.16523464  1
  I  I115  1  -0.00051001  0.82992133  0.50351243  1
  I  I116  1  -0.00009557  0.84106861  0.83128679  1
  I  I117  1  0.33303729  0.16722372  0.16925759  1
  I  I118  1  0.33552335  0.16796315  0.49826169  1
  I  I119  1  0.33104318  0.15881354  0.83078464  1
  I  I120  1  0.33786521  0.50792575  0.16407621  1
  I  I121  1  0.33135413  0.50473965  0.50115370  1
  I  I122  1  0.33645249  0.50732906  0.83350827  1
  I  I123  1  0.33639690  0.82837195  0.16385012  1
  I  I124  1  0.33085525  0.82938626  0.50450013  1
  I  I125  1  0.33348987  0.83333725  0.83191580  1
  I  I126  1  0.66908437  0.16358382  0.16786084  1
  I  I127  1  0.66449264  0.16840532  0.50120960  1
  I  I128  1  0.66700722  0.16756264  0.83188973  1
  I  I129  1  0.66370814  0.50193482  0.16629385  1
  I  I130  1  0.66876390  0.50556609  0.49896049  1
  I  I131  1  0.66289612  0.50531072  0.83490049  1
  I  I132  1  0.66683233  0.83350474  0.16424541  1
  I  I133  1  0.66930214  0.82976867  0.50217308  1
  I  I134  1  0.66662692  0.82727990  0.83266300  1
