# generated using pymatgen
data_Cs27Sn14Pb13I81
_symmetry_space_group_name_H-M   'P 1'
_cell_length_a   18.97601515
_cell_length_b   18.96732714
_cell_length_c   18.98534033
_cell_angle_alpha   90.00095179
_cell_angle_beta   90.00067913
_cell_angle_gamma   90.00027129
_symmetry_Int_Tables_number   1
_chemical_formula_structural   Cs27Sn14Pb13I81
_chemical_formula_sum   'Cs27 Sn14 Pb13 I81'
_cell_volume   6833.28508515
_cell_formula_units_Z   1
loop_
 _symmetry_equiv_pos_site_id
 _symmetry_equiv_pos_as_xyz
  1  'x, y, z'
loop_
 _atom_site_type_symbol
 _atom_site_label
 _atom_site_symmetry_multiplicity
 _atom_site_fract_x
 _atom_site_fract_y
 _atom_site_fract_z
 _atom_site_occupancy
  Cs  Cs0  1  -0.00028117  -0.00969697  0.00060809  1
  Cs  Cs1  1  0.00889021  -0.00383045  0.33277872  1
  Cs  Cs2  1  0.00290394  -0.00632622  0.66828511  1
  Cs  Cs3  1  0.00002869  0.33338561  -0.00224562  1
  Cs  Cs4  1  0.00113351  0.33254661  0.33403787  1
  Cs  Cs5  1  -0.00255804  0.33417265  0.66908463  1
  Cs  Cs6  1  -0.00033895  0.67332295  0.00084864  1
  Cs  Cs7  1  -0.00564139  0.67103619  0.33329031  1
  Cs  Cs8  1  -0.00910499  0.67001680  0.66494993  1
  Cs  Cs9  1  0.33205893  -0.00050944  -0.00090442  1
  Cs  Cs10  1  0.32658252  0.00175143  0.33600868  1
  Cs  Cs11  1  0.33247569  -0.00674921  0.66566318  1
  Cs  Cs12  1  0.33437952  0.33476409  -0.00047028  1
  Cs  Cs13  1  0.33351873  0.33331914  0.33340144  1
  Cs  Cs14  1  0.33396404  0.33441091  0.66777119  1
  Cs  Cs15  1  0.33383207  0.66264818  -0.00202285  1
  Cs  Cs16  1  0.33583557  0.66148518  0.33431118  1
  Cs  Cs17  1  0.33422706  0.66930434  0.66852663  1
  Cs  Cs18  1  0.66805907  0.00250735  -0.00022803  1
  Cs  Cs19  1  0.66556617  0.00317085  0.33244936  1
  Cs  Cs20  1  0.66583134  -0.00158412  0.66806526  1
  Cs  Cs21  1  0.66511358  0.33216716  0.00084936  1
  Cs  Cs22  1  0.66524847  0.33259067  0.33295542  1
  Cs  Cs23  1  0.66870332  0.33208531  0.66603657  1
  Cs  Cs24  1  0.66615470  0.66818884  0.00213606  1
  Cs  Cs25  1  0.66826540  0.66792251  0.33364714  1
  Cs  Cs26  1  0.67281298  0.67328722  0.66327099  1
  Sn  Sn27  1  0.49962276  0.49922846  0.50053588  1
  Sn  Sn28  1  0.83315408  0.16706949  0.49898023  1
  Sn  Sn29  1  0.16706194  0.49945791  0.50051265  1
  Sn  Sn30  1  0.83336980  0.16774761  0.16773001  1
  Sn  Sn31  1  0.83317950  0.49863268  0.16643323  1
  Sn  Sn32  1  0.16625116  0.49942475  0.16671180  1
  Sn  Sn33  1  0.49886224  0.16769576  0.83314016  1
  Sn  Sn34  1  0.16751237  0.16763155  0.83350704  1
  Sn  Sn35  1  0.16716810  0.49921318  0.83286537  1
  Sn  Sn36  1  0.50007747  0.16662500  0.16680086  1
  Sn  Sn37  1  0.50010029  0.49978225  0.16669400  1
  Sn  Sn38  1  0.50040265  0.16765074  0.50007871  1
  Sn  Sn39  1  0.50003327  0.49933505  0.83272843  1
  Sn  Sn40  1  0.49952826  0.83384820  0.16694896  1
  Pb  Pb41  1  0.16647217  0.16850816  0.16449103  1
  Pb  Pb42  1  0.83278827  0.83338689  0.83351831  1
  Pb  Pb43  1  0.83084334  0.83421695  0.16688240  1
  Pb  Pb44  1  0.83287361  0.49812626  0.49767475  1
  Pb  Pb45  1  0.16717137  0.83224199  0.83335557  1
  Pb  Pb46  1  0.83331264  0.16671078  0.83370013  1
  Pb  Pb47  1  0.49992851  0.83348445  0.49742362  1
  Pb  Pb48  1  0.50006665  0.83315829  0.83559022  1
  Pb  Pb49  1  0.16709157  0.82916228  0.49992754  1
  Pb  Pb50  1  0.83292245  0.83786194  0.49929899  1
  Pb  Pb51  1  0.16989882  0.82981360  0.16677593  1
  Pb  Pb52  1  0.83283867  0.50001317  0.83600487  1
  Pb  Pb53  1  0.16685315  0.16869052  0.50259469  1
  I  I54  1  0.16610248  0.00009807  0.16428649  1
  I  I55  1  0.16616337  0.00033258  0.50180872  1
  I  I56  1  0.17082401  0.00302200  0.83345615  1
  I  I57  1  0.17171257  0.33706209  0.16841907  1
  I  I58  1  0.16918787  0.33693239  0.49656415  1
  I  I59  1  0.17151233  0.33470936  0.83437177  1
  I  I60  1  0.16592061  0.66107575  0.16344573  1
  I  I61  1  0.17455956  0.66065267  0.50147899  1
  I  I62  1  0.17272234  0.66210187  0.83492181  1
  I  I63  1  0.50649702  0.00181624  0.16554920  1
  I  I64  1  0.50498030  0.00387224  0.50060348  1
  I  I65  1  0.49705839  0.00384467  0.83337729  1
  I  I66  1  0.50068471  0.33389170  0.16638224  1
  I  I67  1  0.49987153  0.33367441  0.49563250  1
  I  I68  1  0.49609637  0.33350537  0.83801057  1
  I  I69  1  0.49941695  0.66417635  0.16611426  1
  I  I70  1  0.49489715  0.66286426  0.49957465  1
  I  I71  1  0.49488516  0.66275072  0.83473664  1
  I  I72  1  0.82734411  0.00394005  0.16887708  1
  I  I73  1  0.82534758  0.00579842  0.49384030  1
  I  I74  1  0.83326546  0.00080669  0.83585177  1
  I  I75  1  0.82723720  0.33323236  0.16966549  1
  I  I76  1  0.83043073  0.33028298  0.49772315  1
  I  I77  1  0.83441851  0.33328239  0.83218502  1
  I  I78  1  0.83301048  0.66353776  0.16535497  1
  I  I79  1  0.83408180  0.66651285  0.49939007  1
  I  I80  1  0.83341394  0.66604869  0.83530463  1
  I  I81  1  0.17143733  0.17373162  -0.00318224  1
  I  I82  1  0.16858876  0.16790347  0.33336297  1
  I  I83  1  0.17022737  0.17369889  0.67023205  1
  I  I84  1  0.17075659  0.49611551  0.00003326  1
  I  I85  1  0.17160207  0.50013343  0.33295272  1
  I  I86  1  0.17547804  0.49485034  0.66711661  1
  I  I87  1  0.16601522  0.83211208  0.00017011  1
  I  I88  1  0.16686684  0.83495342  0.33311261  1
  I  I89  1  0.16728848  0.83353578  0.66675565  1
  I  I90  1  0.50069083  0.16934717  0.00066786  1
  I  I91  1  0.50535909  0.16985417  0.33281557  1
  I  I92  1  0.50115699  0.17435999  0.66655614  1
  I  I93  1  0.49765649  0.49799248  0.00083361  1
  I  I94  1  0.49700704  0.49809077  0.33258987  1
  I  I95  1  0.49169671  0.49184685  0.66664892  1
  I  I96  1  0.50056279  0.83185292  0.00355221  1
  I  I97  1  0.50105696  0.83091442  0.32954613  1
  I  I98  1  0.50010531  0.83307027  0.66655499  1
  I  I99  1  0.82840778  0.17099300  0.00339391  1
  I  I100  1  0.82337321  0.17182479  0.33222317  1
  I  I101  1  0.82897980  0.16739895  0.66403937  1
  I  I102  1  0.83148254  0.49304975  0.00437770  1
  I  I103  1  0.83248384  0.49832441  0.32956276  1
  I  I104  1  0.83395375  0.49912091  0.66639278  1
  I  I105  1  0.83336796  0.83510018  0.00073164  1
  I  I106  1  0.83219459  0.82885337  0.33293925  1
  I  I107  1  0.83303684  0.83294619  0.66617734  1
  I  I108  1  -0.00270112  0.17294480  0.16988021  1
  I  I109  1  -0.00225490  0.16934119  0.49571132  1
  I  I110  1  0.00300245  0.17268755  0.83316523  1
  I  I111  1  0.00005705  0.49384294  0.16653480  1
  I  I112  1  0.00247729  0.49796488  0.50005409  1
  I  I113  1  0.00334453  0.49497941  0.83332893  1
  I  I114  1  0.00013198  0.83326634  0.16595327  1
  I  I115  1  -0.00004301  0.83300442  0.49951064  1
  I  I116  1  0.00037860  0.83430395  0.83478262  1
  I  I117  1  0.33689561  0.16754820  0.16935904  1
  I  I118  1  0.33673074  0.16889974  0.49569577  1
  I  I119  1  0.33508875  0.17151886  0.83484144  1
  I  I120  1  0.33459508  0.50046994  0.16656495  1
  I  I121  1  0.33483355  0.49458761  0.49476708  1
  I  I122  1  0.33426893  0.49626721  0.83830655  1
  I  I123  1  0.33762103  0.83509507  0.16617253  1
  I  I124  1  0.33365757  0.83885820  0.49887438  1
  I  I125  1  0.33359649  0.83383509  0.83465858  1
  I  I126  1  0.66480861  0.17103384  0.16515196  1
  I  I127  1  0.66462345  0.17291543  0.50049464  1
  I  I128  1  0.66299998  0.17126450  0.83427658  1
  I  I129  1  0.66502952  0.49977583  0.16643377  1
  I  I130  1  0.66320311  0.49810378  0.49973010  1
  I  I131  1  0.66275464  0.49440968  0.83427264  1
  I  I132  1  0.66312528  0.82757386  0.16605694  1
  I  I133  1  0.66634019  0.82637127  0.49994166  1
  I  I134  1  0.66591286  0.83323088  0.83438721  1
