# generated using pymatgen
data_Cs27Sn14Pb13I81
_symmetry_space_group_name_H-M   'P 1'
_cell_length_a   18.95924013
_cell_length_b   18.96379871
_cell_length_c   18.95987114
_cell_angle_alpha   90.00087765
_cell_angle_beta   90.00046789
_cell_angle_gamma   90.00135694
_symmetry_Int_Tables_number   1
_chemical_formula_structural   Cs27Sn14Pb13I81
_chemical_formula_sum   'Cs27 Sn14 Pb13 I81'
_cell_volume   6816.81715442
_cell_formula_units_Z   1
loop_
 _symmetry_equiv_pos_site_id
 _symmetry_equiv_pos_as_xyz
  1  'x, y, z'
loop_
 _atom_site_type_symbol
 _atom_site_label
 _atom_site_symmetry_multiplicity
 _atom_site_fract_x
 _atom_site_fract_y
 _atom_site_fract_z
 _atom_site_occupancy
  Cs  Cs0  1  0.00217825  0.00059100  -0.00110060  1
  Cs  Cs1  1  -0.00072943  0.00098901  0.33758235  1
  Cs  Cs2  1  0.00605798  -0.00610568  0.66160674  1
  Cs  Cs3  1  -0.00215197  0.33516970  -0.00086963  1
  Cs  Cs4  1  0.00001042  0.33479036  0.33577691  1
  Cs  Cs5  1  0.00060631  0.33380823  0.66677674  1
  Cs  Cs6  1  -0.00190663  0.66503523  0.00280617  1
  Cs  Cs7  1  0.00137253  0.66544410  0.33063266  1
  Cs  Cs8  1  0.00209455  0.66959969  0.66542857  1
  Cs  Cs9  1  0.32865132  0.00255950  -0.00059364  1
  Cs  Cs10  1  0.33601784  0.00084570  0.33046494  1
  Cs  Cs11  1  0.32969512  -0.00040379  0.67089204  1
  Cs  Cs12  1  0.33464430  0.33123932  0.00163720  1
  Cs  Cs13  1  0.33383234  0.33054176  0.33261992  1
  Cs  Cs14  1  0.33198662  0.33336476  0.66529411  1
  Cs  Cs15  1  0.33529180  0.66578054  -0.00119993  1
  Cs  Cs16  1  0.33244446  0.66683043  0.33397296  1
  Cs  Cs17  1  0.33347904  0.66808805  0.66703652  1
  Cs  Cs18  1  0.66815994  0.00043531  -0.00113925  1
  Cs  Cs19  1  0.66581317  -0.00018372  0.33504637  1
  Cs  Cs20  1  0.66770443  0.00092267  0.66498772  1
  Cs  Cs21  1  0.66696046  0.33393735  -0.00081314  1
  Cs  Cs22  1  0.66592888  0.33278442  0.33315487  1
  Cs  Cs23  1  0.66697120  0.33215200  0.66717643  1
  Cs  Cs24  1  0.66640760  0.66523318  -0.00167398  1
  Cs  Cs25  1  0.66673049  0.66651371  0.33257399  1
  Cs  Cs26  1  0.66545759  0.66787753  0.66943671  1
  Sn  Sn27  1  0.50011867  0.83307861  0.16679185  1
  Sn  Sn28  1  0.16620989  0.50046102  0.16561859  1
  Sn  Sn29  1  0.50080144  0.16683384  0.83267673  1
  Sn  Sn30  1  0.83301232  0.16692003  0.83347392  1
  Sn  Sn31  1  0.83397142  0.49939455  0.83311826  1
  Sn  Sn32  1  0.16660483  0.83262392  0.16668918  1
  Sn  Sn33  1  0.50081681  0.50006071  0.49985205  1
  Sn  Sn34  1  0.50029910  0.83319562  0.49957645  1
  Sn  Sn35  1  0.50035709  0.16665661  0.50107172  1
  Sn  Sn36  1  0.83315775  0.16683980  0.16614709  1
  Sn  Sn37  1  0.83331644  0.83354384  0.16661066  1
  Sn  Sn38  1  0.16594934  0.49985212  0.83433821  1
  Sn  Sn39  1  0.83240121  0.50015983  0.50017632  1
  Sn  Sn40  1  0.83360798  0.49982306  0.16666374  1
  Pb  Pb41  1  0.50010821  0.49811731  0.83111048  1
  Pb  Pb42  1  0.50221314  0.16439586  0.16640420  1
  Pb  Pb43  1  0.49992850  0.50168622  0.16845192  1
  Pb  Pb44  1  0.50012066  0.83623615  0.83342522  1
  Pb  Pb45  1  0.83342927  0.83347688  0.83523646  1
  Pb  Pb46  1  0.16651862  0.83031039  0.83600831  1
  Pb  Pb47  1  0.16652677  0.50000972  0.49968991  1
  Pb  Pb48  1  0.16969782  0.16662838  0.49999560  1
  Pb  Pb49  1  0.83193006  0.16843009  0.50054691  1
  Pb  Pb50  1  0.83142212  0.83073581  0.49774398  1
  Pb  Pb51  1  0.16946085  0.83323750  0.49721962  1
  Pb  Pb52  1  0.16345232  0.16717651  0.16670721  1
  Pb  Pb53  1  0.16559356  0.16906479  0.83336352  1
  I  I54  1  0.16725741  -0.00301766  0.16834498  1
  I  I55  1  0.16627330  -0.00029697  0.49825252  1
  I  I56  1  0.16761329  0.00000087  0.83430854  1
  I  I57  1  0.16282480  0.33694014  0.16358387  1
  I  I58  1  0.16977328  0.33387344  0.49668478  1
  I  I59  1  0.16541136  0.33715291  0.84030954  1
  I  I60  1  0.16193390  0.66600995  0.16376076  1
  I  I61  1  0.16960464  0.66639353  0.50202709  1
  I  I62  1  0.16110189  0.66221108  0.83437369  1
  I  I63  1  0.50008661  -0.00372367  0.17205671  1
  I  I64  1  0.49980986  -0.00005368  0.49818743  1
  I  I65  1  0.50654588  0.00414578  0.82895801  1
  I  I66  1  0.49965094  0.33321457  0.16843911  1
  I  I67  1  0.50402578  0.33350836  0.50390059  1
  I  I68  1  0.50187208  0.33023291  0.82907358  1
  I  I69  1  0.50379597  0.66988532  0.17178972  1
  I  I70  1  0.50350640  0.66648326  0.49437833  1
  I  I71  1  0.50017025  0.66645795  0.83221116  1
  I  I72  1  0.83169522  -0.00013301  0.16208324  1
  I  I73  1  0.83104254  -0.00008109  0.49879348  1
  I  I74  1  0.82712301  0.00337565  0.83923310  1
  I  I75  1  0.83689233  0.33453570  0.16616184  1
  I  I76  1  0.82766453  0.33683315  0.49501715  1
  I  I77  1  0.83230676  0.33429986  0.83861067  1
  I  I78  1  0.83384229  0.66579919  0.16740396  1
  I  I79  1  0.82785420  0.66229381  0.50039012  1
  I  I80  1  0.83641026  0.66300830  0.83430334  1
  I  I81  1  0.17326146  0.16444261  0.00013253  1
  I  I82  1  0.16673466  0.16966189  0.33291208  1
  I  I83  1  0.16306829  0.16934567  0.66693251  1
  I  I84  1  0.15884933  0.50367359  0.00098898  1
  I  I85  1  0.16324262  0.50431597  0.32996453  1
  I  I86  1  0.16378686  0.49730223  0.66935318  1
  I  I87  1  0.16920216  0.83224806  0.00446210  1
  I  I88  1  0.16395199  0.82535916  0.32891416  1
  I  I89  1  0.16870822  0.83268794  0.66664289  1
  I  I90  1  0.50246591  0.16597735  -0.00239134  1
  I  I91  1  0.50149697  0.16798296  0.33582787  1
  I  I92  1  0.50641958  0.16605556  0.66633470  1
  I  I93  1  0.50170689  0.50025969  -0.00002183  1
  I  I94  1  0.50384520  0.49584915  0.33665384  1
  I  I95  1  0.50357397  0.50430838  0.66295446  1
  I  I96  1  0.50044752  0.83367659  0.00335609  1
  I  I97  1  0.50040737  0.83494544  0.33303494  1
  I  I98  1  0.50092257  0.83088939  0.66354168  1
  I  I99  1  0.82715175  0.17121834  0.00004190  1
  I  I100  1  0.83198198  0.16746379  0.33069281  1
  I  I101  1  0.82929033  0.17377978  0.66966297  1
  I  I102  1  0.83761308  0.49969676  0.00067795  1
  I  I103  1  0.83313791  0.50026076  0.33210908  1
  I  I104  1  0.83283164  0.49418989  0.66740276  1
  I  I105  1  0.83017057  0.82871594  0.00432095  1
  I  I106  1  0.83465184  0.83377777  0.32895890  1
  I  I107  1  0.83037511  0.83295236  0.66636219  1
  I  I108  1  -0.00480232  0.16362135  0.16035155  1
  I  I109  1  -0.00045923  0.16891628  0.49961455  1
  I  I110  1  -0.00381515  0.17012936  0.84005245  1
  I  I111  1  -0.00150047  0.50418420  0.16783544  1
  I  I112  1  -0.00326793  0.49903065  0.49888701  1
  I  I113  1  -0.00176522  0.49441247  0.83320278  1
  I  I114  1  -0.00064164  0.83089985  0.16449705  1
  I  I115  1  -0.00012603  0.83204574  0.49928524  1
  I  I116  1  -0.00011696  0.83817594  0.83382091  1
  I  I117  1  0.33356567  0.16648401  0.16728969  1
  I  I118  1  0.33870815  0.17033991  0.50432223  1
  I  I119  1  0.33590485  0.16719363  0.82843438  1
  I  I120  1  0.33067926  0.50484257  0.16400063  1
  I  I121  1  0.33645159  0.49991607  0.49970046  1
  I  I122  1  0.33096302  0.49924428  0.83708999  1
  I  I123  1  0.33342477  0.82849752  0.17134416  1
  I  I124  1  0.33789245  0.83027190  0.49434697  1
  I  I125  1  0.33345666  0.83293150  0.83568888  1
  I  I126  1  0.67039694  0.16882123  0.16599944  1
  I  I127  1  0.66351574  0.16536906  0.50024155  1
  I  I128  1  0.66763513  0.17257294  0.83406739  1
  I  I129  1  0.66991544  0.50079535  0.16467060  1
  I  I130  1  0.66702216  0.49986665  0.49868591  1
  I  I131  1  0.66983502  0.49814204  0.83653402  1
  I  I132  1  0.66717651  0.83295296  0.17077455  1
  I  I133  1  0.66312914  0.83481215  0.49326457  1
  I  I134  1  0.66670304  0.82835423  0.83731553  1
