# generated using pymatgen
data_Cs27Sn14Pb13I81
_symmetry_space_group_name_H-M   'P 1'
_cell_length_a   18.98107445
_cell_length_b   18.97251226
_cell_length_c   18.97112519
_cell_angle_alpha   90.00003656
_cell_angle_beta   89.99861354
_cell_angle_gamma   89.99977360
_symmetry_Int_Tables_number   1
_chemical_formula_structural   Cs27Sn14Pb13I81
_chemical_formula_sum   'Cs27 Sn14 Pb13 I81'
_cell_volume   6831.85632672
_cell_formula_units_Z   1
loop_
 _symmetry_equiv_pos_site_id
 _symmetry_equiv_pos_as_xyz
  1  'x, y, z'
loop_
 _atom_site_type_symbol
 _atom_site_label
 _atom_site_symmetry_multiplicity
 _atom_site_fract_x
 _atom_site_fract_y
 _atom_site_fract_z
 _atom_site_occupancy
  Cs  Cs0  1  0.00311933  -0.00367348  0.00192953  1
  Cs  Cs1  1  -0.00213163  0.00123671  0.33637665  1
  Cs  Cs2  1  -0.00002254  -0.00039663  0.66412171  1
  Cs  Cs3  1  -0.00009519  0.33409616  -0.00060877  1
  Cs  Cs4  1  0.00016082  0.33316521  0.33219159  1
  Cs  Cs5  1  -0.00193478  0.33203710  0.67062154  1
  Cs  Cs6  1  0.00220571  0.66926495  0.00099284  1
  Cs  Cs7  1  -0.00086278  0.66470039  0.33167823  1
  Cs  Cs8  1  -0.00181619  0.66856863  0.66611873  1
  Cs  Cs9  1  0.33416749  -0.00425037  -0.00365894  1
  Cs  Cs10  1  0.33616476  0.00353273  0.33652793  1
  Cs  Cs11  1  0.33168022  -0.00083394  0.66592888  1
  Cs  Cs12  1  0.33224439  0.33077672  0.00239007  1
  Cs  Cs13  1  0.33370807  0.33417321  0.33220083  1
  Cs  Cs14  1  0.33435630  0.33652671  0.66655455  1
  Cs  Cs15  1  0.32966889  0.67870536  -0.00098574  1
  Cs  Cs16  1  0.33164723  0.66070152  0.33483468  1
  Cs  Cs17  1  0.33644898  0.66488499  0.66543819  1
  Cs  Cs18  1  0.66095229  -0.00201232  0.00175313  1
  Cs  Cs19  1  0.66624391  -0.00018690  0.33379156  1
  Cs  Cs20  1  0.66865728  0.00257940  0.66493182  1
  Cs  Cs21  1  0.66711216  0.33423587  -0.00286234  1
  Cs  Cs22  1  0.66629547  0.33255219  0.33195310  1
  Cs  Cs23  1  0.66938126  0.33560002  0.67726418  1
  Cs  Cs24  1  0.66552797  0.66694898  -0.00034350  1
  Cs  Cs25  1  0.66826183  0.66722892  0.33328825  1
  Cs  Cs26  1  0.66833240  0.66272030  0.66701871  1
  Sn  Sn27  1  0.83343360  0.50002385  0.49953448  1
  Sn  Sn28  1  0.83251076  0.49904505  0.16740251  1
  Sn  Sn29  1  0.16732041  0.16646196  0.50014833  1
  Sn  Sn30  1  0.16699434  0.49978723  0.83336889  1
  Sn  Sn31  1  0.83303523  0.83373789  0.83275437  1
  Sn  Sn32  1  0.16683952  0.16664282  0.16679080  1
  Sn  Sn33  1  0.50042599  0.49952827  0.16645366  1
  Sn  Sn34  1  0.50006750  0.16750896  0.16735207  1
  Sn  Sn35  1  0.83319962  0.83242987  0.50073223  1
  Sn  Sn36  1  0.49965609  0.16670149  0.49985788  1
  Sn  Sn37  1  0.16669696  0.16741321  0.83306095  1
  Sn  Sn38  1  0.50008382  0.83368773  0.49967539  1
  Sn  Sn39  1  0.83307743  0.16725667  0.16670058  1
  Sn  Sn40  1  0.16681410  0.83354945  0.49967135  1
  Pb  Pb41  1  0.83291424  0.16698827  0.49872291  1
  Pb  Pb42  1  0.16443525  0.49914588  0.50159651  1
  Pb  Pb43  1  0.16686733  0.83634605  0.17010407  1
  Pb  Pb44  1  0.16517636  0.83370250  0.83068501  1
  Pb  Pb45  1  0.83326233  0.83306403  0.16713180  1
  Pb  Pb46  1  0.49986712  0.83333351  0.16927404  1
  Pb  Pb47  1  0.50279104  0.83342293  0.82985267  1
  Pb  Pb48  1  0.83563398  0.16411347  0.83677512  1
  Pb  Pb49  1  0.83504404  0.50178115  0.83427110  1
  Pb  Pb50  1  0.49762633  0.16674475  0.83311669  1
  Pb  Pb51  1  0.50244074  0.49896839  0.49848400  1
  Pb  Pb52  1  0.49706144  0.50004087  0.83715296  1
  Pb  Pb53  1  0.16666185  0.49819634  0.16469805  1
  I  I54  1  0.16587112  0.00502085  0.16057051  1
  I  I55  1  0.16445314  0.00098561  0.50117174  1
  I  I56  1  0.16513023  0.00296439  0.83574318  1
  I  I57  1  0.16640768  0.32961644  0.17228046  1
  I  I58  1  0.17011150  0.32969729  0.49745010  1
  I  I59  1  0.16490805  0.33172846  0.83134257  1
  I  I60  1  0.16590741  0.66659267  0.16491328  1
  I  I61  1  0.16841037  0.66907229  0.50325039  1
  I  I62  1  0.16421239  0.66478531  0.83285382  1
  I  I63  1  0.50086490  0.00359965  0.16864996  1
  I  I64  1  0.50111573  0.00066537  0.49418261  1
  I  I65  1  0.49808921  0.00007845  0.83934115  1
  I  I66  1  0.50008736  0.33167250  0.17342430  1
  I  I67  1  0.49433335  0.33002887  0.49625434  1
  I  I68  1  0.50305822  0.33334261  0.82722436  1
  I  I69  1  0.50702575  0.66373629  0.16771966  1
  I  I70  1  0.49757053  0.66908217  0.49864952  1
  I  I71  1  0.49635279  0.66669884  0.83388988  1
  I  I72  1  0.83383494  0.00303180  0.16723704  1
  I  I73  1  0.83414882  -0.00238178  0.50179269  1
  I  I74  1  0.83602604  -0.00318592  0.82547714  1
  I  I75  1  0.83375853  0.33331485  0.17302681  1
  I  I76  1  0.83470957  0.33560203  0.49621294  1
  I  I77  1  0.83365851  0.33316505  0.83018706  1
  I  I78  1  0.82857256  0.66359151  0.16797031  1
  I  I79  1  0.83394896  0.66758049  0.49796269  1
  I  I80  1  0.83736179  0.66947762  0.83218925  1
  I  I81  1  0.16504736  0.17285694  0.00059642  1
  I  I82  1  0.16699478  0.16152120  0.33352305  1
  I  I83  1  0.17068275  0.16554787  0.66546471  1
  I  I84  1  0.16418186  0.49387488  -0.00290895  1
  I  I85  1  0.16712680  0.50057488  0.33325716  1
  I  I86  1  0.16348303  0.49403130  0.66919974  1
  I  I87  1  0.16382689  0.83351193  -0.00016747  1
  I  I88  1  0.16240493  0.83723812  0.33823783  1
  I  I89  1  0.16731487  0.83979431  0.66278605  1
  I  I90  1  0.50020368  0.17108770  0.00351140  1
  I  I91  1  0.49519562  0.16597017  0.33315370  1
  I  I92  1  0.49553136  0.16123226  0.66310308  1
  I  I93  1  0.50862719  0.49144952  0.00500451  1
  I  I94  1  0.50054012  0.49811674  0.33042147  1
  I  I95  1  0.50128867  0.50001550  0.66664499  1
  I  I96  1  0.50179511  0.83359815  0.00005794  1
  I  I97  1  0.50365977  0.83613355  0.33738800  1
  I  I98  1  0.49663659  0.83981447  0.66163854  1
  I  I99  1  0.83261345  0.17210750  0.00489112  1
  I  I100  1  0.83791381  0.16573785  0.33053842  1
  I  I101  1  0.83356602  0.16893472  0.66674869  1
  I  I102  1  0.83099232  0.49674974  0.00332075  1
  I  I103  1  0.83185712  0.50286575  0.33284965  1
  I  I104  1  0.83514412  0.50294147  0.66444826  1
  I  I105  1  0.83604493  0.83398734  -0.00203663  1
  I  I106  1  0.83366734  0.83262973  0.33674190  1
  I  I107  1  0.83416466  0.82800909  0.66424722  1
  I  I108  1  0.00025326  0.16997665  0.16754885  1
  I  I109  1  0.00259882  0.16347495  0.49863509  1
  I  I110  1  0.00369824  0.16971091  0.83120793  1
  I  I111  1  -0.00280359  0.49618698  0.16926261  1
  I  I112  1  -0.00339353  0.50421357  0.49390259  1
  I  I113  1  0.00258667  0.49551490  0.83479014  1
  I  I114  1  -0.00003770  0.83365477  0.16868899  1
  I  I115  1  -0.00026220  0.83476871  0.50389118  1
  I  I116  1  -0.00246765  0.83370464  0.82691749  1
  I  I117  1  0.33350390  0.17106791  0.16850718  1
  I  I118  1  0.33275135  0.15831876  0.49513546  1
  I  I119  1  0.32926308  0.16877474  0.83753988  1
  I  I120  1  0.33579362  0.49481515  0.16660942  1
  I  I121  1  0.33336336  0.50344491  0.49953442  1
  I  I122  1  0.32937298  0.49521237  0.83172072  1
  I  I123  1  0.33331116  0.83085795  0.16584204  1
  I  I124  1  0.33315767  0.83969227  0.49852156  1
  I  I125  1  0.33315181  0.83313916  0.83349470  1
  I  I126  1  0.66620912  0.16976928  0.17313346  1
  I  I127  1  0.66412110  0.16234348  0.49310602  1
  I  I128  1  0.66689523  0.16552159  0.83253368  1
  I  I129  1  0.66759989  0.49167560  0.17106686  1
  I  I130  1  0.67029403  0.50475766  0.49821030  1
  I  I131  1  0.66683344  0.50169191  0.83137853  1
  I  I132  1  0.66674256  0.83878385  0.16857406  1
  I  I133  1  0.66701855  0.83436691  0.50291538  1
  I  I134  1  0.67059912  0.83215901  0.82888632  1
