# generated using pymatgen
data_Cs27Sn13Pb14I81
_symmetry_space_group_name_H-M   'P 1'
_cell_length_a   18.99982543
_cell_length_b   18.98346097
_cell_length_c   18.99013847
_cell_angle_alpha   89.99907694
_cell_angle_beta   89.99907259
_cell_angle_gamma   90.00012204
_symmetry_Int_Tables_number   1
_chemical_formula_structural   Cs27Sn13Pb14I81
_chemical_formula_sum   'Cs27 Sn13 Pb14 I81'
_cell_volume   6849.40956219
_cell_formula_units_Z   1
loop_
 _symmetry_equiv_pos_site_id
 _symmetry_equiv_pos_as_xyz
  1  'x, y, z'
loop_
 _atom_site_type_symbol
 _atom_site_label
 _atom_site_symmetry_multiplicity
 _atom_site_fract_x
 _atom_site_fract_y
 _atom_site_fract_z
 _atom_site_occupancy
  Cs  Cs0  1  -0.00087918  0.00240569  0.00004081  1
  Cs  Cs1  1  0.00396310  -0.00460105  0.33402988  1
  Cs  Cs2  1  0.00409476  -0.00083426  0.66649961  1
  Cs  Cs3  1  0.00121536  0.33246679  0.00074930  1
  Cs  Cs4  1  -0.00368838  0.33158149  0.33317050  1
  Cs  Cs5  1  -0.00045886  0.33709640  0.66555069  1
  Cs  Cs6  1  0.00219621  0.66758989  -0.00095663  1
  Cs  Cs7  1  0.00060515  0.67707230  0.33492780  1
  Cs  Cs8  1  -0.01066759  0.66117020  0.66649573  1
  Cs  Cs9  1  0.33317546  0.00175581  -0.00407283  1
  Cs  Cs10  1  0.33149455  -0.00628888  0.34429183  1
  Cs  Cs11  1  0.33306243  -0.00022013  0.66503388  1
  Cs  Cs12  1  0.33316987  0.33493196  0.00006917  1
  Cs  Cs13  1  0.33371591  0.33460171  0.33653071  1
  Cs  Cs14  1  0.33374445  0.33454404  0.66498722  1
  Cs  Cs15  1  0.33212586  0.66394478  0.00512422  1
  Cs  Cs16  1  0.33222679  0.67012360  0.32575203  1
  Cs  Cs17  1  0.33389877  0.66364972  0.66783982  1
  Cs  Cs18  1  0.66803323  0.00331778  -0.00119438  1
  Cs  Cs19  1  0.66384448  -0.00487513  0.33466094  1
  Cs  Cs20  1  0.66315010  -0.00110725  0.66815589  1
  Cs  Cs21  1  0.66609332  0.32996648  0.00316081  1
  Cs  Cs22  1  0.66923284  0.33280224  0.33119728  1
  Cs  Cs23  1  0.66544141  0.33443103  0.66520186  1
  Cs  Cs24  1  0.66574768  0.67279945  0.00156301  1
  Cs  Cs25  1  0.66590370  0.67463800  0.33294002  1
  Cs  Cs26  1  0.67409799  0.66403400  0.66540389  1
  Sn  Sn27  1  0.16715118  0.49998708  0.49961131  1
  Sn  Sn28  1  0.49921343  0.16667221  0.16673250  1
  Sn  Sn29  1  0.16737911  0.83339291  0.83305266  1
  Sn  Sn30  1  0.83337972  0.16713787  0.16713573  1
  Sn  Sn31  1  0.83339815  0.49986839  0.16669298  1
  Sn  Sn32  1  0.83349940  0.16715099  0.83266017  1
  Sn  Sn33  1  0.49936639  0.49982595  0.49988465  1
  Sn  Sn34  1  0.16739343  0.16699264  0.16658410  1
  Sn  Sn35  1  0.50017538  0.49995825  0.83307175  1
  Sn  Sn36  1  0.49963698  0.16704948  0.83378763  1
  Sn  Sn37  1  0.16699369  0.16651796  0.83381909  1
  Sn  Sn38  1  0.49892903  0.83312206  0.83324678  1
  Sn  Sn39  1  0.83320715  0.16654183  0.50001478  1
  Pb  Pb40  1  0.49966919  0.83700510  0.16383383  1
  Pb  Pb41  1  0.83352019  0.83585432  0.83333853  1
  Pb  Pb42  1  0.16475335  0.16810122  0.50036981  1
  Pb  Pb43  1  0.83280850  0.49848341  0.49740053  1
  Pb  Pb44  1  0.83054089  0.49745518  0.83590852  1
  Pb  Pb45  1  0.50177922  0.16822690  0.50007665  1
  Pb  Pb46  1  0.16679382  0.82989309  0.50362817  1
  Pb  Pb47  1  0.16841120  0.49972561  0.83222114  1
  Pb  Pb48  1  0.16433630  0.49775783  0.16908385  1
  Pb  Pb49  1  0.83328357  0.83682368  0.50034833  1
  Pb  Pb50  1  0.16689526  0.83647476  0.16375701  1
  Pb  Pb51  1  0.83341565  0.83425290  0.16633092  1
  Pb  Pb52  1  0.49986009  0.82978039  0.50310009  1
  Pb  Pb53  1  0.50171417  0.49814912  0.16671652  1
  I  I54  1  0.16201884  0.00505393  0.16587466  1
  I  I55  1  0.16405453  -0.00006162  0.49756961  1
  I  I56  1  0.17046459  0.00219375  0.83665770  1
  I  I57  1  0.16757629  0.32926241  0.15839732  1
  I  I58  1  0.17033614  0.33559524  0.50345195  1
  I  I59  1  0.16700379  0.32979527  0.83597465  1
  I  I60  1  0.16403031  0.66668032  0.16623904  1
  I  I61  1  0.17044276  0.66235796  0.50051599  1
  I  I62  1  0.17238309  0.66910008  0.83083742  1
  I  I63  1  0.50513791  0.00539999  0.16098116  1
  I  I64  1  0.50245404  -0.00006137  0.49951919  1
  I  I65  1  0.50079719  0.00168499  0.83880965  1
  I  I66  1  0.49964222  0.32967472  0.15961356  1
  I  I67  1  0.49733621  0.33583924  0.50732441  1
  I  I68  1  0.50040756  0.33190156  0.83313761  1
  I  I69  1  0.50351832  0.66676232  0.16600961  1
  I  I70  1  0.49790409  0.66181025  0.50481791  1
  I  I71  1  0.49470355  0.66648646  0.82792439  1
  I  I72  1  0.83309718  0.00483764  0.16505550  1
  I  I73  1  0.83345085  0.00519493  0.49733753  1
  I  I74  1  0.82858015  0.00482987  0.83700269  1
  I  I75  1  0.83265291  0.33033533  0.16626518  1
  I  I76  1  0.83318602  0.33035508  0.50208492  1
  I  I77  1  0.83442765  0.32883283  0.83199170  1
  I  I78  1  0.83161113  0.66394362  0.16759154  1
  I  I79  1  0.83368508  0.66636191  0.49862373  1
  I  I80  1  0.83382629  0.66637591  0.83443168  1
  I  I81  1  0.16251322  0.16400339  -0.00102630  1
  I  I82  1  0.16531372  0.17071609  0.33068508  1
  I  I83  1  0.16705174  0.16394256  0.67013344  1
  I  I84  1  0.16707640  0.50153759  0.00007070  1
  I  I85  1  0.17398615  0.49550741  0.33667430  1
  I  I86  1  0.16782633  0.49664117  0.66442200  1
  I  I87  1  0.17086815  0.83414216  -0.00412099  1
  I  I88  1  0.16550048  0.83458325  0.33356115  1
  I  I89  1  0.17178622  0.84437314  0.67104358  1
  I  I90  1  0.50429172  0.16837564  -0.00157667  1
  I  I91  1  0.50177397  0.17093079  0.33063267  1
  I  I92  1  0.50044529  0.16502803  0.67029652  1
  I  I93  1  0.50150069  0.50019371  -0.00306651  1
  I  I94  1  0.49817832  0.49462228  0.33574361  1
  I  I95  1  0.49651519  0.49640551  0.66788171  1
  I  I96  1  0.49676271  0.82800545  -0.00434391  1
  I  I97  1  0.50135527  0.83390096  0.33337978  1
  I  I98  1  0.49622631  0.84226365  0.67113432  1
  I  I99  1  0.83261743  0.16965039  -0.00006204  1
  I  I100  1  0.83300525  0.17261013  0.33212945  1
  I  I101  1  0.83273761  0.16624226  0.66770253  1
  I  I102  1  0.83244672  0.49142068  0.00313286  1
  I  I103  1  0.83115549  0.48898149  0.33026971  1
  I  I104  1  0.83466223  0.49811897  0.66667747  1
  I  I105  1  0.83239741  0.83487427  -0.00031126  1
  I  I106  1  0.83321319  0.83488168  0.33323920  1
  I  I107  1  0.83327891  0.83368226  0.66711156  1
  I  I108  1  -0.00046569  0.17082194  0.16266021  1
  I  I109  1  -0.00303139  0.17093393  0.50050322  1
  I  I110  1  0.00024679  0.16181699  0.83626514  1
  I  I111  1  -0.00324628  0.49075418  0.16721970  1
  I  I112  1  0.00170896  0.49678826  0.50010428  1
  I  I113  1  -0.00021502  0.50011961  0.83110952  1
  I  I114  1  0.00014857  0.83487209  0.16429547  1
  I  I115  1  0.00021392  0.83044700  0.50245601  1
  I  I116  1  0.00309075  0.83973843  0.83379076  1
  I  I117  1  0.33345485  0.16757211  0.15628058  1
  I  I118  1  0.33334636  0.16695098  0.49941132  1
  I  I119  1  0.33386016  0.16637293  0.84029740  1
  I  I120  1  0.33340729  0.49764461  0.16549885  1
  I  I121  1  0.33416165  0.49605579  0.50548628  1
  I  I122  1  0.33656648  0.49402962  0.83216507  1
  I  I123  1  0.33334066  0.83251260  0.16792390  1
  I  I124  1  0.33333871  0.83862857  0.49933284  1
  I  I125  1  0.33394526  0.84094017  0.83291406  1
  I  I126  1  0.66695796  0.17107899  0.16230937  1
  I  I127  1  0.66958616  0.17064900  0.50055717  1
  I  I128  1  0.66604425  0.16700030  0.83611983  1
  I  I129  1  0.66926935  0.49026946  0.16727924  1
  I  I130  1  0.66404198  0.49726294  0.50504272  1
  I  I131  1  0.66256151  0.50001946  0.82586104  1
  I  I132  1  0.66647923  0.83540653  0.16430150  1
  I  I133  1  0.66642939  0.83120082  0.50223186  1
  I  I134  1  0.66349958  0.83473735  0.83356726  1
