# generated using pymatgen
data_Cs27Sn14Pb13I81
_symmetry_space_group_name_H-M   'P 1'
_cell_length_a   18.97085226
_cell_length_b   18.98262983
_cell_length_c   18.97218780
_cell_angle_alpha   90.00120721
_cell_angle_beta   90.00169163
_cell_angle_gamma   89.99906598
_symmetry_Int_Tables_number   1
_chemical_formula_structural   Cs27Sn14Pb13I81
_chemical_formula_sum   'Cs27 Sn14 Pb13 I81'
_cell_volume   6832.20101303
_cell_formula_units_Z   1
loop_
 _symmetry_equiv_pos_site_id
 _symmetry_equiv_pos_as_xyz
  1  'x, y, z'
loop_
 _atom_site_type_symbol
 _atom_site_label
 _atom_site_symmetry_multiplicity
 _atom_site_fract_x
 _atom_site_fract_y
 _atom_site_fract_z
 _atom_site_occupancy
  Cs  Cs0  1  0.00186481  -0.00205674  -0.00026323  1
  Cs  Cs1  1  -0.00296711  0.00024688  0.33624985  1
  Cs  Cs2  1  -0.00132280  0.00549252  0.66314719  1
  Cs  Cs3  1  0.00076025  0.33513657  -0.00210104  1
  Cs  Cs4  1  0.00160236  0.32952416  0.33791638  1
  Cs  Cs5  1  0.00918909  0.33945493  0.66221059  1
  Cs  Cs6  1  0.00041419  0.66694132  0.00125366  1
  Cs  Cs7  1  -0.00068076  0.66870431  0.33184893  1
  Cs  Cs8  1  -0.00510758  0.65372206  0.66375038  1
  Cs  Cs9  1  0.32924576  -0.00430959  -0.00198608  1
  Cs  Cs10  1  0.33442538  -0.00311277  0.33256887  1
  Cs  Cs11  1  0.33330711  0.00062590  0.66922076  1
  Cs  Cs12  1  0.33414237  0.33253180  0.00198461  1
  Cs  Cs13  1  0.33515912  0.33403423  0.33241480  1
  Cs  Cs14  1  0.32978472  0.33154168  0.66562771  1
  Cs  Cs15  1  0.33229229  0.67106436  0.00132645  1
  Cs  Cs16  1  0.33405580  0.66761552  0.33223311  1
  Cs  Cs17  1  0.33536814  0.66882724  0.66717753  1
  Cs  Cs18  1  0.66742975  0.00200341  -0.00173799  1
  Cs  Cs19  1  0.66857074  0.00209338  0.33283128  1
  Cs  Cs20  1  0.66632196  -0.00154295  0.66884605  1
  Cs  Cs21  1  0.66680329  0.33166236  0.00072923  1
  Cs  Cs22  1  0.66455342  0.32903745  0.32996372  1
  Cs  Cs23  1  0.66532302  0.33474532  0.67040626  1
  Cs  Cs24  1  0.66729256  0.66663591  -0.00025482  1
  Cs  Cs25  1  0.66516107  0.66726108  0.33344020  1
  Cs  Cs26  1  0.66671044  0.66718349  0.66671354  1
  Sn  Sn27  1  0.16670268  0.16716289  0.16656927  1
  Sn  Sn28  1  0.83209498  0.83284785  0.16574323  1
  Sn  Sn29  1  0.49915486  0.83364326  0.49919079  1
  Sn  Sn30  1  0.50026598  0.50085166  0.16642698  1
  Sn  Sn31  1  0.49988705  0.49926885  0.83376402  1
  Sn  Sn32  1  0.83304683  0.50035471  0.16680066  1
  Sn  Sn33  1  0.50045469  0.16731289  0.83275794  1
  Sn  Sn34  1  0.83361493  0.83386794  0.83377287  1
  Sn  Sn35  1  0.16713178  0.83310019  0.50066750  1
  Sn  Sn36  1  0.83330051  0.16649665  0.83313866  1
  Sn  Sn37  1  0.50111120  0.83281178  0.16713579  1
  Sn  Sn38  1  0.50003085  0.49993546  0.49994486  1
  Sn  Sn39  1  0.50017121  0.16637360  0.50082040  1
  Sn  Sn40  1  0.16673642  0.49896216  0.16676646  1
  Pb  Pb41  1  0.83572244  0.16649385  0.16474397  1
  Pb  Pb42  1  0.16629259  0.83300784  0.16793968  1
  Pb  Pb43  1  0.16941567  0.16469309  0.49775493  1
  Pb  Pb44  1  0.50122544  0.83344494  0.83345274  1
  Pb  Pb45  1  0.83283185  0.83328585  0.50001749  1
  Pb  Pb46  1  0.83056517  0.49969274  0.49678962  1
  Pb  Pb47  1  0.16989577  0.50031680  0.83575237  1
  Pb  Pb48  1  0.49867989  0.16601208  0.16606047  1
  Pb  Pb49  1  0.83087535  0.16708081  0.50325442  1
  Pb  Pb50  1  0.16256362  0.83311077  0.82957747  1
  Pb  Pb51  1  0.83141303  0.49970627  0.83529288  1
  Pb  Pb52  1  0.16930940  0.50216497  0.49737221  1
  Pb  Pb53  1  0.16678088  0.16660948  0.83507136  1
  I  I54  1  0.16828074  0.00149684  0.16804195  1
  I  I55  1  0.17286769  -0.00294953  0.49582382  1
  I  I56  1  0.17250808  -0.00019083  0.83821590  1
  I  I57  1  0.16885251  0.33463835  0.16611755  1
  I  I58  1  0.16737178  0.33351835  0.50020113  1
  I  I59  1  0.16209798  0.33345707  0.83194999  1
  I  I60  1  0.16797240  0.66407654  0.16840535  1
  I  I61  1  0.17297948  0.66972922  0.49693499  1
  I  I62  1  0.16815535  0.66681707  0.83692827  1
  I  I63  1  0.50237876  -0.00297824  0.17016719  1
  I  I64  1  0.49636160  -0.00065670  0.49952625  1
  I  I65  1  0.50246930  0.00236766  0.83064096  1
  I  I66  1  0.50189539  0.33618938  0.16889752  1
  I  I67  1  0.50206690  0.33377353  0.49902100  1
  I  I68  1  0.50596207  0.33323455  0.83189437  1
  I  I69  1  0.49842370  0.66592492  0.16907026  1
  I  I70  1  0.49630339  0.66684138  0.49829598  1
  I  I71  1  0.50160934  0.66427448  0.83219090  1
  I  I72  1  0.82961117  -0.00298294  0.16533544  1
  I  I73  1  0.83130217  -0.00002610  0.49469239  1
  I  I74  1  0.82565650  -0.00018538  0.83962118  1
  I  I75  1  0.82872124  0.33612228  0.16535661  1
  I  I76  1  0.83186712  0.33337192  0.49866062  1
  I  I77  1  0.82818113  0.33095957  0.83641344  1
  I  I78  1  0.83364731  0.66717135  0.16089515  1
  I  I79  1  0.83166880  0.66670012  0.50539796  1
  I  I80  1  0.83134662  0.66898157  0.83573256  1
  I  I81  1  0.17036845  0.16949156  0.00308511  1
  I  I82  1  0.16807401  0.17116001  0.33005094  1
  I  I83  1  0.16501755  0.16462662  0.66637675  1
  I  I84  1  0.16914104  0.49787404  0.00430929  1
  I  I85  1  0.16938125  0.49702056  0.32926715  1
  I  I86  1  0.16654468  0.50103783  0.66623049  1
  I  I87  1  0.16966739  0.83362509  0.00011544  1
  I  I88  1  0.16875753  0.83298795  0.33552471  1
  I  I89  1  0.17706955  0.83523323  0.66223818  1
  I  I90  1  0.50273671  0.17038672  -0.00263969  1
  I  I91  1  0.49688035  0.16855897  0.33540074  1
  I  I92  1  0.50376783  0.16907553  0.66672302  1
  I  I93  1  0.50036414  0.49950611  0.00130368  1
  I  I94  1  0.49971902  0.50095665  0.33239367  1
  I  I95  1  0.50117573  0.50044722  0.66643221  1
  I  I96  1  0.50183695  0.82999200  0.00281702  1
  I  I97  1  0.50136909  0.83040460  0.33278589  1
  I  I98  1  0.49820273  0.83074864  0.66407373  1
  I  I99  1  0.82450596  0.16541874  -0.00280492  1
  I  I100  1  0.83299738  0.16582499  0.33312283  1
  I  I101  1  0.83076970  0.15787344  0.67127593  1
  I  I102  1  0.82986159  0.50148702  0.00354708  1
  I  I103  1  0.83138446  0.50788998  0.32843354  1
  I  I104  1  0.83118944  0.50171552  0.66685937  1
  I  I105  1  0.82678135  0.83309330  0.00141224  1
  I  I106  1  0.83210143  0.82845633  0.33018599  1
  I  I107  1  0.83177046  0.83882718  0.66942719  1
  I  I108  1  0.00321565  0.17002121  0.16467460  1
  I  I109  1  0.00034530  0.16362456  0.49965518  1
  I  I110  1  -0.00293797  0.16020035  0.83825968  1
  I  I111  1  -0.00036175  0.50154006  0.16490479  1
  I  I112  1  0.00027294  0.50223569  0.49959155  1
  I  I113  1  -0.00020140  0.50013682  0.83502182  1
  I  I114  1  -0.00275089  0.83026839  0.16465953  1
  I  I115  1  0.00215881  0.83469507  0.49768806  1
  I  I116  1  -0.00517784  0.84012001  0.84204387  1
  I  I117  1  0.33117977  0.17065383  0.16592038  1
  I  I118  1  0.33776208  0.16911337  0.50593248  1
  I  I119  1  0.33680659  0.17115158  0.83027243  1
  I  I120  1  0.33504342  0.50008270  0.16710393  1
  I  I121  1  0.33779214  0.49796633  0.49729321  1
  I  I122  1  0.33846291  0.49403238  0.83482721  1
  I  I123  1  0.33610528  0.83047246  0.16900228  1
  I  I124  1  0.33611333  0.83283690  0.49265502  1
  I  I125  1  0.33341583  0.83389716  0.83671051  1
  I  I126  1  0.66655473  0.16842246  0.16851320  1
  I  I127  1  0.66209134  0.16337482  0.49793502  1
  I  I128  1  0.66539603  0.16643860  0.83101100  1
  I  I129  1  0.66521375  0.50534530  0.16680328  1
  I  I130  1  0.66177367  0.50454042  0.49821554  1
  I  I131  1  0.66295677  0.49897528  0.83566506  1
  I  I132  1  0.66578657  0.82597042  0.16892153  1
  I  I133  1  0.66297094  0.83257508  0.49832897  1
  I  I134  1  0.66904326  0.83423930  0.83391658  1
