# generated using pymatgen
data_Cs27Sn14Pb13I81
_symmetry_space_group_name_H-M   'P 1'
_cell_length_a   18.96260301
_cell_length_b   18.95775142
_cell_length_c   18.96307048
_cell_angle_alpha   90.00109956
_cell_angle_beta   90.00093734
_cell_angle_gamma   90.00106476
_symmetry_Int_Tables_number   1
_chemical_formula_structural   Cs27Sn14Pb13I81
_chemical_formula_sum   'Cs27 Sn14 Pb13 I81'
_cell_volume   6817.00223780
_cell_formula_units_Z   1
loop_
 _symmetry_equiv_pos_site_id
 _symmetry_equiv_pos_as_xyz
  1  'x, y, z'
loop_
 _atom_site_type_symbol
 _atom_site_label
 _atom_site_symmetry_multiplicity
 _atom_site_fract_x
 _atom_site_fract_y
 _atom_site_fract_z
 _atom_site_occupancy
  Cs  Cs0  1  -0.00205305  -0.00166167  -0.00046959  1
  Cs  Cs1  1  -0.00090433  0.00145696  0.33389256  1
  Cs  Cs2  1  0.00092153  0.00162843  0.66699405  1
  Cs  Cs3  1  0.00810192  0.33691382  -0.00008935  1
  Cs  Cs4  1  0.00115492  0.33294476  0.33078886  1
  Cs  Cs5  1  0.00380219  0.33035556  0.66909652  1
  Cs  Cs6  1  -0.00074817  0.66533645  0.00035176  1
  Cs  Cs7  1  -0.00738294  0.66484421  0.33298473  1
  Cs  Cs8  1  0.00079271  0.66691155  0.66759202  1
  Cs  Cs9  1  0.33664945  -0.00318998  0.00217758  1
  Cs  Cs10  1  0.33321644  0.00082193  0.33239466  1
  Cs  Cs11  1  0.33241894  -0.00087190  0.66618700  1
  Cs  Cs12  1  0.33080399  0.33565668  -0.00014576  1
  Cs  Cs13  1  0.33303806  0.33063116  0.33224835  1
  Cs  Cs14  1  0.32983475  0.33246167  0.66736383  1
  Cs  Cs15  1  0.33355273  0.66773563  -0.00095112  1
  Cs  Cs16  1  0.33533959  0.66795636  0.33636346  1
  Cs  Cs17  1  0.33349754  0.66725146  0.66574622  1
  Cs  Cs18  1  0.66531212  0.00131453  0.00000949  1
  Cs  Cs19  1  0.66756408  0.00094319  0.33308851  1
  Cs  Cs20  1  0.66734230  0.00198056  0.66717155  1
  Cs  Cs21  1  0.66470260  0.33132314  -0.00094353  1
  Cs  Cs22  1  0.66662843  0.33299181  0.33434921  1
  Cs  Cs23  1  0.66718626  0.33258872  0.66701832  1
  Cs  Cs24  1  0.66641406  0.66648704  0.00032270  1
  Cs  Cs25  1  0.67239429  0.66422756  0.33951849  1
  Cs  Cs26  1  0.66633965  0.66524915  0.66332803  1
  Sn  Sn27  1  0.83277670  0.16684747  0.16698546  1
  Sn  Sn28  1  0.50068368  0.16647491  0.49948525  1
  Sn  Sn29  1  0.50025893  0.50060802  0.16642020  1
  Sn  Sn30  1  0.50086189  0.50096762  0.83394975  1
  Sn  Sn31  1  0.16692152  0.83315230  0.16702766  1
  Sn  Sn32  1  0.83253805  0.50057297  0.83347244  1
  Sn  Sn33  1  0.16657266  0.83222783  0.49951090  1
  Sn  Sn34  1  0.49992173  0.83246531  0.16663165  1
  Sn  Sn35  1  0.83247894  0.16666804  0.49925598  1
  Sn  Sn36  1  0.83268791  0.83242859  0.83326198  1
  Sn  Sn37  1  0.50075266  0.16676110  0.16750183  1
  Sn  Sn38  1  0.50047783  0.83237278  0.83372393  1
  Sn  Sn39  1  0.16683359  0.83301876  0.83357226  1
  Sn  Sn40  1  0.16671518  0.50083042  0.49952832  1
  Pb  Pb41  1  0.16727854  0.50230648  0.83195016  1
  Pb  Pb42  1  0.16911725  0.50306250  0.16899232  1
  Pb  Pb43  1  0.16694185  0.16359146  0.83382926  1
  Pb  Pb44  1  0.83259898  0.83479512  0.16487345  1
  Pb  Pb45  1  0.83582741  0.83533153  0.50255630  1
  Pb  Pb46  1  0.49866828  0.83525081  0.49996941  1
  Pb  Pb47  1  0.16707046  0.16439587  0.16644288  1
  Pb  Pb48  1  0.83331559  0.16722928  0.83395558  1
  Pb  Pb49  1  0.49976822  0.16682751  0.83380715  1
  Pb  Pb50  1  0.83098894  0.49737049  0.16436767  1
  Pb  Pb51  1  0.49859764  0.49770278  0.50038041  1
  Pb  Pb52  1  0.83566641  0.49733606  0.50248539  1
  Pb  Pb53  1  0.16673609  0.16645532  0.49978960  1
  I  I54  1  0.17247474  -0.00399725  0.16811314  1
  I  I55  1  0.16702658  -0.00312651  0.50152229  1
  I  I56  1  0.16678879  -0.00536100  0.82958828  1
  I  I57  1  0.16727214  0.33373355  0.16914118  1
  I  I58  1  0.16732629  0.33552983  0.50171876  1
  I  I59  1  0.16580382  0.33400882  0.82980005  1
  I  I60  1  0.17162244  0.67121810  0.16288125  1
  I  I61  1  0.16897403  0.66816508  0.50167858  1
  I  I62  1  0.16709714  0.67066158  0.83493448  1
  I  I63  1  0.49894019  -0.00054740  0.16580771  1
  I  I64  1  0.50068089  0.00324631  0.49688604  1
  I  I65  1  0.49956426  -0.00339993  0.83599242  1
  I  I66  1  0.50486471  0.33303076  0.16635224  1
  I  I67  1  0.50057050  0.32975508  0.49664762  1
  I  I68  1  0.50546930  0.33647557  0.83551245  1
  I  I69  1  0.49351841  0.66752333  0.16014747  1
  I  I70  1  0.49918246  0.66669348  0.49800542  1
  I  I71  1  0.49971497  0.66761286  0.84042212  1
  I  I72  1  0.82845593  0.00282850  0.16761954  1
  I  I73  1  0.83159366  0.00326387  0.49891278  1
  I  I74  1  0.83383942  -0.00292134  0.83327320  1
  I  I75  1  0.82783300  0.32936212  0.16891974  1
  I  I76  1  0.83122767  0.32952918  0.49852772  1
  I  I77  1  0.82698814  0.33621707  0.83233246  1
  I  I78  1  0.83346280  0.66653240  0.16681827  1
  I  I79  1  0.83318380  0.66661300  0.49955641  1
  I  I80  1  0.83316615  0.66757987  0.83375975  1
  I  I81  1  0.16551258  0.16702272  0.00039118  1
  I  I82  1  0.16682858  0.16343862  0.33327832  1
  I  I83  1  0.16650512  0.16460514  0.66638044  1
  I  I84  1  0.16492001  0.49961299  0.00009235  1
  I  I85  1  0.16857020  0.50483649  0.33655613  1
  I  I86  1  0.16871264  0.50487263  0.66420911  1
  I  I87  1  0.16842950  0.83584925  -0.00034330  1
  I  I88  1  0.17335780  0.83151829  0.33296728  1
  I  I89  1  0.16697131  0.83036912  0.66718233  1
  I  I90  1  0.50458788  0.16514248  0.00338680  1
  I  I91  1  0.50306879  0.16608758  0.33212986  1
  I  I92  1  0.50340466  0.16596680  0.66421591  1
  I  I93  1  0.50281052  0.49860270  -0.00024532  1
  I  I94  1  0.49669214  0.50178494  0.33055797  1
  I  I95  1  0.50163853  0.50375516  0.66973941  1
  I  I96  1  0.49542289  0.83556086  0.00000580  1
  I  I97  1  0.49422917  0.83279557  0.33026381  1
  I  I98  1  0.49858184  0.83086430  0.66974618  1
  I  I99  1  0.82711730  0.16455698  0.00280837  1
  I  I100  1  0.82908260  0.16524428  0.33312545  1
  I  I101  1  0.82986630  0.16577440  0.66435110  1
  I  I102  1  0.83306458  0.50251202  -0.00366975  1
  I  I103  1  0.83305619  0.50052390  0.33332118  1
  I  I104  1  0.82694669  0.50260983  0.67037589  1
  I  I105  1  0.83760054  0.83322578  -0.00343626  1
  I  I106  1  0.83419824  0.83385337  0.33338921  1
  I  I107  1  0.83226555  0.83277448  0.67087413  1
  I  I108  1  -0.00276113  0.16392799  0.17074752  1
  I  I109  1  -0.00257765  0.16565774  0.49699842  1
  I  I110  1  -0.00030491  0.16670027  0.83193427  1
  I  I111  1  -0.00000923  0.49865812  0.16571887  1
  I  I112  1  0.00333945  0.50319356  0.50210678  1
  I  I113  1  -0.00209430  0.50285039  0.83060975  1
  I  I114  1  0.00234295  0.83673883  0.16524380  1
  I  I115  1  0.00411069  0.83257906  0.49978997  1
  I  I116  1  0.00021833  0.83115199  0.83283642  1
  I  I117  1  0.33707727  0.16719188  0.17092295  1
  I  I118  1  0.33596359  0.16613957  0.49584873  1
  I  I119  1  0.33384433  0.16789694  0.83128467  1
  I  I120  1  0.33744295  0.49449421  0.15999523  1
  I  I121  1  0.33083587  0.50220946  0.50254089  1
  I  I122  1  0.33651174  0.50289972  0.83579309  1
  I  I123  1  0.33443659  0.83590086  0.16212073  1
  I  I124  1  0.33039933  0.83317856  0.50449396  1
  I  I125  1  0.33395632  0.83067054  0.83408354  1
  I  I126  1  0.66510876  0.16374814  0.17064931  1
  I  I127  1  0.66621962  0.16634856  0.49625922  1
  I  I128  1  0.66653777  0.16148744  0.83215981  1
  I  I129  1  0.66250817  0.50513886  0.16588662  1
  I  I130  1  0.66668968  0.49980302  0.49933393  1
  I  I131  1  0.66558473  0.50768457  0.83596673  1
  I  I132  1  0.66316328  0.83378651  0.16088672  1
  I  I133  1  0.66682139  0.83380200  0.50048278  1
  I  I134  1  0.66557305  0.83083346  0.83866459  1
