# generated using pymatgen
data_Cs27Sn13Pb14I81
_symmetry_space_group_name_H-M   'P 1'
_cell_length_a   18.97788604
_cell_length_b   18.98056794
_cell_length_c   18.97342889
_cell_angle_alpha   89.99873561
_cell_angle_beta   90.00203996
_cell_angle_gamma   89.99992514
_symmetry_Int_Tables_number   1
_chemical_formula_structural   Cs27Sn13Pb14I81
_chemical_formula_sum   'Cs27 Sn13 Pb14 I81'
_cell_volume   6834.43884063
_cell_formula_units_Z   1
loop_
 _symmetry_equiv_pos_site_id
 _symmetry_equiv_pos_as_xyz
  1  'x, y, z'
loop_
 _atom_site_type_symbol
 _atom_site_label
 _atom_site_symmetry_multiplicity
 _atom_site_fract_x
 _atom_site_fract_y
 _atom_site_fract_z
 _atom_site_occupancy
  Cs  Cs0  1  -0.00092693  0.00291228  -0.00052524  1
  Cs  Cs1  1  -0.00229105  -0.00099950  0.33565062  1
  Cs  Cs2  1  0.00203096  -0.00359425  0.66572888  1
  Cs  Cs3  1  0.00008853  0.33170090  -0.00071581  1
  Cs  Cs4  1  0.00017082  0.33346274  0.33437738  1
  Cs  Cs5  1  0.00024571  0.33225952  0.66592882  1
  Cs  Cs6  1  -0.00330248  0.66750193  -0.00290851  1
  Cs  Cs7  1  -0.00182337  0.66526298  0.33418233  1
  Cs  Cs8  1  0.00010926  0.67344118  0.66782563  1
  Cs  Cs9  1  0.33272244  -0.00015641  0.00139646  1
  Cs  Cs10  1  0.33367601  0.00050229  0.33449029  1
  Cs  Cs11  1  0.33973876  -0.00541908  0.66037010  1
  Cs  Cs12  1  0.33213223  0.33326241  0.00071113  1
  Cs  Cs13  1  0.33250780  0.33474035  0.33332374  1
  Cs  Cs14  1  0.33443512  0.33173887  0.66622338  1
  Cs  Cs15  1  0.33262704  0.66701826  0.00330961  1
  Cs  Cs16  1  0.33490137  0.66339906  0.32959366  1
  Cs  Cs17  1  0.33333687  0.67138880  0.66944159  1
  Cs  Cs18  1  0.66781012  0.00121019  0.00152516  1
  Cs  Cs19  1  0.66854751  -0.00396971  0.33262853  1
  Cs  Cs20  1  0.65835481  -0.00349947  0.66549418  1
  Cs  Cs21  1  0.66933490  0.33364956  -0.00368338  1
  Cs  Cs22  1  0.66854819  0.33435217  0.33327516  1
  Cs  Cs23  1  0.66658120  0.33277771  0.66910398  1
  Cs  Cs24  1  0.67385807  0.66516718  -0.00768768  1
  Cs  Cs25  1  0.66662341  0.66669872  0.33376181  1
  Cs  Cs26  1  0.66747902  0.67150123  0.67383030  1
  Sn  Sn27  1  0.16685160  0.49971224  0.50039434  1
  Sn  Sn28  1  0.50012446  0.49971056  0.49983006  1
  Sn  Sn29  1  0.16682812  0.49916554  0.83344225  1
  Sn  Sn30  1  0.49982266  0.49991386  0.16696809  1
  Sn  Sn31  1  0.49927754  0.16724618  0.16678646  1
  Sn  Sn32  1  0.16734074  0.16669429  0.16632296  1
  Sn  Sn33  1  0.16651539  0.16714592  0.83323025  1
  Sn  Sn34  1  0.16686300  0.83332459  0.16679125  1
  Sn  Sn35  1  0.83413952  0.16688724  0.83160092  1
  Sn  Sn36  1  0.83313316  0.49928702  0.50016300  1
  Sn  Sn37  1  0.49944367  0.83270907  0.16654751  1
  Sn  Sn38  1  0.16691864  0.49996504  0.16641881  1
  Sn  Sn39  1  0.83333874  0.16727457  0.50127030  1
  Pb  Pb40  1  0.49908255  0.16675243  0.83548643  1
  Pb  Pb41  1  0.16684803  0.83415916  0.83571372  1
  Pb  Pb42  1  0.83339415  0.83312591  0.16654580  1
  Pb  Pb43  1  0.83364201  0.16687519  0.16686118  1
  Pb  Pb44  1  0.49964064  0.83330073  0.83669162  1
  Pb  Pb45  1  0.16684068  0.83024155  0.49705910  1
  Pb  Pb46  1  0.83339260  0.49998192  0.16831745  1
  Pb  Pb47  1  0.49985440  0.83004971  0.49735196  1
  Pb  Pb48  1  0.83359773  0.83728763  0.83328740  1
  Pb  Pb49  1  0.83324365  0.83331301  0.50000336  1
  Pb  Pb50  1  0.49744015  0.49990102  0.83365441  1
  Pb  Pb51  1  0.50242130  0.16889765  0.49732591  1
  Pb  Pb52  1  0.16551706  0.16811731  0.50007986  1
  Pb  Pb53  1  0.83618255  0.49813374  0.83031585  1
  I  I54  1  0.17205876  0.00108073  0.16136214  1
  I  I55  1  0.16314208  0.00000850  0.49929643  1
  I  I56  1  0.16113047  0.00380107  0.84015061  1
  I  I57  1  0.17169816  0.33379073  0.16625417  1
  I  I58  1  0.16783944  0.33685784  0.49440716  1
  I  I59  1  0.16331078  0.33334736  0.83931827  1
  I  I60  1  0.17261335  0.66524202  0.16780395  1
  I  I61  1  0.16379570  0.66128059  0.50071896  1
  I  I62  1  0.16775895  0.66355188  0.83352191  1
  I  I63  1  0.49400559  0.00036106  0.16480819  1
  I  I64  1  0.50258667  0.00005003  0.49869132  1
  I  I65  1  0.49936680  0.00026646  0.83480203  1
  I  I66  1  0.49349239  0.33402072  0.17051352  1
  I  I67  1  0.49716322  0.33705123  0.49305464  1
  I  I68  1  0.50186078  0.33334747  0.83667929  1
  I  I69  1  0.49154557  0.66560377  0.17247905  1
  I  I70  1  0.50104087  0.66172432  0.49328328  1
  I  I71  1  0.49895550  0.66630732  0.83446194  1
  I  I72  1  0.83306985  0.00029505  0.16872780  1
  I  I73  1  0.83490285  0.00344110  0.50222460  1
  I  I74  1  0.84158469  0.00527244  0.82904427  1
  I  I75  1  0.83284217  0.33329343  0.16611316  1
  I  I76  1  0.83407712  0.33415688  0.50181581  1
  I  I77  1  0.83538336  0.33031410  0.83322161  1
  I  I78  1  0.83412530  0.66640184  0.16937723  1
  I  I79  1  0.83441181  0.66294047  0.49637506  1
  I  I80  1  0.83391651  0.66649473  0.83313994  1
  I  I81  1  0.16429755  0.17139913  0.00112859  1
  I  I82  1  0.16869667  0.16795927  0.33002571  1
  I  I83  1  0.16236927  0.17377519  0.66942907  1
  I  I84  1  0.17180332  0.49919491  0.00133330  1
  I  I85  1  0.16703494  0.49984583  0.33248432  1
  I  I86  1  0.16623127  0.49341484  0.66650301  1
  I  I87  1  0.17145818  0.82871819  0.00412301  1
  I  I88  1  0.17055823  0.83503820  0.32866700  1
  I  I89  1  0.16503649  0.83274832  0.66663938  1
  I  I90  1  0.50070123  0.16958237  0.00428624  1
  I  I91  1  0.49445097  0.16558495  0.32901804  1
  I  I92  1  0.49825407  0.16847264  0.66640294  1
  I  I93  1  0.49462004  0.50005316  0.00386804  1
  I  I94  1  0.49536662  0.49962276  0.33220159  1
  I  I95  1  0.49915435  0.49822978  0.66358507  1
  I  I96  1  0.49437202  0.83075346  0.00527489  1
  I  I97  1  0.49539057  0.83577215  0.32910642  1
  I  I98  1  0.50114668  0.83262624  0.66643136  1
  I  I99  1  0.83494989  0.16603215  -0.00229240  1
  I  I100  1  0.83342722  0.17105729  0.33594412  1
  I  I101  1  0.84032428  0.17317724  0.66682952  1
  I  I102  1  0.83259953  0.49888180  -0.00057876  1
  I  I103  1  0.83797662  0.49337881  0.33658906  1
  I  I104  1  0.83202517  0.49718616  0.66228780  1
  I  I105  1  0.83254630  0.83388390  -0.00000553  1
  I  I106  1  0.83412466  0.83650944  0.33327127  1
  I  I107  1  0.83433931  0.82960760  0.66663498  1
  I  I108  1  0.00352190  0.16779621  0.16579416  1
  I  I109  1  -0.00258707  0.17375267  0.49751254  1
  I  I110  1  0.00127714  0.17163839  0.83718530  1
  I  I111  1  0.00385183  0.49917762  0.16768107  1
  I  I112  1  0.00070708  0.49554885  0.49792500  1
  I  I113  1  0.00422671  0.49785699  0.83696820  1
  I  I114  1  0.00370271  0.83303587  0.16672224  1
  I  I115  1  0.00016112  0.83041944  0.49607500  1
  I  I116  1  0.00040480  0.82998371  0.83689322  1
  I  I117  1  0.33206876  0.16744980  0.16174398  1
  I  I118  1  0.33349821  0.16819514  0.50191226  1
  I  I119  1  0.32954623  0.17180391  0.83779262  1
  I  I120  1  0.33236204  0.49956568  0.17088488  1
  I  I121  1  0.33281933  0.50007756  0.49666652  1
  I  I122  1  0.32913121  0.49325459  0.83070506  1
  I  I123  1  0.33284176  0.83252423  0.16653621  1
  I  I124  1  0.33331307  0.83443580  0.50236544  1
  I  I125  1  0.33291955  0.83492756  0.83105797  1
  I  I126  1  0.66371620  0.16664714  0.16731974  1
  I  I127  1  0.67035516  0.17341071  0.50391891  1
  I  I128  1  0.66929258  0.16683865  0.83170332  1
  I  I129  1  0.66316869  0.49964317  0.17211725  1
  I  I130  1  0.66636244  0.49528124  0.49183923  1
  I  I131  1  0.66695028  0.49892321  0.83457547  1
  I  I132  1  0.66301399  0.83445140  0.16827851  1
  I  I133  1  0.66648197  0.83180861  0.49569339  1
  I  I134  1  0.66674707  0.83325992  0.83618578  1
