# generated using pymatgen
data_Cs27Sn13Pb14I81
_symmetry_space_group_name_H-M   'P 1'
_cell_length_a   18.98110580
_cell_length_b   18.98110578
_cell_length_c   18.96794270
_cell_angle_alpha   90.00150726
_cell_angle_beta   90.00150735
_cell_angle_gamma   89.99849575
_symmetry_Int_Tables_number   1
_chemical_formula_structural   Cs27Sn13Pb14I81
_chemical_formula_sum   'Cs27 Sn13 Pb14 I81'
_cell_volume   6833.81547582
_cell_formula_units_Z   1
loop_
 _symmetry_equiv_pos_site_id
 _symmetry_equiv_pos_as_xyz
  1  'x, y, z'
loop_
 _atom_site_type_symbol
 _atom_site_label
 _atom_site_symmetry_multiplicity
 _atom_site_fract_x
 _atom_site_fract_y
 _atom_site_fract_z
 _atom_site_occupancy
  Cs  Cs0  1  0.00197602  0.00746039  0.00619348  1
  Cs  Cs1  1  -0.00286275  -0.00374380  0.33026594  1
  Cs  Cs2  1  0.00095816  0.00108895  0.66586948  1
  Cs  Cs3  1  -0.00994910  0.32338420  0.00301894  1
  Cs  Cs4  1  0.00415992  0.33749351  0.33367204  1
  Cs  Cs5  1  -0.00088433  0.33244901  0.66649685  1
  Cs  Cs6  1  -0.00227109  0.66579459  0.00520468  1
  Cs  Cs7  1  0.00180940  0.66763441  0.32771812  1
  Cs  Cs8  1  0.00171941  0.66603539  0.66515027  1
  Cs  Cs9  1  0.32987011  -0.00128016  -0.00198166  1
  Cs  Cs10  1  0.33481471  0.00230873  0.33366221  1
  Cs  Cs11  1  0.33396177  -0.00067713  0.66666185  1
  Cs  Cs12  1  0.33246130  0.33106202  0.00520469  1
  Cs  Cs13  1  0.33430100  0.33514275  0.32771800  1
  Cs  Cs14  1  0.33270203  0.33505258  0.66515021  1
  Cs  Cs15  1  0.33593179  0.66926507  -0.00313771  1
  Cs  Cs16  1  0.33051089  0.66384418  0.33331884  1
  Cs  Cs17  1  0.33336309  0.66669652  0.66732929  1
  Cs  Cs18  1  0.66707317  0.00040636  -0.00038133  1
  Cs  Cs19  1  0.66829652  0.00162997  0.33423531  1
  Cs  Cs20  1  0.66427982  -0.00238692  0.66457107  1
  Cs  Cs21  1  0.67412721  0.33530956  0.00619342  1
  Cs  Cs22  1  0.66292284  0.33047059  0.33026592  1
  Cs  Cs23  1  0.66775559  0.33429155  0.66586957  1
  Cs  Cs24  1  0.66538644  0.66320343  -0.00198159  1
  Cs  Cs25  1  0.66897540  0.66814807  0.33366214  1
  Cs  Cs26  1  0.66598950  0.66729511  0.66666178  1
  Sn  Sn27  1  0.50076294  0.50075869  0.50081797  1
  Sn  Sn28  1  0.83414878  0.83344168  0.83315315  1
  Sn  Sn29  1  0.83429521  0.16762862  0.50069739  1
  Sn  Sn30  1  0.49920373  0.49934589  0.83255810  1
  Sn  Sn31  1  0.83243429  0.49942870  0.50053628  1
  Sn  Sn32  1  0.16742539  0.83409625  0.50081800  1
  Sn  Sn33  1  0.16609537  0.16576765  0.50053627  1
  Sn  Sn34  1  0.16680736  0.50014065  0.83341273  1
  Sn  Sn35  1  0.49983690  0.83317023  0.16694197  1
  Sn  Sn36  1  0.49999481  0.83332815  0.83312778  1
  Sn  Sn37  1  0.16601257  0.83253709  0.83255810  1
  Sn  Sn38  1  0.49904425  0.83237762  0.49982768  1
  Sn  Sn39  1  0.50010838  0.16748212  0.83315316  1
  Pb  Pb40  1  0.49992847  0.16394740  0.16315401  1
  Pb  Pb41  1  0.83061405  0.83326183  0.16315406  1
  Pb  Pb42  1  0.83309991  0.50024809  0.17027961  1
  Pb  Pb43  1  0.16708631  0.50041963  0.50135577  1
  Pb  Pb44  1  0.16841727  0.16686554  0.83171181  1
  Pb  Pb45  1  0.49970028  0.16703786  0.50139727  1
  Pb  Pb46  1  0.16691479  0.16643321  0.17027964  1
  Pb  Pb47  1  0.83087971  0.16421307  0.83107854  1
  Pb  Pb48  1  0.83370452  0.83303358  0.50139729  1
  Pb  Pb49  1  0.16893728  0.83319071  0.16643929  1
  Pb  Pb50  1  0.16682374  0.50015711  0.16177320  1
  Pb  Pb51  1  0.83353218  0.50175067  0.83171179  1
  Pb  Pb52  1  0.49985739  0.50227059  0.16643932  1
  Pb  Pb53  1  0.83314181  0.16647523  0.17046907  1
  I  I54  1  0.16820128  -0.00037594  0.16187347  1
  I  I55  1  0.16769875  -0.00163215  0.50645375  1
  I  I56  1  0.16939906  -0.00329664  0.83057893  1
  I  I57  1  0.16884457  0.33332111  0.16841804  1
  I  I58  1  0.16555600  0.33158316  0.50280773  1
  I  I59  1  0.17354166  0.33604139  0.82941077  1
  I  I60  1  0.16664861  0.66689710  0.17313882  1
  I  I61  1  0.16823478  0.66959501  0.50296048  1
  I  I62  1  0.17267600  0.66827780  0.82620552  1
  I  I63  1  0.49991911  -0.00423914  0.16831595  1
  I  I64  1  0.49979303  -0.00309376  0.50225487  1
  I  I65  1  0.50013803  -0.00210840  0.83225902  1
  I  I66  1  0.49999748  0.33340132  0.16756264  1
  I  I67  1  0.50088382  0.33606251  0.50620920  1
  I  I68  1  0.49443969  0.33473937  0.82515370  1
  I  I69  1  0.49970329  0.67017145  0.16201508  1
  I  I70  1  0.50060433  0.66766314  0.50487730  1
  I  I71  1  0.49948652  0.66780085  0.83262407  1
  I  I72  1  0.83195140  -0.00027716  0.16878377  1
  I  I73  1  0.83333526  0.00169067  0.50260252  1
  I  I74  1  0.83164976  -0.00370495  0.82944631  1
  I  I75  1  0.83192090  0.33326924  0.16170168  1
  I  I76  1  0.83293144  0.33360661  0.50256356  1
  I  I77  1  0.83289186  0.33330002  0.83327035  1
  I  I78  1  0.83329909  0.66702023  0.16950967  1
  I  I79  1  0.83069885  0.66447606  0.50298245  1
  I  I80  1  0.82797629  0.66969042  0.82928722  1
  I  I81  1  0.16871416  0.16604724  -0.00032061  1
  I  I82  1  0.16423233  0.16040862  0.33887541  1
  I  I83  1  0.16406701  0.16389131  0.66361518  1
  I  I84  1  0.17561523  0.50894884  -0.00617424  1
  I  I85  1  0.16656972  0.49990292  0.33357742  1
  I  I86  1  0.16938697  0.50272023  0.66938491  1
  I  I87  1  0.16900259  0.82880398  -0.00391552  1
  I  I88  1  0.17060260  0.83714644  0.33692952  1
  I  I89  1  0.17221416  0.83370998  0.66699718  1
  I  I90  1  0.49886911  0.16623599  -0.00512659  1
  I  I91  1  0.50040018  0.16595468  0.33350072  1
  I  I92  1  0.49998306  0.16083539  0.66919754  1
  I  I93  1  0.49547081  0.50233588  -0.00391550  1
  I  I94  1  0.50381309  0.50393616  0.33692954  1
  I  I95  1  0.50037662  0.50554734  0.66699716  1
  I  I96  1  0.50015720  0.83349049  -0.00228351  1
  I  I97  1  0.49566868  0.82900198  0.33520931  1
  I  I98  1  0.49958469  0.83291805  0.66725172  1
  I  I99  1  0.83207199  0.16540570  -0.00025978  1
  I  I100  1  0.83485742  0.16819012  0.33862261  1
  I  I101  1  0.83648222  0.16981579  0.66324145  1
  I  I102  1  0.83271382  0.50204725  -0.00032066  1
  I  I103  1  0.82707536  0.49756588  0.33887537  1
  I  I104  1  0.83055800  0.49740005  0.66361514  1
  I  I105  1  0.83290258  0.83220237  -0.00512657  1
  I  I106  1  0.83262153  0.83373370  0.33350071  1
  I  I107  1  0.82750195  0.83331647  0.66919754  1
  I  I108  1  -0.00006410  0.16525393  0.16170111  1
  I  I109  1  0.00027332  0.16626515  0.50256403  1
  I  I110  1  -0.00003330  0.16622500  0.83327030  1
  I  I111  1  -0.00001219  0.50217803  0.16841802  1
  I  I112  1  -0.00175018  0.49888898  0.50280771  1
  I  I113  1  0.00270809  0.50687523  0.82941070  1
  I  I114  1  0.00006800  0.83333098  0.16756245  1
  I  I115  1  0.00272915  0.83421708  0.50620936  1
  I  I116  1  0.00140607  0.82777305  0.82515370  1
  I  I117  1  0.33368686  0.16663252  0.16950965  1
  I  I118  1  0.33114270  0.16403197  0.50298239  1
  I  I119  1  0.33635706  0.16130990  0.82928728  1
  I  I120  1  0.33356378  0.49998208  0.17313861  1
  I  I121  1  0.33626163  0.50156826  0.50296042  1
  I  I122  1  0.33494447  0.50600951  0.82620572  1
  I  I123  1  0.33683816  0.83303649  0.16201516  1
  I  I124  1  0.33432979  0.83393771  0.50487716  1
  I  I125  1  0.33446752  0.83281952  0.83262411  1
  I  I126  1  0.66638961  0.16528502  0.16878433  1
  I  I127  1  0.66835729  0.16666824  0.50260223  1
  I  I128  1  0.66296168  0.16498303  0.82944611  1
  I  I129  1  0.66629071  0.50153446  0.16187349  1
  I  I130  1  0.66503450  0.50103234  0.50645379  1
  I  I131  1  0.66337007  0.50273205  0.83057888  1
  I  I132  1  0.66242756  0.83325237  0.16831606  1
  I  I133  1  0.66357292  0.83312637  0.50225485  1
  I  I134  1  0.66455828  0.83347173  0.83225899  1
