# generated using pymatgen
data_Cs27Sn13Pb14I81
_symmetry_space_group_name_H-M   'P 1'
_cell_length_a   18.98050889
_cell_length_b   18.98107144
_cell_length_c   18.97055076
_cell_angle_alpha   89.99957157
_cell_angle_beta   90.00175233
_cell_angle_gamma   90.00016296
_symmetry_Int_Tables_number   1
_chemical_formula_structural   Cs27Sn13Pb14I81
_chemical_formula_sum   'Cs27 Sn13 Pb14 I81'
_cell_volume   6834.52781507
_cell_formula_units_Z   1
loop_
 _symmetry_equiv_pos_site_id
 _symmetry_equiv_pos_as_xyz
  1  'x, y, z'
loop_
 _atom_site_type_symbol
 _atom_site_label
 _atom_site_symmetry_multiplicity
 _atom_site_fract_x
 _atom_site_fract_y
 _atom_site_fract_z
 _atom_site_occupancy
  Cs  Cs0  1  0.00249889  0.00013807  0.00054380  1
  Cs  Cs1  1  0.00052487  0.00153935  0.33543449  1
  Cs  Cs2  1  -0.00053899  -0.00139161  0.66560072  1
  Cs  Cs3  1  0.00291049  0.33325180  0.00222288  1
  Cs  Cs4  1  -0.00019465  0.33094471  0.33380798  1
  Cs  Cs5  1  -0.00067525  0.33414977  0.66584550  1
  Cs  Cs6  1  -0.00125919  0.66600026  0.00354043  1
  Cs  Cs7  1  -0.00270485  0.66638376  0.32959713  1
  Cs  Cs8  1  0.00005096  0.66845279  0.66691240  1
  Cs  Cs9  1  0.32892545  0.00009217  0.00083879  1
  Cs  Cs10  1  0.33346655  -0.00132630  0.33192050  1
  Cs  Cs11  1  0.33297137  -0.00107311  0.66635000  1
  Cs  Cs12  1  0.32796350  0.33393671  0.00167531  1
  Cs  Cs13  1  0.33484483  0.34023977  0.33336774  1
  Cs  Cs14  1  0.33317882  0.33606649  0.66412748  1
  Cs  Cs15  1  0.33412821  0.66544825  0.00025630  1
  Cs  Cs16  1  0.34515937  0.65913512  0.32764844  1
  Cs  Cs17  1  0.33182568  0.66547255  0.66763574  1
  Cs  Cs18  1  0.66695208  0.00278369  -0.00241285  1
  Cs  Cs19  1  0.66476269  -0.00020368  0.33418628  1
  Cs  Cs20  1  0.66629701  0.00131209  0.66758533  1
  Cs  Cs21  1  0.66682821  0.33100422  -0.00151413  1
  Cs  Cs22  1  0.66606674  0.33329357  0.33242818  1
  Cs  Cs23  1  0.66725247  0.33020831  0.66826213  1
  Cs  Cs24  1  0.66747845  0.66616989  0.00191596  1
  Cs  Cs25  1  0.66172789  0.66608151  0.32494184  1
  Cs  Cs26  1  0.66866338  0.66817693  0.66773733  1
  Sn  Sn27  1  0.16610139  0.16597239  0.50118420  1
  Sn  Sn28  1  0.83372533  0.16643554  0.49935554  1
  Sn  Sn29  1  0.83378181  0.83289695  0.50054658  1
  Sn  Sn30  1  0.83344764  0.83268010  0.83273171  1
  Sn  Sn31  1  0.83262944  0.50078710  0.83240490  1
  Sn  Sn32  1  0.16631837  0.83414893  0.83252090  1
  Sn  Sn33  1  0.16634405  0.16605568  0.83183878  1
  Sn  Sn34  1  0.50099627  0.50036750  0.83287241  1
  Sn  Sn35  1  0.50051340  0.16626895  0.16670507  1
  Sn  Sn36  1  0.50018480  0.83289703  0.83298015  1
  Sn  Sn37  1  0.83323183  0.50057289  0.50069318  1
  Sn  Sn38  1  0.16634211  0.83346715  0.50017085  1
  Sn  Sn39  1  0.83255214  0.16611227  0.16761968  1
  Pb  Pb40  1  0.50327907  0.50014357  0.50278201  1
  Pb  Pb41  1  0.16660863  0.83312887  0.16789626  1
  Pb  Pb42  1  0.50046225  0.49737674  0.16325919  1
  Pb  Pb43  1  0.83336919  0.49740469  0.16636984  1
  Pb  Pb44  1  0.16658570  0.16649854  0.16787909  1
  Pb  Pb45  1  0.16439447  0.50108330  0.49996247  1
  Pb  Pb46  1  0.83341453  0.83588094  0.16688657  1
  Pb  Pb47  1  0.50015783  0.83572704  0.16348633  1
  Pb  Pb48  1  0.83524569  0.16661618  0.83289943  1
  Pb  Pb49  1  0.49702996  0.16685257  0.83473295  1
  Pb  Pb50  1  0.16592852  0.50083464  0.83320863  1
  Pb  Pb51  1  0.49941186  0.16658843  0.49814963  1
  Pb  Pb52  1  0.16645055  0.50042378  0.16713454  1
  Pb  Pb53  1  0.49992115  0.83333833  0.50201985  1
  I  I54  1  0.16687105  0.00014632  0.16378885  1
  I  I55  1  0.15769954  0.00028081  0.50509702  1
  I  I56  1  0.16648437  -0.00093538  0.83078632  1
  I  I57  1  0.16643632  0.33256510  0.16393858  1
  I  I58  1  0.16225430  0.33029452  0.50381470  1
  I  I59  1  0.16652359  0.33074410  0.83091774  1
  I  I60  1  0.16621890  0.66707223  0.16461669  1
  I  I61  1  0.16135715  0.67066927  0.50780078  1
  I  I62  1  0.16710159  0.67041924  0.82850507  1
  I  I63  1  0.50412545  0.00336863  0.16487288  1
  I  I64  1  0.50524865  0.00000640  0.50245791  1
  I  I65  1  0.50299168  -0.00283679  0.83495633  1
  I  I66  1  0.50418348  0.32983458  0.16492486  1
  I  I67  1  0.49965142  0.33330723  0.50243339  1
  I  I68  1  0.50498438  0.33578557  0.83521056  1
  I  I69  1  0.49906600  0.66650664  0.16836408  1
  I  I70  1  0.49788921  0.66674361  0.49765535  1
  I  I71  1  0.49893025  0.66746566  0.83239133  1
  I  I72  1  0.83051553  0.00384674  0.16933771  1
  I  I73  1  0.83728136  -0.00010114  0.50031649  1
  I  I74  1  0.83083649  -0.00287584  0.83122824  1
  I  I75  1  0.83061832  0.32941465  0.16959433  1
  I  I76  1  0.83679135  0.33271626  0.50039407  1
  I  I77  1  0.82983286  0.33556796  0.83081998  1
  I  I78  1  0.83350214  0.66672257  0.16864099  1
  I  I79  1  0.83833287  0.66765347  0.50732919  1
  I  I80  1  0.83433691  0.66757329  0.82627453  1
  I  I81  1  0.16645956  0.16316900  -0.00244036  1
  I  I82  1  0.16402840  0.16165780  0.33714693  1
  I  I83  1  0.16107214  0.16280806  0.66614703  1
  I  I84  1  0.16431769  0.49737325  -0.00077381  1
  I  I85  1  0.16433665  0.49755262  0.33406294  1
  I  I86  1  0.16954829  0.49700690  0.66680056  1
  I  I87  1  0.16603466  0.83817777  -0.00379815  1
  I  I88  1  0.15852894  0.84089712  0.33789769  1
  I  I89  1  0.16524970  0.83852478  0.66761602  1
  I  I90  1  0.50652935  0.16646564  0.00239913  1
  I  I91  1  0.50074692  0.16640524  0.33023622  1
  I  I92  1  0.50253451  0.16691740  0.66695878  1
  I  I93  1  0.50672972  0.50470373  -0.00448040  1
  I  I94  1  0.49957800  0.49925166  0.33311646  1
  I  I95  1  0.50082457  0.50207698  0.67078312  1
  I  I96  1  0.50027688  0.82953633  -0.00507957  1
  I  I97  1  0.49975032  0.83420424  0.33327788  1
  I  I98  1  0.50042875  0.83191020  0.67066415  1
  I  I99  1  0.83159572  0.16679600  0.00154745  1
  I  I100  1  0.83566108  0.16704678  0.33515455  1
  I  I101  1  0.83577572  0.16701146  0.66375141  1
  I  I102  1  0.83014494  0.50364000  -0.00362904  1
  I  I103  1  0.83624708  0.50207893  0.33671330  1
  I  I104  1  0.82980093  0.49801881  0.66711039  1
  I  I105  1  0.83388500  0.83010365  -0.00370087  1
  I  I106  1  0.83938152  0.83146777  0.33720592  1
  I  I107  1  0.83395788  0.83496835  0.66712551  1
  I  I108  1  -0.00261222  0.16720196  0.16786008  1
  I  I109  1  -0.00110812  0.16626414  0.49812460  1
  I  I110  1  0.00298816  0.16348174  0.83462747  1
  I  I111  1  -0.00074260  0.49687154  0.16259540  1
  I  I112  1  -0.00405842  0.49849149  0.50799138  1
  I  I113  1  -0.00346871  0.50205272  0.82930457  1
  I  I114  1  -0.00016539  0.83581042  0.16046846  1
  I  I115  1  -0.00096857  0.83563975  0.50887461  1
  I  I116  1  -0.00041931  0.83376987  0.82940196  1
  I  I117  1  0.33546599  0.16650150  0.16342251  1
  I  I118  1  0.32957379  0.16096801  0.50314328  1
  I  I119  1  0.32930025  0.16299260  0.83028205  1
  I  I120  1  0.33390235  0.49652089  0.16522943  1
  I  I121  1  0.33341404  0.49814459  0.50003690  1
  I  I122  1  0.33566993  0.50228896  0.83585976  1
  I  I123  1  0.33343739  0.83720426  0.16637797  1
  I  I124  1  0.32975505  0.84166612  0.50551694  1
  I  I125  1  0.33261264  0.83417399  0.83019858  1
  I  I126  1  0.66800576  0.16665803  0.17068603  1
  I  I127  1  0.67015752  0.16601033  0.49821771  1
  I  I128  1  0.66683583  0.16450657  0.83238910  1
  I  I129  1  0.66692117  0.49984154  0.16852649  1
  I  I130  1  0.67167406  0.49890032  0.50198218  1
  I  I131  1  0.66784154  0.50687806  0.82999594  1
  I  I132  1  0.66687325  0.83394919  0.16695065  1
  I  I133  1  0.67038054  0.83521369  0.50485947  1
  I  I134  1  0.66771102  0.82942435  0.83004886  1
