# generated using pymatgen
data_Cs27Sn14Pb13I81
_symmetry_space_group_name_H-M   'P 1'
_cell_length_a   18.96648082
_cell_length_b   18.97650128
_cell_length_c   18.98547946
_cell_angle_alpha   89.99948014
_cell_angle_beta   90.00003742
_cell_angle_gamma   90.00208624
_symmetry_Int_Tables_number   1
_chemical_formula_structural   Cs27Sn14Pb13I81
_chemical_formula_sum   'Cs27 Sn14 Pb13 I81'
_cell_volume   6833.20530266
_cell_formula_units_Z   1
loop_
 _symmetry_equiv_pos_site_id
 _symmetry_equiv_pos_as_xyz
  1  'x, y, z'
loop_
 _atom_site_type_symbol
 _atom_site_label
 _atom_site_symmetry_multiplicity
 _atom_site_fract_x
 _atom_site_fract_y
 _atom_site_fract_z
 _atom_site_occupancy
  Cs  Cs0  1  0.00095471  0.00051310  0.00129728  1
  Cs  Cs1  1  -0.00101804  -0.00302151  0.32989738  1
  Cs  Cs2  1  -0.00046480  0.00187000  0.66715506  1
  Cs  Cs3  1  -0.00369281  0.33295809  -0.00283249  1
  Cs  Cs4  1  0.00169376  0.33419191  0.33471859  1
  Cs  Cs5  1  -0.00017642  0.33348450  0.66799485  1
  Cs  Cs6  1  -0.00039283  0.66751874  -0.00154325  1
  Cs  Cs7  1  -0.00786840  0.66810402  0.33159345  1
  Cs  Cs8  1  0.00177320  0.66317673  0.66974021  1
  Cs  Cs9  1  0.33073843  0.00142846  0.00411643  1
  Cs  Cs10  1  0.33201555  0.00160410  0.33168153  1
  Cs  Cs11  1  0.33359628  -0.00154190  0.66610436  1
  Cs  Cs12  1  0.33527167  0.33223875  0.00499744  1
  Cs  Cs13  1  0.33226975  0.33590578  0.33224495  1
  Cs  Cs14  1  0.33252731  0.33377434  0.66492597  1
  Cs  Cs15  1  0.33397466  0.66721365  -0.00060437  1
  Cs  Cs16  1  0.33582906  0.66276642  0.33575540  1
  Cs  Cs17  1  0.33306395  0.66678079  0.66547520  1
  Cs  Cs18  1  0.66641607  0.00203406  -0.00427591  1
  Cs  Cs19  1  0.66943632  0.00001016  0.33752973  1
  Cs  Cs20  1  0.66762114  0.00193907  0.66872352  1
  Cs  Cs21  1  0.66792555  0.33198861  -0.00098319  1
  Cs  Cs22  1  0.66904953  0.33167871  0.33656664  1
  Cs  Cs23  1  0.66840111  0.32954221  0.66529013  1
  Cs  Cs24  1  0.66528648  0.66634651  0.00164634  1
  Cs  Cs25  1  0.66735629  0.66695595  0.33137524  1
  Cs  Cs26  1  0.66410119  0.66848701  0.66737237  1
  Sn  Sn27  1  0.49959076  0.50065434  0.50009121  1
  Sn  Sn28  1  0.83324936  0.16662313  0.16622286  1
  Sn  Sn29  1  0.50034183  0.83276498  0.83347274  1
  Sn  Sn30  1  0.16681500  0.50051174  0.16706784  1
  Sn  Sn31  1  0.83443637  0.16565484  0.83413330  1
  Sn  Sn32  1  0.16712449  0.83283674  0.49993103  1
  Sn  Sn33  1  0.49987560  0.50045203  0.83312683  1
  Sn  Sn34  1  0.16683096  0.16650578  0.50061468  1
  Sn  Sn35  1  0.16650680  0.16672454  0.83295925  1
  Sn  Sn36  1  0.16713595  0.50057518  0.49906608  1
  Sn  Sn37  1  0.49941406  0.50068736  0.16689331  1
  Sn  Sn38  1  0.49917224  0.83281840  0.49984952  1
  Sn  Sn39  1  0.49981188  0.83313527  0.16680840  1
  Sn  Sn40  1  0.83306956  0.83363183  0.83314397  1
  Pb  Pb41  1  0.16913158  0.49788865  0.83341641  1
  Pb  Pb42  1  0.83298203  0.49820316  0.16662809  1
  Pb  Pb43  1  0.50224968  0.16687419  0.16691404  1
  Pb  Pb44  1  0.83297905  0.83313946  0.50263642  1
  Pb  Pb45  1  0.83632283  0.16653187  0.50047077  1
  Pb  Pb46  1  0.16877968  0.83052480  0.16930436  1
  Pb  Pb47  1  0.16484927  0.16884009  0.16677342  1
  Pb  Pb48  1  0.83060643  0.83525472  0.16406205  1
  Pb  Pb49  1  0.83046497  0.50008068  0.83325898  1
  Pb  Pb50  1  0.49749469  0.16655785  0.49986600  1
  Pb  Pb51  1  0.83310812  0.50032454  0.50009566  1
  Pb  Pb52  1  0.49967142  0.16636185  0.83326630  1
  Pb  Pb53  1  0.16727893  0.83517942  0.83159920  1
  I  I54  1  0.16769876  -0.00013612  0.16791698  1
  I  I55  1  0.17078511  -0.00026108  0.50590186  1
  I  I56  1  0.16741437  0.00319010  0.82772569  1
  I  I57  1  0.17429686  0.33654742  0.17253437  1
  I  I58  1  0.17030766  0.33410654  0.50004347  1
  I  I59  1  0.16189232  0.33007944  0.82759788  1
  I  I60  1  0.16816268  0.66249670  0.17017981  1
  I  I61  1  0.17261282  0.66613280  0.49676035  1
  I  I62  1  0.16294910  0.66662038  0.83268519  1
  I  I63  1  0.50171371  -0.00320929  0.16577412  1
  I  I64  1  0.49657141  -0.00357076  0.50076277  1
  I  I65  1  0.50153165  -0.00328470  0.83250913  1
  I  I66  1  0.49699832  0.33698149  0.16648277  1
  I  I67  1  0.49664535  0.33681606  0.49999186  1
  I  I68  1  0.49913587  0.33621934  0.83324091  1
  I  I69  1  0.49684417  0.66610060  0.16628247  1
  I  I70  1  0.49235333  0.66666860  0.50114116  1
  I  I71  1  0.50524954  0.66739777  0.83287477  1
  I  I72  1  0.83346001  0.00303590  0.16480606  1
  I  I73  1  0.83222178  -0.00004854  0.49813606  1
  I  I74  1  0.82994082  0.00040479  0.83631049  1
  I  I75  1  0.83150749  0.33039347  0.15883464  1
  I  I76  1  0.83149537  0.33315161  0.50240460  1
  I  I77  1  0.83581099  0.33023278  0.83654592  1
  I  I78  1  0.83516007  0.66686241  0.16557235  1
  I  I79  1  0.83870136  0.66690338  0.50184763  1
  I  I80  1  0.83058973  0.66962705  0.83155597  1
  I  I81  1  0.16474881  0.16803744  -0.00238977  1
  I  I82  1  0.16617175  0.16582821  0.33619942  1
  I  I83  1  0.16133528  0.16899445  0.66628632  1
  I  I84  1  0.17187704  0.49668413  0.00236196  1
  I  I85  1  0.17556463  0.49645018  0.33457480  1
  I  I86  1  0.17086150  0.50101712  0.66362920  1
  I  I87  1  0.16752851  0.83438884  0.00009885  1
  I  I88  1  0.17161549  0.83991200  0.33750678  1
  I  I89  1  0.17216192  0.82891781  0.66340208  1
  I  I90  1  0.49547812  0.16735869  -0.00008344  1
  I  I91  1  0.50160490  0.16590147  0.33337314  1
  I  I92  1  0.50427134  0.16773038  0.66669542  1
  I  I93  1  0.49656320  0.50539789  0.00039188  1
  I  I94  1  0.49509440  0.50588256  0.33362774  1
  I  I95  1  0.49638461  0.50572059  0.66601519  1
  I  I96  1  0.50543682  0.82708144  -0.00049323  1
  I  I97  1  0.49492700  0.82767351  0.33392437  1
  I  I98  1  0.49999805  0.82772174  0.66659184  1
  I  I99  1  0.83899157  0.16349460  -0.00171925  1
  I  I100  1  0.83245207  0.16868711  0.33110132  1
  I  I101  1  0.83447557  0.16300705  0.66990762  1
  I  I102  1  0.83413621  0.50044448  -0.00015708  1
  I  I103  1  0.82961008  0.49646697  0.33322916  1
  I  I104  1  0.83402018  0.49660420  0.66691904  1
  I  I105  1  0.82813973  0.83526046  -0.00383160  1
  I  I106  1  0.83281517  0.83581300  0.33321728  1
  I  I107  1  0.82667505  0.84096022  0.67033648  1
  I  I108  1  -0.00282136  0.16843893  0.16456839  1
  I  I109  1  0.00449013  0.16768767  0.50183150  1
  I  I110  1  -0.00047395  0.16172686  0.83277044  1
  I  I111  1  0.00293328  0.49690021  0.17299796  1
  I  I112  1  0.00399144  0.49990192  0.49516703  1
  I  I113  1  0.00019912  0.50163940  0.83317947  1
  I  I114  1  -0.00000338  0.83244470  0.16717427  1
  I  I115  1  0.00322748  0.83332838  0.50187383  1
  I  I116  1  -0.00216297  0.83708165  0.83093186  1
  I  I117  1  0.33317797  0.16542889  0.16549956  1
  I  I118  1  0.32938489  0.16703789  0.50632787  1
  I  I119  1  0.33070639  0.16718053  0.82802542  1
  I  I120  1  0.33465345  0.50146442  0.16786410  1
  I  I121  1  0.33368849  0.50005900  0.49964443  1
  I  I122  1  0.33722699  0.50535541  0.83264798  1
  I  I123  1  0.33718154  0.83388277  0.15991649  1
  I  I124  1  0.33434419  0.83281716  0.50327765  1
  I  I125  1  0.33680193  0.83049717  0.83387273  1
  I  I126  1  0.66991504  0.16819911  0.15824229  1
  I  I127  1  0.66678931  0.16751591  0.50068672  1
  I  I128  1  0.66920225  0.16609247  0.83766501  1
  I  I129  1  0.66276891  0.50314027  0.16730722  1
  I  I130  1  0.66244039  0.50495698  0.49896658  1
  I  I131  1  0.66203494  0.49892516  0.83347948  1
  I  I132  1  0.66234992  0.82619762  0.17214601  1
  I  I133  1  0.66281055  0.82788163  0.49796655  1
  I  I134  1  0.66517116  0.83603748  0.83119877  1
