# generated using pymatgen
data_Cs27Sn14Pb13I81
_symmetry_space_group_name_H-M   'P 1'
_cell_length_a   18.97501217
_cell_length_b   18.96957149
_cell_length_c   18.98447590
_cell_angle_alpha   90.00078765
_cell_angle_beta   89.99997082
_cell_angle_gamma   89.99997184
_symmetry_Int_Tables_number   1
_chemical_formula_structural   Cs27Sn14Pb13I81
_chemical_formula_sum   'Cs27 Sn14 Pb13 I81'
_cell_volume   6833.42127940
_cell_formula_units_Z   1
loop_
 _symmetry_equiv_pos_site_id
 _symmetry_equiv_pos_as_xyz
  1  'x, y, z'
loop_
 _atom_site_type_symbol
 _atom_site_label
 _atom_site_symmetry_multiplicity
 _atom_site_fract_x
 _atom_site_fract_y
 _atom_site_fract_z
 _atom_site_occupancy
  Cs  Cs0  1  0.00199003  0.00484836  -0.00036863  1
  Cs  Cs1  1  -0.00065160  -0.00192531  0.33378340  1
  Cs  Cs2  1  0.00056586  -0.00163528  0.66615684  1
  Cs  Cs3  1  -0.00048980  0.32866037  -0.00391129  1
  Cs  Cs4  1  -0.00197871  0.33237514  0.33503852  1
  Cs  Cs5  1  -0.00473667  0.33092651  0.66868843  1
  Cs  Cs6  1  -0.00051989  0.66662786  0.00010972  1
  Cs  Cs7  1  0.00143883  0.66827249  0.33178593  1
  Cs  Cs8  1  0.00048790  0.66810981  0.66780386  1
  Cs  Cs9  1  0.33496258  0.00239578  0.00795133  1
  Cs  Cs10  1  0.33445153  0.00085519  0.32772361  1
  Cs  Cs11  1  0.33345579  0.00225927  0.66695713  1
  Cs  Cs12  1  0.33368348  0.33442816  -0.00196769  1
  Cs  Cs13  1  0.33407914  0.33549619  0.33490411  1
  Cs  Cs14  1  0.33291263  0.33167471  0.66750822  1
  Cs  Cs15  1  0.33292422  0.66504401  -0.00069082  1
  Cs  Cs16  1  0.33269523  0.66592427  0.33378621  1
  Cs  Cs17  1  0.33337700  0.66651004  0.66664340  1
  Cs  Cs18  1  0.66256161  -0.00001944  0.00392786  1
  Cs  Cs19  1  0.66671558  0.00323557  0.32986804  1
  Cs  Cs20  1  0.66369488  -0.00262666  0.66649149  1
  Cs  Cs21  1  0.66591019  0.33305926  -0.00037001  1
  Cs  Cs22  1  0.66868411  0.33141489  0.33539974  1
  Cs  Cs23  1  0.67136001  0.33402959  0.66533713  1
  Cs  Cs24  1  0.66873309  0.66646099  -0.00127024  1
  Cs  Cs25  1  0.66678849  0.66559319  0.33580567  1
  Cs  Cs26  1  0.66575323  0.66679070  0.66496899  1
  Sn  Sn27  1  0.50012766  0.50016189  0.16610483  1
  Sn  Sn28  1  0.49951137  0.49931561  0.83356994  1
  Sn  Sn29  1  0.16705846  0.50057450  0.83311290  1
  Sn  Sn30  1  0.49917531  0.16672863  0.50100531  1
  Sn  Sn31  1  0.16743611  0.16649890  0.50011206  1
  Sn  Sn32  1  0.83385634  0.83307816  0.50009076  1
  Sn  Sn33  1  0.83362071  0.83256895  0.16646741  1
  Sn  Sn34  1  0.16651055  0.49989291  0.50059951  1
  Sn  Sn35  1  0.49977759  0.16751127  0.83237384  1
  Sn  Sn36  1  0.16637247  0.83346658  0.50063311  1
  Sn  Sn37  1  0.83418846  0.83319392  0.83349612  1
  Sn  Sn38  1  0.83356927  0.50051835  0.16648567  1
  Sn  Sn39  1  0.16629658  0.83290502  0.83302879  1
  Sn  Sn40  1  0.16622811  0.50005269  0.16626596  1
  Pb  Pb41  1  0.83014268  0.16328537  0.83325459  1
  Pb  Pb42  1  0.49896211  0.83297327  0.83332016  1
  Pb  Pb43  1  0.16504469  0.83152933  0.16629600  1
  Pb  Pb44  1  0.83613689  0.50235172  0.49791851  1
  Pb  Pb45  1  0.50267445  0.83007513  0.16673905  1
  Pb  Pb46  1  0.49816516  0.49822236  0.50061558  1
  Pb  Pb47  1  0.83355240  0.16394167  0.50023416  1
  Pb  Pb48  1  0.49986370  0.16961761  0.16673282  1
  Pb  Pb49  1  0.83357439  0.16682835  0.16647528  1
  Pb  Pb50  1  0.16658602  0.16990279  0.16960792  1
  Pb  Pb51  1  0.83343615  0.50172817  0.83503167  1
  Pb  Pb52  1  0.16837827  0.16633168  0.83152053  1
  Pb  Pb53  1  0.49906758  0.83581428  0.49991023  1
  I  I54  1  0.16475768  -0.00006289  0.16638705  1
  I  I55  1  0.16570035  -0.00105524  0.50599540  1
  I  I56  1  0.16319776  -0.00308596  0.82769082  1
  I  I57  1  0.16454705  0.33861293  0.16504943  1
  I  I58  1  0.17291550  0.33393449  0.49802960  1
  I  I59  1  0.16945879  0.33651543  0.83382432  1
  I  I60  1  0.16888232  0.66303226  0.17127004  1
  I  I61  1  0.16191534  0.66663374  0.50003859  1
  I  I62  1  0.16859749  0.66583012  0.82898151  1
  I  I63  1  0.50212734  0.00017605  0.16599990  1
  I  I64  1  0.49538872  0.00372937  0.50708801  1
  I  I65  1  0.50155516  0.00245556  0.82745517  1
  I  I66  1  0.50162954  0.33768761  0.16563385  1
  I  I67  1  0.49364462  0.33037526  0.50020685  1
  I  I68  1  0.49330713  0.33477530  0.83435648  1
  I  I69  1  0.49652014  0.66201739  0.16042082  1
  I  I70  1  0.49987929  0.66650790  0.49997524  1
  I  I71  1  0.49861850  0.66348697  0.83845356  1
  I  I72  1  0.83360142  -0.00365823  0.16775914  1
  I  I73  1  0.83904577  -0.00424619  0.49732584  1
  I  I74  1  0.83979772  -0.00500049  0.83522426  1
  I  I75  1  0.83306218  0.33719280  0.16709235  1
  I  I76  1  0.83424279  0.33347106  0.49710773  1
  I  I77  1  0.83580776  0.33344439  0.83568369  1
  I  I78  1  0.83330002  0.66649537  0.16695265  1
  I  I79  1  0.83788974  0.67046426  0.50197608  1
  I  I80  1  0.83257354  0.66991979  0.83135462  1
  I  I81  1  0.16814951  0.16557651  -0.00017311  1
  I  I82  1  0.17301533  0.16452790  0.33801087  1
  I  I83  1  0.16905897  0.17050183  0.66340394  1
  I  I84  1  0.16803853  0.50597854  -0.00064793  1
  I  I85  1  0.16680011  0.50003767  0.33351569  1
  I  I86  1  0.17272720  0.50177998  0.66707563  1
  I  I87  1  0.16316936  0.82783122  -0.00302845  1
  I  I88  1  0.16276603  0.83258219  0.33627023  1
  I  I89  1  0.15856275  0.82823921  0.66629434  1
  I  I90  1  0.50100280  0.16800954  -0.00279089  1
  I  I91  1  0.49617282  0.16649268  0.33617301  1
  I  I92  1  0.49558019  0.17198412  0.66679862  1
  I  I93  1  0.49519056  0.49498777  -0.00056356  1
  I  I94  1  0.49914003  0.49947718  0.33090347  1
  I  I95  1  0.49488694  0.49877952  0.66970014  1
  I  I96  1  0.49979976  0.83916460  -0.00013820  1
  I  I97  1  0.49979455  0.83364977  0.33338592  1
  I  I98  1  0.50620526  0.82872125  0.66670655  1
  I  I99  1  0.83183625  0.16412701  -0.00023118  1
  I  I100  1  0.83075314  0.16495991  0.33356783  1
  I  I101  1  0.83432662  0.16672878  0.66665637  1
  I  I102  1  0.83686704  0.50686296  0.00310822  1
  I  I103  1  0.83192981  0.50563502  0.32976109  1
  I  I104  1  0.83214125  0.50151626  0.66665376  1
  I  I105  1  0.83626681  0.82782123  -0.00008732  1
  I  I106  1  0.83760682  0.82931278  0.33352145  1
  I  I107  1  0.83800801  0.83480290  0.66664311  1
  I  I108  1  0.00022149  0.16970137  0.16833292  1
  I  I109  1  0.00338235  0.16900080  0.49888802  1
  I  I110  1  0.00015842  0.16946178  0.83226233  1
  I  I111  1  0.00045762  0.50544274  0.16836280  1
  I  I112  1  0.00468003  0.49501535  0.50110055  1
  I  I113  1  0.00327829  0.50275582  0.83343983  1
  I  I114  1  -0.00304629  0.82599678  0.16753149  1
  I  I115  1  0.00114482  0.83456659  0.50014118  1
  I  I116  1  0.00093069  0.82678575  0.83191006  1
  I  I117  1  0.33328074  0.16587796  0.16558665  1
  I  I118  1  0.33237777  0.16535572  0.50419278  1
  I  I119  1  0.33622650  0.16683181  0.83064531  1
  I  I120  1  0.33275835  0.49838429  0.16632569  1
  I  I121  1  0.32965527  0.50520998  0.49531615  1
  I  I122  1  0.33232362  0.50209834  0.83789790  1
  I  I123  1  0.33312285  0.83278555  0.16687957  1
  I  I124  1  0.32929359  0.83053014  0.50595961  1
  I  I125  1  0.32975982  0.83100984  0.82621383  1
  I  I126  1  0.66648325  0.16780763  0.16943115  1
  I  I127  1  0.66385014  0.16588010  0.50280531  1
  I  I128  1  0.66226470  0.17314764  0.82695130  1
  I  I129  1  0.66660844  0.50434566  0.16120834  1
  I  I130  1  0.66684451  0.49983546  0.49905445  1
  I  I131  1  0.66398176  0.49784597  0.83867394  1
  I  I132  1  0.67113420  0.82852825  0.16644803  1
  I  I133  1  0.66957265  0.83460454  0.50040217  1
  I  I134  1  0.66933212  0.83360202  0.83315237  1
