# generated using pymatgen
data_Cs27Sn14Pb13I81
_symmetry_space_group_name_H-M   'P 1'
_cell_length_a   18.98576459
_cell_length_b   18.97570146
_cell_length_c   18.96708255
_cell_angle_alpha   89.99970595
_cell_angle_beta   89.99678500
_cell_angle_gamma   89.99997779
_symmetry_Int_Tables_number   1
_chemical_formula_structural   Cs27Sn14Pb13I81
_chemical_formula_sum   'Cs27 Sn14 Pb13 I81'
_cell_volume   6833.23669650
_cell_formula_units_Z   1
loop_
 _symmetry_equiv_pos_site_id
 _symmetry_equiv_pos_as_xyz
  1  'x, y, z'
loop_
 _atom_site_type_symbol
 _atom_site_label
 _atom_site_symmetry_multiplicity
 _atom_site_fract_x
 _atom_site_fract_y
 _atom_site_fract_z
 _atom_site_occupancy
  Cs  Cs0  1  0.00459899  0.00214330  0.00092328  1
  Cs  Cs1  1  -0.00237021  -0.00605219  0.33030874  1
  Cs  Cs2  1  -0.00076129  0.00369508  0.66795821  1
  Cs  Cs3  1  -0.00173732  0.33293748  -0.00051961  1
  Cs  Cs4  1  -0.00291741  0.33504279  0.33574032  1
  Cs  Cs5  1  -0.00240531  0.33180127  0.66499146  1
  Cs  Cs6  1  -0.00039279  0.66494931  -0.00067016  1
  Cs  Cs7  1  0.00141011  0.67006795  0.33431485  1
  Cs  Cs8  1  0.00386750  0.66571197  0.66646195  1
  Cs  Cs9  1  0.32884008  0.00346516  0.00384953  1
  Cs  Cs10  1  0.33154365  -0.00430566  0.32452077  1
  Cs  Cs11  1  0.33756930  0.00070912  0.66777763  1
  Cs  Cs12  1  0.33311651  0.33334604  0.00408077  1
  Cs  Cs13  1  0.33452957  0.33367096  0.33377575  1
  Cs  Cs14  1  0.33419486  0.33404994  0.66479682  1
  Cs  Cs15  1  0.33438976  0.66385145  -0.00311348  1
  Cs  Cs16  1  0.33045169  0.67237284  0.33325466  1
  Cs  Cs17  1  0.33205023  0.66592786  0.66784446  1
  Cs  Cs18  1  0.66635023  -0.00239609  0.00009489  1
  Cs  Cs19  1  0.66913150  -0.00529622  0.33396889  1
  Cs  Cs20  1  0.66394824  0.00106580  0.66571764  1
  Cs  Cs21  1  0.66859734  0.33556785  0.00237853  1
  Cs  Cs22  1  0.66839035  0.33328183  0.33467039  1
  Cs  Cs23  1  0.66731877  0.33264744  0.66599623  1
  Cs  Cs24  1  0.66590063  0.66505055  -0.00094562  1
  Cs  Cs25  1  0.66726114  0.67221563  0.33045803  1
  Cs  Cs26  1  0.66535528  0.66668116  0.66878539  1
  Sn  Sn27  1  0.50086211  0.49963256  0.50046883  1
  Sn  Sn28  1  0.49972069  0.83341903  0.83304401  1
  Sn  Sn29  1  0.49961703  0.16725029  0.50022171  1
  Sn  Sn30  1  0.16710278  0.16631725  0.49971255  1
  Sn  Sn31  1  0.16728278  0.49987071  0.83394615  1
  Sn  Sn32  1  0.49922451  0.49921371  0.83245843  1
  Sn  Sn33  1  0.16596275  0.49957080  0.16631201  1
  Sn  Sn34  1  0.50008210  0.16738908  0.83329277  1
  Sn  Sn35  1  0.83306087  0.16742774  0.16743177  1
  Sn  Sn36  1  0.16677295  0.83296946  0.83295281  1
  Sn  Sn37  1  0.83231717  0.49986832  0.49926044  1
  Sn  Sn38  1  0.83420401  0.49935031  0.16782680  1
  Sn  Sn39  1  0.83321550  0.16726355  0.49901117  1
  Sn  Sn40  1  0.83361835  0.83341501  0.83290994  1
  Pb  Pb41  1  0.50021597  0.49991833  0.16757412  1
  Pb  Pb42  1  0.83107605  0.16465702  0.83320491  1
  Pb  Pb43  1  0.50251567  0.16688820  0.16767685  1
  Pb  Pb44  1  0.83341691  0.83283898  0.16397624  1
  Pb  Pb45  1  0.83333568  0.50128895  0.83290610  1
  Pb  Pb46  1  0.16691689  0.49876209  0.50012534  1
  Pb  Pb47  1  0.16902528  0.16751412  0.83183016  1
  Pb  Pb48  1  0.49988969  0.83329670  0.16346652  1
  Pb  Pb49  1  0.16650173  0.83035195  0.16386640  1
  Pb  Pb50  1  0.16408571  0.16928440  0.16952952  1
  Pb  Pb51  1  0.83338745  0.83300997  0.50246390  1
  Pb  Pb52  1  0.49989443  0.83316898  0.50167831  1
  Pb  Pb53  1  0.16675470  0.83664143  0.50267310  1
  I  I54  1  0.16560499  0.00024026  0.16590100  1
  I  I55  1  0.16605849  0.00477126  0.50278367  1
  I  I56  1  0.16732471  -0.00221827  0.82987025  1
  I  I57  1  0.16518134  0.33687439  0.15762650  1
  I  I58  1  0.16629776  0.33087089  0.50346773  1
  I  I59  1  0.17088008  0.33659179  0.83577932  1
  I  I60  1  0.15993716  0.66237823  0.16704481  1
  I  I61  1  0.16625398  0.66647086  0.49827229  1
  I  I62  1  0.17125129  0.66585671  0.83650806  1
  I  I63  1  0.50231232  0.00031191  0.16641835  1
  I  I64  1  0.50207406  0.00356029  0.50580616  1
  I  I65  1  0.50167214  0.00023843  0.82843971  1
  I  I66  1  0.49813101  0.33348613  0.15899010  1
  I  I67  1  0.50146407  0.33318524  0.50939933  1
  I  I68  1  0.49567074  0.33423451  0.82859767  1
  I  I69  1  0.50312106  0.66622902  0.16719484  1
  I  I70  1  0.50502227  0.66303622  0.50442790  1
  I  I71  1  0.49942630  0.66590033  0.82991125  1
  I  I72  1  0.83127871  0.00276170  0.17107946  1
  I  I73  1  0.83198238  0.00350491  0.49718977  1
  I  I74  1  0.83331963  -0.00317834  0.83304244  1
  I  I75  1  0.83650682  0.33425395  0.16939448  1
  I  I76  1  0.83238650  0.33318612  0.49747133  1
  I  I77  1  0.83373778  0.33322299  0.83374468  1
  I  I78  1  0.83664490  0.66308475  0.17016658  1
  I  I79  1  0.82854712  0.66305579  0.49685993  1
  I  I80  1  0.82866603  0.66914852  0.83356616  1
  I  I81  1  0.16642144  0.16413536  0.00009140  1
  I  I82  1  0.17323873  0.17028267  0.33742387  1
  I  I83  1  0.16088396  0.16898849  0.66394834  1
  I  I84  1  0.16649769  0.50398934  -0.00122743  1
  I  I85  1  0.16538985  0.49573095  0.33123423  1
  I  I86  1  0.16779348  0.50361420  0.66943370  1
  I  I87  1  0.16745725  0.83395861  -0.00451342  1
  I  I88  1  0.16631604  0.83248357  0.33316569  1
  I  I89  1  0.16731068  0.82434902  0.67100488  1
  I  I90  1  0.50136431  0.16592275  -0.00301839  1
  I  I91  1  0.49838605  0.17446098  0.33736460  1
  I  I92  1  0.50266350  0.16676152  0.66639063  1
  I  I93  1  0.49963922  0.50125097  -0.00321559  1
  I  I94  1  0.50074953  0.49200444  0.33692219  1
  I  I95  1  0.50027611  0.49965778  0.66752917  1
  I  I96  1  0.50114182  0.83205863  -0.00567504  1
  I  I97  1  0.50059670  0.83330210  0.33352822  1
  I  I98  1  0.50019069  0.83334470  0.67057446  1
  I  I99  1  0.83152437  0.17026794  0.00227259  1
  I  I100  1  0.83133056  0.17153727  0.33468462  1
  I  I101  1  0.83453066  0.17029313  0.66343160  1
  I  I102  1  0.83403048  0.49745623  0.00209064  1
  I  I103  1  0.83346277  0.49517157  0.33385813  1
  I  I104  1  0.83260078  0.49606170  0.66394918  1
  I  I105  1  0.83154577  0.83277549  -0.00401149  1
  I  I106  1  0.83338520  0.83371701  0.33331255  1
  I  I107  1  0.83220825  0.83315954  0.67050946  1
  I  I108  1  -0.00377271  0.16845738  0.17010963  1
  I  I109  1  -0.00135133  0.17147454  0.49757715  1
  I  I110  1  -0.00007795  0.16510754  0.83175917  1
  I  I111  1  -0.00081091  0.49603499  0.16510343  1
  I  I112  1  -0.00248923  0.49521422  0.50046856  1
  I  I113  1  0.00228189  0.50567920  0.83382541  1
  I  I114  1  -0.00011735  0.83576276  0.16244160  1
  I  I115  1  -0.00005936  0.83288268  0.50521556  1
  I  I116  1  0.00072135  0.82753228  0.83299809  1
  I  I117  1  0.33312658  0.16675716  0.16670420  1
  I  I118  1  0.33479034  0.17194179  0.50806218  1
  I  I119  1  0.33711364  0.16275114  0.82743736  1
  I  I120  1  0.33085785  0.50111452  0.16391833  1
  I  I121  1  0.33604661  0.49506696  0.50251912  1
  I  I122  1  0.33403876  0.50491737  0.83298052  1
  I  I123  1  0.33296129  0.83253692  0.16617381  1
  I  I124  1  0.33336152  0.83156333  0.50295813  1
  I  I125  1  0.33374526  0.83120841  0.83223244  1
  I  I126  1  0.67036187  0.17415656  0.16986001  1
  I  I127  1  0.66662343  0.17130699  0.50147718  1
  I  I128  1  0.66305434  0.16775820  0.82811907  1
  I  I129  1  0.66977174  0.49601287  0.16613601  1
  I  I130  1  0.66660386  0.49203937  0.50188683  1
  I  I131  1  0.66393482  0.50120304  0.83263954  1
  I  I132  1  0.66702599  0.83114014  0.16305766  1
  I  I133  1  0.66669660  0.83686333  0.50400890  1
  I  I134  1  0.66558046  0.83294014  0.83307632  1
