# generated using pymatgen
data_Cs27Sn13Pb14I81
_symmetry_space_group_name_H-M   'P 1'
_cell_length_a   18.98372969
_cell_length_b   18.99348757
_cell_length_c   18.99481957
_cell_angle_alpha   89.99801123
_cell_angle_beta   90.00112441
_cell_angle_gamma   89.99831191
_symmetry_Int_Tables_number   1
_chemical_formula_structural   Cs27Sn13Pb14I81
_chemical_formula_sum   'Cs27 Sn13 Pb14 I81'
_cell_volume   6848.90954299
_cell_formula_units_Z   1
loop_
 _symmetry_equiv_pos_site_id
 _symmetry_equiv_pos_as_xyz
  1  'x, y, z'
loop_
 _atom_site_type_symbol
 _atom_site_label
 _atom_site_symmetry_multiplicity
 _atom_site_fract_x
 _atom_site_fract_y
 _atom_site_fract_z
 _atom_site_occupancy
  Cs  Cs0  1  0.00091547  -0.00420347  -0.00069214  1
  Cs  Cs1  1  -0.00231560  -0.00209720  0.33525848  1
  Cs  Cs2  1  -0.00056777  -0.00204266  0.66534613  1
  Cs  Cs3  1  0.00445395  0.33707038  -0.01286219  1
  Cs  Cs4  1  0.00059075  0.33212706  0.33490971  1
  Cs  Cs5  1  0.00649152  0.33338070  0.67474428  1
  Cs  Cs6  1  0.00202980  0.66798403  -0.00053787  1
  Cs  Cs7  1  -0.00232967  0.66946694  0.33079604  1
  Cs  Cs8  1  -0.00117039  0.66967685  0.66944361  1
  Cs  Cs9  1  0.33706176  0.00851567  0.00236347  1
  Cs  Cs10  1  0.33026323  0.00463529  0.32942104  1
  Cs  Cs11  1  0.33604726  -0.00167163  0.66984973  1
  Cs  Cs12  1  0.33103871  0.32594949  -0.00032012  1
  Cs  Cs13  1  0.32474432  0.33120196  0.33621221  1
  Cs  Cs14  1  0.32107815  0.33520974  0.66191021  1
  Cs  Cs15  1  0.33397946  0.66603791  0.00270262  1
  Cs  Cs16  1  0.33432049  0.66273002  0.33343608  1
  Cs  Cs17  1  0.33969016  0.66698822  0.66333565  1
  Cs  Cs18  1  0.66382392  0.00223566  0.00002477  1
  Cs  Cs19  1  0.66865224  0.00170103  0.33362348  1
  Cs  Cs20  1  0.66439348  -0.00090643  0.66714538  1
  Cs  Cs21  1  0.66607117  0.33425700  -0.00047305  1
  Cs  Cs22  1  0.66726919  0.33295916  0.33207502  1
  Cs  Cs23  1  0.66884872  0.33292003  0.66729053  1
  Cs  Cs24  1  0.66627953  0.66492670  0.00171769  1
  Cs  Cs25  1  0.66715172  0.66542921  0.33263587  1
  Cs  Cs26  1  0.66283122  0.66717014  0.66561670  1
  Sn  Sn27  1  0.50011828  0.49957503  0.83399305  1
  Sn  Sn28  1  0.83349201  0.16721072  0.16676710  1
  Sn  Sn29  1  0.83322661  0.49947680  0.16713037  1
  Sn  Sn30  1  0.83318476  0.49984233  0.49975076  1
  Sn  Sn31  1  0.16639613  0.83307111  0.50063031  1
  Sn  Sn32  1  0.83245888  0.16707839  0.49952161  1
  Sn  Sn33  1  0.50064100  0.50016821  0.16596932  1
  Sn  Sn34  1  0.83310281  0.83330722  0.83340518  1
  Sn  Sn35  1  0.83215946  0.83341312  0.16640517  1
  Sn  Sn36  1  0.16690468  0.83313399  0.83258679  1
  Sn  Sn37  1  0.83346572  0.83310714  0.50026132  1
  Sn  Sn38  1  0.50087499  0.83284691  0.16715272  1
  Sn  Sn39  1  0.50088481  0.16690442  0.50010564  1
  Pb  Pb40  1  0.16681579  0.83329621  0.16670146  1
  Pb  Pb41  1  0.16661631  0.16315869  0.83324164  1
  Pb  Pb42  1  0.16292571  0.50329713  0.49979537  1
  Pb  Pb43  1  0.83193286  0.50253141  0.83348141  1
  Pb  Pb44  1  0.50199622  0.16768118  0.16857895  1
  Pb  Pb45  1  0.50026707  0.17009425  0.83020053  1
  Pb  Pb46  1  0.16221062  0.16675612  0.16669293  1
  Pb  Pb47  1  0.49988866  0.83207270  0.83585949  1
  Pb  Pb48  1  0.16539300  0.16379753  0.50002567  1
  Pb  Pb49  1  0.50014908  0.83493255  0.49727651  1
  Pb  Pb50  1  0.50202406  0.49752979  0.49910639  1
  Pb  Pb51  1  0.17011771  0.50332488  0.83345129  1
  Pb  Pb52  1  0.83315630  0.16393271  0.83312479  1
  Pb  Pb53  1  0.16621358  0.49998406  0.16661414  1
  I  I54  1  0.16871956  -0.00035401  0.16617968  1
  I  I55  1  0.15955331  -0.00381931  0.50307323  1
  I  I56  1  0.16158133  -0.00483851  0.82880456  1
  I  I57  1  0.16912288  0.33330850  0.16762588  1
  I  I58  1  0.16721712  0.33331557  0.49966388  1
  I  I59  1  0.16690292  0.33367239  0.83351429  1
  I  I60  1  0.16244906  0.66697363  0.16728531  1
  I  I61  1  0.16210642  0.67112059  0.50328789  1
  I  I62  1  0.15969216  0.67072644  0.82976437  1
  I  I63  1  0.50391204  -0.00223184  0.16811658  1
  I  I64  1  0.50688794  0.00238432  0.49798396  1
  I  I65  1  0.49903676  -0.00001697  0.83449018  1
  I  I66  1  0.50607949  0.33657308  0.16329531  1
  I  I67  1  0.50814700  0.33013325  0.49862610  1
  I  I68  1  0.50378514  0.33749672  0.84255384  1
  I  I69  1  0.50853292  0.66670007  0.16397395  1
  I  I70  1  0.49992163  0.66652941  0.50163810  1
  I  I71  1  0.50114613  0.66432898  0.83397898  1
  I  I72  1  0.83005115  -0.00120109  0.16986048  1
  I  I73  1  0.83406268  -0.00083287  0.49683239  1
  I  I74  1  0.83654828  -0.00449681  0.83343403  1
  I  I75  1  0.82770903  0.33402244  0.17661224  1
  I  I76  1  0.82606587  0.33320140  0.49080930  1
  I  I77  1  0.83197234  0.33360699  0.83313125  1
  I  I78  1  0.82967429  0.66727795  0.16998618  1
  I  I79  1  0.83782614  0.66748809  0.49689365  1
  I  I80  1  0.83656779  0.67054672  0.83292793  1
  I  I81  1  0.16703761  0.16392119  0.00001316  1
  I  I82  1  0.17021117  0.16355452  0.33360425  1
  I  I83  1  0.16471673  0.16873210  0.66634456  1
  I  I84  1  0.16038706  0.50376354  -0.00012354  1
  I  I85  1  0.17225201  0.50267994  0.33346696  1
  I  I86  1  0.16732487  0.49833247  0.66656776  1
  I  I87  1  0.16091047  0.83216900  -0.00255462  1
  I  I88  1  0.16123103  0.83438702  0.33601470  1
  I  I89  1  0.15640411  0.83370836  0.66623383  1
  I  I90  1  0.50057423  0.16388692  0.00024143  1
  I  I91  1  0.50387179  0.16640669  0.33611539  1
  I  I92  1  0.50902367  0.16471942  0.66264555  1
  I  I93  1  0.50759360  0.50589437  0.00172677  1
  I  I94  1  0.50369307  0.50460400  0.33008540  1
  I  I95  1  0.50254708  0.50027541  0.66814627  1
  I  I96  1  0.50496910  0.83233394  0.00360560  1
  I  I97  1  0.50494534  0.82695829  0.32966487  1
  I  I98  1  0.50220560  0.83246368  0.66648946  1
  I  I99  1  0.83259755  0.16580529  0.00322848  1
  I  I100  1  0.82937369  0.16172810  0.33385072  1
  I  I101  1  0.82987324  0.16611099  0.66305834  1
  I  I102  1  0.83100540  0.50055269  0.00320831  1
  I  I103  1  0.82771005  0.50497245  0.33278278  1
  I  I104  1  0.83088429  0.50082837  0.66397553  1
  I  I105  1  0.83426638  0.83307901  0.00094901  1
  I  I106  1  0.83409548  0.83345348  0.33340248  1
  I  I107  1  0.83846787  0.83342463  0.66574256  1
  I  I108  1  -0.00601761  0.16326967  0.17580855  1
  I  I109  1  -0.00413516  0.16708696  0.49447125  1
  I  I110  1  -0.00038910  0.17079004  0.83252709  1
  I  I111  1  -0.00455630  0.50254956  0.17215926  1
  I  I112  1  -0.00541591  0.49517072  0.49353497  1
  I  I113  1  0.00003951  0.49849539  0.83325037  1
  I  I114  1  -0.00379509  0.83299715  0.16712501  1
  I  I115  1  -0.00268632  0.83516140  0.49842332  1
  I  I116  1  -0.00163713  0.83289345  0.83454403  1
  I  I117  1  0.33357209  0.16508233  0.16842039  1
  I  I118  1  0.33552978  0.16567772  0.49991104  1
  I  I119  1  0.33365302  0.16367439  0.83229948  1
  I  I120  1  0.33698631  0.50774295  0.16297593  1
  I  I121  1  0.33330663  0.49909512  0.50007127  1
  I  I122  1  0.33770216  0.50246765  0.83980278  1
  I  I123  1  0.33643990  0.82769552  0.16728790  1
  I  I124  1  0.33110437  0.83589982  0.50441851  1
  I  I125  1  0.33090530  0.83069648  0.82755909  1
  I  I126  1  0.67027944  0.16461122  0.16988137  1
  I  I127  1  0.66920192  0.16329708  0.49603267  1
  I  I128  1  0.66674685  0.16229750  0.83401439  1
  I  I129  1  0.66798648  0.50247730  0.16675590  1
  I  I130  1  0.67033801  0.50646172  0.49850194  1
  I  I131  1  0.66438092  0.50416330  0.83521405  1
  I  I132  1  0.66889431  0.83246127  0.16689690  1
  I  I133  1  0.67034777  0.83202098  0.50217546  1
  I  I134  1  0.66951408  0.83222586  0.83030425  1
