# generated using pymatgen
data_Cs27Sn13Pb14I81
_symmetry_space_group_name_H-M   'P 1'
_cell_length_a   18.97781650
_cell_length_b   18.97896980
_cell_length_c   18.97316153
_cell_angle_alpha   89.99852531
_cell_angle_beta   89.99872751
_cell_angle_gamma   89.99927009
_symmetry_Int_Tables_number   1
_chemical_formula_structural   Cs27Sn13Pb14I81
_chemical_formula_sum   'Cs27 Sn13 Pb14 I81'
_cell_volume   6833.74205252
_cell_formula_units_Z   1
loop_
 _symmetry_equiv_pos_site_id
 _symmetry_equiv_pos_as_xyz
  1  'x, y, z'
loop_
 _atom_site_type_symbol
 _atom_site_label
 _atom_site_symmetry_multiplicity
 _atom_site_fract_x
 _atom_site_fract_y
 _atom_site_fract_z
 _atom_site_occupancy
  Cs  Cs0  1  0.00111945  0.00087653  -0.00090009  1
  Cs  Cs1  1  0.00167770  0.00160480  0.33238142  1
  Cs  Cs2  1  -0.00045839  -0.00181767  0.66862203  1
  Cs  Cs3  1  -0.00105458  0.33318097  0.00083512  1
  Cs  Cs4  1  0.00010674  0.33337776  0.33265988  1
  Cs  Cs5  1  0.00090107  0.33293762  0.66707610  1
  Cs  Cs6  1  0.00008349  0.66524426  -0.00019941  1
  Cs  Cs7  1  0.00073917  0.66463967  0.33491884  1
  Cs  Cs8  1  -0.00220713  0.66916842  0.66459355  1
  Cs  Cs9  1  0.33190833  -0.00187411  -0.00262449  1
  Cs  Cs10  1  0.33184164  -0.00043312  0.33146393  1
  Cs  Cs11  1  0.33630894  0.00263875  0.67432887  1
  Cs  Cs12  1  0.33291492  0.33383860  -0.00027512  1
  Cs  Cs13  1  0.33080760  0.33260025  0.33335465  1
  Cs  Cs14  1  0.34293098  0.33505863  0.66770204  1
  Cs  Cs15  1  0.33478295  0.66664951  0.00043898  1
  Cs  Cs16  1  0.33094908  0.66864505  0.33282700  1
  Cs  Cs17  1  0.34041389  0.66032077  0.66765855  1
  Cs  Cs18  1  0.66801818  -0.00307411  0.00192404  1
  Cs  Cs19  1  0.66437127  -0.00014501  0.33341817  1
  Cs  Cs20  1  0.66359754  -0.00590677  0.66288286  1
  Cs  Cs21  1  0.66945668  0.33450297  0.00090052  1
  Cs  Cs22  1  0.66984985  0.33265266  0.33234534  1
  Cs  Cs23  1  0.65738945  0.33294743  0.66863798  1
  Cs  Cs24  1  0.66358578  0.66734464  -0.00072854  1
  Cs  Cs25  1  0.66954682  0.66987420  0.33944507  1
  Cs  Cs26  1  0.66156176  0.67405925  0.66059885  1
  Sn  Sn27  1  0.83352343  0.16740314  0.83293382  1
  Sn  Sn28  1  0.16675614  0.83449162  0.49978861  1
  Sn  Sn29  1  0.49972670  0.16761650  0.16658955  1
  Sn  Sn30  1  0.16538999  0.49967300  0.83384432  1
  Sn  Sn31  1  0.83342102  0.16589076  0.16669237  1
  Sn  Sn32  1  0.16542993  0.83350050  0.16706044  1
  Sn  Sn33  1  0.83448111  0.83387021  0.16648829  1
  Sn  Sn34  1  0.83390688  0.49959508  0.83298913  1
  Sn  Sn35  1  0.16725720  0.49981163  0.16586342  1
  Sn  Sn36  1  0.83411563  0.16715581  0.50029367  1
  Sn  Sn37  1  0.49951027  0.49930025  0.16702426  1
  Sn  Sn38  1  0.16679672  0.16661601  0.16694886  1
  Sn  Sn39  1  0.16595521  0.16573047  0.49984218  1
  Pb  Pb40  1  0.83337772  0.49725539  0.50363751  1
  Pb  Pb41  1  0.16512432  0.16862452  0.83291486  1
  Pb  Pb42  1  0.49947569  0.16660653  0.49745054  1
  Pb  Pb43  1  0.16656640  0.49948290  0.50014051  1
  Pb  Pb44  1  0.49591575  0.83385660  0.49945212  1
  Pb  Pb45  1  0.49992862  0.83342257  0.83352830  1
  Pb  Pb46  1  0.50345580  0.16647716  0.83649509  1
  Pb  Pb47  1  0.16665328  0.83045908  0.83301491  1
  Pb  Pb48  1  0.83565900  0.83598960  0.49736832  1
  Pb  Pb49  1  0.50009889  0.49983314  0.49616371  1
  Pb  Pb50  1  0.50064559  0.49993936  0.83579330  1
  Pb  Pb51  1  0.83353584  0.83330780  0.83547735  1
  Pb  Pb52  1  0.83338528  0.50028665  0.16568143  1
  Pb  Pb53  1  0.49963675  0.83331951  0.16675652  1
  I  I54  1  0.16599834  0.00091142  0.17098595  1
  I  I55  1  0.16191107  0.00115408  0.48942669  1
  I  I56  1  0.16533317  0.00019252  0.83628310  1
  I  I57  1  0.16669013  0.33249829  0.16701566  1
  I  I58  1  0.16223611  0.32981331  0.49456177  1
  I  I59  1  0.16379824  0.33641220  0.83927704  1
  I  I60  1  0.16670105  0.66665354  0.16681159  1
  I  I61  1  0.16663276  0.66920119  0.49481658  1
  I  I62  1  0.16045714  0.66254029  0.83923736  1
  I  I63  1  0.49907752  0.00318588  0.16717895  1
  I  I64  1  0.50331276  0.00038141  0.49659308  1
  I  I65  1  0.50007214  0.00050997  0.83665436  1
  I  I66  1  0.49696093  0.33253454  0.16618277  1
  I  I67  1  0.49710827  0.33296285  0.50160269  1
  I  I68  1  0.49803459  0.33321589  0.83229912  1
  I  I69  1  0.49608725  0.66380722  0.16460595  1
  I  I70  1  0.49937473  0.66688066  0.49868500  1
  I  I71  1  0.50101870  0.66607334  0.83702016  1
  I  I72  1  0.83564085  0.00199156  0.16440526  1
  I  I73  1  0.83518750  0.00417285  0.50382007  1
  I  I74  1  0.83383398  0.00337718  0.83380398  1
  I  I75  1  0.83528271  0.33008245  0.16785600  1
  I  I76  1  0.84108563  0.32874164  0.49144218  1
  I  I77  1  0.83814661  0.33238558  0.83766179  1
  I  I78  1  0.83664914  0.66903858  0.16379561  1
  I  I79  1  0.83441156  0.66707683  0.49903630  1
  I  I80  1  0.83804745  0.66363272  0.83821403  1
  I  I81  1  0.16593178  0.16471244  0.00347340  1
  I  I82  1  0.16268409  0.16829764  0.33136036  1
  I  I83  1  0.16056672  0.16300228  0.66368054  1
  I  I84  1  0.16657302  0.49934400  0.00207246  1
  I  I85  1  0.17055892  0.49977279  0.32981894  1
  I  I86  1  0.16119776  0.50009700  0.66964667  1
  I  I87  1  0.16376763  0.83641532  0.00364771  1
  I  I88  1  0.16309684  0.83222168  0.33119838  1
  I  I89  1  0.16595857  0.83841218  0.66348984  1
  I  I90  1  0.49782622  0.17064383  0.00487661  1
  I  I91  1  0.50405517  0.17053408  0.32901051  1
  I  I92  1  0.49916219  0.16667721  0.66670982  1
  I  I93  1  0.49780494  0.49566485  0.00376307  1
  I  I94  1  0.49305801  0.49525066  0.32807527  1
  I  I95  1  0.49833856  0.50029231  0.66689571  1
  I  I96  1  0.49865949  0.83322866  0.00103204  1
  I  I97  1  0.50303591  0.83230162  0.33268521  1
  I  I98  1  0.49991605  0.83279720  0.66621833  1
  I  I99  1  0.83352950  0.16720086  0.00148869  1
  I  I100  1  0.83387013  0.16243526  0.33184914  1
  I  I101  1  0.84086020  0.17243081  0.66644056  1
  I  I102  1  0.83525715  0.49379398  -0.00206543  1
  I  I103  1  0.83318298  0.49955950  0.33325165  1
  I  I104  1  0.84231557  0.49504349  0.67165100  1
  I  I105  1  0.83932509  0.83957519  0.00397151  1
  I  I106  1  0.83465745  0.83709684  0.32914968  1
  I  I107  1  0.83462553  0.83382609  0.66630385  1
  I  I108  1  0.00013106  0.16654102  0.16695761  1
  I  I109  1  0.00046062  0.16407907  0.49394134  1
  I  I110  1  -0.00302248  0.16888382  0.83920219  1
  I  I111  1  0.00296069  0.49790818  0.16470433  1
  I  I112  1  0.00011636  0.50104199  0.49473565  1
  I  I113  1  0.00046040  0.49601830  0.84126709  1
  I  I114  1  0.00112239  0.83654630  0.16899769  1
  I  I115  1  0.00349784  0.83468899  0.49686111  1
  I  I116  1  0.00010213  0.83414385  0.83350760  1
  I  I117  1  0.33182655  0.16749769  0.17170880  1
  I  I118  1  0.32954570  0.16354383  0.49401038  1
  I  I119  1  0.33333493  0.16813922  0.83285937  1
  I  I120  1  0.33144999  0.49697818  0.16149457  1
  I  I121  1  0.33290469  0.49810776  0.50507186  1
  I  I122  1  0.33051185  0.50097686  0.83568079  1
  I  I123  1  0.32960147  0.83515568  0.17019990  1
  I  I124  1  0.32794272  0.83926595  0.49018077  1
  I  I125  1  0.33268724  0.83234562  0.83644922  1
  I  I126  1  0.66792818  0.16721431  0.16608417  1
  I  I127  1  0.66983039  0.16864970  0.49845625  1
  I  I128  1  0.67177142  0.17430120  0.83362733  1
  I  I129  1  0.66469159  0.49570698  0.16417015  1
  I  I130  1  0.66686766  0.49823960  0.49902941  1
  I  I131  1  0.66983912  0.49390794  0.83670853  1
  I  I132  1  0.66952701  0.83692178  0.16468045  1
  I  I133  1  0.66687856  0.83349638  0.49897738  1
  I  I134  1  0.66725384  0.83121628  0.83694802  1
