# generated using pymatgen
data_Cs27Sn13Pb14I81
_symmetry_space_group_name_H-M   'P 1'
_cell_length_a   18.96897698
_cell_length_b   18.98287447
_cell_length_c   18.97873518
_cell_angle_alpha   89.99984497
_cell_angle_beta   89.99903240
_cell_angle_gamma   89.99828036
_symmetry_Int_Tables_number   1
_chemical_formula_structural   Cs27Sn13Pb14I81
_chemical_formula_sum   'Cs27 Sn13 Pb14 I81'
_cell_volume   6833.97130579
_cell_formula_units_Z   1
loop_
 _symmetry_equiv_pos_site_id
 _symmetry_equiv_pos_as_xyz
  1  'x, y, z'
loop_
 _atom_site_type_symbol
 _atom_site_label
 _atom_site_symmetry_multiplicity
 _atom_site_fract_x
 _atom_site_fract_y
 _atom_site_fract_z
 _atom_site_occupancy
  Cs  Cs0  1  0.00147650  -0.00130694  0.00090581  1
  Cs  Cs1  1  0.00017539  -0.00004569  0.33202503  1
  Cs  Cs2  1  -0.00237778  -0.00079318  0.66640036  1
  Cs  Cs3  1  -0.00246065  0.33145922  0.00168320  1
  Cs  Cs4  1  0.00201137  0.33518399  0.33190233  1
  Cs  Cs5  1  -0.00242445  0.33292228  0.66630899  1
  Cs  Cs6  1  -0.00287078  0.67189465  -0.00230740  1
  Cs  Cs7  1  0.00140134  0.66439671  0.33323893  1
  Cs  Cs8  1  -0.00034293  0.66783570  0.66978425  1
  Cs  Cs9  1  0.33085709  0.00210597  -0.00180258  1
  Cs  Cs10  1  0.33568501  0.00080524  0.33464895  1
  Cs  Cs11  1  0.33228244  -0.00070941  0.66808628  1
  Cs  Cs12  1  0.33432961  0.33287274  -0.00043763  1
  Cs  Cs13  1  0.33251366  0.33500637  0.33007223  1
  Cs  Cs14  1  0.33322134  0.33456491  0.66788571  1
  Cs  Cs15  1  0.33480885  0.66502319  -0.00228210  1
  Cs  Cs16  1  0.33218912  0.66294743  0.33176441  1
  Cs  Cs17  1  0.33352578  0.66566501  0.66846467  1
  Cs  Cs18  1  0.66787277  -0.00305818  0.00379766  1
  Cs  Cs19  1  0.66103926  -0.00727150  0.34030415  1
  Cs  Cs20  1  0.67089678  0.00191902  0.65610541  1
  Cs  Cs21  1  0.66748850  0.33408149  -0.00104213  1
  Cs  Cs22  1  0.66618755  0.33207146  0.33338062  1
  Cs  Cs23  1  0.66909042  0.33461378  0.66700428  1
  Cs  Cs24  1  0.66857528  0.66829994  0.00253494  1
  Cs  Cs25  1  0.66697687  0.67313293  0.33268077  1
  Cs  Cs26  1  0.66582964  0.66330105  0.66552314  1
  Sn  Sn27  1  0.83337220  0.49918587  0.16761922  1
  Sn  Sn28  1  0.83249864  0.49972472  0.49887782  1
  Sn  Sn29  1  0.49923313  0.49978135  0.83271508  1
  Sn  Sn30  1  0.16688648  0.83404988  0.49918412  1
  Sn  Sn31  1  0.50058686  0.49961743  0.50019297  1
  Sn  Sn32  1  0.16678253  0.16605662  0.50006581  1
  Sn  Sn33  1  0.50031221  0.83384215  0.83309980  1
  Sn  Sn34  1  0.83341110  0.16706617  0.16710652  1
  Sn  Sn35  1  0.16689443  0.49899614  0.83352127  1
  Sn  Sn36  1  0.16621529  0.16608236  0.16681333  1
  Sn  Sn37  1  0.16704051  0.83397915  0.16758408  1
  Sn  Sn38  1  0.16697524  0.16777095  0.83310518  1
  Sn  Sn39  1  0.49993301  0.16632567  0.83328081  1
  Pb  Pb40  1  0.82953689  0.83381046  0.83301290  1
  Pb  Pb41  1  0.83333181  0.16639986  0.83539867  1
  Pb  Pb42  1  0.83608678  0.83062457  0.49993311  1
  Pb  Pb43  1  0.49681907  0.83344375  0.16464695  1
  Pb  Pb44  1  0.16778122  0.83379694  0.83327963  1
  Pb  Pb45  1  0.83561575  0.16865302  0.49720242  1
  Pb  Pb46  1  0.16480012  0.49992684  0.16373199  1
  Pb  Pb47  1  0.83302241  0.49993217  0.83350549  1
  Pb  Pb48  1  0.49764849  0.16894180  0.50230883  1
  Pb  Pb49  1  0.49734198  0.83096486  0.50207520  1
  Pb  Pb50  1  0.83550264  0.83394164  0.16695108  1
  Pb  Pb51  1  0.49998035  0.16661596  0.16479057  1
  Pb  Pb52  1  0.16666376  0.49981134  0.50198761  1
  Pb  Pb53  1  0.50273063  0.49994425  0.16644975  1
  I  I54  1  0.16105522  0.00158806  0.16392076  1
  I  I55  1  0.16698560  0.00091035  0.50187514  1
  I  I56  1  0.17110666  0.00311176  0.83407191  1
  I  I57  1  0.16456640  0.33040080  0.16855457  1
  I  I58  1  0.16652942  0.33078491  0.49831694  1
  I  I59  1  0.17428893  0.33240034  0.83317367  1
  I  I60  1  0.16571905  0.66884666  0.16980503  1
  I  I61  1  0.16666534  0.66855465  0.49723208  1
  I  I62  1  0.17048498  0.66455694  0.83280032  1
  I  I63  1  0.50452862  0.00011988  0.16389052  1
  I  I64  1  0.50101501  0.00008619  0.50192081  1
  I  I65  1  0.49253671  0.00089168  0.83659091  1
  I  I66  1  0.49518725  0.33338795  0.16401273  1
  I  I67  1  0.50105416  0.33684625  0.50653598  1
  I  I68  1  0.49463665  0.33381397  0.83032969  1
  I  I69  1  0.49933923  0.66650395  0.16309596  1
  I  I70  1  0.50118171  0.66305863  0.50681283  1
  I  I71  1  0.49460332  0.66528156  0.82973294  1
  I  I72  1  0.83768291  0.00318116  0.16244768  1
  I  I73  1  0.83212597  0.00020570  0.49941911  1
  I  I74  1  0.83586179  0.00031721  0.83660146  1
  I  I75  1  0.84028359  0.33320649  0.16903191  1
  I  I76  1  0.83247419  0.33662541  0.49941078  1
  I  I77  1  0.83075841  0.33337221  0.83253175  1
  I  I78  1  0.83417612  0.66394124  0.16899381  1
  I  I79  1  0.83151077  0.66247849  0.49451408  1
  I  I80  1  0.83673030  0.66632126  0.83613472  1
  I  I81  1  0.16686196  0.16649791  -0.00013085  1
  I  I82  1  0.16156713  0.16268255  0.33291496  1
  I  I83  1  0.17201601  0.16700677  0.66730521  1
  I  I84  1  0.17189800  0.49678091  -0.00403964  1
  I  I85  1  0.16888212  0.49841697  0.33330809  1
  I  I86  1  0.16670768  0.49711289  0.66981132  1
  I  I87  1  0.16759699  0.83610619  0.00209496  1
  I  I88  1  0.16596237  0.84028045  0.33321178  1
  I  I89  1  0.16845395  0.83521496  0.66458921  1
  I  I90  1  0.49358455  0.17049554  -0.00393268  1
  I  I91  1  0.49830562  0.16939933  0.33365306  1
  I  I92  1  0.49353869  0.16557215  0.67068033  1
  I  I93  1  0.49643463  0.49973561  -0.00364128  1
  I  I94  1  0.50048033  0.49992789  0.33624126  1
  I  I95  1  0.50146038  0.50010523  0.66795540  1
  I  I96  1  0.49714358  0.82964876  -0.00373175  1
  I  I97  1  0.50090181  0.83134418  0.33372430  1
  I  I98  1  0.49503745  0.83429353  0.67001749  1
  I  I99  1  0.83980459  0.17436179  0.00336948  1
  I  I100  1  0.84065273  0.17045193  0.32939399  1
  I  I101  1  0.83450341  0.16834880  0.66629313  1
  I  I102  1  0.83458508  0.49623655  0.00257699  1
  I  I103  1  0.83011993  0.49568529  0.33344750  1
  I  I104  1  0.83257323  0.50080477  0.66430306  1
  I  I105  1  0.83612390  0.82978950  0.00026334  1
  I  I106  1  0.83116386  0.83369888  0.33335468  1
  I  I107  1  0.83831833  0.83111359  0.66634309  1
  I  I108  1  0.00181129  0.16761510  0.16406302  1
  I  I109  1  0.00413557  0.16577255  0.50583154  1
  I  I110  1  0.00378146  0.17220785  0.83199996  1
  I  I111  1  -0.00285267  0.49826854  0.17160791  1
  I  I112  1  -0.00195972  0.49985449  0.49763006  1
  I  I113  1  0.00269658  0.49520621  0.83264351  1
  I  I114  1  0.00378761  0.83436315  0.16779491  1
  I  I115  1  0.00427036  0.83510910  0.49806232  1
  I  I116  1  0.00041791  0.83151099  0.83388753  1
  I  I117  1  0.32960279  0.16303239  0.16711060  1
  I  I118  1  0.32916314  0.16577673  0.49558138  1
  I  I119  1  0.33204778  0.16828683  0.83565043  1
  I  I120  1  0.33310825  0.49977828  0.16845867  1
  I  I121  1  0.33536198  0.50047860  0.50475931  1
  I  I122  1  0.33399588  0.49943358  0.82823531  1
  I  I123  1  0.32872897  0.83941312  0.17006295  1
  I  I124  1  0.32945288  0.83507904  0.49687324  1
  I  I125  1  0.33562818  0.83175845  0.83357483  1
  I  I126  1  0.66961988  0.17321674  0.16233765  1
  I  I127  1  0.66660628  0.16655588  0.50062748  1
  I  I128  1  0.66335692  0.16942365  0.83595111  1
  I  I129  1  0.67067597  0.49353705  0.16473348  1
  I  I130  1  0.66622262  0.49931416  0.50399968  1
  I  I131  1  0.66324820  0.49928906  0.83216670  1
  I  I132  1  0.66664727  0.83312795  0.16367382  1
  I  I133  1  0.66635043  0.83404054  0.50182722  1
  I  I134  1  0.66136610  0.83043924  0.83465037  1
