# generated using pymatgen
data_Cs27Sn13Pb14I81
_symmetry_space_group_name_H-M   'P 1'
_cell_length_a   18.98526775
_cell_length_b   18.97127197
_cell_length_c   18.97649333
_cell_angle_alpha   89.99798751
_cell_angle_beta   89.99999999
_cell_angle_gamma   89.99999996
_symmetry_Int_Tables_number   1
_chemical_formula_structural   Cs27Sn13Pb14I81
_chemical_formula_sum   'Cs27 Sn13 Pb14 I81'
_cell_volume   6834.85236772
_cell_formula_units_Z   1
loop_
 _symmetry_equiv_pos_site_id
 _symmetry_equiv_pos_as_xyz
  1  'x, y, z'
loop_
 _atom_site_type_symbol
 _atom_site_label
 _atom_site_symmetry_multiplicity
 _atom_site_fract_x
 _atom_site_fract_y
 _atom_site_fract_z
 _atom_site_occupancy
  Cs  Cs0  1  -0.00000002  0.00140911  -0.00011772  1
  Cs  Cs1  1  0.00000005  -0.00165289  0.33523609  1
  Cs  Cs2  1  0.00000009  -0.00014981  0.66482259  1
  Cs  Cs3  1  -0.00000005  0.33393937  -0.00190174  1
  Cs  Cs4  1  0.00000002  0.33277572  0.33252342  1
  Cs  Cs5  1  -0.00000006  0.33260707  0.67047129  1
  Cs  Cs6  1  -0.00000009  0.66551646  -0.00083988  1
  Cs  Cs7  1  -0.00000002  0.67028966  0.33392780  1
  Cs  Cs8  1  -0.00000001  0.66810415  0.66749899  1
  Cs  Cs9  1  0.34403605  -0.00271326  -0.00203637  1
  Cs  Cs10  1  0.33117374  0.00142426  0.33020763  1
  Cs  Cs11  1  0.33676677  -0.00068346  0.67052557  1
  Cs  Cs12  1  0.32868850  0.33407971  0.00159225  1
  Cs  Cs13  1  0.33294369  0.33409325  0.33431577  1
  Cs  Cs14  1  0.33147993  0.33150055  0.66317883  1
  Cs  Cs15  1  0.33531327  0.66743735  -0.00057517  1
  Cs  Cs16  1  0.32903408  0.66465519  0.33478483  1
  Cs  Cs17  1  0.33517852  0.66703793  0.66619704  1
  Cs  Cs18  1  0.65596405  -0.00271327  -0.00203637  1
  Cs  Cs19  1  0.66882632  0.00142411  0.33020754  1
  Cs  Cs20  1  0.66323313  -0.00068346  0.67052566  1
  Cs  Cs21  1  0.67131151  0.33407968  0.00159224  1
  Cs  Cs22  1  0.66705619  0.33409331  0.33431578  1
  Cs  Cs23  1  0.66852029  0.33150039  0.66317861  1
  Cs  Cs24  1  0.66468670  0.66743731  -0.00057525  1
  Cs  Cs25  1  0.67096587  0.66465513  0.33478484  1
  Cs  Cs26  1  0.66482140  0.66703804  0.66619696  1
  Sn  Sn27  1  0.83431680  0.16747381  0.49929091  1
  Sn  Sn28  1  0.83380372  0.49952961  0.16740274  1
  Sn  Sn29  1  0.16535688  0.49948909  0.49952937  1
  Sn  Sn30  1  0.49999999  0.83341833  0.49879938  1
  Sn  Sn31  1  0.50000001  0.49920464  0.83372429  1
  Sn  Sn32  1  0.16619625  0.49952960  0.16740271  1
  Sn  Sn33  1  0.16564801  0.83334310  0.83357385  1
  Sn  Sn34  1  0.83464313  0.49948914  0.49952932  1
  Sn  Sn35  1  0.50000000  0.49982927  0.16584815  1
  Sn  Sn36  1  0.16574012  0.16723653  0.16726273  1
  Sn  Sn37  1  0.83425987  0.16723653  0.16726273  1
  Sn  Sn38  1  0.83435195  0.83334313  0.83357384  1
  Sn  Sn39  1  0.16568320  0.16747382  0.49929093  1
  Pb  Pb40  1  0.16824599  0.50135483  0.83317025  1
  Pb  Pb41  1  0.83187249  0.83369328  0.50150394  1
  Pb  Pb42  1  0.50000000  0.83039106  0.16979577  1
  Pb  Pb43  1  0.49999999  0.83141721  0.83185392  1
  Pb  Pb44  1  0.50000004  0.17050862  0.83331775  1
  Pb  Pb45  1  0.16655205  0.83383024  0.16444967  1
  Pb  Pb46  1  0.49999998  0.16428887  0.49966211  1
  Pb  Pb47  1  0.83335606  0.16438145  0.83375126  1
  Pb  Pb48  1  0.50000003  0.16935540  0.16679864  1
  Pb  Pb49  1  0.83344793  0.83383022  0.16444967  1
  Pb  Pb50  1  0.49999999  0.50087565  0.49945675  1
  Pb  Pb51  1  0.16812751  0.83369328  0.50150398  1
  Pb  Pb52  1  0.16664393  0.16438146  0.83375130  1
  Pb  Pb53  1  0.83175398  0.50135480  0.83317018  1
  I  I54  1  0.16062926  0.00377833  0.17147720  1
  I  I55  1  0.16327054  0.00334408  0.49648338  1
  I  I56  1  0.16328007  -0.00342312  0.83168312  1
  I  I57  1  0.16715175  0.33443117  0.16969567  1
  I  I58  1  0.16486175  0.33400925  0.49718980  1
  I  I59  1  0.16947872  0.33337028  0.83285908  1
  I  I60  1  0.16647096  0.66300698  0.17019624  1
  I  I61  1  0.16459679  0.66351767  0.49656894  1
  I  I62  1  0.16423575  0.66914593  0.83254619  1
  I  I63  1  0.49999994  0.00016469  0.16615888  1
  I  I64  1  0.49999992  -0.00322010  0.50406054  1
  I  I65  1  0.50000023  -0.00030233  0.83191653  1
  I  I66  1  0.50000004  0.33761036  0.16450589  1
  I  I67  1  0.50000000  0.33337100  0.50116768  1
  I  I68  1  0.49999964  0.33828347  0.83592869  1
  I  I69  1  0.50000004  0.66200440  0.16235111  1
  I  I70  1  0.50000003  0.66838451  0.50120189  1
  I  I71  1  0.50000008  0.66388289  0.83696991  1
  I  I72  1  0.83937075  0.00377831  0.17147731  1
  I  I73  1  0.83672946  0.00334410  0.49648334  1
  I  I74  1  0.83671968  -0.00342312  0.83168311  1
  I  I75  1  0.83284827  0.33443116  0.16969561  1
  I  I76  1  0.83513823  0.33400925  0.49718996  1
  I  I77  1  0.83052149  0.33337026  0.83285911  1
  I  I78  1  0.83352909  0.66300698  0.17019614  1
  I  I79  1  0.83540316  0.66351766  0.49656893  1
  I  I80  1  0.83576429  0.66914595  0.83254653  1
  I  I81  1  0.16166990  0.17192816  0.00376781  1
  I  I82  1  0.16349086  0.17031199  0.33345296  1
  I  I83  1  0.16275369  0.17066203  0.66323647  1
  I  I84  1  0.16482403  0.49699206  0.00333553  1
  I  I85  1  0.16948278  0.49771861  0.33310460  1
  I  I86  1  0.16457342  0.49739491  0.66337291  1
  I  I87  1  0.16369745  0.83158879  -0.00331869  1
  I  I88  1  0.16919516  0.83224085  0.33337372  1
  I  I89  1  0.16443360  0.83192566  0.66920334  1
  I  I90  1  0.49999987  0.16203091  0.00032380  1
  I  I91  1  0.50000010  0.16727628  0.33326481  1
  I  I92  1  0.50000005  0.16800373  0.66625165  1
  I  I93  1  0.50000001  0.50176520  0.00129709  1
  I  I94  1  0.50000017  0.50195538  0.33046959  1
  I  I95  1  0.49999992  0.50434738  0.66803622  1
  I  I96  1  0.50000008  0.83407926  0.00008726  1
  I  I97  1  0.49999996  0.83150464  0.33698271  1
  I  I98  1  0.50000006  0.82931222  0.66452267  1
  I  I99  1  0.83833019  0.17192802  0.00376779  1
  I  I100  1  0.83650904  0.17031206  0.33345297  1
  I  I101  1  0.83724631  0.17066204  0.66323644  1
  I  I102  1  0.83517607  0.49699207  0.00333556  1
  I  I103  1  0.83051716  0.49771861  0.33310456  1
  I  I104  1  0.83542670  0.49739500  0.66337293  1
  I  I105  1  0.83630251  0.83158902  -0.00331868  1
  I  I106  1  0.83080485  0.83224079  0.33337374  1
  I  I107  1  0.83556636  0.83192547  0.66920336  1
  I  I108  1  0.00000001  0.17493890  0.17032091  1
  I  I109  1  -0.00000001  0.16959726  0.49618375  1
  I  I110  1  0.00000001  0.16820558  0.83330887  1
  I  I111  1  0.00000001  0.49660993  0.17059578  1
  I  I112  1  -0.00000002  0.49827821  0.49357619  1
  I  I113  1  -0.00000000  0.50143391  0.83517469  1
  I  I114  1  0.00000001  0.82785014  0.16759344  1
  I  I115  1  0.00000000  0.83243256  0.50147586  1
  I  I116  1  -0.00000001  0.83110891  0.83172623  1
  I  I117  1  0.32990717  0.17053963  0.17116866  1
  I  I118  1  0.32971665  0.17089122  0.49639477  1
  I  I119  1  0.33306823  0.16185868  0.83260565  1
  I  I120  1  0.33218984  0.49718373  0.16687972  1
  I  I121  1  0.33048946  0.49799577  0.49757285  1
  I  I122  1  0.33598306  0.50456491  0.83688877  1
  I  I123  1  0.33325190  0.83355633  0.16327485  1
  I  I124  1  0.33554343  0.83056187  0.50407408  1
  I  I125  1  0.33149010  0.83222212  0.83162210  1
  I  I126  1  0.67009282  0.17053957  0.17116844  1
  I  I127  1  0.67028334  0.17089132  0.49639494  1
  I  I128  1  0.66693174  0.16185921  0.83260581  1
  I  I129  1  0.66781019  0.49718371  0.16687956  1
  I  I130  1  0.66951054  0.49799574  0.49757292  1
  I  I131  1  0.66401689  0.50456466  0.83688881  1
  I  I132  1  0.66674812  0.83355649  0.16327503  1
  I  I133  1  0.66445657  0.83056199  0.50407402  1
  I  I134  1  0.66850991  0.83222193  0.83162204  1
