# generated using pymatgen
data_Cs27Sn14Pb13I81
_symmetry_space_group_name_H-M   'P 1'
_cell_length_a   18.97731692
_cell_length_b   18.97557390
_cell_length_c   18.97187684
_cell_angle_alpha   90.00033368
_cell_angle_beta   90.00075186
_cell_angle_gamma   89.99768666
_symmetry_Int_Tables_number   1
_chemical_formula_structural   Cs27Sn14Pb13I81
_chemical_formula_sum   'Cs27 Sn14 Pb13 I81'
_cell_volume   6831.87680650
_cell_formula_units_Z   1
loop_
 _symmetry_equiv_pos_site_id
 _symmetry_equiv_pos_as_xyz
  1  'x, y, z'
loop_
 _atom_site_type_symbol
 _atom_site_label
 _atom_site_symmetry_multiplicity
 _atom_site_fract_x
 _atom_site_fract_y
 _atom_site_fract_z
 _atom_site_occupancy
  Cs  Cs0  1  -0.00191848  -0.00019080  0.00098915  1
  Cs  Cs1  1  0.00350049  0.00647345  0.32991864  1
  Cs  Cs2  1  0.00370931  -0.00319945  0.66833131  1
  Cs  Cs3  1  0.00455871  0.33233520  -0.00188820  1
  Cs  Cs4  1  -0.00279870  0.32235239  0.33445125  1
  Cs  Cs5  1  -0.00432158  0.33608255  0.66931447  1
  Cs  Cs6  1  -0.00032145  0.66743334  -0.00168392  1
  Cs  Cs7  1  -0.00324322  0.67059105  0.33910482  1
  Cs  Cs8  1  0.00033429  0.66650767  0.66663453  1
  Cs  Cs9  1  0.33659312  -0.00177597  -0.00196275  1
  Cs  Cs10  1  0.33077292  -0.00012952  0.33607558  1
  Cs  Cs11  1  0.33548844  0.00191535  0.66546133  1
  Cs  Cs12  1  0.32893514  0.33859377  0.00516876  1
  Cs  Cs13  1  0.33212065  0.33207153  0.32769752  1
  Cs  Cs14  1  0.33575685  0.33359060  0.66639248  1
  Cs  Cs15  1  0.33283650  0.66442518  0.00173451  1
  Cs  Cs16  1  0.33541362  0.66720292  0.33394079  1
  Cs  Cs17  1  0.33237164  0.66738128  0.66480643  1
  Cs  Cs18  1  0.66637584  -0.00086627  -0.00052078  1
  Cs  Cs19  1  0.66765421  0.00040296  0.32903644  1
  Cs  Cs20  1  0.66137824  0.00083268  0.66994113  1
  Cs  Cs21  1  0.66570149  0.33712816  -0.00108601  1
  Cs  Cs22  1  0.66821676  0.33352325  0.33813526  1
  Cs  Cs23  1  0.66739871  0.33271371  0.66411455  1
  Cs  Cs24  1  0.66708088  0.66726661  0.00083529  1
  Cs  Cs25  1  0.66511302  0.66644054  0.33357545  1
  Cs  Cs26  1  0.66700750  0.66647675  0.66629752  1
  Sn  Sn27  1  0.16643814  0.16572997  0.83316862  1
  Sn  Sn28  1  0.49881797  0.50079809  0.50080919  1
  Sn  Sn29  1  0.83239621  0.50018307  0.83443046  1
  Sn  Sn30  1  0.83233583  0.83370915  0.50079225  1
  Sn  Sn31  1  0.16727997  0.49970568  0.49960294  1
  Sn  Sn32  1  0.50047301  0.50040192  0.83261388  1
  Sn  Sn33  1  0.50106489  0.83281312  0.49926731  1
  Sn  Sn34  1  0.16619269  0.83402584  0.83417284  1
  Sn  Sn35  1  0.83393983  0.50013816  0.16629906  1
  Sn  Sn36  1  0.50019647  0.16582680  0.16649063  1
  Sn  Sn37  1  0.16720635  0.83273341  0.16599248  1
  Sn  Sn38  1  0.83371613  0.16634581  0.83338258  1
  Sn  Sn39  1  0.49919892  0.83405109  0.16746528  1
  Sn  Sn40  1  0.83386672  0.83355115  0.83246824  1
  Pb  Pb41  1  0.83319446  0.16266085  0.50294042  1
  Pb  Pb42  1  0.83302437  0.50136282  0.50030582  1
  Pb  Pb43  1  0.16644063  0.50041153  0.83206355  1
  Pb  Pb44  1  0.16689221  0.83242991  0.50022536  1
  Pb  Pb45  1  0.83133392  0.16929316  0.16396152  1
  Pb  Pb46  1  0.16673263  0.16979630  0.50297392  1
  Pb  Pb47  1  0.83329685  0.83220683  0.16655377  1
  Pb  Pb48  1  0.16340056  0.50247504  0.16976354  1
  Pb  Pb49  1  0.49998708  0.16661127  0.49761697  1
  Pb  Pb50  1  0.49963865  0.16966808  0.83533608  1
  Pb  Pb51  1  0.50139870  0.50056619  0.16726969  1
  Pb  Pb52  1  0.16863347  0.16408774  0.16412029  1
  Pb  Pb53  1  0.49977800  0.83148746  0.83333299  1
  I  I54  1  0.16624616  -0.00403693  0.16691910  1
  I  I55  1  0.16646258  -0.00008762  0.49854276  1
  I  I56  1  0.15830664  -0.00133149  0.83676548  1
  I  I57  1  0.16853441  0.33338599  0.16575686  1
  I  I58  1  0.17295495  0.33776436  0.50150076  1
  I  I59  1  0.16363588  0.33154091  0.83051180  1
  I  I60  1  0.17403074  0.67021524  0.15865945  1
  I  I61  1  0.16787974  0.66466520  0.50336843  1
  I  I62  1  0.16326890  0.66944339  0.83517469  1
  I  I63  1  0.49744110  -0.00203128  0.17098041  1
  I  I64  1  0.50389404  -0.00353242  0.49878159  1
  I  I65  1  0.50209051  -0.00014234  0.83169203  1
  I  I66  1  0.50274532  0.33198311  0.16451302  1
  I  I67  1  0.49693979  0.33668219  0.50312701  1
  I  I68  1  0.50441535  0.33746164  0.82920105  1
  I  I69  1  0.49796076  0.66941725  0.16780935  1
  I  I70  1  0.50041891  0.66697999  0.49796072  1
  I  I71  1  0.50410998  0.66366637  0.83409323  1
  I  I72  1  0.83417654  0.00000879  0.16672482  1
  I  I73  1  0.82759665  -0.00538363  0.50367480  1
  I  I74  1  0.83816268  -0.00103021  0.82845088  1
  I  I75  1  0.83052951  0.33716118  0.16252037  1
  I  I76  1  0.83304312  0.33327357  0.49983981  1
  I  I77  1  0.83357266  0.33412279  0.83858223  1
  I  I78  1  0.83059841  0.66450126  0.16039020  1
  I  I79  1  0.83249879  0.66932833  0.50554022  1
  I  I80  1  0.83367505  0.66695197  0.83316221  1
  I  I81  1  0.16234141  0.16728195  -0.00372093  1
  I  I82  1  0.16751795  0.16613027  0.33302838  1
  I  I83  1  0.16401123  0.15845883  0.67096523  1
  I  I84  1  0.16934176  0.49865804  0.00004872  1
  I  I85  1  0.17351827  0.50429504  0.33699000  1
  I  I86  1  0.16657338  0.50325345  0.66441436  1
  I  I87  1  0.16635113  0.83563287  -0.00107547  1
  I  I88  1  0.16767078  0.82924837  0.33125681  1
  I  I89  1  0.16493040  0.83488953  0.66954009  1
  I  I90  1  0.50102212  0.16020465  0.00272521  1
  I  I91  1  0.50007966  0.16748615  0.32978822  1
  I  I92  1  0.50012683  0.16502769  0.66702498  1
  I  I93  1  0.50336590  0.50017808  -0.00209816  1
  I  I94  1  0.49863952  0.50196180  0.33608571  1
  I  I95  1  0.50214832  0.50535633  0.66634854  1
  I  I96  1  0.49966443  0.83476931  0.00223411  1
  I  I97  1  0.50042920  0.83019823  0.33365483  1
  I  I98  1  0.50110556  0.82954699  0.66439888  1
  I  I99  1  0.83629791  0.16101028  -0.00415169  1
  I  I100  1  0.83223597  0.16849804  0.33314549  1
  I  I101  1  0.83546490  0.17419435  0.67124133  1
  I  I102  1  0.82669123  0.50330806  -0.00243674  1
  I  I103  1  0.83203649  0.50466110  0.33168827  1
  I  I104  1  0.83252320  0.49890543  0.66977957  1
  I  I105  1  0.83392305  0.83388605  -0.00315891  1
  I  I106  1  0.83184521  0.82733909  0.33546262  1
  I  I107  1  0.83397499  0.82986803  0.66824112  1
  I  I108  1  0.00000256  0.16641801  0.16816110  1
  I  I109  1  -0.00013992  0.16781522  0.49603032  1
  I  I110  1  -0.00076134  0.16855740  0.83382857  1
  I  I111  1  -0.00386197  0.50284359  0.15901615  1
  I  I112  1  0.00146256  0.50398571  0.50146184  1
  I  I113  1  -0.00291134  0.50040825  0.83461546  1
  I  I114  1  0.00205643  0.82953545  0.16537239  1
  I  I115  1  -0.00212322  0.82904420  0.50218395  1
  I  I116  1  -0.00084229  0.83121182  0.83293212  1
  I  I117  1  0.33642151  0.16738894  0.16397800  1
  I  I118  1  0.33344145  0.16211332  0.50379938  1
  I  I119  1  0.33083824  0.16203937  0.83432545  1
  I  I120  1  0.33323779  0.49842181  0.16388407  1
  I  I121  1  0.33514770  0.50720942  0.50656157  1
  I  I122  1  0.33557778  0.50038153  0.83087631  1
  I  I123  1  0.33412531  0.83577088  0.16624050  1
  I  I124  1  0.33609702  0.82993909  0.49898363  1
  I  I125  1  0.33085691  0.83600955  0.83394956  1
  I  I126  1  0.66375421  0.15901299  0.16433163  1
  I  I127  1  0.66663400  0.17213845  0.50233816  1
  I  I128  1  0.66937600  0.16406373  0.83494601  1
  I  I129  1  0.66909935  0.50294494  0.16534703  1
  I  I130  1  0.66405593  0.50297476  0.50100998  1
  I  I131  1  0.66769089  0.50070047  0.83176034  1
  I  I132  1  0.66408853  0.83462019  0.16747976  1
  I  I133  1  0.66579319  0.82606573  0.50007256  1
  I  I134  1  0.66927319  0.83451011  0.83261504  1
