# generated using pymatgen
data_Cs27Sn13Pb14I81
_symmetry_space_group_name_H-M   'P 1'
_cell_length_a   18.98456245
_cell_length_b   18.99951838
_cell_length_c   18.99067967
_cell_angle_alpha   89.99924629
_cell_angle_beta   89.99819426
_cell_angle_gamma   89.99958966
_symmetry_Int_Tables_number   1
_chemical_formula_structural   Cs27Sn13Pb14I81
_chemical_formula_sum   'Cs27 Sn13 Pb14 I81'
_cell_volume   6849.89149432
_cell_formula_units_Z   1
loop_
 _symmetry_equiv_pos_site_id
 _symmetry_equiv_pos_as_xyz
  1  'x, y, z'
loop_
 _atom_site_type_symbol
 _atom_site_label
 _atom_site_symmetry_multiplicity
 _atom_site_fract_x
 _atom_site_fract_y
 _atom_site_fract_z
 _atom_site_occupancy
  Cs  Cs0  1  -0.00219252  -0.00235160  -0.00297141  1
  Cs  Cs1  1  0.00406224  -0.00145591  0.33261012  1
  Cs  Cs2  1  -0.00015519  -0.00010694  0.66824394  1
  Cs  Cs3  1  -0.00306731  0.33358561  -0.00189745  1
  Cs  Cs4  1  0.00593452  0.33241631  0.34435154  1
  Cs  Cs5  1  0.00006571  0.33218378  0.66005695  1
  Cs  Cs6  1  -0.00045730  0.66884177  0.00150925  1
  Cs  Cs7  1  0.00310725  0.66851769  0.33112996  1
  Cs  Cs8  1  -0.00004329  0.66779178  0.66679518  1
  Cs  Cs9  1  0.33405398  0.00743471  0.00122661  1
  Cs  Cs10  1  0.33276481  0.00441388  0.33146437  1
  Cs  Cs11  1  0.33434272  -0.00548663  0.66704658  1
  Cs  Cs12  1  0.33385241  0.33335306  0.00009046  1
  Cs  Cs13  1  0.32924202  0.32988724  0.33225697  1
  Cs  Cs14  1  0.33256641  0.33784692  0.66913545  1
  Cs  Cs15  1  0.33220995  0.66020380  -0.00034886  1
  Cs  Cs16  1  0.33711785  0.66624505  0.33171971  1
  Cs  Cs17  1  0.33483135  0.66933227  0.66997237  1
  Cs  Cs18  1  0.66860560  0.00470896  -0.00035484  1
  Cs  Cs19  1  0.66547582  -0.00123360  0.33338595  1
  Cs  Cs20  1  0.66497425  -0.00327441  0.66628526  1
  Cs  Cs21  1  0.66659716  0.33261371  0.00105191  1
  Cs  Cs22  1  0.66656039  0.33563914  0.33456881  1
  Cs  Cs23  1  0.66844919  0.33345331  0.66422820  1
  Cs  Cs24  1  0.66860891  0.66463439  0.00339809  1
  Cs  Cs25  1  0.66483782  0.66538982  0.33132874  1
  Cs  Cs26  1  0.66468422  0.66960420  0.66561875  1
  Sn  Sn27  1  0.83336974  0.49847603  0.16660296  1
  Sn  Sn28  1  0.50020882  0.16773432  0.50039795  1
  Sn  Sn29  1  0.83397097  0.16686776  0.83363665  1
  Sn  Sn30  1  0.83315573  0.49994502  0.83356305  1
  Sn  Sn31  1  0.50016310  0.49893366  0.49941587  1
  Sn  Sn32  1  0.50007743  0.83304058  0.16591018  1
  Sn  Sn33  1  0.83360499  0.83321383  0.83253163  1
  Sn  Sn34  1  0.16595546  0.83315475  0.50043682  1
  Sn  Sn35  1  0.50076041  0.50041502  0.16753063  1
  Sn  Sn36  1  0.83397414  0.83328843  0.50020345  1
  Sn  Sn37  1  0.83359856  0.16803567  0.16702271  1
  Sn  Sn38  1  0.16582796  0.16602952  0.83317262  1
  Sn  Sn39  1  0.16595439  0.83419919  0.83294836  1
  Pb  Pb40  1  0.16916614  0.16427120  0.50288104  1
  Pb  Pb41  1  0.49970036  0.83294909  0.49832379  1
  Pb  Pb42  1  0.50207217  0.16766104  0.16837935  1
  Pb  Pb43  1  0.16957915  0.83335425  0.16563987  1
  Pb  Pb44  1  0.83198150  0.50247304  0.49953142  1
  Pb  Pb45  1  0.83215078  0.16431319  0.50013431  1
  Pb  Pb46  1  0.16985379  0.50300506  0.50013900  1
  Pb  Pb47  1  0.50267926  0.49997505  0.83376347  1
  Pb  Pb48  1  0.49988077  0.83335362  0.83652877  1
  Pb  Pb49  1  0.16595207  0.49966524  0.16670521  1
  Pb  Pb50  1  0.16305475  0.16678498  0.16401108  1
  Pb  Pb51  1  0.16346083  0.50014970  0.83334950  1
  Pb  Pb52  1  0.50030305  0.16670154  0.83098651  1
  Pb  Pb53  1  0.83213101  0.83326905  0.16635622  1
  I  I54  1  0.16870624  -0.00005546  0.16965728  1
  I  I55  1  0.16527814  -0.00343357  0.50167240  1
  I  I56  1  0.15751774  -0.00084738  0.82963324  1
  I  I57  1  0.17304378  0.33307332  0.16422920  1
  I  I58  1  0.16613412  0.33316903  0.50101120  1
  I  I59  1  0.16344195  0.33034166  0.83484954  1
  I  I60  1  0.16270618  0.66683928  0.16442381  1
  I  I61  1  0.16392202  0.67087359  0.50750057  1
  I  I62  1  0.16347781  0.67007437  0.82938540  1
  I  I63  1  0.50175669  -0.00150156  0.16892604  1
  I  I64  1  0.50084115  0.00129179  0.49862077  1
  I  I65  1  0.50516905  -0.00008716  0.83297388  1
  I  I66  1  0.50363937  0.33652681  0.16890879  1
  I  I67  1  0.50295320  0.33409329  0.49454044  1
  I  I68  1  0.49867542  0.33333847  0.83648687  1
  I  I69  1  0.50653704  0.66535572  0.17316189  1
  I  I70  1  0.50075488  0.66453213  0.49664322  1
  I  I71  1  0.49978941  0.66672517  0.82819553  1
  I  I72  1  0.83047366  0.00192890  0.16302027  1
  I  I73  1  0.83263538  -0.00346230  0.50358006  1
  I  I74  1  0.83706810  -0.00011240  0.83421178  1
  I  I75  1  0.82553000  0.33399862  0.15603554  1
  I  I76  1  0.83223259  0.33341216  0.50264560  1
  I  I77  1  0.83551116  0.33290424  0.83918200  1
  I  I78  1  0.82952628  0.66418823  0.16327150  1
  I  I79  1  0.83361204  0.67024408  0.50444773  1
  I  I80  1  0.83604485  0.66729795  0.83391262  1
  I  I81  1  0.16716669  0.15835328  -0.00404471  1
  I  I82  1  0.16666841  0.16497804  0.33367380  1
  I  I83  1  0.15810339  0.16505869  0.67041224  1
  I  I84  1  0.17285831  0.50301897  -0.00025490  1
  I  I85  1  0.16103005  0.50249365  0.33357568  1
  I  I86  1  0.16768882  0.49813468  0.66681260  1
  I  I87  1  0.16101402  0.83672486  -0.00376806  1
  I  I88  1  0.16219944  0.83207770  0.33594790  1
  I  I89  1  0.16324973  0.83725265  0.66749781  1
  I  I90  1  0.49808963  0.16618330  -0.00001863  1
  I  I91  1  0.50267984  0.16582721  0.33609457  1
  I  I92  1  0.50298025  0.17122177  0.66327676  1
  I  I93  1  0.50218240  0.50539781  0.00332540  1
  I  I94  1  0.50753145  0.50172331  0.33242104  1
  I  I95  1  0.50111101  0.49657429  0.66394721  1
  I  I96  1  0.50186398  0.82648718  0.00397738  1
  I  I97  1  0.50220074  0.83164730  0.33087467  1
  I  I98  1  0.50058338  0.83284594  0.66681122  1
  I  I99  1  0.83507080  0.16430488  -0.00115988  1
  I  I100  1  0.82826700  0.16954075  0.33098664  1
  I  I101  1  0.83583410  0.16905651  0.66999986  1
  I  I102  1  0.82747925  0.50151898  -0.00005671  1
  I  I103  1  0.82920036  0.49741797  0.33035228  1
  I  I104  1  0.83201970  0.49792181  0.66938361  1
  I  I105  1  0.83639497  0.83331253  -0.00311702  1
  I  I106  1  0.83503701  0.83354796  0.33556690  1
  I  I107  1  0.83536961  0.83344736  0.66788127  1
  I  I108  1  -0.00509358  0.17106754  0.16619759  1
  I  I109  1  0.00006858  0.16729679  0.49730086  1
  I  I110  1  -0.00165846  0.16476243  0.83785727  1
  I  I111  1  -0.00422289  0.49787914  0.16026815  1
  I  I112  1  -0.00011037  0.49917941  0.49947466  1
  I  I113  1  -0.00472744  0.50131881  0.84027693  1
  I  I114  1  0.00000470  0.83285478  0.16805217  1
  I  I115  1  -0.00063404  0.83381363  0.50366843  1
  I  I116  1  -0.00137023  0.83395818  0.82969402  1
  I  I117  1  0.33335886  0.16596693  0.16588933  1
  I  I118  1  0.33684530  0.16817148  0.49944117  1
  I  I119  1  0.33038063  0.15946355  0.83067345  1
  I  I120  1  0.33686588  0.50585715  0.17085070  1
  I  I121  1  0.33793714  0.49764394  0.49305745  1
  I  I122  1  0.33324359  0.50047457  0.83361301  1
  I  I123  1  0.33734643  0.82654812  0.16874869  1
  I  I124  1  0.33095259  0.83320633  0.50487664  1
  I  I125  1  0.33006122  0.83858743  0.82816457  1
  I  I126  1  0.66985011  0.16660167  0.15892615  1
  I  I127  1  0.66437393  0.16684922  0.50166738  1
  I  I128  1  0.67047306  0.16525714  0.83667791  1
  I  I129  1  0.66704837  0.50123262  0.16603360  1
  I  I130  1  0.66404462  0.49983326  0.49875737  1
  I  I131  1  0.67097070  0.50033868  0.83473019  1
  I  I132  1  0.66445827  0.83144337  0.16851636  1
  I  I133  1  0.66887380  0.83370511  0.50427066  1
  I  I134  1  0.67019032  0.83446224  0.82878416  1
