# generated using pymatgen
data_Cs27Sn14Pb13I81
_symmetry_space_group_name_H-M   'P 1'
_cell_length_a   18.98510070
_cell_length_b   18.96111765
_cell_length_c   18.98510748
_cell_angle_alpha   90.00057557
_cell_angle_beta   90.00046926
_cell_angle_gamma   90.00127848
_symmetry_Int_Tables_number   1
_chemical_formula_structural   Cs27Sn14Pb13I81
_chemical_formula_sum   'Cs27 Sn14 Pb13 I81'
_cell_volume   6834.23483648
_cell_formula_units_Z   1
loop_
 _symmetry_equiv_pos_site_id
 _symmetry_equiv_pos_as_xyz
  1  'x, y, z'
loop_
 _atom_site_type_symbol
 _atom_site_label
 _atom_site_symmetry_multiplicity
 _atom_site_fract_x
 _atom_site_fract_y
 _atom_site_fract_z
 _atom_site_occupancy
  Cs  Cs0  1  0.00268361  0.00364680  -0.00290584  1
  Cs  Cs1  1  0.00235676  -0.00024053  0.33291773  1
  Cs  Cs2  1  -0.00012766  0.00178553  0.66971075  1
  Cs  Cs3  1  -0.00085162  0.33167914  0.00113951  1
  Cs  Cs4  1  -0.00285709  0.33170933  0.33466135  1
  Cs  Cs5  1  -0.00523659  0.32761625  0.66431980  1
  Cs  Cs6  1  0.00043458  0.66662452  -0.00016189  1
  Cs  Cs7  1  -0.00038141  0.66617075  0.33357534  1
  Cs  Cs8  1  0.00119929  0.66823441  0.66666313  1
  Cs  Cs9  1  0.33119810  0.00917884  0.00240205  1
  Cs  Cs10  1  0.33425971  0.00608753  0.33100154  1
  Cs  Cs11  1  0.33152838  0.00188398  0.66735703  1
  Cs  Cs12  1  0.33391669  0.33467715  0.00241982  1
  Cs  Cs13  1  0.33168220  0.33102110  0.33230122  1
  Cs  Cs14  1  0.33656840  0.33530483  0.66463358  1
  Cs  Cs15  1  0.33287105  0.66494523  -0.00183786  1
  Cs  Cs16  1  0.33244793  0.66651450  0.33549707  1
  Cs  Cs17  1  0.33382773  0.66666953  0.66611149  1
  Cs  Cs18  1  0.66520943  0.00090466  0.00411391  1
  Cs  Cs19  1  0.66208924  -0.00316032  0.32823244  1
  Cs  Cs20  1  0.66794512  0.00150588  0.66643380  1
  Cs  Cs21  1  0.66732199  0.33354665  -0.00349079  1
  Cs  Cs22  1  0.67235596  0.33370120  0.33773563  1
  Cs  Cs23  1  0.66900759  0.32711121  0.66686137  1
  Cs  Cs24  1  0.66679571  0.66729266  0.00020645  1
  Cs  Cs25  1  0.66865576  0.66835690  0.33243053  1
  Cs  Cs26  1  0.66451676  0.66728015  0.66746218  1
  Sn  Sn27  1  0.16708065  0.50069483  0.50003961  1
  Sn  Sn28  1  0.16707585  0.83256331  0.49913289  1
  Sn  Sn29  1  0.50039104  0.83282775  0.83290242  1
  Sn  Sn30  1  0.83326473  0.50108314  0.83298671  1
  Sn  Sn31  1  0.49959500  0.50088030  0.49987672  1
  Sn  Sn32  1  0.16653181  0.50045864  0.83282667  1
  Sn  Sn33  1  0.83242925  0.83220273  0.83268936  1
  Sn  Sn34  1  0.16726215  0.50109582  0.16706758  1
  Sn  Sn35  1  0.83325851  0.83275724  0.50063429  1
  Sn  Sn36  1  0.83315568  0.16650266  0.16676722  1
  Sn  Sn37  1  0.50015053  0.50088412  0.83303897  1
  Sn  Sn38  1  0.49967312  0.83246473  0.50080329  1
  Sn  Sn39  1  0.49970496  0.50060744  0.16714936  1
  Sn  Sn40  1  0.16705317  0.83235785  0.16716524  1
  Pb  Pb41  1  0.16688645  0.17083446  0.83306479  1
  Pb  Pb42  1  0.16513087  0.16739458  0.16684781  1
  Pb  Pb43  1  0.83316981  0.16258758  0.49771242  1
  Pb  Pb44  1  0.83312022  0.16575349  0.83486537  1
  Pb  Pb45  1  0.83357080  0.49899208  0.16442816  1
  Pb  Pb46  1  0.49739536  0.83134806  0.16626769  1
  Pb  Pb47  1  0.49995771  0.16614631  0.83322837  1
  Pb  Pb48  1  0.16677547  0.16681591  0.50010923  1
  Pb  Pb49  1  0.83322047  0.50195490  0.50246085  1
  Pb  Pb50  1  0.50234538  0.17046403  0.16681525  1
  Pb  Pb51  1  0.83576639  0.83467808  0.16596736  1
  Pb  Pb52  1  0.16731943  0.83197427  0.83314047  1
  Pb  Pb53  1  0.49997070  0.16644136  0.50005405  1
  I  I54  1  0.16492806  -0.00286849  0.17140241  1
  I  I55  1  0.16730345  -0.00413483  0.49463415  1
  I  I56  1  0.16570245  -0.00033434  0.83444107  1
  I  I57  1  0.16997193  0.33744361  0.16596753  1
  I  I58  1  0.17174865  0.33768855  0.49948596  1
  I  I59  1  0.16692552  0.33978219  0.83481959  1
  I  I60  1  0.16823066  0.66519987  0.16772685  1
  I  I61  1  0.16753808  0.66631091  0.49889514  1
  I  I62  1  0.16646830  0.66327806  0.83423183  1
  I  I63  1  0.49870281  -0.00021607  0.16646744  1
  I  I64  1  0.49959717  -0.00433536  0.50483083  1
  I  I65  1  0.50566761  -0.00414332  0.82805468  1
  I  I66  1  0.49210937  0.33883807  0.16532426  1
  I  I67  1  0.49479788  0.33756772  0.50065403  1
  I  I68  1  0.50003597  0.33774004  0.83317235  1
  I  I69  1  0.49994876  0.66299632  0.16556408  1
  I  I70  1  0.49857133  0.66635998  0.50149144  1
  I  I71  1  0.50122945  0.66542929  0.83221894  1
  I  I72  1  0.83581071  0.00222523  0.16564872  1
  I  I73  1  0.83433152  -0.00556547  0.50773761  1
  I  I74  1  0.82915953  -0.00400490  0.83006615  1
  I  I75  1  0.83472182  0.33133501  0.16393452  1
  I  I76  1  0.83367477  0.33349829  0.50107734  1
  I  I77  1  0.83339863  0.33642298  0.83547727  1
  I  I78  1  0.83263928  0.66675221  0.16751209  1
  I  I79  1  0.83409818  0.67011617  0.49958400  1
  I  I80  1  0.83233517  0.66668509  0.83142592  1
  I  I81  1  0.16509425  0.16398897  0.00018702  1
  I  I82  1  0.16469434  0.17037075  0.33334588  1
  I  I83  1  0.16443975  0.16449904  0.66653076  1
  I  I84  1  0.16913573  0.50379372  0.00014161  1
  I  I85  1  0.17373786  0.50379797  0.33363110  1
  I  I86  1  0.16994565  0.50485101  0.66621073  1
  I  I87  1  0.16509321  0.82830384  0.00197082  1
  I  I88  1  0.16502937  0.82541499  0.33448205  1
  I  I89  1  0.16616903  0.82885519  0.66372690  1
  I  I90  1  0.50037842  0.16574365  0.00013244  1
  I  I91  1  0.50119363  0.16542245  0.33327134  1
  I  I92  1  0.50138801  0.17216376  0.66665834  1
  I  I93  1  0.49732614  0.50294138  -0.00092824  1
  I  I94  1  0.49297695  0.50355956  0.33417921  1
  I  I95  1  0.49598102  0.50388432  0.66673996  1
  I  I96  1  0.50508551  0.82793912  -0.00293836  1
  I  I97  1  0.50357056  0.82912993  0.33628480  1
  I  I98  1  0.49928918  0.82520624  0.66622635  1
  I  I99  1  0.83466623  0.16606275  0.00230715  1
  I  I100  1  0.83458557  0.16924251  0.33047631  1
  I  I101  1  0.83359174  0.16897993  0.66662502  1
  I  I102  1  0.83314371  0.50536853  -0.00369291  1
  I  I103  1  0.83280408  0.49922731  0.33356112  1
  I  I104  1  0.83421718  0.50115529  0.67054405  1
  I  I105  1  0.82974184  0.83040501  -0.00328409  1
  I  I106  1  0.83110540  0.83543811  0.33598970  1
  I  I107  1  0.83499275  0.82875401  0.66690980  1
  I  I108  1  -0.00230477  0.16867617  0.16544894  1
  I  I109  1  -0.00015798  0.16880398  0.49925447  1
  I  I110  1  -0.00020020  0.16604126  0.83472094  1
  I  I111  1  0.00323920  0.50182265  0.16660347  1
  I  I112  1  0.00292091  0.50415208  0.49889884  1
  I  I113  1  0.00014054  0.50455892  0.83498461  1
  I  I114  1  0.00351195  0.82687941  0.17048021  1
  I  I115  1  0.00069264  0.82919751  0.49956996  1
  I  I116  1  -0.00211307  0.82904954  0.83104124  1
  I  I117  1  0.33336146  0.16499238  0.16630693  1
  I  I118  1  0.33335323  0.16315655  0.49864630  1
  I  I119  1  0.33345390  0.16389851  0.83527094  1
  I  I120  1  0.33272501  0.50350164  0.16193925  1
  I  I121  1  0.33331880  0.50688679  0.50385781  1
  I  I122  1  0.33379245  0.50383057  0.83398128  1
  I  I123  1  0.32957824  0.83086570  0.17006411  1
  I  I124  1  0.33351169  0.82798635  0.50093502  1
  I  I125  1  0.33619550  0.82773812  0.83015198  1
  I  I126  1  0.66960424  0.16522025  0.16558168  1
  I  I127  1  0.66675503  0.16962556  0.49901403  1
  I  I128  1  0.66667139  0.17272533  0.83502029  1
  I  I129  1  0.66389347  0.49771529  0.16638561  1
  I  I130  1  0.66357813  0.50376717  0.49846626  1
  I  I131  1  0.66590237  0.50336772  0.83491964  1
  I  I132  1  0.66646068  0.83387245  0.16934484  1
  I  I133  1  0.66595055  0.82943648  0.50428349  1
  I  I134  1  0.66646738  0.82485196  0.82585925  1
