# generated using pymatgen
data_Cs27Sn14Pb13I81
_symmetry_space_group_name_H-M   'P 1'
_cell_length_a   18.95502649
_cell_length_b   18.96744942
_cell_length_c   18.95888241
_cell_angle_alpha   90.00083686
_cell_angle_beta   89.99748120
_cell_angle_gamma   90.00041891
_symmetry_Int_Tables_number   1
_chemical_formula_structural   Cs27Sn14Pb13I81
_chemical_formula_sum   'Cs27 Sn14 Pb13 I81'
_cell_volume   6816.25866870
_cell_formula_units_Z   1
loop_
 _symmetry_equiv_pos_site_id
 _symmetry_equiv_pos_as_xyz
  1  'x, y, z'
loop_
 _atom_site_type_symbol
 _atom_site_label
 _atom_site_symmetry_multiplicity
 _atom_site_fract_x
 _atom_site_fract_y
 _atom_site_fract_z
 _atom_site_occupancy
  Cs  Cs0  1  0.00117990  0.00119707  0.00100498  1
  Cs  Cs1  1  -0.00097715  -0.00198424  0.33083886  1
  Cs  Cs2  1  -0.00059192  0.00591993  0.66889846  1
  Cs  Cs3  1  -0.00016718  0.33044175  -0.00259076  1
  Cs  Cs4  1  -0.00046940  0.33416184  0.33463316  1
  Cs  Cs5  1  0.00012780  0.33152287  0.66793280  1
  Cs  Cs6  1  -0.00180225  0.66802187  0.00109188  1
  Cs  Cs7  1  0.00128950  0.66738196  0.33374540  1
  Cs  Cs8  1  -0.00072883  0.66417688  0.66477246  1
  Cs  Cs9  1  0.33081426  0.00246257  -0.00180013  1
  Cs  Cs10  1  0.33615102  -0.00145565  0.33699900  1
  Cs  Cs11  1  0.33520075  -0.00191074  0.66723998  1
  Cs  Cs12  1  0.33484511  0.33303919  -0.00103801  1
  Cs  Cs13  1  0.33683005  0.33571219  0.33083411  1
  Cs  Cs14  1  0.33115491  0.33439334  0.66966239  1
  Cs  Cs15  1  0.33301639  0.66526387  0.00113403  1
  Cs  Cs16  1  0.32490754  0.66576877  0.33410814  1
  Cs  Cs17  1  0.33486649  0.66731490  0.66497858  1
  Cs  Cs18  1  0.66761001  -0.00574454  0.00085320  1
  Cs  Cs19  1  0.66605135  0.00067267  0.33419503  1
  Cs  Cs20  1  0.66493655  -0.00191637  0.66358198  1
  Cs  Cs21  1  0.66382411  0.33535233  0.00116870  1
  Cs  Cs22  1  0.66451092  0.33300518  0.33340558  1
  Cs  Cs23  1  0.66868628  0.33453409  0.66462194  1
  Cs  Cs24  1  0.66862939  0.66914821  -0.00019598  1
  Cs  Cs25  1  0.66919134  0.66602173  0.33223208  1
  Cs  Cs26  1  0.66521656  0.66688425  0.66777950  1
  Sn  Sn27  1  0.83264249  0.83331926  0.16758496  1
  Sn  Sn28  1  0.16726806  0.50035505  0.83347951  1
  Sn  Sn29  1  0.83357815  0.16686675  0.16651316  1
  Sn  Sn30  1  0.83259165  0.50066474  0.49918813  1
  Sn  Sn31  1  0.16644287  0.16682237  0.16735132  1
  Sn  Sn32  1  0.16640486  0.83316326  0.83313946  1
  Sn  Sn33  1  0.83347293  0.49981402  0.16733572  1
  Sn  Sn34  1  0.83344629  0.83291756  0.49970421  1
  Sn  Sn35  1  0.50040155  0.50005820  0.50038847  1
  Sn  Sn36  1  0.16702812  0.16673386  0.49966064  1
  Sn  Sn37  1  0.49994396  0.16706354  0.83337011  1
  Sn  Sn38  1  0.49984992  0.83312703  0.16695322  1
  Sn  Sn39  1  0.49942189  0.49926381  0.83260047  1
  Sn  Sn40  1  0.16755049  0.16672685  0.83333676  1
  Pb  Pb41  1  0.49803072  0.83294262  0.83484983  1
  Pb  Pb42  1  0.50195965  0.83076009  0.49764464  1
  Pb  Pb43  1  0.83554410  0.83343906  0.83300299  1
  Pb  Pb44  1  0.16407196  0.83562016  0.50237484  1
  Pb  Pb45  1  0.16634012  0.83533355  0.16529636  1
  Pb  Pb46  1  0.83283783  0.49993971  0.83298152  1
  Pb  Pb47  1  0.49774861  0.16887430  0.50243648  1
  Pb  Pb48  1  0.83476281  0.16692794  0.49774874  1
  Pb  Pb49  1  0.83255526  0.16656873  0.83561112  1
  Pb  Pb50  1  0.16633644  0.49825364  0.50185775  1
  Pb  Pb51  1  0.16409228  0.49757141  0.16422667  1
  Pb  Pb52  1  0.50002729  0.16484381  0.16467929  1
  Pb  Pb53  1  0.50180623  0.50209273  0.16644707  1
  I  I54  1  0.16084075  0.00351223  0.16260607  1
  I  I55  1  0.16446661  0.00360231  0.50224553  1
  I  I56  1  0.16919269  0.00167872  0.83426423  1
  I  I57  1  0.16205636  0.32935743  0.16401054  1
  I  I58  1  0.16379628  0.33033051  0.50266739  1
  I  I59  1  0.17014036  0.33249341  0.83371829  1
  I  I60  1  0.16589467  0.66655326  0.16361641  1
  I  I61  1  0.16764595  0.66655933  0.50252070  1
  I  I62  1  0.16953409  0.66580067  0.83382050  1
  I  I63  1  0.50560951  -0.00278152  0.16394878  1
  I  I64  1  0.50085779  -0.00005612  0.50122682  1
  I  I65  1  0.49490311  0.00231331  0.83643800  1
  I  I66  1  0.50119823  0.33347777  0.16712438  1
  I  I67  1  0.50680649  0.33686454  0.50041987  1
  I  I68  1  0.49192114  0.33390122  0.83193766  1
  I  I69  1  0.50625259  0.66964874  0.16369010  1
  I  I70  1  0.50119839  0.66283905  0.50741554  1
  I  I71  1  0.49583568  0.66358956  0.83108660  1
  I  I72  1  0.83433257  -0.00036951  0.16909419  1
  I  I73  1  0.83632762  -0.00226075  0.49606213  1
  I  I74  1  0.83425781  0.00004234  0.83355055  1
  I  I75  1  0.83834976  0.33337596  0.16924022  1
  I  I76  1  0.83128391  0.33624271  0.49643258  1
  I  I77  1  0.83808418  0.33338290  0.83381764  1
  I  I78  1  0.82879452  0.66695337  0.16934286  1
  I  I79  1  0.83127418  0.66585220  0.49256246  1
  I  I80  1  0.83503608  0.66653658  0.83826665  1
  I  I81  1  0.16550939  0.16639081  -0.00089863  1
  I  I82  1  0.16006648  0.16639345  0.33249963  1
  I  I83  1  0.16966939  0.16696208  0.66818533  1
  I  I84  1  0.17110658  0.49760563  -0.00399588  1
  I  I85  1  0.16914197  0.49786298  0.33325687  1
  I  I86  1  0.16525459  0.49679457  0.67020214  1
  I  I87  1  0.16469014  0.83587271  -0.00285725  1
  I  I88  1  0.16815643  0.83539168  0.33341471  1
  I  I89  1  0.16607806  0.83560821  0.67042680  1
  I  I90  1  0.49392326  0.17307247  -0.00331620  1
  I  I91  1  0.49812997  0.16735646  0.33329912  1
  I  I92  1  0.49433682  0.16690695  0.67064931  1
  I  I93  1  0.49705941  0.49708114  -0.00289488  1
  I  I94  1  0.50334230  0.50089987  0.33566315  1
  I  I95  1  0.50216005  0.49671050  0.66746978  1
  I  I96  1  0.50723814  0.83184031  0.00267454  1
  I  I97  1  0.50169632  0.83424669  0.32979965  1
  I  I98  1  0.50102758  0.83501890  0.66657423  1
  I  I99  1  0.83951438  0.16640772  0.00404250  1
  I  I100  1  0.83899812  0.16635256  0.32947760  1
  I  I101  1  0.83572137  0.16683822  0.66645480  1
  I  I102  1  0.83427380  0.50076651  0.00281399  1
  I  I103  1  0.82852644  0.50021322  0.33349526  1
  I  I104  1  0.83291364  0.50475073  0.66365551  1
  I  I105  1  0.83113887  0.83259186  0.00332816  1
  I  I106  1  0.83064617  0.83270700  0.33209777  1
  I  I107  1  0.83571514  0.82773108  0.66364343  1
  I  I108  1  0.00006330  0.16495451  0.16362236  1
  I  I109  1  0.00290066  0.16870042  0.50597913  1
  I  I110  1  0.00336418  0.16768609  0.83236414  1
  I  I111  1  -0.00411636  0.50497753  0.17111894  1
  I  I112  1  -0.00293228  0.50238490  0.49739559  1
  I  I113  1  0.00274463  0.49791387  0.83393097  1
  I  I114  1  -0.00317000  0.83227130  0.16844904  1
  I  I115  1  -0.00381538  0.82632302  0.49271219  1
  I  I116  1  0.00372270  0.83479405  0.83581375  1
  I  I117  1  0.33057866  0.16448813  0.16589499  1
  I  I118  1  0.32953066  0.16778541  0.49584170  1
  I  I119  1  0.33160885  0.16780015  0.83595249  1
  I  I120  1  0.33324415  0.50067148  0.16871907  1
  I  I121  1  0.33560650  0.49758546  0.50313904  1
  I  I122  1  0.33344043  0.49848247  0.82878864  1
  I  I123  1  0.33523204  0.83493283  0.16295717  1
  I  I124  1  0.33320225  0.83270253  0.49846825  1
  I  I125  1  0.32999185  0.83486693  0.83608873  1
  I  I126  1  0.66954274  0.16769658  0.16487176  1
  I  I127  1  0.66659637  0.16533862  0.50071792  1
  I  I128  1  0.66345108  0.17250540  0.83554811  1
  I  I129  1  0.67026479  0.49573636  0.16555965  1
  I  I130  1  0.66745797  0.50248063  0.50273534  1
  I  I131  1  0.66355618  0.49506016  0.83283655  1
  I  I132  1  0.66866397  0.83566958  0.16774949  1
  I  I133  1  0.67030267  0.83341773  0.49925253  1
  I  I134  1  0.66658135  0.83350938  0.83335354  1
