# generated using pymatgen
data_Cs27Sn13Pb14I81
_symmetry_space_group_name_H-M   'P 1'
_cell_length_a   18.99688011
_cell_length_b   18.99578167
_cell_length_c   18.98384456
_cell_angle_alpha   89.99961272
_cell_angle_beta   89.99786164
_cell_angle_gamma   89.99976077
_symmetry_Int_Tables_number   1
_chemical_formula_structural   Cs27Sn13Pb14I81
_chemical_formula_sum   'Cs27 Sn13 Pb14 I81'
_cell_volume   6850.52128528
_cell_formula_units_Z   1
loop_
 _symmetry_equiv_pos_site_id
 _symmetry_equiv_pos_as_xyz
  1  'x, y, z'
loop_
 _atom_site_type_symbol
 _atom_site_label
 _atom_site_symmetry_multiplicity
 _atom_site_fract_x
 _atom_site_fract_y
 _atom_site_fract_z
 _atom_site_occupancy
  Cs  Cs0  1  -0.00536337  0.00253341  0.00241913  1
  Cs  Cs1  1  0.00410431  -0.00223680  0.33153862  1
  Cs  Cs2  1  0.00192129  -0.00368167  0.66748684  1
  Cs  Cs3  1  -0.00908975  0.33283755  0.00152484  1
  Cs  Cs4  1  0.00216324  0.33314325  0.33069926  1
  Cs  Cs5  1  -0.00052779  0.33510399  0.66725365  1
  Cs  Cs6  1  0.00113763  0.66548460  -0.00554888  1
  Cs  Cs7  1  0.00048644  0.66809733  0.33377661  1
  Cs  Cs8  1  0.00364426  0.66828389  0.67257515  1
  Cs  Cs9  1  0.33674556  0.00114509  0.00062369  1
  Cs  Cs10  1  0.33082729  0.00061404  0.33281458  1
  Cs  Cs11  1  0.33035776  0.00176393  0.66677188  1
  Cs  Cs12  1  0.33354400  0.33248440  -0.00413928  1
  Cs  Cs13  1  0.33157603  0.33224744  0.33351781  1
  Cs  Cs14  1  0.33415215  0.33182281  0.66773599  1
  Cs  Cs15  1  0.33867620  0.66649881  -0.00440557  1
  Cs  Cs16  1  0.33214020  0.66687565  0.33153223  1
  Cs  Cs17  1  0.32882034  0.66655440  0.67302103  1
  Cs  Cs18  1  0.66655125  -0.00108907  -0.00407272  1
  Cs  Cs19  1  0.66583961  -0.00237929  0.33508947  1
  Cs  Cs20  1  0.66757937  0.00143646  0.66571981  1
  Cs  Cs21  1  0.67491287  0.33854135  0.00197079  1
  Cs  Cs22  1  0.66692057  0.33523152  0.33580415  1
  Cs  Cs23  1  0.66546619  0.33080816  0.66289130  1
  Cs  Cs24  1  0.65883137  0.66148288  -0.00373694  1
  Cs  Cs25  1  0.66706503  0.66758859  0.33332139  1
  Cs  Cs26  1  0.66744005  0.66795877  0.66549572  1
  Sn  Sn27  1  0.50049901  0.16702456  0.16690080  1
  Sn  Sn28  1  0.16677117  0.50002492  0.49922292  1
  Sn  Sn29  1  0.16620227  0.83234005  0.16671170  1
  Sn  Sn30  1  0.49995973  0.83343113  0.49978933  1
  Sn  Sn31  1  0.83373855  0.50041869  0.49947144  1
  Sn  Sn32  1  0.83300266  0.83337462  0.49924900  1
  Sn  Sn33  1  0.50030350  0.16627221  0.49961221  1
  Sn  Sn34  1  0.49963786  0.16699155  0.83335478  1
  Sn  Sn35  1  0.83346227  0.83278113  0.16718754  1
  Sn  Sn36  1  0.16664552  0.16668167  0.83351867  1
  Sn  Sn37  1  0.49944603  0.50041541  0.49965932  1
  Sn  Sn38  1  0.83331373  0.16620256  0.49944353  1
  Sn  Sn39  1  0.16693983  0.50084088  0.16700224  1
  Pb  Pb40  1  0.16655413  0.16872553  0.50118283  1
  Pb  Pb41  1  0.49999052  0.83578005  0.83007267  1
  Pb  Pb42  1  0.16830083  0.16703064  0.16444486  1
  Pb  Pb43  1  0.50026535  0.83483582  0.16854288  1
  Pb  Pb44  1  0.83314157  0.50013399  0.83059613  1
  Pb  Pb45  1  0.49788099  0.49776763  0.16884704  1
  Pb  Pb46  1  0.50017498  0.49727768  0.83063261  1
  Pb  Pb47  1  0.83313093  0.83321647  0.83339009  1
  Pb  Pb48  1  0.83531497  0.50280670  0.16892752  1
  Pb  Pb49  1  0.16664761  0.49766035  0.83401426  1
  Pb  Pb50  1  0.16668526  0.83095835  0.49872831  1
  Pb  Pb51  1  0.83280947  0.16662040  0.83073419  1
  Pb  Pb52  1  0.83069236  0.16435435  0.16956537  1
  Pb  Pb53  1  0.16666949  0.83603689  0.83723852  1
  I  I54  1  0.16402316  -0.00233218  0.16588655  1
  I  I55  1  0.16690783  -0.00007068  0.49960737  1
  I  I56  1  0.17215468  0.00348924  0.83112246  1
  I  I57  1  0.16995029  0.33592163  0.17141454  1
  I  I58  1  0.16678716  0.33673253  0.49455378  1
  I  I59  1  0.17313766  0.33026418  0.83269385  1
  I  I60  1  0.16303294  0.66662389  0.17413079  1
  I  I61  1  0.16734149  0.66295769  0.49866434  1
  I  I62  1  0.16558098  0.66658545  0.83053442  1
  I  I63  1  0.49701644  0.00290746  0.17051061  1
  I  I64  1  0.50747152  0.00093508  0.50050468  1
  I  I65  1  0.49604687  0.00403083  0.83055537  1
  I  I66  1  0.49702886  0.32971754  0.17027711  1
  I  I67  1  0.50280510  0.33262763  0.50067838  1
  I  I68  1  0.49468480  0.32913973  0.82959163  1
  I  I69  1  0.50100819  0.66664012  0.16939142  1
  I  I70  1  0.50402454  0.66652637  0.49773231  1
  I  I71  1  0.49995165  0.66658383  0.83273462  1
  I  I72  1  0.84101282  -0.00313008  0.17402095  1
  I  I73  1  0.82457327  -0.00026015  0.49735135  1
  I  I74  1  0.83375888  0.00018674  0.82988841  1
  I  I75  1  0.83458613  0.33337344  0.16745468  1
  I  I76  1  0.82938456  0.33336739  0.50212797  1
  I  I77  1  0.83413332  0.33302148  0.83229106  1
  I  I78  1  0.83395798  0.67042222  0.17563648  1
  I  I79  1  0.82899329  0.66694341  0.49562851  1
  I  I80  1  0.83533408  0.66676358  0.82977209  1
  I  I81  1  0.17480357  0.16719749  -0.00309503  1
  I  I82  1  0.16804405  0.16583118  0.33323144  1
  I  I83  1  0.17274299  0.16879256  0.66877440  1
  I  I84  1  0.16741763  0.50352147  0.00334633  1
  I  I85  1  0.16696489  0.50172404  0.33459921  1
  I  I86  1  0.16656676  0.49808373  0.66349176  1
  I  I87  1  0.16067495  0.82620940  0.00504363  1
  I  I88  1  0.16574208  0.83403709  0.33097802  1
  I  I89  1  0.16646266  0.83239636  0.66674324  1
  I  I90  1  0.49200837  0.16445727  -0.00012676  1
  I  I91  1  0.50393278  0.16678938  0.33530947  1
  I  I92  1  0.50012828  0.16736705  0.66487719  1
  I  I93  1  0.49751266  0.49881808  0.00014364  1
  I  I94  1  0.50256878  0.49634429  0.33768010  1
  I  I95  1  0.49783332  0.49793457  0.66148397  1
  I  I96  1  0.50027577  0.83647643  0.00009393  1
  I  I97  1  0.50151322  0.83666749  0.33709107  1
  I  I98  1  0.50669495  0.83445496  0.66139826  1
  I  I99  1  0.83249827  0.16469307  0.00026138  1
  I  I100  1  0.82784607  0.16949966  0.33770824  1
  I  I101  1  0.82733138  0.16512620  0.66219746  1
  I  I102  1  0.83587978  0.49995202  0.00065740  1
  I  I103  1  0.83020569  0.49710391  0.33769564  1
  I  I104  1  0.83581086  0.50168627  0.66090437  1
  I  I105  1  0.83963393  0.83627185  0.00350069  1
  I  I106  1  0.83323841  0.83377786  0.33526201  1
  I  I107  1  0.82832567  0.83385269  0.66240309  1
  I  I108  1  -0.00023417  0.16802716  0.16592124  1
  I  I109  1  -0.00277156  0.16642551  0.50238156  1
  I  I110  1  0.00225680  0.16729182  0.83158959  1
  I  I111  1  0.00325343  0.49861793  0.17385484  1
  I  I112  1  -0.00018813  0.49855828  0.49596639  1
  I  I113  1  0.00021627  0.49606553  0.82968770  1
  I  I114  1  -0.00014767  0.83180742  0.17488342  1
  I  I115  1  -0.00295356  0.83485363  0.49787299  1
  I  I116  1  0.00014284  0.83665477  0.82672598  1
  I  I117  1  0.33615327  0.16428386  0.17357592  1
  I  I118  1  0.33667358  0.16656542  0.49906940  1
  I  I119  1  0.33474614  0.16702490  0.82948832  1
  I  I120  1  0.33007610  0.50600807  0.17464828  1
  I  I121  1  0.33371957  0.49793967  0.49584758  1
  I  I122  1  0.33336230  0.50030651  0.82932022  1
  I  I123  1  0.33097917  0.83171645  0.16918533  1
  I  I124  1  0.33603683  0.83569540  0.49803458  1
  I  I125  1  0.33329649  0.83256225  0.83224160  1
  I  I126  1  0.66281150  0.16497530  0.16320978  1
  I  I127  1  0.66529608  0.17038661  0.50193367  1
  I  I128  1  0.66338403  0.16559762  0.83240783  1
  I  I129  1  0.66668176  0.49974658  0.16728041  1
  I  I130  1  0.66651792  0.49840947  0.50165490  1
  I  I131  1  0.66648479  0.49745972  0.83342528  1
  I  I132  1  0.66930415  0.83747335  0.17173923  1
  I  I133  1  0.66700495  0.83069778  0.49453930  1
  I  I134  1  0.66644814  0.83665854  0.83738348  1
