# generated using pymatgen
data_Cs27Sn13Pb14I81
_symmetry_space_group_name_H-M   'P 1'
_cell_length_a   18.98135045
_cell_length_b   18.97554282
_cell_length_c   18.97380556
_cell_angle_alpha   89.99867033
_cell_angle_beta   89.99932566
_cell_angle_gamma   90.00063165
_symmetry_Int_Tables_number   1
_chemical_formula_structural   Cs27Sn13Pb14I81
_chemical_formula_sum   'Cs27 Sn13 Pb14 I81'
_cell_volume   6834.01238533
_cell_formula_units_Z   1
loop_
 _symmetry_equiv_pos_site_id
 _symmetry_equiv_pos_as_xyz
  1  'x, y, z'
loop_
 _atom_site_type_symbol
 _atom_site_label
 _atom_site_symmetry_multiplicity
 _atom_site_fract_x
 _atom_site_fract_y
 _atom_site_fract_z
 _atom_site_occupancy
  Cs  Cs0  1  -0.00450591  -0.00391112  0.00261833  1
  Cs  Cs1  1  0.00139742  -0.00007874  0.33263590  1
  Cs  Cs2  1  -0.00050845  0.00253410  0.66503581  1
  Cs  Cs3  1  0.00270260  0.33369796  -0.00252398  1
  Cs  Cs4  1  -0.00357175  0.33294525  0.33419106  1
  Cs  Cs5  1  -0.00118059  0.33273116  0.66685530  1
  Cs  Cs6  1  0.00772839  0.67433488  0.00463895  1
  Cs  Cs7  1  -0.00129372  0.66760781  0.32626236  1
  Cs  Cs8  1  0.00161729  0.66627381  0.66897040  1
  Cs  Cs9  1  0.33888077  0.00169218  -0.00437497  1
  Cs  Cs10  1  0.33224279  -0.00142221  0.33631735  1
  Cs  Cs11  1  0.33444854  -0.00063058  0.66542743  1
  Cs  Cs12  1  0.33391803  0.33518254  0.00264373  1
  Cs  Cs13  1  0.33457282  0.33273987  0.33425036  1
  Cs  Cs14  1  0.33312058  0.33261884  0.66617081  1
  Cs  Cs15  1  0.32438542  0.66315632  -0.00012046  1
  Cs  Cs16  1  0.33433203  0.66887405  0.33281958  1
  Cs  Cs17  1  0.33246640  0.66590808  0.66744012  1
  Cs  Cs18  1  0.66636072  -0.00181831  -0.00001379  1
  Cs  Cs19  1  0.66602354  -0.00024865  0.33360142  1
  Cs  Cs20  1  0.66577669  -0.00035450  0.66739674  1
  Cs  Cs21  1  0.66400001  0.33147399  0.00522712  1
  Cs  Cs22  1  0.66807318  0.33601703  0.32956383  1
  Cs  Cs23  1  0.66868112  0.33524003  0.66598339  1
  Cs  Cs24  1  0.66907286  0.67066887  -0.00049745  1
  Cs  Cs25  1  0.66596601  0.66392598  0.33394389  1
  Cs  Cs26  1  0.66702034  0.66452566  0.66578289  1
  Sn  Sn27  1  0.83363741  0.16768384  0.83259451  1
  Sn  Sn28  1  0.83280560  0.49940172  0.83350501  1
  Sn  Sn29  1  0.50050258  0.16703047  0.50014331  1
  Sn  Sn30  1  0.50101099  0.83317727  0.49951565  1
  Sn  Sn31  1  0.16703275  0.49935857  0.49988487  1
  Sn  Sn32  1  0.16656642  0.16764866  0.50017856  1
  Sn  Sn33  1  0.16598053  0.16671480  0.83330416  1
  Sn  Sn34  1  0.49981854  0.83321645  0.16715353  1
  Sn  Sn35  1  0.49918357  0.49982799  0.50066042  1
  Sn  Sn36  1  0.50097657  0.49987954  0.83276636  1
  Sn  Sn37  1  0.83305334  0.16594042  0.50059972  1
  Sn  Sn38  1  0.16676224  0.16670137  0.16660903  1
  Sn  Sn39  1  0.83279721  0.83379587  0.50039055  1
  Pb  Pb40  1  0.50004800  0.50227191  0.16667978  1
  Pb  Pb41  1  0.49800060  0.16482907  0.16938608  1
  Pb  Pb42  1  0.83099038  0.83355395  0.16969653  1
  Pb  Pb43  1  0.49992673  0.83026549  0.83273035  1
  Pb  Pb44  1  0.83327899  0.83355089  0.83094203  1
  Pb  Pb45  1  0.83340230  0.49991382  0.16221695  1
  Pb  Pb46  1  0.16672414  0.49755733  0.16992762  1
  Pb  Pb47  1  0.16949564  0.83628253  0.16686597  1
  Pb  Pb48  1  0.16661217  0.83682488  0.83307589  1
  Pb  Pb49  1  0.83526531  0.16683948  0.16649927  1
  Pb  Pb50  1  0.50055920  0.16870060  0.83142103  1
  Pb  Pb51  1  0.16648670  0.83316155  0.50011180  1
  Pb  Pb52  1  0.83356466  0.50007582  0.50094145  1
  Pb  Pb53  1  0.16645124  0.49799613  0.83135378  1
  I  I54  1  0.16624352  0.00414264  0.17164646  1
  I  I55  1  0.16905805  0.00369709  0.50041635  1
  I  I56  1  0.16184986  0.00555721  0.82842971  1
  I  I57  1  0.16838034  0.32945449  0.16513889  1
  I  I58  1  0.17021187  0.33157054  0.50030744  1
  I  I59  1  0.16541176  0.32973631  0.83315942  1
  I  I60  1  0.16682623  0.66679307  0.16755275  1
  I  I61  1  0.17049076  0.66368881  0.50179763  1
  I  I62  1  0.16658724  0.66612240  0.83123816  1
  I  I63  1  0.49881921  -0.00291436  0.17304819  1
  I  I64  1  0.49968766  0.00052420  0.49600355  1
  I  I65  1  0.49926965  0.00015966  0.83247102  1
  I  I66  1  0.49875286  0.33328498  0.16764218  1
  I  I67  1  0.49809462  0.33318668  0.50495097  1
  I  I68  1  0.50042900  0.33646154  0.82639048  1
  I  I69  1  0.50067920  0.66986811  0.17487261  1
  I  I70  1  0.50015167  0.66642673  0.49991144  1
  I  I71  1  0.50611205  0.66243108  0.82621789  1
  I  I72  1  0.83366323  0.00021335  0.16267419  1
  I  I73  1  0.83069846  0.00172898  0.50504331  1
  I  I74  1  0.83839184  0.00357840  0.83065209  1
  I  I75  1  0.83199980  0.33305824  0.17339482  1
  I  I76  1  0.83238525  0.33025020  0.50235929  1
  I  I77  1  0.83401398  0.33206744  0.82529012  1
  I  I78  1  0.83351051  0.66688666  0.16855385  1
  I  I79  1  0.82916265  0.66880862  0.50186463  1
  I  I80  1  0.82703623  0.66373349  0.82994583  1
  I  I81  1  0.16186145  0.16571288  -0.00091989  1
  I  I82  1  0.16771769  0.16963311  0.33538015  1
  I  I83  1  0.16564581  0.17038388  0.66527350  1
  I  I84  1  0.16778251  0.49824845  -0.00025612  1
  I  I85  1  0.17287770  0.49462803  0.33822819  1
  I  I86  1  0.16886421  0.49380762  0.66329087  1
  I  I87  1  0.16884079  0.83311643  0.00015046  1
  I  I88  1  0.16476376  0.83577326  0.33380998  1
  I  I89  1  0.16960007  0.83518499  0.66606698  1
  I  I90  1  0.49899215  0.16593266  -0.00011170  1
  I  I91  1  0.50038138  0.17105123  0.33829677  1
  I  I92  1  0.49554831  0.16207890  0.66271217  1
  I  I93  1  0.50445139  0.50018650  -0.00316920  1
  I  I94  1  0.49600213  0.49812182  0.33717412  1
  I  I95  1  0.49971199  0.50145698  0.66475418  1
  I  I96  1  0.49880210  0.83369439  0.00240339  1
  I  I97  1  0.50317449  0.83259320  0.33618479  1
  I  I98  1  0.50320903  0.83564838  0.66275198  1
  I  I99  1  0.83807357  0.17124267  -0.00365003  1
  I  I100  1  0.83413068  0.16278108  0.33709189  1
  I  I101  1  0.83806588  0.16642958  0.66538920  1
  I  I102  1  0.82588178  0.49167060  -0.00584823  1
  I  I103  1  0.83325916  0.49982269  0.33362942  1
  I  I104  1  0.83165655  0.49774724  0.66879784  1
  I  I105  1  0.83159861  0.83386889  -0.00004021  1
  I  I106  1  0.83240598  0.83955794  0.33804331  1
  I  I107  1  0.82604706  0.83600878  0.66280401  1
  I  I108  1  0.00330105  0.16669575  0.17263328  1
  I  I109  1  0.00027455  0.16656017  0.50074766  1
  I  I110  1  -0.00034571  0.17249459  0.82703458  1
  I  I111  1  0.00023544  0.50045642  0.16901200  1
  I  I112  1  0.00228649  0.49545602  0.50222134  1
  I  I113  1  -0.00250062  0.49605309  0.82948388  1
  I  I114  1  0.00015337  0.83324584  0.16720801  1
  I  I115  1  -0.00284397  0.83760320  0.50245519  1
  I  I116  1  -0.00023636  0.82785006  0.83110639  1
  I  I117  1  0.33000698  0.16601672  0.16644329  1
  I  I118  1  0.33317251  0.16689307  0.50006306  1
  I  I119  1  0.33086188  0.16749036  0.83171924  1
  I  I120  1  0.33340329  0.50006897  0.16218422  1
  I  I121  1  0.33457792  0.49659355  0.50518849  1
  I  I122  1  0.33570502  0.49960042  0.83009327  1
  I  I123  1  0.33692055  0.83359304  0.17642219  1
  I  I124  1  0.33662087  0.83590827  0.49669778  1
  I  I125  1  0.33359619  0.83379638  0.83057530  1
  I  I126  1  0.66643616  0.16538212  0.16661739  1
  I  I127  1  0.66678810  0.16525977  0.50515611  1
  I  I128  1  0.66959148  0.16828315  0.82711227  1
  I  I129  1  0.66643905  0.49880869  0.17235931  1
  I  I130  1  0.66385484  0.49840555  0.50233978  1
  I  I131  1  0.66643200  0.49470015  0.82520438  1
  I  I132  1  0.66319423  0.83477407  0.16927317  1
  I  I133  1  0.66562380  0.83697284  0.49700861  1
  I  I134  1  0.66652626  0.83825429  0.83502839  1
