# generated using pymatgen
data_Cs27Sn14Pb13I81
_symmetry_space_group_name_H-M   'P 1'
_cell_length_a   18.97762412
_cell_length_b   18.96664669
_cell_length_c   18.98256350
_cell_angle_alpha   90.00097810
_cell_angle_beta   90.00056693
_cell_angle_gamma   89.99858681
_symmetry_Int_Tables_number   1
_chemical_formula_structural   Cs27Sn14Pb13I81
_chemical_formula_sum   'Cs27 Sn14 Pb13 I81'
_cell_volume   6832.61981125
_cell_formula_units_Z   1
loop_
 _symmetry_equiv_pos_site_id
 _symmetry_equiv_pos_as_xyz
  1  'x, y, z'
loop_
 _atom_site_type_symbol
 _atom_site_label
 _atom_site_symmetry_multiplicity
 _atom_site_fract_x
 _atom_site_fract_y
 _atom_site_fract_z
 _atom_site_occupancy
  Cs  Cs0  1  -0.00175709  0.00426130  -0.00677187  1
  Cs  Cs1  1  -0.00308532  0.00172416  0.34013187  1
  Cs  Cs2  1  0.00241400  -0.00259280  0.66750891  1
  Cs  Cs3  1  -0.00106338  0.33261907  0.00121949  1
  Cs  Cs4  1  0.00327249  0.33493629  0.33091497  1
  Cs  Cs5  1  0.00196924  0.33585530  0.66756945  1
  Cs  Cs6  1  -0.00179001  0.66427747  -0.00030842  1
  Cs  Cs7  1  0.00137585  0.66559028  0.33489684  1
  Cs  Cs8  1  -0.00143724  0.66729836  0.66576825  1
  Cs  Cs9  1  0.32914622  -0.00343463  0.00114785  1
  Cs  Cs10  1  0.33534371  -0.00024706  0.33082284  1
  Cs  Cs11  1  0.33025838  0.00225637  0.66998170  1
  Cs  Cs12  1  0.33392811  0.33332030  -0.00032935  1
  Cs  Cs13  1  0.33174570  0.33372809  0.33343478  1
  Cs  Cs14  1  0.33592665  0.33258439  0.66657069  1
  Cs  Cs15  1  0.33379429  0.66962596  0.00475262  1
  Cs  Cs16  1  0.33427473  0.66805432  0.33036823  1
  Cs  Cs17  1  0.33539062  0.66550258  0.66678107  1
  Cs  Cs18  1  0.66962377  -0.00444285  0.00248171  1
  Cs  Cs19  1  0.66721479  0.00302013  0.33497434  1
  Cs  Cs20  1  0.66639361  0.00445239  0.66270528  1
  Cs  Cs21  1  0.66677735  0.33277897  -0.00060023  1
  Cs  Cs22  1  0.66597183  0.33239662  0.33285366  1
  Cs  Cs23  1  0.66081152  0.33035646  0.66721806  1
  Cs  Cs24  1  0.66676302  0.66739732  -0.00133573  1
  Cs  Cs25  1  0.66585820  0.66642312  0.33280029  1
  Cs  Cs26  1  0.66698109  0.66542736  0.66889154  1
  Sn  Sn27  1  0.83376986  0.83240503  0.16645672  1
  Sn  Sn28  1  0.83220939  0.83237912  0.83369009  1
  Sn  Sn29  1  0.83235282  0.50082880  0.16674372  1
  Sn  Sn30  1  0.16695510  0.49967094  0.50080305  1
  Sn  Sn31  1  0.50078195  0.49918808  0.16730999  1
  Sn  Sn32  1  0.16677444  0.16743455  0.49913160  1
  Sn  Sn33  1  0.16730002  0.16662315  0.16752034  1
  Sn  Sn34  1  0.83391411  0.50027649  0.83324645  1
  Sn  Sn35  1  0.49990052  0.83267440  0.50116849  1
  Sn  Sn36  1  0.83294772  0.49999132  0.50006075  1
  Sn  Sn37  1  0.50078432  0.83320486  0.83215033  1
  Sn  Sn38  1  0.16634531  0.50038444  0.83280668  1
  Sn  Sn39  1  0.50004754  0.50068820  0.49911093  1
  Sn  Sn40  1  0.49924556  0.16753951  0.16639288  1
  Pb  Pb41  1  0.83117650  0.83124640  0.50036423  1
  Pb  Pb42  1  0.16676767  0.16948302  0.83318591  1
  Pb  Pb43  1  0.83303129  0.16679480  0.83301367  1
  Pb  Pb44  1  0.83343450  0.16687783  0.16670860  1
  Pb  Pb45  1  0.49792135  0.16695361  0.49826044  1
  Pb  Pb46  1  0.16668401  0.49904307  0.16671878  1
  Pb  Pb47  1  0.50013632  0.50127926  0.83369253  1
  Pb  Pb48  1  0.50170848  0.83314369  0.16681874  1
  Pb  Pb49  1  0.16938885  0.83277794  0.49987218  1
  Pb  Pb50  1  0.83617006  0.16995563  0.50015702  1
  Pb  Pb51  1  0.16617581  0.83035998  0.83335095  1
  Pb  Pb52  1  0.50005677  0.16300565  0.83659042  1
  Pb  Pb53  1  0.16266660  0.83667434  0.16677373  1
  I  I54  1  0.17423064  0.00459393  0.17260384  1
  I  I55  1  0.16847528  0.00280017  0.49477252  1
  I  I56  1  0.16617649  -0.00006396  0.83320701  1
  I  I57  1  0.16600205  0.33114567  0.16811251  1
  I  I58  1  0.16778693  0.33526078  0.49961729  1
  I  I59  1  0.16032269  0.33755435  0.83201105  1
  I  I60  1  0.16986975  0.66656125  0.16679013  1
  I  I61  1  0.16415597  0.66273309  0.50423235  1
  I  I62  1  0.16453354  0.66242656  0.82673827  1
  I  I63  1  0.49734767  0.00207402  0.16653651  1
  I  I64  1  0.49909653  -0.00246520  0.50193864  1
  I  I65  1  0.50651857  -0.00499183  0.82736632  1
  I  I66  1  0.50231614  0.33506440  0.17249975  1
  I  I67  1  0.50203709  0.33687326  0.49783620  1
  I  I68  1  0.50016577  0.33350919  0.83130863  1
  I  I69  1  0.50218035  0.66383489  0.16802286  1
  I  I70  1  0.49803131  0.66465969  0.49731805  1
  I  I71  1  0.50147868  0.66909991  0.83424261  1
  I  I72  1  0.83302725  -0.00286241  0.16056567  1
  I  I73  1  0.83312801  -0.00019124  0.49915979  1
  I  I74  1  0.82949241  -0.00379284  0.84041188  1
  I  I75  1  0.83262778  0.33697212  0.16643763  1
  I  I76  1  0.82746467  0.33877032  0.49892541  1
  I  I77  1  0.83837643  0.33761489  0.83514687  1
  I  I78  1  0.82706077  0.66469003  0.16547052  1
  I  I79  1  0.83843966  0.66261692  0.49951743  1
  I  I80  1  0.83348850  0.66545788  0.83466317  1
  I  I81  1  0.16999889  0.16766229  0.00285972  1
  I  I82  1  0.16977509  0.17432345  0.33353695  1
  I  I83  1  0.16638763  0.16942576  0.66364422  1
  I  I84  1  0.16315912  0.49884123  -0.00205871  1
  I  I85  1  0.16437118  0.49742282  0.33607877  1
  I  I86  1  0.16374701  0.49498289  0.66537338  1
  I  I87  1  0.17326309  0.83265905  0.00005125  1
  I  I88  1  0.16729338  0.82800087  0.33330924  1
  I  I89  1  0.16267415  0.83842782  0.66657282  1
  I  I90  1  0.49410540  0.17387430  0.00453885  1
  I  I91  1  0.49861935  0.16620913  0.33032986  1
  I  I92  1  0.49850672  0.16899925  0.66654290  1
  I  I93  1  0.50239676  0.49799503  0.00279260  1
  I  I94  1  0.50244825  0.50213708  0.33376953  1
  I  I95  1  0.50158262  0.50256146  0.66396892  1
  I  I96  1  0.50271933  0.83305026  -0.00197489  1
  I  I97  1  0.50073466  0.83143446  0.33541761  1
  I  I98  1  0.50508100  0.82590221  0.66636561  1
  I  I99  1  0.83609257  0.17099692  0.00018716  1
  I  I100  1  0.83187496  0.16446238  0.33329295  1
  I  I101  1  0.83496424  0.16551316  0.66645019  1
  I  I102  1  0.83389395  0.50370209  0.00019982  1
  I  I103  1  0.83310325  0.50353246  0.33306903  1
  I  I104  1  0.83538026  0.50409619  0.66676383  1
  I  I105  1  0.82658318  0.82505386  -0.00048348  1
  I  I106  1  0.83185680  0.82941190  0.33099046  1
  I  I107  1  0.83161076  0.82813901  0.66956391  1
  I  I108  1  0.00265042  0.16763379  0.17050200  1
  I  I109  1  0.00420072  0.17121402  0.49244622  1
  I  I110  1  0.00013781  0.16245042  0.83611165  1
  I  I111  1  -0.00278938  0.50191957  0.16844293  1
  I  I112  1  -0.00015537  0.49525134  0.50015472  1
  I  I113  1  -0.00124270  0.50486355  0.83070469  1
  I  I114  1  -0.00509123  0.82563378  0.16073216  1
  I  I115  1  -0.00019622  0.83364889  0.49994655  1
  I  I116  1  -0.00353963  0.83151214  0.83833180  1
  I  I117  1  0.33377287  0.17313265  0.17072361  1
  I  I118  1  0.33023427  0.17351643  0.49768551  1
  I  I119  1  0.33338764  0.16730509  0.83229476  1
  I  I120  1  0.33599351  0.49798037  0.16931223  1
  I  I121  1  0.33358916  0.49965979  0.50031812  1
  I  I122  1  0.33129247  0.50052627  0.82976410  1
  I  I123  1  0.33349872  0.83114360  0.16580557  1
  I  I124  1  0.33743604  0.82692380  0.50463434  1
  I  I125  1  0.33608874  0.83225197  0.82940530  1
  I  I126  1  0.66411782  0.16832564  0.16662642  1
  I  I127  1  0.66635391  0.16677267  0.49817648  1
  I  I128  1  0.66640503  0.17299589  0.83475625  1
  I  I129  1  0.66675256  0.49797582  0.16949824  1
  I  I130  1  0.66634914  0.50564632  0.49879746  1
  I  I131  1  0.66955157  0.50284820  0.83200220  1
  I  I132  1  0.66947086  0.83293724  0.16496589  1
  I  I133  1  0.66331280  0.82744188  0.50016318  1
  I  I134  1  0.66761491  0.82567231  0.83454410  1
