# generated using pymatgen
data_Cs27Sn13Pb14I81
_symmetry_space_group_name_H-M   'P 1'
_cell_length_a   18.97704773
_cell_length_b   18.97604785
_cell_length_c   18.97740794
_cell_angle_alpha   89.99900830
_cell_angle_beta   90.00105072
_cell_angle_gamma   89.99728171
_symmetry_Int_Tables_number   1
_chemical_formula_structural   Cs27Sn13Pb14I81
_chemical_formula_sum   'Cs27 Sn13 Pb14 I81'
_cell_volume   6833.94232679
_cell_formula_units_Z   1
loop_
 _symmetry_equiv_pos_site_id
 _symmetry_equiv_pos_as_xyz
  1  'x, y, z'
loop_
 _atom_site_type_symbol
 _atom_site_label
 _atom_site_symmetry_multiplicity
 _atom_site_fract_x
 _atom_site_fract_y
 _atom_site_fract_z
 _atom_site_occupancy
  Cs  Cs0  1  0.00201488  -0.00131316  0.00491256  1
  Cs  Cs1  1  0.00166291  0.00153106  0.33194417  1
  Cs  Cs2  1  -0.00212705  0.00384339  0.66473039  1
  Cs  Cs3  1  -0.00191211  0.33649363  -0.01150008  1
  Cs  Cs4  1  0.00131095  0.33257212  0.33817349  1
  Cs  Cs5  1  -0.00093230  0.32829517  0.66995980  1
  Cs  Cs6  1  -0.00243076  0.66570505  0.00330940  1
  Cs  Cs7  1  0.00039681  0.66670658  0.33229115  1
  Cs  Cs8  1  0.00137806  0.66610258  0.66559568  1
  Cs  Cs9  1  0.33438089  0.00020128  0.00294854  1
  Cs  Cs10  1  0.33183021  0.00261662  0.32882342  1
  Cs  Cs11  1  0.33568716  -0.00256785  0.66673814  1
  Cs  Cs12  1  0.33296865  0.33059108  0.00118732  1
  Cs  Cs13  1  0.33461104  0.33359219  0.32902238  1
  Cs  Cs14  1  0.33160300  0.33303838  0.66884683  1
  Cs  Cs15  1  0.33213912  0.66907350  -0.00341669  1
  Cs  Cs16  1  0.33160127  0.66351794  0.33790920  1
  Cs  Cs17  1  0.33354179  0.66720781  0.66540472  1
  Cs  Cs18  1  0.66490495  -0.00115680  -0.00001696  1
  Cs  Cs19  1  0.66756458  0.00121130  0.33315726  1
  Cs  Cs20  1  0.66622614  -0.00064032  0.66646911  1
  Cs  Cs21  1  0.66785783  0.33569944  0.00419095  1
  Cs  Cs22  1  0.66456130  0.33463100  0.32860196  1
  Cs  Cs23  1  0.66865299  0.32968859  0.66721625  1
  Cs  Cs24  1  0.66950026  0.66649090  0.00129169  1
  Cs  Cs25  1  0.66681951  0.66275649  0.33501203  1
  Cs  Cs26  1  0.66449095  0.66933766  0.66443206  1
  Sn  Sn27  1  0.50010083  0.83255557  0.16657308  1
  Sn  Sn28  1  0.50024795  0.50015866  0.83328237  1
  Sn  Sn29  1  0.83360091  0.83335736  0.83267990  1
  Sn  Sn30  1  0.16626329  0.83334313  0.83253884  1
  Sn  Sn31  1  0.83416762  0.83268391  0.50060493  1
  Sn  Sn32  1  0.16578037  0.83297450  0.50081855  1
  Sn  Sn33  1  0.83390283  0.50050235  0.50046704  1
  Sn  Sn34  1  0.83386518  0.16675486  0.16646851  1
  Sn  Sn35  1  0.49969353  0.16671405  0.50032568  1
  Sn  Sn36  1  0.50012967  0.83319974  0.83422944  1
  Sn  Sn37  1  0.16652608  0.50002479  0.16684421  1
  Sn  Sn38  1  0.16573000  0.50056547  0.49954151  1
  Sn  Sn39  1  0.50013380  0.16663098  0.83257575  1
  Pb  Pb40  1  0.49971424  0.49756566  0.50193751  1
  Pb  Pb41  1  0.49981418  0.83463731  0.50003915  1
  Pb  Pb42  1  0.83568722  0.49790653  0.16901606  1
  Pb  Pb43  1  0.83109413  0.16395547  0.83540745  1
  Pb  Pb44  1  0.16898471  0.16336742  0.83329586  1
  Pb  Pb45  1  0.83160982  0.83418674  0.16739157  1
  Pb  Pb46  1  0.16371597  0.16987837  0.16647447  1
  Pb  Pb47  1  0.16855242  0.83177793  0.16725649  1
  Pb  Pb48  1  0.16821293  0.50207065  0.83257356  1
  Pb  Pb49  1  0.49808807  0.50250875  0.16422283  1
  Pb  Pb50  1  0.83144170  0.16640889  0.49875541  1
  Pb  Pb51  1  0.50120760  0.16501494  0.16616770  1
  Pb  Pb52  1  0.16907513  0.16655899  0.50007350  1
  Pb  Pb53  1  0.83111599  0.50243184  0.83076331  1
  I  I54  1  0.16792026  -0.00020508  0.16680543  1
  I  I55  1  0.16368132  -0.00354049  0.50463878  1
  I  I56  1  0.16896605  -0.00512014  0.82771567  1
  I  I57  1  0.16938446  0.33750694  0.17443823  1
  I  I58  1  0.16408846  0.33668454  0.49588419  1
  I  I59  1  0.16955400  0.33351644  0.83361666  1
  I  I60  1  0.16732086  0.66417375  0.16842579  1
  I  I61  1  0.16450806  0.66734741  0.50015457  1
  I  I62  1  0.17103510  0.67033891  0.83166551  1
  I  I63  1  0.49946083  -0.00284778  0.16130310  1
  I  I64  1  0.50108104  0.00217841  0.50538830  1
  I  I65  1  0.50004906  -0.00131534  0.83300646  1
  I  I66  1  0.50017086  0.33350625  0.16568922  1
  I  I67  1  0.50090481  0.33007979  0.50541233  1
  I  I68  1  0.49917626  0.33297742  0.82730749  1
  I  I69  1  0.50127569  0.67034530  0.16129884  1
  I  I70  1  0.50025631  0.66661586  0.50066525  1
  I  I71  1  0.49936081  0.66835746  0.83748364  1
  I  I72  1  0.83080707  0.00181741  0.16835031  1
  I  I73  1  0.83544345  -0.00327867  0.50288277  1
  I  I74  1  0.83045458  -0.00433659  0.82666648  1
  I  I75  1  0.82992776  0.33048580  0.16888304  1
  I  I76  1  0.83606846  0.33592689  0.49750972  1
  I  I77  1  0.83119011  0.33339539  0.83309418  1
  I  I78  1  0.83249452  0.66653729  0.16498107  1
  I  I79  1  0.83553244  0.66780036  0.50313167  1
  I  I80  1  0.83008010  0.67075804  0.83327311  1
  I  I81  1  0.16938963  0.16648485  -0.00007582  1
  I  I82  1  0.17061594  0.16146004  0.33339102  1
  I  I83  1  0.16496087  0.17126000  0.66664912  1
  I  I84  1  0.17017844  0.50141828  0.00163823  1
  I  I85  1  0.16440049  0.50666103  0.33510678  1
  I  I86  1  0.16538837  0.50331323  0.66353362  1
  I  I87  1  0.16630945  0.83189837  -0.00274202  1
  I  I88  1  0.16409910  0.83136949  0.33659963  1
  I  I89  1  0.16969826  0.82744752  0.66637302  1
  I  I90  1  0.50127569  0.16617172  -0.00313434  1
  I  I91  1  0.50172716  0.16381452  0.33527647  1
  I  I92  1  0.50089994  0.16311886  0.66787204  1
  I  I93  1  0.49802259  0.49636141  -0.00377459  1
  I  I94  1  0.50144501  0.49979312  0.33349620  1
  I  I95  1  0.49789050  0.50667252  0.66968940  1
  I  I96  1  0.49960040  0.83595131  -0.00261947  1
  I  I97  1  0.50015012  0.83694318  0.33155302  1
  I  I98  1  0.49988999  0.83263259  0.66968414  1
  I  I99  1  0.83046573  0.16493569  0.00271385  1
  I  I100  1  0.82863057  0.16396054  0.33135645  1
  I  I101  1  0.83258861  0.16767772  0.66684342  1
  I  I102  1  0.83395742  0.50002893  -0.00023391  1
  I  I103  1  0.83269252  0.50699213  0.33704545  1
  I  I104  1  0.83965187  0.50053313  0.66290262  1
  I  I105  1  0.83373238  0.83608398  -0.00273970  1
  I  I106  1  0.83572028  0.83163731  0.33672598  1
  I  I107  1  0.83050744  0.83051354  0.66651431  1
  I  I108  1  -0.00356002  0.16193629  0.16974254  1
  I  I109  1  -0.00008551  0.16639802  0.49766837  1
  I  I110  1  -0.00030764  0.16634300  0.83470708  1
  I  I111  1  0.00335531  0.50237146  0.16754257  1
  I  I112  1  0.00045591  0.50487957  0.49565189  1
  I  I113  1  -0.00007081  0.50162033  0.83593817  1
  I  I114  1  0.00007298  0.83417108  0.16322984  1
  I  I115  1  -0.00000953  0.83010066  0.50726931  1
  I  I116  1  -0.00001957  0.83232050  0.82852686  1
  I  I117  1  0.33336673  0.16606449  0.16681769  1
  I  I118  1  0.33694082  0.16504155  0.50385672  1
  I  I119  1  0.33757622  0.16454247  0.83049593  1
  I  I120  1  0.33053671  0.50080636  0.17468749  1
  I  I121  1  0.33042229  0.50458416  0.49822889  1
  I  I122  1  0.33629797  0.50327663  0.83103838  1
  I  I123  1  0.33639172  0.83464728  0.16151414  1
  I  I124  1  0.33070727  0.82981989  0.50328986  1
  I  I125  1  0.33408856  0.83312993  0.83289779  1
  I  I126  1  0.66867625  0.16554666  0.16741505  1
  I  I127  1  0.66376365  0.16495420  0.50408764  1
  I  I128  1  0.66288763  0.16315394  0.82935883  1
  I  I129  1  0.66673582  0.49952318  0.16752722  1
  I  I130  1  0.66906018  0.50461105  0.50247574  1
  I  I131  1  0.66312974  0.50259221  0.83191714  1
  I  I132  1  0.66372994  0.83480210  0.16159198  1
  I  I133  1  0.66913524  0.83105385  0.50289772  1
  I  I134  1  0.66588146  0.83390805  0.83274899  1
