# generated using pymatgen
data_Cs27Sn13Pb14I81
_symmetry_space_group_name_H-M   'P 1'
_cell_length_a   18.97906416
_cell_length_b   18.96986646
_cell_length_c   18.98200900
_cell_angle_alpha   89.99997346
_cell_angle_beta   89.99935895
_cell_angle_gamma   90.00101553
_symmetry_Int_Tables_number   1
_chemical_formula_structural   Cs27Sn13Pb14I81
_chemical_formula_sum   'Cs27 Sn13 Pb14 I81'
_cell_volume   6834.09863469
_cell_formula_units_Z   1
loop_
 _symmetry_equiv_pos_site_id
 _symmetry_equiv_pos_as_xyz
  1  'x, y, z'
loop_
 _atom_site_type_symbol
 _atom_site_label
 _atom_site_symmetry_multiplicity
 _atom_site_fract_x
 _atom_site_fract_y
 _atom_site_fract_z
 _atom_site_occupancy
  Cs  Cs0  1  -0.00148965  0.00048220  0.00045190  1
  Cs  Cs1  1  0.00019166  0.00117087  0.33291142  1
  Cs  Cs2  1  0.00210410  0.00053667  0.66628589  1
  Cs  Cs3  1  -0.00114113  0.33187925  -0.00346464  1
  Cs  Cs4  1  0.00091307  0.33119052  0.33629425  1
  Cs  Cs5  1  -0.00108140  0.33496811  0.66483450  1
  Cs  Cs6  1  0.00662787  0.66606436  0.00172742  1
  Cs  Cs7  1  -0.00308103  0.66607592  0.33000930  1
  Cs  Cs8  1  -0.00164412  0.66319880  0.67060693  1
  Cs  Cs9  1  0.33366568  -0.00010177  -0.00138229  1
  Cs  Cs10  1  0.33152951  -0.00067123  0.33737572  1
  Cs  Cs11  1  0.33189827  -0.00058862  0.66355922  1
  Cs  Cs12  1  0.34064226  0.34094319  0.00048135  1
  Cs  Cs13  1  0.33351454  0.33342614  0.33369486  1
  Cs  Cs14  1  0.33354305  0.33165045  0.66494286  1
  Cs  Cs15  1  0.32750294  0.65908055  0.00120916  1
  Cs  Cs16  1  0.33252287  0.66729519  0.33253804  1
  Cs  Cs17  1  0.33183166  0.66961131  0.66673921  1
  Cs  Cs18  1  0.66713843  0.00124422  0.00011271  1
  Cs  Cs19  1  0.66750300  -0.00160425  0.33169467  1
  Cs  Cs20  1  0.66539693  -0.00213140  0.66808271  1
  Cs  Cs21  1  0.65859001  0.32822040  -0.00521525  1
  Cs  Cs22  1  0.66544896  0.33399855  0.33252820  1
  Cs  Cs23  1  0.66744609  0.33643928  0.67032507  1
  Cs  Cs24  1  0.66531478  0.66929215  0.00198305  1
  Cs  Cs25  1  0.66924380  0.66847858  0.33290244  1
  Cs  Cs26  1  0.66856073  0.66709781  0.66680710  1
  Sn  Sn27  1  0.16746043  0.49965462  0.49973964  1
  Sn  Sn28  1  0.16663532  0.16734638  0.49994372  1
  Sn  Sn29  1  0.50045252  0.16736565  0.49986577  1
  Sn  Sn30  1  0.83286778  0.49951981  0.16613166  1
  Sn  Sn31  1  0.83355574  0.83402304  0.50017434  1
  Sn  Sn32  1  0.83291370  0.16594939  0.49997732  1
  Sn  Sn33  1  0.16696355  0.16684879  0.83351304  1
  Sn  Sn34  1  0.50016969  0.83324851  0.83464378  1
  Sn  Sn35  1  0.50007097  0.83343590  0.16570441  1
  Sn  Sn36  1  0.83275226  0.83262810  0.16629240  1
  Sn  Sn37  1  0.16698597  0.16688860  0.16634472  1
  Sn  Sn38  1  0.49935543  0.49960494  0.49988291  1
  Sn  Sn39  1  0.83293381  0.83344670  0.83368153  1
  Pb  Pb40  1  0.49783283  0.16441973  0.16880835  1
  Pb  Pb41  1  0.83312372  0.50245690  0.83696979  1
  Pb  Pb42  1  0.50194441  0.83323114  0.49986657  1
  Pb  Pb43  1  0.49791943  0.16448381  0.83091400  1
  Pb  Pb44  1  0.83480262  0.16462292  0.83081877  1
  Pb  Pb45  1  0.50006240  0.50293147  0.83066467  1
  Pb  Pb46  1  0.16663148  0.83515274  0.16670444  1
  Pb  Pb47  1  0.83441321  0.16664421  0.16815862  1
  Pb  Pb48  1  0.16454538  0.49722671  0.16890196  1
  Pb  Pb49  1  0.16367622  0.83284991  0.49996238  1
  Pb  Pb50  1  0.50206514  0.50225059  0.16890863  1
  Pb  Pb51  1  0.16669089  0.49705190  0.83074029  1
  Pb  Pb52  1  0.16675445  0.83501084  0.83343068  1
  Pb  Pb53  1  0.83322471  0.49981041  0.49881441  1
  I  I54  1  0.16410330  0.00323581  0.17202052  1
  I  I55  1  0.16899391  0.00346179  0.50010505  1
  I  I56  1  0.16607749  0.00310650  0.82797890  1
  I  I57  1  0.16389289  0.32935750  0.16746778  1
  I  I58  1  0.16455139  0.33143919  0.49993559  1
  I  I59  1  0.16548792  0.32890601  0.83372551  1
  I  I60  1  0.16751667  0.66638463  0.16885789  1
  I  I61  1  0.17097444  0.66364933  0.49943641  1
  I  I62  1  0.16614696  0.66651847  0.83102769  1
  I  I63  1  0.50740233  -0.00355442  0.16610158  1
  I  I64  1  0.49683433  0.00250035  0.50008079  1
  I  I65  1  0.50427032  -0.00342289  0.83405879  1
  I  I66  1  0.50122244  0.33330578  0.16671621  1
  I  I67  1  0.50048253  0.33231457  0.49910693  1
  I  I68  1  0.49881603  0.33316809  0.83412306  1
  I  I69  1  0.50205360  0.67049440  0.16650503  1
  I  I70  1  0.49671747  0.66443936  0.49987950  1
  I  I71  1  0.50446091  0.67110054  0.83375911  1
  I  I72  1  0.83152511  -0.00326160  0.16649699  1
  I  I73  1  0.83381319  0.00009117  0.49772971  1
  I  I74  1  0.83037601  -0.00378727  0.83750582  1
  I  I75  1  0.83773221  0.33536970  0.17303942  1
  I  I76  1  0.83499949  0.33057591  0.49681625  1
  I  I77  1  0.83552445  0.33311531  0.83259633  1
  I  I78  1  0.83031739  0.66884240  0.17122587  1
  I  I79  1  0.83259534  0.66938198  0.50074609  1
  I  I80  1  0.83048529  0.67126840  0.82514492  1
  I  I81  1  0.16363417  0.16147999  0.00008774  1
  I  I82  1  0.16573199  0.16928117  0.33518905  1
  I  I83  1  0.16627445  0.16899368  0.66482209  1
  I  I84  1  0.16501514  0.49886595  0.00023234  1
  I  I85  1  0.16932683  0.49363272  0.33689059  1
  I  I86  1  0.16796251  0.49494616  0.66240498  1
  I  I87  1  0.16230868  0.83742315  0.00009002  1
  I  I88  1  0.16710198  0.83718250  0.33352928  1
  I  I89  1  0.16728967  0.83647233  0.66645190  1
  I  I90  1  0.49782694  0.16656621  -0.00004118  1
  I  I91  1  0.49772319  0.16678253  0.33729756  1
  I  I92  1  0.49787513  0.16676210  0.66248178  1
  I  I93  1  0.50111202  0.49919144  0.00021018  1
  I  I94  1  0.49666599  0.49808581  0.33689172  1
  I  I95  1  0.49751008  0.49750405  0.66240341  1
  I  I96  1  0.50937962  0.83564310  0.00028732  1
  I  I97  1  0.50503460  0.83380900  0.33139034  1
  I  I98  1  0.50451905  0.83379066  0.66842583  1
  I  I99  1  0.83780364  0.16549820  -0.00009842  1
  I  I100  1  0.83661690  0.16099792  0.33685550  1
  I  I101  1  0.83596490  0.16204976  0.66220751  1
  I  I102  1  0.83521691  0.50556890  0.00468725  1
  I  I103  1  0.83363883  0.50709585  0.33141205  1
  I  I104  1  0.83429997  0.50127899  0.66658084  1
  I  I105  1  0.82921925  0.82933821  0.00052526  1
  I  I106  1  0.82979169  0.83356496  0.33315998  1
  I  I107  1  0.82971761  0.83879037  0.66630753  1
  I  I108  1  0.00260950  0.16409523  0.17114985  1
  I  I109  1  0.00070572  0.16610072  0.49963358  1
  I  I110  1  0.00294973  0.16359599  0.83011657  1
  I  I111  1  -0.00302913  0.50890972  0.17069388  1
  I  I112  1  0.00210223  0.49595990  0.49834533  1
  I  I113  1  -0.00008405  0.50254229  0.82999570  1
  I  I114  1  -0.00348715  0.83108150  0.16721994  1
  I  I115  1  -0.00457147  0.83788219  0.49915682  1
  I  I116  1  -0.00323553  0.83527168  0.83293726  1
  I  I117  1  0.32982212  0.16397973  0.17075523  1
  I  I118  1  0.33261566  0.17047453  0.50005042  1
  I  I119  1  0.33003585  0.16250501  0.82928847  1
  I  I120  1  0.33335449  0.50147840  0.16685820  1
  I  I121  1  0.33309905  0.49163386  0.49946937  1
  I  I122  1  0.33333010  0.50355836  0.83544623  1
  I  I123  1  0.33627422  0.83629291  0.16354865  1
  I  I124  1  0.33350563  0.83583604  0.50013390  1
  I  I125  1  0.33633063  0.83573731  0.83613203  1
  I  I126  1  0.66651993  0.16732083  0.17016862  1
  I  I127  1  0.66685533  0.16559299  0.49864856  1
  I  I128  1  0.66647936  0.16692317  0.83134707  1
  I  I129  1  0.66980864  0.50270371  0.17213250  1
  I  I130  1  0.66444798  0.49734993  0.49810780  1
  I  I131  1  0.66668318  0.49707840  0.82864218  1
  I  I132  1  0.66796476  0.83075676  0.16748710  1
  I  I133  1  0.66993972  0.83690259  0.49931288  1
  I  I134  1  0.66754144  0.83448860  0.83275704  1
