# generated using pymatgen
data_Cs27Sn14Pb13I81
_symmetry_space_group_name_H-M   'P 1'
_cell_length_a   18.98050999
_cell_length_b   18.98023619
_cell_length_c   18.96939297
_cell_angle_alpha   90.00071309
_cell_angle_beta   90.00094022
_cell_angle_gamma   90.00085767
_symmetry_Int_Tables_number   1
_chemical_formula_structural   Cs27Sn14Pb13I81
_chemical_formula_sum   'Cs27 Sn14 Pb13 I81'
_cell_volume   6833.81036474
_cell_formula_units_Z   1
loop_
 _symmetry_equiv_pos_site_id
 _symmetry_equiv_pos_as_xyz
  1  'x, y, z'
loop_
 _atom_site_type_symbol
 _atom_site_label
 _atom_site_symmetry_multiplicity
 _atom_site_fract_x
 _atom_site_fract_y
 _atom_site_fract_z
 _atom_site_occupancy
  Cs  Cs0  1  0.00279211  -0.00061165  0.00235648  1
  Cs  Cs1  1  0.00233218  0.00031112  0.33305132  1
  Cs  Cs2  1  -0.00194329  -0.00113848  0.66596460  1
  Cs  Cs3  1  -0.00405865  0.33257021  0.00051237  1
  Cs  Cs4  1  -0.00028335  0.33165418  0.33290444  1
  Cs  Cs5  1  -0.00186373  0.33450984  0.66671463  1
  Cs  Cs6  1  0.00177779  0.66935137  0.00106057  1
  Cs  Cs7  1  0.00301633  0.67013503  0.33309469  1
  Cs  Cs8  1  -0.00355913  0.66537931  0.66978620  1
  Cs  Cs9  1  0.33329564  0.00047317  -0.00165198  1
  Cs  Cs10  1  0.33332080  -0.00079119  0.33319221  1
  Cs  Cs11  1  0.33516750  0.00264922  0.66837322  1
  Cs  Cs12  1  0.33461005  0.33192534  -0.00743216  1
  Cs  Cs13  1  0.33290580  0.33213796  0.33548477  1
  Cs  Cs14  1  0.33285001  0.33920468  0.67179122  1
  Cs  Cs15  1  0.33448498  0.66655167  -0.00338369  1
  Cs  Cs16  1  0.33267138  0.66807221  0.33312178  1
  Cs  Cs17  1  0.33243546  0.65625464  0.67157191  1
  Cs  Cs18  1  0.66333126  -0.00042109  0.00053933  1
  Cs  Cs19  1  0.66361435  0.00029028  0.33476312  1
  Cs  Cs20  1  0.66720681  -0.00116030  0.66561208  1
  Cs  Cs21  1  0.67056574  0.33719657  0.00123113  1
  Cs  Cs22  1  0.66683240  0.33378587  0.33185906  1
  Cs  Cs23  1  0.66958498  0.33254208  0.66626421  1
  Cs  Cs24  1  0.66343477  0.66490199  0.00056181  1
  Cs  Cs25  1  0.66334307  0.66748470  0.33217545  1
  Cs  Cs26  1  0.67111056  0.66842955  0.66948459  1
  Sn  Sn27  1  0.83361565  0.49927548  0.83285668  1
  Sn  Sn28  1  0.83300101  0.83358474  0.16694692  1
  Sn  Sn29  1  0.83342959  0.16732525  0.50048019  1
  Sn  Sn30  1  0.83346078  0.16662206  0.83269076  1
  Sn  Sn31  1  0.49836206  0.83378696  0.49972193  1
  Sn  Sn32  1  0.16803990  0.83396819  0.50006292  1
  Sn  Sn33  1  0.16705554  0.49944194  0.16696623  1
  Sn  Sn34  1  0.49900980  0.16625624  0.16753755  1
  Sn  Sn35  1  0.49942682  0.16625725  0.49933694  1
  Sn  Sn36  1  0.16785650  0.16696042  0.16741126  1
  Sn  Sn37  1  0.16715068  0.16609819  0.49956375  1
  Sn  Sn38  1  0.49952548  0.83436268  0.16770841  1
  Sn  Sn39  1  0.83337123  0.49955321  0.49970802  1
  Sn  Sn40  1  0.16730225  0.83345883  0.16749531  1
  Pb  Pb41  1  0.83332455  0.83378220  0.83632260  1
  Pb  Pb42  1  0.50235160  0.50009744  0.49982191  1
  Pb  Pb43  1  0.16396156  0.49980964  0.83628818  1
  Pb  Pb44  1  0.50259161  0.16658849  0.83318209  1
  Pb  Pb45  1  0.83512937  0.50249798  0.16715208  1
  Pb  Pb46  1  0.50307675  0.49980977  0.83327818  1
  Pb  Pb47  1  0.83336881  0.83375194  0.49820488  1
  Pb  Pb48  1  0.49971393  0.83356195  0.83246511  1
  Pb  Pb49  1  0.49709390  0.49952409  0.16696373  1
  Pb  Pb50  1  0.16689579  0.83363203  0.83213796  1
  Pb  Pb51  1  0.16428400  0.16643508  0.83285388  1
  Pb  Pb52  1  0.83306039  0.16490159  0.16727944  1
  Pb  Pb53  1  0.16463391  0.50004924  0.49845382  1
  I  I54  1  0.16575133  -0.00009416  0.17021419  1
  I  I55  1  0.16343739  0.00074897  0.49171304  1
  I  I56  1  0.16199810  0.00019991  0.83892436  1
  I  I57  1  0.16897189  0.33162982  0.17140868  1
  I  I58  1  0.16775231  0.32996347  0.49478741  1
  I  I59  1  0.16772874  0.33310246  0.83438923  1
  I  I60  1  0.16418846  0.66841885  0.17037579  1
  I  I61  1  0.16884216  0.66976201  0.49414445  1
  I  I62  1  0.16279108  0.66662664  0.83352695  1
  I  I63  1  0.49704298  -0.00020766  0.17023682  1
  I  I64  1  0.50257629  0.00079396  0.49542738  1
  I  I65  1  0.50473656  0.00022944  0.83452648  1
  I  I66  1  0.49726052  0.32957722  0.17142925  1
  I  I67  1  0.49838078  0.32952412  0.49515715  1
  I  I68  1  0.49813109  0.33288790  0.83440144  1
  I  I69  1  0.50088217  0.67015871  0.17067368  1
  I  I70  1  0.49728227  0.67026965  0.49398922  1
  I  I71  1  0.50321090  0.66679927  0.83448014  1
  I  I72  1  0.83801014  -0.00283461  0.16700672  1
  I  I73  1  0.83350809  0.00310520  0.50302374  1
  I  I74  1  0.83315897  0.00299417  0.82813096  1
  I  I75  1  0.83390286  0.33318010  0.16568327  1
  I  I76  1  0.83375907  0.33167275  0.50335376  1
  I  I77  1  0.83375846  0.33287689  0.82989631  1
  I  I78  1  0.83358428  0.67032499  0.16705370  1
  I  I79  1  0.83399693  0.66477006  0.50300404  1
  I  I80  1  0.83384339  0.66393675  0.82859708  1
  I  I81  1  0.16923553  0.16514536  0.00369900  1
  I  I82  1  0.16372007  0.16564968  0.33323967  1
  I  I83  1  0.16854866  0.16138383  0.66262124  1
  I  I84  1  0.16428634  0.50146100  0.00450841  1
  I  I85  1  0.16231051  0.50080012  0.33048601  1
  I  I86  1  0.16727378  0.50057933  0.66656132  1
  I  I87  1  0.16585090  0.83388165  0.00397826  1
  I  I88  1  0.16609254  0.83402700  0.33227487  1
  I  I89  1  0.16952679  0.83958717  0.66212645  1
  I  I90  1  0.49621096  0.16173527  0.00350722  1
  I  I91  1  0.50224843  0.16248066  0.33376926  1
  I  I92  1  0.49847241  0.16176416  0.66276991  1
  I  I93  1  0.50252174  0.50058342  0.00046682  1
  I  I94  1  0.50600480  0.50000493  0.33327745  1
  I  I95  1  0.49635129  0.50057273  0.66629720  1
  I  I96  1  0.50008891  0.83730178  0.00386543  1
  I  I97  1  0.50000560  0.83759232  0.33259849  1
  I  I98  1  0.49748960  0.83918655  0.66235585  1
  I  I99  1  0.83362618  0.17001753  -0.00165114  1
  I  I100  1  0.83370827  0.17027573  0.33645288  1
  I  I101  1  0.83347983  0.17013283  0.66484783  1
  I  I102  1  0.83528897  0.49562040  -0.00220216  1
  I  I103  1  0.83431640  0.49475459  0.33593973  1
  I  I104  1  0.83409940  0.49637578  0.66606436  1
  I  I105  1  0.83453048  0.83341848  0.00448720  1
  I  I106  1  0.83453634  0.83314245  0.33028219  1
  I  I107  1  0.83338050  0.83229841  0.66641913  1
  I  I108  1  0.00271840  0.16506099  0.16899312  1
  I  I109  1  0.00037416  0.16629015  0.49906646  1
  I  I110  1  -0.00368928  0.17075997  0.83045385  1
  I  I111  1  0.00292280  0.49951456  0.16687524  1
  I  I112  1  -0.00332761  0.49617336  0.50253096  1
  I  I113  1  -0.00373043  0.49563673  0.82873982  1
  I  I114  1  0.00160662  0.83332943  0.16973478  1
  I  I115  1  0.00247445  0.83636604  0.49413816  1
  I  I116  1  -0.00019910  0.83306805  0.83472475  1
  I  I117  1  0.33273026  0.16243649  0.17410178  1
  I  I118  1  0.33310860  0.16083511  0.49319863  1
  I  I119  1  0.33338367  0.16620541  0.83217508  1
  I  I120  1  0.32926399  0.50503174  0.16910734  1
  I  I121  1  0.33311349  0.49818009  0.49831692  1
  I  I122  1  0.33302497  0.50124632  0.83412503  1
  I  I123  1  0.33296705  0.83370939  0.17098180  1
  I  I124  1  0.33302236  0.84201121  0.49002549  1
  I  I125  1  0.33332327  0.83324539  0.83897569  1
  I  I126  1  0.66413080  0.16107137  0.16917149  1
  I  I127  1  0.66643956  0.16606614  0.49965123  1
  I  I128  1  0.67053579  0.17085802  0.83018280  1
  I  I129  1  0.66678945  0.50095020  0.16477394  1
  I  I130  1  0.67058907  0.49635249  0.50314207  1
  I  I131  1  0.67124048  0.49573307  0.83110415  1
  I  I132  1  0.66529586  0.83798610  0.17029858  1
  I  I133  1  0.66430380  0.83627072  0.49464914  1
  I  I134  1  0.66682582  0.83234034  0.83426950  1
