# generated using pymatgen
data_Cs27Sn13Pb14I81
_symmetry_space_group_name_H-M   'P 1'
_cell_length_a   19.02500548
_cell_length_b   19.04340627
_cell_length_c   19.03681023
_cell_angle_alpha   89.99828502
_cell_angle_beta   89.99940137
_cell_angle_gamma   90.00270712
_symmetry_Int_Tables_number   1
_chemical_formula_structural   Cs27Sn13Pb14I81
_chemical_formula_sum   'Cs27 Sn13 Pb14 I81'
_cell_volume   6897.05363144
_cell_formula_units_Z   1
loop_
 _symmetry_equiv_pos_site_id
 _symmetry_equiv_pos_as_xyz
  1  'x, y, z'
loop_
 _atom_site_type_symbol
 _atom_site_label
 _atom_site_symmetry_multiplicity
 _atom_site_fract_x
 _atom_site_fract_y
 _atom_site_fract_z
 _atom_site_occupancy
  Cs  Cs0  1  -0.00166915  0.00040658  -0.00024762  1
  Cs  Cs1  1  -0.00180723  0.00196623  0.33261436  1
  Cs  Cs2  1  -0.00167510  0.00321510  0.66646830  1
  Cs  Cs3  1  0.00013434  0.33448535  0.00463433  1
  Cs  Cs4  1  0.00144416  0.33456090  0.32545015  1
  Cs  Cs5  1  0.00045793  0.32841722  0.66673030  1
  Cs  Cs6  1  0.00458492  0.66299640  0.00262110  1
  Cs  Cs7  1  0.00284908  0.66134743  0.33124276  1
  Cs  Cs8  1  0.00412210  0.66800802  0.66641277  1
  Cs  Cs9  1  0.33322594  0.00025252  0.01036903  1
  Cs  Cs10  1  0.34171984  -0.00874102  0.31888025  1
  Cs  Cs11  1  0.32774276  -0.00172630  0.66652031  1
  Cs  Cs12  1  0.33490795  0.33076490  0.00108154  1
  Cs  Cs13  1  0.33498233  0.33170976  0.33447123  1
  Cs  Cs14  1  0.33150540  0.33622814  0.66478885  1
  Cs  Cs15  1  0.32740547  0.66794437  -0.00019299  1
  Cs  Cs16  1  0.32962566  0.67854408  0.34941535  1
  Cs  Cs17  1  0.32127301  0.66557452  0.65624743  1
  Cs  Cs18  1  0.66825008  -0.00162199  -0.00307876  1
  Cs  Cs19  1  0.66068424  0.00086406  0.33500144  1
  Cs  Cs20  1  0.66893887  0.00143493  0.66917868  1
  Cs  Cs21  1  0.66728400  0.33869387  -0.00263035  1
  Cs  Cs22  1  0.66310709  0.33315738  0.33899832  1
  Cs  Cs23  1  0.66683054  0.33362811  0.66713035  1
  Cs  Cs24  1  0.66771844  0.66303586  -0.00132603  1
  Cs  Cs25  1  0.66666181  0.66648184  0.33277395  1
  Cs  Cs26  1  0.66764289  0.66588820  0.66880896  1
  Sn  Sn27  1  0.83342645  0.50053817  0.50151055  1
  Sn  Sn28  1  0.16700337  0.16613450  0.49990732  1
  Sn  Sn29  1  0.49966640  0.50068918  0.16602215  1
  Sn  Sn30  1  0.16691477  0.16660941  0.83280119  1
  Sn  Sn31  1  0.49988713  0.16646217  0.83298716  1
  Sn  Sn32  1  0.83319475  0.50025548  0.83218020  1
  Sn  Sn33  1  0.83219364  0.16600716  0.16560533  1
  Sn  Sn34  1  0.83309580  0.16702173  0.83427902  1
  Sn  Sn35  1  0.83283817  0.83392255  0.16648918  1
  Sn  Sn36  1  0.83315106  0.83248967  0.50000519  1
  Sn  Sn37  1  0.50034516  0.50084826  0.83401476  1
  Sn  Sn38  1  0.50045320  0.83261940  0.83295248  1
  Sn  Sn39  1  0.83282085  0.83268910  0.83351514  1
  Pb  Pb40  1  0.50212734  0.49999437  0.50095735  1
  Pb  Pb41  1  0.83430047  0.16678839  0.49986591  1
  Pb  Pb42  1  0.16378634  0.83314221  0.16658893  1
  Pb  Pb43  1  0.16461482  0.16671604  0.16652192  1
  Pb  Pb44  1  0.50301000  0.83037165  0.16351634  1
  Pb  Pb45  1  0.50294571  0.83368567  0.50353159  1
  Pb  Pb46  1  0.83202209  0.50010424  0.16644739  1
  Pb  Pb47  1  0.50328040  0.16871089  0.16392809  1
  Pb  Pb48  1  0.17129291  0.50010389  0.16684239  1
  Pb  Pb49  1  0.16651917  0.83606493  0.83347962  1
  Pb  Pb50  1  0.16328469  0.83671860  0.49997209  1
  Pb  Pb51  1  0.16325302  0.49720789  0.49998386  1
  Pb  Pb52  1  0.16682615  0.49741858  0.83362702  1
  Pb  Pb53  1  0.49701064  0.16630368  0.50271399  1
  I  I54  1  0.17070655  0.00030905  0.16643959  1
  I  I55  1  0.16130119  0.00358794  0.50992479  1
  I  I56  1  0.16373911  0.00377249  0.82792530  1
  I  I57  1  0.15975330  0.33305127  0.16649192  1
  I  I58  1  0.16321798  0.33003343  0.50768512  1
  I  I59  1  0.16433564  0.32964717  0.82876872  1
  I  I60  1  0.16032230  0.66648824  0.16509358  1
  I  I61  1  0.16967307  0.66692844  0.49856849  1
  I  I62  1  0.16617646  0.66672746  0.83399161  1
  I  I63  1  0.49670726  -0.00028412  0.16736130  1
  I  I64  1  0.50455532  0.00005039  0.50130211  1
  I  I65  1  0.50606919  0.00023152  0.83014603  1
  I  I66  1  0.50456096  0.33584074  0.15889100  1
  I  I67  1  0.50451329  0.33329466  0.50178852  1
  I  I68  1  0.50443828  0.33337359  0.83752749  1
  I  I69  1  0.50634166  0.66342259  0.15719820  1
  I  I70  1  0.49641953  0.66671359  0.50123318  1
  I  I71  1  0.51422450  0.66641883  0.83931743  1
  I  I72  1  0.83486842  0.00019333  0.16179897  1
  I  I73  1  0.83627262  -0.00231874  0.50359017  1
  I  I74  1  0.83118151  0.00012483  0.83330146  1
  I  I75  1  0.83365342  0.33116986  0.16236787  1
  I  I76  1  0.83439677  0.33552420  0.50443911  1
  I  I77  1  0.83075864  0.33301328  0.83284177  1
  I  I78  1  0.83106969  0.66914566  0.16396813  1
  I  I79  1  0.83161552  0.66677796  0.50442750  1
  I  I80  1  0.82441873  0.66684093  0.83268736  1
  I  I81  1  0.16846186  0.16659105  -0.00326859  1
  I  I82  1  0.15850522  0.16910260  0.33579734  1
  I  I83  1  0.16174757  0.16696711  0.66870796  1
  I  I84  1  0.15740725  0.49725427  -0.00013612  1
  I  I85  1  0.16293250  0.49422378  0.33351295  1
  I  I86  1  0.17242274  0.50178133  0.66691186  1
  I  I87  1  0.16406993  0.83655468  -0.00027498  1
  I  I88  1  0.16652564  0.83651982  0.33356123  1
  I  I89  1  0.16519159  0.83128289  0.66683004  1
  I  I90  1  0.49381702  0.16353130  -0.00450950  1
  I  I91  1  0.50031706  0.17043326  0.33293486  1
  I  I92  1  0.51007174  0.17058010  0.67176959  1
  I  I93  1  0.51018094  0.49825525  -0.00281585  1
  I  I94  1  0.50516243  0.49677942  0.33094779  1
  I  I95  1  0.50351006  0.49795088  0.67077882  1
  I  I96  1  0.50792480  0.83821097  -0.00406314  1
  I  I97  1  0.50009444  0.83171117  0.33321212  1
  I  I98  1  0.50841728  0.83133788  0.67151413  1
  I  I99  1  0.83597042  0.16352336  -0.00237356  1
  I  I100  1  0.83797925  0.16412589  0.33087114  1
  I  I101  1  0.83117078  0.16443725  0.67022839  1
  I  I102  1  0.83119618  0.50100394  -0.00330713  1
  I  I103  1  0.83197875  0.50263867  0.33546169  1
  I  I104  1  0.82666127  0.50169096  0.66866585  1
  I  I105  1  0.82855266  0.83574590  -0.00149447  1
  I  I106  1  0.83640766  0.83389507  0.33330688  1
  I  I107  1  0.82903856  0.83406002  0.66820816  1
  I  I108  1  -0.00360364  0.16413455  0.15946456  1
  I  I109  1  0.00149328  0.16615247  0.50944485  1
  I  I110  1  -0.00177356  0.16608584  0.83248536  1
  I  I111  1  -0.00028433  0.49973774  0.16770467  1
  I  I112  1  -0.00471924  0.50611489  0.50739469  1
  I  I113  1  -0.00350105  0.50108450  0.82869330  1
  I  I114  1  -0.00530570  0.83729912  0.16169524  1
  I  I115  1  -0.00462832  0.82848447  0.50527729  1
  I  I116  1  -0.00405706  0.83337526  0.83297062  1
  I  I117  1  0.33366963  0.16919105  0.16648038  1
  I  I118  1  0.32924510  0.17013564  0.50956497  1
  I  I119  1  0.33386178  0.16831699  0.82539949  1
  I  I120  1  0.33881240  0.49628180  0.15279183  1
  I  I121  1  0.33315829  0.49872075  0.49982117  1
  I  I122  1  0.33685835  0.49936103  0.84010423  1
  I  I123  1  0.33410276  0.83309109  0.16502316  1
  I  I124  1  0.33314430  0.83246592  0.50173657  1
  I  I125  1  0.33651161  0.83275009  0.83412640  1
  I  I126  1  0.67081432  0.16135216  0.16128367  1
  I  I127  1  0.66679204  0.16712585  0.49898835  1
  I  I128  1  0.66771087  0.16660220  0.83906324  1
  I  I129  1  0.66488502  0.49929954  0.16245195  1
  I  I130  1  0.67014057  0.50165853  0.50254659  1
  I  I131  1  0.66792392  0.49450081  0.83305348  1
  I  I132  1  0.67066512  0.83911326  0.16957363  1
  I  I133  1  0.67113835  0.83116293  0.49724436  1
  I  I134  1  0.66872685  0.83899983  0.83295160  1
