# generated using pymatgen
data_Cs27Sn13Pb14I81
_symmetry_space_group_name_H-M   'P 1'
_cell_length_a   18.97586738
_cell_length_b   18.97595296
_cell_length_c   18.97697133
_cell_angle_alpha   89.99903145
_cell_angle_beta   90.00034406
_cell_angle_gamma   89.99854852
_symmetry_Int_Tables_number   1
_chemical_formula_structural   Cs27Sn13Pb14I81
_chemical_formula_sum   'Cs27 Sn13 Pb14 I81'
_cell_volume   6833.32588292
_cell_formula_units_Z   1
loop_
 _symmetry_equiv_pos_site_id
 _symmetry_equiv_pos_as_xyz
  1  'x, y, z'
loop_
 _atom_site_type_symbol
 _atom_site_label
 _atom_site_symmetry_multiplicity
 _atom_site_fract_x
 _atom_site_fract_y
 _atom_site_fract_z
 _atom_site_occupancy
  Cs  Cs0  1  -0.00078215  0.00800239  -0.00168778  1
  Cs  Cs1  1  0.00121839  -0.00171471  0.33236699  1
  Cs  Cs2  1  -0.00037843  -0.00013149  0.66925956  1
  Cs  Cs3  1  -0.00605192  0.32460799  0.00100265  1
  Cs  Cs4  1  -0.00094838  0.33648197  0.33563584  1
  Cs  Cs5  1  0.00418892  0.33064485  0.66297907  1
  Cs  Cs6  1  0.00152087  0.66772447  -0.00022657  1
  Cs  Cs7  1  -0.00147299  0.66497161  0.33426410  1
  Cs  Cs8  1  0.00014556  0.66740326  0.66562173  1
  Cs  Cs9  1  0.33265222  -0.00006867  0.00756447  1
  Cs  Cs10  1  0.33368911  -0.00096731  0.32692861  1
  Cs  Cs11  1  0.33521632  -0.00069981  0.66613154  1
  Cs  Cs12  1  0.33342613  0.33670761  -0.00110650  1
  Cs  Cs13  1  0.33195393  0.33401353  0.33419655  1
  Cs  Cs14  1  0.33321472  0.33195786  0.66656625  1
  Cs  Cs15  1  0.33211032  0.66540724  0.00037549  1
  Cs  Cs16  1  0.33305074  0.66718871  0.33103690  1
  Cs  Cs17  1  0.33381044  0.66700534  0.66824497  1
  Cs  Cs18  1  0.66823648  0.00270756  0.00191369  1
  Cs  Cs19  1  0.66477814  -0.00091903  0.33536733  1
  Cs  Cs20  1  0.66539951  -0.00161631  0.66402829  1
  Cs  Cs21  1  0.67381644  0.33506812  0.00114102  1
  Cs  Cs22  1  0.66837820  0.33260788  0.33147578  1
  Cs  Cs23  1  0.66297032  0.33506314  0.66770405  1
  Cs  Cs24  1  0.66863137  0.66388964  -0.00543760  1
  Cs  Cs25  1  0.66763025  0.66782257  0.33400476  1
  Cs  Cs26  1  0.66551647  0.66727492  0.66893384  1
  Sn  Sn27  1  0.16694222  0.50009256  0.16562299  1
  Sn  Sn28  1  0.49958562  0.83339454  0.50032054  1
  Sn  Sn29  1  0.16713696  0.83323416  0.50051954  1
  Sn  Sn30  1  0.83258965  0.16580687  0.50019429  1
  Sn  Sn31  1  0.49969395  0.16549062  0.83309511  1
  Sn  Sn32  1  0.49967956  0.50030954  0.16731142  1
  Sn  Sn33  1  0.16773353  0.83279584  0.83281881  1
  Sn  Sn34  1  0.49983147  0.50023839  0.49900164  1
  Sn  Sn35  1  0.83321151  0.83404808  0.49919156  1
  Sn  Sn36  1  0.50058626  0.16637485  0.50046998  1
  Sn  Sn37  1  0.49893216  0.83448933  0.83302151  1
  Sn  Sn38  1  0.83324893  0.83315564  0.16691255  1
  Sn  Sn39  1  0.16652696  0.50039495  0.83411156  1
  Pb  Pb40  1  0.83305140  0.16391595  0.16983969  1
  Pb  Pb41  1  0.49876624  0.50010194  0.83329509  1
  Pb  Pb42  1  0.83020620  0.16646773  0.83009156  1
  Pb  Pb43  1  0.49996482  0.16949646  0.16677761  1
  Pb  Pb44  1  0.83355972  0.50206993  0.16669547  1
  Pb  Pb45  1  0.16896631  0.50226291  0.50018619  1
  Pb  Pb46  1  0.83747733  0.49984994  0.83303014  1
  Pb  Pb47  1  0.16672087  0.17018298  0.16683036  1
  Pb  Pb48  1  0.16460894  0.83183077  0.16606537  1
  Pb  Pb49  1  0.50175500  0.83125980  0.16600169  1
  Pb  Pb50  1  0.16733101  0.16362901  0.49993755  1
  Pb  Pb51  1  0.83068929  0.50017828  0.50032928  1
  Pb  Pb52  1  0.16928310  0.16601704  0.83323196  1
  Pb  Pb53  1  0.83337888  0.83333584  0.83279011  1
  I  I54  1  0.16544721  -0.00039757  0.16655888  1
  I  I55  1  0.16977996  -0.00476442  0.50604658  1
  I  I56  1  0.16764898  -0.00367187  0.82764216  1
  I  I57  1  0.17149756  0.33855240  0.16165165  1
  I  I58  1  0.16612504  0.33354765  0.49979089  1
  I  I59  1  0.16904491  0.33609376  0.83750244  1
  I  I60  1  0.17088997  0.66400776  0.16582006  1
  I  I61  1  0.16626004  0.67052036  0.50103698  1
  I  I62  1  0.17336473  0.66788896  0.83286308  1
  I  I63  1  0.50148850  -0.00026049  0.16855860  1
  I  I64  1  0.50154620  -0.00102533  0.50527274  1
  I  I65  1  0.49530170  -0.00136475  0.82400637  1
  I  I66  1  0.49583832  0.33748297  0.17079966  1
  I  I67  1  0.50445301  0.33290020  0.50088420  1
  I  I68  1  0.49836959  0.33134259  0.82857583  1
  I  I69  1  0.49688254  0.66356810  0.17129643  1
  I  I70  1  0.49999499  0.66794812  0.50041212  1
  I  I71  1  0.49849420  0.66947988  0.82954415  1
  I  I72  1  0.83287368  -0.00395318  0.16845374  1
  I  I73  1  0.82779019  -0.00146903  0.49632840  1
  I  I74  1  0.83859121  -0.00027912  0.83674171  1
  I  I75  1  0.83378372  0.33326914  0.16729869  1
  I  I76  1  0.82859499  0.33029924  0.50119856  1
  I  I77  1  0.83148033  0.33301773  0.83282431  1
  I  I78  1  0.83279603  0.66978830  0.17512264  1
  I  I79  1  0.83271147  0.67032471  0.49648160  1
  I  I80  1  0.82711479  0.66707869  0.83092205  1
  I  I81  1  0.16861982  0.16155818  -0.00021457  1
  I  I82  1  0.16919011  0.16591541  0.33376025  1
  I  I83  1  0.16427000  0.17283934  0.66650925  1
  I  I84  1  0.17491187  0.50773087  -0.00020329  1
  I  I85  1  0.16937359  0.50185247  0.33128841  1
  I  I86  1  0.16864900  0.50282412  0.66910053  1
  I  I87  1  0.17078077  0.83007028  -0.00310654  1
  I  I88  1  0.16917112  0.83242235  0.33611363  1
  I  I89  1  0.16609495  0.82728885  0.66652155  1
  I  I90  1  0.49731636  0.16211186  -0.00303133  1
  I  I91  1  0.50375652  0.16380656  0.33706630  1
  I  I92  1  0.50353241  0.16780116  0.66521482  1
  I  I93  1  0.49713846  0.50122142  0.00204142  1
  I  I94  1  0.49453079  0.50090899  0.33432520  1
  I  I95  1  0.49928667  0.50039281  0.66397527  1
  I  I96  1  0.49672957  0.83576265  -0.00324974  1
  I  I97  1  0.49804417  0.83528217  0.33657878  1
  I  I98  1  0.50137759  0.83138784  0.66521740  1
  I  I99  1  0.83273289  0.16598768  -0.00001845  1
  I  I100  1  0.82517022  0.16497062  0.33766554  1
  I  I101  1  0.83191389  0.15826913  0.66232195  1
  I  I102  1  0.82655266  0.50340384  0.00010805  1
  I  I103  1  0.83757693  0.49903364  0.33361464  1
  I  I104  1  0.83165574  0.50339387  0.66630271  1
  I  I105  1  0.83258366  0.82986363  0.00219101  1
  I  I106  1  0.83277263  0.83594429  0.33570315  1
  I  I107  1  0.83291686  0.83693003  0.66303763  1
  I  I108  1  -0.00032466  0.16814582  0.16757134  1
  I  I109  1  -0.00274767  0.16236120  0.49861262  1
  I  I110  1  -0.00000439  0.16738924  0.83306496  1
  I  I111  1  0.00310560  0.50274056  0.16253141  1
  I  I112  1  0.00032737  0.49998827  0.49965013  1
  I  I113  1  0.00563396  0.50852300  0.83828549  1
  I  I114  1  -0.00285184  0.82988516  0.17283378  1
  I  I115  1  -0.00012177  0.83680473  0.49993460  1
  I  I116  1  0.00316576  0.82729983  0.82960612  1
  I  I117  1  0.33372128  0.16270693  0.16989087  1
  I  I118  1  0.33721895  0.16723327  0.50436571  1
  I  I119  1  0.33718129  0.16609271  0.82437830  1
  I  I120  1  0.33364705  0.50211466  0.16730060  1
  I  I121  1  0.33722102  0.49957646  0.49906822  1
  I  I122  1  0.33093777  0.50256888  0.83427800  1
  I  I123  1  0.33333487  0.83323664  0.16942722  1
  I  I124  1  0.33441653  0.83237193  0.50496670  1
  I  I125  1  0.33388191  0.83246177  0.82487296  1
  I  I126  1  0.66643846  0.16984094  0.16380391  1
  I  I127  1  0.66524165  0.16155019  0.50327723  1
  I  I128  1  0.66207913  0.16048927  0.83126634  1
  I  I129  1  0.66380400  0.50088888  0.17162975  1
  I  I130  1  0.66213136  0.50419894  0.49504678  1
  I  I131  1  0.66621390  0.50087081  0.83407544  1
  I  I132  1  0.66931091  0.83109185  0.17233879  1
  I  I133  1  0.66553257  0.83367931  0.49973032  1
  I  I134  1  0.66331299  0.83613262  0.82974575  1
