# generated using pymatgen
data_Cs27Sn14Pb13I81
_symmetry_space_group_name_H-M   'P 1'
_cell_length_a   18.95722800
_cell_length_b   18.96974604
_cell_length_c   18.95722793
_cell_angle_alpha   89.99959915
_cell_angle_beta   90.00055206
_cell_angle_gamma   90.00040062
_symmetry_Int_Tables_number   1
_chemical_formula_structural   Cs27Sn14Pb13I81
_chemical_formula_sum   'Cs27 Sn14 Pb13 I81'
_cell_volume   6817.28079078
_cell_formula_units_Z   1
loop_
 _symmetry_equiv_pos_site_id
 _symmetry_equiv_pos_as_xyz
  1  'x, y, z'
loop_
 _atom_site_type_symbol
 _atom_site_label
 _atom_site_symmetry_multiplicity
 _atom_site_fract_x
 _atom_site_fract_y
 _atom_site_fract_z
 _atom_site_occupancy
  Cs  Cs0  1  -0.00055277  -0.00003407  -0.00561106  1
  Cs  Cs1  1  0.00042222  -0.00059206  0.33398398  1
  Cs  Cs2  1  0.00593519  0.00147842  0.67167670  1
  Cs  Cs3  1  -0.00561108  0.33336745  -0.00055288  1
  Cs  Cs4  1  0.00047995  0.33363413  0.33506077  1
  Cs  Cs5  1  0.00019468  0.33255643  0.66530807  1
  Cs  Cs6  1  -0.00075909  0.66666666  -0.00075914  1
  Cs  Cs7  1  0.00007840  0.66663458  0.33274100  1
  Cs  Cs8  1  -0.00124266  0.66621202  0.66882859  1
  Cs  Cs9  1  0.33506092  -0.00030070  0.00047994  1
  Cs  Cs10  1  0.33133015  -0.00124290  0.33340491  1
  Cs  Cs11  1  0.32987640  0.00087119  0.66581658  1
  Cs  Cs12  1  0.33398400  0.33392508  0.00042215  1
  Cs  Cs13  1  0.33340487  0.33457625  0.33133016  1
  Cs  Cs14  1  0.33326044  0.33344229  0.66785463  1
  Cs  Cs15  1  0.33274102  0.66669870  0.00007834  1
  Cs  Cs16  1  0.33465908  0.66666670  0.33465904  1
  Cs  Cs17  1  0.33505853  0.66674346  0.66587595  1
  Cs  Cs18  1  0.66530814  0.00077685  0.00019472  1
  Cs  Cs19  1  0.66785471  -0.00010888  0.33326055  1
  Cs  Cs20  1  0.66600652  0.00156273  0.66627605  1
  Cs  Cs21  1  0.67167662  0.33185490  0.00593517  1
  Cs  Cs22  1  0.66581661  0.33246203  0.32987621  1
  Cs  Cs23  1  0.66627605  0.33177052  0.66600648  1
  Cs  Cs24  1  0.66882868  0.66712159  -0.00124255  1
  Cs  Cs25  1  0.66587591  0.66658974  0.33505866  1
  Cs  Cs26  1  0.66563197  0.66666662  0.66563187  1
  Sn  Sn27  1  0.50031034  0.16666667  0.50031035  1
  Sn  Sn28  1  0.83353808  0.83329615  0.16717986  1
  Sn  Sn29  1  0.83373015  0.50010525  0.49988357  1
  Sn  Sn30  1  0.16717985  0.50003717  0.83353811  1
  Sn  Sn31  1  0.16621089  0.50026329  0.50004698  1
  Sn  Sn32  1  0.16646051  0.83352072  0.16667958  1
  Sn  Sn33  1  0.83286789  0.16625311  0.50000570  1
  Sn  Sn34  1  0.16648784  0.16666666  0.16648788  1
  Sn  Sn35  1  0.83356493  0.83363670  0.49983019  1
  Sn  Sn36  1  0.50000568  0.16708024  0.83286790  1
  Sn  Sn37  1  0.16667958  0.49981259  0.16646046  1
  Sn  Sn38  1  0.49983017  0.49969663  0.83356492  1
  Sn  Sn39  1  0.50004698  0.83307007  0.16621093  1
  Sn  Sn40  1  0.49988361  0.83322806  0.83373009  1
  Pb  Pb41  1  0.16898025  0.83124018  0.83552531  1
  Pb  Pb42  1  0.16433061  0.83103543  0.49825396  1
  Pb  Pb43  1  0.83103583  0.83343400  0.83317833  1
  Pb  Pb44  1  0.16674458  0.16861729  0.49850008  1
  Pb  Pb45  1  0.83091314  0.16666669  0.83091320  1
  Pb  Pb46  1  0.50005323  0.49788299  0.50173389  1
  Pb  Pb47  1  0.16889302  0.16908236  0.83577020  1
  Pb  Pb48  1  0.49825393  0.50229795  0.16433056  1
  Pb  Pb49  1  0.49850011  0.16471604  0.16674453  1
  Pb  Pb50  1  0.83317829  0.49989935  0.83103587  1
  Pb  Pb51  1  0.50173393  0.83545033  0.50005325  1
  Pb  Pb52  1  0.83577021  0.16425094  0.16889301  1
  Pb  Pb53  1  0.83552533  0.50209313  0.16898024  1
  I  I54  1  0.16765302  -0.00102191  0.16844365  1
  I  I55  1  0.16613001  -0.00001652  0.49736610  1
  I  I56  1  0.16782108  0.00002729  0.83466510  1
  I  I57  1  0.16844383  0.33435524  0.16765317  1
  I  I58  1  0.16219520  0.33683518  0.49752104  1
  I  I59  1  0.17257886  0.33722841  0.83475538  1
  I  I60  1  0.16673717  0.66666666  0.16673731  1
  I  I61  1  0.16301279  0.66271367  0.49822348  1
  I  I62  1  0.17194602  0.66302413  0.83434986  1
  I  I63  1  0.49752113  -0.00350183  0.16219514  1
  I  I64  1  0.50456940  0.00326845  0.50410662  1
  I  I65  1  0.50226048  -0.00005663  0.83415002  1
  I  I66  1  0.49736608  0.33334981  0.16613032  1
  I  I67  1  0.50410651  0.33006487  0.50456934  1
  I  I68  1  0.49465915  0.33341752  0.82689043  1
  I  I69  1  0.49822342  0.67061959  0.16301247  1
  I  I70  1  0.50083457  0.66666664  0.50083466  1
  I  I71  1  0.49609198  0.66659273  0.83785864  1
  I  I72  1  0.83475517  -0.00389504  0.17257890  1
  I  I73  1  0.82689060  -0.00008418  0.49465929  1
  I  I74  1  0.83211061  -0.00006140  0.83157114  1
  I  I75  1  0.83466498  0.33330605  0.16782105  1
  I  I76  1  0.83415008  0.33338999  0.50226058  1
  I  I77  1  0.83157157  0.33339468  0.83211061  1
  I  I78  1  0.83434993  0.67030924  0.17194599  1
  I  I79  1  0.83785845  0.66674061  0.49609183  1
  I  I80  1  0.83074355  0.66666669  0.83074378  1
  I  I81  1  0.16921115  0.16683392  0.00378657  1
  I  I82  1  0.16886744  0.16816675  0.33041957  1
  I  I83  1  0.16531261  0.16856874  0.66675222  1
  I  I84  1  0.17312738  0.50120028  0.00037735  1
  I  I85  1  0.16157010  0.50034966  0.33300988  1
  I  I86  1  0.16671357  0.49915938  0.66657377  1
  I  I87  1  0.16218948  0.83118779  0.00411987  1
  I  I88  1  0.17191540  0.83091371  0.32958512  1
  I  I89  1  0.16670143  0.83188137  0.66675452  1
  I  I90  1  0.49610498  0.16742823  -0.00263179  1
  I  I91  1  0.50269342  0.16527550  0.33580357  1
  I  I92  1  0.50378271  0.16507932  0.66699082  1
  I  I93  1  0.49437564  0.49594876  -0.00398282  1
  I  I94  1  0.49869016  0.50007922  0.33332534  1
  I  I95  1  0.49469571  0.50479381  0.66990251  1
  I  I96  1  0.50075053  0.83495539  0.00028091  1
  I  I97  1  0.49801039  0.83512511  0.33060781  1
  I  I98  1  0.50239510  0.83132940  0.66931972  1
  I  I99  1  0.83289523  0.16553861  0.00034711  1
  I  I100  1  0.82670515  0.16928733  0.33710169  1
  I  I101  1  0.83300691  0.16448858  0.66229249  1
  I  I102  1  0.83402108  0.50198052  0.00022746  1
  I  I103  1  0.83806205  0.49834860  0.33724113  1
  I  I104  1  0.83866539  0.50278125  0.66260646  1
  I  I105  1  0.83541294  0.83253366  0.00318301  1
  I  I106  1  0.83162907  0.83283683  0.33315400  1
  I  I107  1  0.83039144  0.83226288  0.66340529  1
  I  I108  1  0.00378658  0.16649956  0.16921155  1
  I  I109  1  -0.00263178  0.16590530  0.49610510  1
  I  I110  1  0.00034712  0.16779446  0.83289494  1
  I  I111  1  0.00411986  0.50214536  0.16218968  1
  I  I112  1  0.00028089  0.49837810  0.50075050  1
  I  I113  1  0.00318303  0.50079983  0.83541284  1
  I  I114  1  0.00037734  0.83213314  0.17312729  1
  I  I115  1  -0.00398281  0.83738425  0.49437620  1
  I  I116  1  0.00022745  0.83135277  0.83402064  1
  I  I117  1  0.33041956  0.16516647  0.16886703  1
  I  I118  1  0.33580356  0.16805759  0.50269359  1
  I  I119  1  0.33710166  0.16404602  0.82670531  1
  I  I120  1  0.32958511  0.50241980  0.17191577  1
  I  I121  1  0.33060786  0.49820809  0.49801036  1
  I  I122  1  0.33315400  0.50049665  0.83162867  1
  I  I123  1  0.33300985  0.83298371  0.16157023  1
  I  I124  1  0.33332527  0.83325446  0.49868988  1
  I  I125  1  0.33724113  0.83498466  0.83806218  1
  I  I126  1  0.66675223  0.16476475  0.16531257  1
  I  I127  1  0.66699083  0.16825405  0.50378250  1
  I  I128  1  0.66229247  0.16884498  0.83300735  1
  I  I129  1  0.66675453  0.50145201  0.16670103  1
  I  I130  1  0.66931968  0.50200399  0.50239514  1
  I  I131  1  0.66340528  0.50107007  0.83039187  1
  I  I132  1  0.66657381  0.83417375  0.16671353  1
  I  I133  1  0.66990253  0.82853959  0.49469543  1
  I  I134  1  0.66260648  0.83055230  0.83866554  1
