# generated using pymatgen
data_Cs27Sn13Pb14I81
_symmetry_space_group_name_H-M   'P 1'
_cell_length_a   18.97675266
_cell_length_b   18.97594474
_cell_length_c   18.97967363
_cell_angle_alpha   90.00152881
_cell_angle_beta   89.99892112
_cell_angle_gamma   90.00081148
_symmetry_Int_Tables_number   1
_chemical_formula_structural   Cs27Sn13Pb14I81
_chemical_formula_sum   'Cs27 Sn13 Pb14 I81'
_cell_volume   6834.61481987
_cell_formula_units_Z   1
loop_
 _symmetry_equiv_pos_site_id
 _symmetry_equiv_pos_as_xyz
  1  'x, y, z'
loop_
 _atom_site_type_symbol
 _atom_site_label
 _atom_site_symmetry_multiplicity
 _atom_site_fract_x
 _atom_site_fract_y
 _atom_site_fract_z
 _atom_site_occupancy
  Cs  Cs0  1  -0.00102384  0.00437131  -0.00046611  1
  Cs  Cs1  1  0.00044856  -0.00088727  0.33280722  1
  Cs  Cs2  1  -0.00245143  0.00132616  0.66717604  1
  Cs  Cs3  1  0.00352308  0.33098761  -0.00941032  1
  Cs  Cs4  1  -0.00185041  0.33566815  0.33538138  1
  Cs  Cs5  1  0.00046785  0.33334979  0.67007535  1
  Cs  Cs6  1  -0.00194939  0.66485327  -0.00222427  1
  Cs  Cs7  1  0.00183617  0.66602641  0.33437731  1
  Cs  Cs8  1  -0.00192263  0.66531668  0.66656686  1
  Cs  Cs9  1  0.33174994  0.00076155  0.00141481  1
  Cs  Cs10  1  0.33152152  0.00149650  0.33115460  1
  Cs  Cs11  1  0.33739894  -0.00274857  0.66536780  1
  Cs  Cs12  1  0.33177215  0.33466711  0.00021723  1
  Cs  Cs13  1  0.33447919  0.33080532  0.33311196  1
  Cs  Cs14  1  0.33201088  0.33451165  0.66650200  1
  Cs  Cs15  1  0.33554013  0.66552976  -0.00260520  1
  Cs  Cs16  1  0.32890834  0.66836966  0.33563411  1
  Cs  Cs17  1  0.33329448  0.66768749  0.66606827  1
  Cs  Cs18  1  0.66882196  -0.00300261  -0.00190627  1
  Cs  Cs19  1  0.66650437  0.00116981  0.33389513  1
  Cs  Cs20  1  0.66552513  -0.00077540  0.66688294  1
  Cs  Cs21  1  0.66472820  0.34403676  0.00283590  1
  Cs  Cs22  1  0.66710395  0.33279887  0.33109987  1
  Cs  Cs23  1  0.66804243  0.33378075  0.66525751  1
  Cs  Cs24  1  0.66615766  0.66423529  0.00091187  1
  Cs  Cs25  1  0.66853725  0.66624893  0.33288258  1
  Cs  Cs26  1  0.66697289  0.66778101  0.66612849  1
  Sn  Sn27  1  0.49903905  0.83434677  0.83347290  1
  Sn  Sn28  1  0.50030983  0.83352343  0.16713215  1
  Sn  Sn29  1  0.16709306  0.83375739  0.83325831  1
  Sn  Sn30  1  0.49928096  0.50075327  0.49967604  1
  Sn  Sn31  1  0.83320662  0.16621436  0.16717618  1
  Sn  Sn32  1  0.83275404  0.83419744  0.16776796  1
  Sn  Sn33  1  0.50031641  0.16626093  0.83363773  1
  Sn  Sn34  1  0.83250074  0.83430706  0.49895560  1
  Sn  Sn35  1  0.16757074  0.49897179  0.49911266  1
  Sn  Sn36  1  0.16607620  0.16709534  0.49983680  1
  Sn  Sn37  1  0.50066745  0.83268763  0.49933211  1
  Sn  Sn38  1  0.16657093  0.49988556  0.16721567  1
  Sn  Sn39  1  0.83416681  0.16567527  0.49910624  1
  Pb  Pb40  1  0.16903321  0.16427672  0.83069658  1
  Pb  Pb41  1  0.16602571  0.83191960  0.16444436  1
  Pb  Pb42  1  0.83054248  0.16662009  0.83339311  1
  Pb  Pb43  1  0.16624362  0.83342966  0.50135579  1
  Pb  Pb44  1  0.16434400  0.16878939  0.16871987  1
  Pb  Pb45  1  0.16693478  0.50221773  0.83259439  1
  Pb  Pb46  1  0.49995209  0.50049215  0.83079338  1
  Pb  Pb47  1  0.50226879  0.16461816  0.16413004  1
  Pb  Pb48  1  0.83343138  0.49996590  0.49997025  1
  Pb  Pb49  1  0.83271729  0.83329099  0.83345536  1
  Pb  Pb50  1  0.50036585  0.16646333  0.50099227  1
  Pb  Pb51  1  0.83314241  0.49984821  0.83335173  1
  Pb  Pb52  1  0.49782275  0.50257798  0.16949795  1
  Pb  Pb53  1  0.83584441  0.50008228  0.16681467  1
  I  I54  1  0.16822831  -0.00001982  0.16727795  1
  I  I55  1  0.16574503  0.00211219  0.50279465  1
  I  I56  1  0.16915402  -0.00342034  0.83220618  1
  I  I57  1  0.16596391  0.33667115  0.16873066  1
  I  I58  1  0.16724098  0.33377145  0.49668980  1
  I  I59  1  0.16763123  0.33313411  0.83477977  1
  I  I60  1  0.16544543  0.66427898  0.17435802  1
  I  I61  1  0.16785977  0.66449890  0.49859007  1
  I  I62  1  0.17325160  0.67001371  0.83079646  1
  I  I63  1  0.49983883  -0.00405986  0.17242601  1
  I  I64  1  0.50070128  -0.00318696  0.50005098  1
  I  I65  1  0.49673405  -0.00232335  0.82938935  1
  I  I66  1  0.50145058  0.33350107  0.16558160  1
  I  I67  1  0.49880880  0.33541054  0.50353774  1
  I  I68  1  0.50181019  0.33083128  0.82998671  1
  I  I69  1  0.50664884  0.67094847  0.16133995  1
  I  I70  1  0.49952126  0.66838115  0.50236105  1
  I  I71  1  0.49650010  0.67043831  0.83436558  1
  I  I72  1  0.83014168  -0.00120598  0.17143953  1
  I  I73  1  0.83328404  -0.00066391  0.49688574  1
  I  I74  1  0.83537760  -0.00021329  0.83237675  1
  I  I75  1  0.83404012  0.33033764  0.17239328  1
  I  I76  1  0.83328594  0.33022558  0.49644496  1
  I  I77  1  0.83176965  0.33266145  0.83250752  1
  I  I78  1  0.83028094  0.67019544  0.17048770  1
  I  I79  1  0.83239637  0.66993611  0.49677847  1
  I  I80  1  0.83265258  0.66740752  0.83242082  1
  I  I81  1  0.16522590  0.16832808  -0.00011884  1
  I  I82  1  0.16717198  0.16614903  0.33701127  1
  I  I83  1  0.16003040  0.17298677  0.66274884  1
  I  I84  1  0.16467806  0.50318780  0.00231925  1
  I  I85  1  0.17012239  0.49885978  0.33508323  1
  I  I86  1  0.17030508  0.49745485  0.66307229  1
  I  I87  1  0.17136867  0.83065978  -0.00315302  1
  I  I88  1  0.16932636  0.83397602  0.33346167  1
  I  I89  1  0.17169243  0.83191758  0.66896091  1
  I  I90  1  0.50075237  0.15968222  -0.00354789  1
  I  I91  1  0.49833770  0.16610951  0.33330030  1
  I  I92  1  0.50117600  0.15985427  0.66860281  1
  I  I93  1  0.49897157  0.50048879  0.00027045  1
  I  I94  1  0.49836910  0.50444159  0.33740173  1
  I  I95  1  0.49398963  0.50578337  0.66274251  1
  I  I96  1  0.50006895  0.83834278  -0.00005795  1
  I  I97  1  0.50488567  0.82836376  0.33413007  1
  I  I98  1  0.49978671  0.83317956  0.66593012  1
  I  I99  1  0.83230625  0.16041638  0.00303828  1
  I  I100  1  0.83627544  0.16158544  0.33453726  1
  I  I101  1  0.83574676  0.16248242  0.66325157  1
  I  I102  1  0.83519396  0.50100479  0.00063238  1
  I  I103  1  0.83196241  0.50066369  0.33354908  1
  I  I104  1  0.83536810  0.50106083  0.66586394  1
  I  I105  1  0.83098705  0.83680655  0.00321931  1
  I  I106  1  0.82592122  0.83688675  0.33405413  1
  I  I107  1  0.83058627  0.83668376  0.66341700  1
  I  I108  1  -0.00361558  0.15848369  0.16813855  1
  I  I109  1  -0.00071685  0.16597174  0.49712791  1
  I  I110  1  -0.00000755  0.16561926  0.83444120  1
  I  I111  1  0.00331600  0.50367099  0.17487796  1
  I  I112  1  0.00291103  0.50026591  0.49673436  1
  I  I113  1  0.00060143  0.50285313  0.83120698  1
  I  I114  1  -0.00321918  0.83499443  0.17075125  1
  I  I115  1  -0.00278845  0.83377889  0.49738705  1
  I  I116  1  0.00214283  0.83114606  0.83203761  1
  I  I117  1  0.33333459  0.16577256  0.16745148  1
  I  I118  1  0.33136096  0.16771580  0.50316934  1
  I  I119  1  0.33664063  0.16319073  0.83066290  1
  I  I120  1  0.33020825  0.50205924  0.16916443  1
  I  I121  1  0.33304641  0.50109139  0.49721505  1
  I  I122  1  0.33344140  0.49942082  0.83436028  1
  I  I123  1  0.33612547  0.83071224  0.16897852  1
  I  I124  1  0.33604571  0.83243899  0.49923378  1
  I  I125  1  0.33526325  0.83606347  0.83185611  1
  I  I126  1  0.67020472  0.16525605  0.17492901  1
  I  I127  1  0.66938254  0.16535706  0.49852165  1
  I  I128  1  0.66316517  0.15739744  0.82911319  1
  I  I129  1  0.66660506  0.49857381  0.16698139  1
  I  I130  1  0.66398456  0.50192221  0.50215571  1
  I  I131  1  0.66600088  0.50199573  0.83181828  1
  I  I132  1  0.66656094  0.83638956  0.16573370  1
  I  I133  1  0.66600669  0.83313652  0.50218035  1
  I  I134  1  0.66326060  0.83707021  0.83202686  1
