# generated using pymatgen
data_Cs27Sn13Pb14I81
_symmetry_space_group_name_H-M   'P 1'
_cell_length_a   19.01166184
_cell_length_b   19.02807824
_cell_length_c   19.02334497
_cell_angle_alpha   89.99925070
_cell_angle_beta   90.00334751
_cell_angle_gamma   89.99977025
_symmetry_Int_Tables_number   1
_chemical_formula_structural   Cs27Sn13Pb14I81
_chemical_formula_sum   'Cs27 Sn13 Pb14 I81'
_cell_volume   6881.79754747
_cell_formula_units_Z   1
loop_
 _symmetry_equiv_pos_site_id
 _symmetry_equiv_pos_as_xyz
  1  'x, y, z'
loop_
 _atom_site_type_symbol
 _atom_site_label
 _atom_site_symmetry_multiplicity
 _atom_site_fract_x
 _atom_site_fract_y
 _atom_site_fract_z
 _atom_site_occupancy
  Cs  Cs0  1  0.00166790  -0.00121548  -0.00277347  1
  Cs  Cs1  1  -0.00076400  -0.00366752  0.33138546  1
  Cs  Cs2  1  -0.00091267  -0.00133919  0.67149869  1
  Cs  Cs3  1  -0.00024221  0.33324167  -0.00033310  1
  Cs  Cs4  1  -0.00523937  0.33813138  0.33281509  1
  Cs  Cs5  1  0.00024809  0.34135397  0.66797633  1
  Cs  Cs6  1  0.00144912  0.67038572  0.00035444  1
  Cs  Cs7  1  0.00118644  0.66862100  0.33697713  1
  Cs  Cs8  1  -0.00184626  0.66648009  0.66377389  1
  Cs  Cs9  1  0.33233420  -0.00271889  -0.00091831  1
  Cs  Cs10  1  0.33422445  0.00013946  0.33444568  1
  Cs  Cs11  1  0.33337413  0.00144686  0.66702997  1
  Cs  Cs12  1  0.33016103  0.33419702  -0.00079843  1
  Cs  Cs13  1  0.33425460  0.33227651  0.33733331  1
  Cs  Cs14  1  0.33196537  0.32997670  0.66405605  1
  Cs  Cs15  1  0.33856829  0.66788126  0.00038399  1
  Cs  Cs16  1  0.33178865  0.66652303  0.33640767  1
  Cs  Cs17  1  0.33493838  0.66610093  0.66347247  1
  Cs  Cs18  1  0.66547204  -0.00143633  -0.00084366  1
  Cs  Cs19  1  0.66750801  0.01316772  0.33606952  1
  Cs  Cs20  1  0.66876941  0.00263123  0.66465749  1
  Cs  Cs21  1  0.66883285  0.34419230  0.00656768  1
  Cs  Cs22  1  0.67181885  0.31883755  0.32205889  1
  Cs  Cs23  1  0.66736627  0.33152360  0.66810627  1
  Cs  Cs24  1  0.65634549  0.65829364  -0.00133375  1
  Cs  Cs25  1  0.66682902  0.66425048  0.33365403  1
  Cs  Cs26  1  0.66617295  0.66335863  0.66927370  1
  Sn  Sn27  1  0.83193679  0.16596324  0.83367523  1
  Sn  Sn28  1  0.50137364  0.16652090  0.83400445  1
  Sn  Sn29  1  0.16744305  0.83464280  0.50027048  1
  Sn  Sn30  1  0.16646802  0.83201394  0.83323385  1
  Sn  Sn31  1  0.16659917  0.16649086  0.16803696  1
  Sn  Sn32  1  0.16683738  0.50040214  0.16596394  1
  Sn  Sn33  1  0.49984399  0.83276664  0.49991973  1
  Sn  Sn34  1  0.83328753  0.83318382  0.16534309  1
  Sn  Sn35  1  0.16580689  0.16544652  0.49905954  1
  Sn  Sn36  1  0.16648023  0.83326926  0.16645794  1
  Sn  Sn37  1  0.16698919  0.50199084  0.83410990  1
  Sn  Sn38  1  0.50059519  0.50002440  0.49950881  1
  Sn  Sn39  1  0.83353689  0.83375326  0.83492553  1
  Pb  Pb40  1  0.83711600  0.16646553  0.50264738  1
  Pb  Pb41  1  0.16615375  0.16634066  0.83338779  1
  Pb  Pb42  1  0.83564712  0.50098701  0.83339299  1
  Pb  Pb43  1  0.82925167  0.49986148  0.49961502  1
  Pb  Pb44  1  0.83639176  0.16394484  0.16372327  1
  Pb  Pb45  1  0.49811540  0.16647919  0.50160944  1
  Pb  Pb46  1  0.16733667  0.50026494  0.49967937  1
  Pb  Pb47  1  0.50029100  0.83476851  0.83125656  1
  Pb  Pb48  1  0.49729215  0.16644622  0.16344314  1
  Pb  Pb49  1  0.50051052  0.83353709  0.16940734  1
  Pb  Pb50  1  0.49719019  0.49997963  0.16965237  1
  Pb  Pb51  1  0.49700129  0.49744599  0.83138184  1
  Pb  Pb52  1  0.83312607  0.83329398  0.50000794  1
  Pb  Pb53  1  0.83609080  0.50348993  0.16661774  1
  I  I54  1  0.16292708  -0.00112374  0.16665034  1
  I  I55  1  0.17377610  -0.00155053  0.49801105  1
  I  I56  1  0.16619252  -0.00290929  0.83498076  1
  I  I57  1  0.17014651  0.33327419  0.16496634  1
  I  I58  1  0.16974885  0.33116340  0.49906699  1
  I  I59  1  0.16773597  0.33514699  0.83567444  1
  I  I60  1  0.16199965  0.66790413  0.16684862  1
  I  I61  1  0.16832879  0.66979308  0.49806183  1
  I  I62  1  0.16088472  0.66844148  0.83526844  1
  I  I63  1  0.49575156  -0.00004797  0.17023769  1
  I  I64  1  0.49608363  -0.00257910  0.50137611  1
  I  I65  1  0.49588987  0.00220005  0.82933612  1
  I  I66  1  0.49753090  0.33321316  0.17005007  1
  I  I67  1  0.49367573  0.33520656  0.50414844  1
  I  I68  1  0.50287827  0.32998624  0.82877823  1
  I  I69  1  0.49796814  0.66682504  0.16269575  1
  I  I70  1  0.48987320  0.66792961  0.50105083  1
  I  I71  1  0.50233784  0.66656291  0.83382243  1
  I  I72  1  0.84199268  -0.00336489  0.16595078  1
  I  I73  1  0.82700689  -0.00029719  0.49779217  1
  I  I74  1  0.83832474  -0.00126167  0.83610571  1
  I  I75  1  0.83404258  0.33322218  0.16660745  1
  I  I76  1  0.83608110  0.33301885  0.50360582  1
  I  I77  1  0.83212260  0.33082216  0.83012365  1
  I  I78  1  0.84114195  0.67118124  0.15978443  1
  I  I79  1  0.84080686  0.66712638  0.50255780  1
  I  I80  1  0.83766602  0.67043894  0.83618128  1
  I  I81  1  0.16690856  0.16447402  0.00220526  1
  I  I82  1  0.16939884  0.16268927  0.33327283  1
  I  I83  1  0.16807746  0.16316044  0.66477221  1
  I  I84  1  0.16667749  0.50156101  -0.00008515  1
  I  I85  1  0.16866268  0.50251311  0.33070484  1
  I  I86  1  0.16767027  0.50154606  0.66889589  1
  I  I87  1  0.16127556  0.83417049  -0.00005725  1
  I  I88  1  0.16623662  0.83351930  0.33302121  1
  I  I89  1  0.16659224  0.83426118  0.66689353  1
  I  I90  1  0.49995146  0.16456368  -0.00412174  1
  I  I91  1  0.50083128  0.16701273  0.33328336  1
  I  I92  1  0.49906836  0.16593771  0.66911398  1
  I  I93  1  0.50134263  0.49824484  0.00010028  1
  I  I94  1  0.49407192  0.50673369  0.33711367  1
  I  I95  1  0.49440153  0.50535711  0.66410141  1
  I  I96  1  0.49611728  0.83577809  -0.00001866  1
  I  I97  1  0.49221947  0.82948992  0.33702738  1
  I  I98  1  0.49260731  0.83066755  0.66382489  1
  I  I99  1  0.83327705  0.16350523  -0.00364706  1
  I  I100  1  0.83045146  0.16594803  0.33300380  1
  I  I101  1  0.83223581  0.15754577  0.67036006  1
  I  I102  1  0.83020397  0.49593315  -0.00010750  1
  I  I103  1  0.83885011  0.50340125  0.33303424  1
  I  I104  1  0.83962501  0.50240722  0.66693284  1
  I  I105  1  0.84694952  0.83948634  -0.00080526  1
  I  I106  1  0.84003980  0.83064269  0.33071585  1
  I  I107  1  0.83862582  0.83763387  0.66968482  1
  I  I108  1  0.00435175  0.16911747  0.16837321  1
  I  I109  1  0.00503749  0.15841326  0.49789545  1
  I  I110  1  -0.00188207  0.16436433  0.83342510  1
  I  I111  1  0.00456515  0.49572084  0.16335908  1
  I  I112  1  0.00025751  0.49902268  0.50075248  1
  I  I113  1  0.00389337  0.49692621  0.83528619  1
  I  I114  1  0.00268929  0.83384417  0.16821190  1
  I  I115  1  0.00338263  0.83790941  0.49998539  1
  I  I116  1  0.00182289  0.83678701  0.83143813  1
  I  I117  1  0.32875844  0.16258254  0.16764816  1
  I  I118  1  0.33013945  0.16507533  0.50019542  1
  I  I119  1  0.33438931  0.16745331  0.83198801  1
  I  I120  1  0.32877925  0.50429055  0.16119519  1
  I  I121  1  0.33469626  0.50193725  0.50065390  1
  I  I122  1  0.32920555  0.50490330  0.83795923  1
  I  I123  1  0.32936886  0.83338194  0.16307373  1
  I  I124  1  0.33097501  0.83340009  0.50044493  1
  I  I125  1  0.32987905  0.83217003  0.83639294  1
  I  I126  1  0.66709122  0.16473459  0.16989738  1
  I  I127  1  0.66681691  0.16644494  0.49977975  1
  I  I128  1  0.66745182  0.15722113  0.82935643  1
  I  I129  1  0.66673377  0.50145020  0.16791269  1
  I  I130  1  0.66138487  0.51197519  0.50440976  1
  I  I131  1  0.66657910  0.50231982  0.83058915  1
  I  I132  1  0.66987747  0.83342370  0.16113578  1
  I  I133  1  0.66375278  0.82661393  0.50167890  1
  I  I134  1  0.66973516  0.83760387  0.83637971  1
