# generated using pymatgen
data_Cs27Sn13Pb14I81
_symmetry_space_group_name_H-M   'P 1'
_cell_length_a   18.98583232
_cell_length_b   18.97516030
_cell_length_c   18.97210269
_cell_angle_alpha   90.00104110
_cell_angle_beta   89.99881766
_cell_angle_gamma   90.00035463
_symmetry_Int_Tables_number   1
_chemical_formula_structural   Cs27Sn13Pb14I81
_chemical_formula_sum   'Cs27 Sn13 Pb14 I81'
_cell_volume   6834.87475704
_cell_formula_units_Z   1
loop_
 _symmetry_equiv_pos_site_id
 _symmetry_equiv_pos_as_xyz
  1  'x, y, z'
loop_
 _atom_site_type_symbol
 _atom_site_label
 _atom_site_symmetry_multiplicity
 _atom_site_fract_x
 _atom_site_fract_y
 _atom_site_fract_z
 _atom_site_occupancy
  Cs  Cs0  1  -0.00414729  -0.00075554  -0.00134867  1
  Cs  Cs1  1  0.00015157  -0.00234885  0.33537250  1
  Cs  Cs2  1  0.00000183  0.00108244  0.66609234  1
  Cs  Cs3  1  0.00266965  0.34189707  0.00638415  1
  Cs  Cs4  1  0.00250093  0.33705913  0.33078346  1
  Cs  Cs5  1  -0.00172372  0.33022781  0.66541700  1
  Cs  Cs6  1  0.00124722  0.65957665  0.00012376  1
  Cs  Cs7  1  -0.00152832  0.66917872  0.33242336  1
  Cs  Cs8  1  0.00057108  0.66640735  0.66802448  1
  Cs  Cs9  1  0.33385885  -0.00056397  -0.00029354  1
  Cs  Cs10  1  0.33327659  -0.00108748  0.33364907  1
  Cs  Cs11  1  0.33296025  -0.00029749  0.66684016  1
  Cs  Cs12  1  0.33128844  0.33446686  0.00531358  1
  Cs  Cs13  1  0.33111817  0.33212215  0.33065030  1
  Cs  Cs14  1  0.33379328  0.33041879  0.66595322  1
  Cs  Cs15  1  0.33317208  0.66665355  -0.00523100  1
  Cs  Cs16  1  0.33572612  0.66886745  0.33412092  1
  Cs  Cs17  1  0.33922324  0.66750003  0.67294569  1
  Cs  Cs18  1  0.66998245  0.00146480  0.00155926  1
  Cs  Cs19  1  0.66817819  -0.00084170  0.33153852  1
  Cs  Cs20  1  0.66836699  0.00101256  0.66674849  1
  Cs  Cs21  1  0.66731835  0.33228307  0.00018527  1
  Cs  Cs22  1  0.66676048  0.33506449  0.33270726  1
  Cs  Cs23  1  0.66777092  0.33508270  0.66675454  1
  Cs  Cs24  1  0.66709547  0.66368207  0.00131761  1
  Cs  Cs25  1  0.66499670  0.66473210  0.33363472  1
  Cs  Cs26  1  0.65998560  0.65933806  0.66651366  1
  Sn  Sn27  1  0.16741830  0.83393740  0.16679376  1
  Sn  Sn28  1  0.49999549  0.16621045  0.83263079  1
  Sn  Sn29  1  0.16648322  0.16656966  0.50053650  1
  Sn  Sn30  1  0.83364115  0.83374367  0.50143385  1
  Sn  Sn31  1  0.16694319  0.50061628  0.50058279  1
  Sn  Sn32  1  0.83329256  0.83355514  0.83194947  1
  Sn  Sn33  1  0.49971027  0.50102041  0.16683960  1
  Sn  Sn34  1  0.16640531  0.83298195  0.49989583  1
  Sn  Sn35  1  0.83384169  0.16608002  0.83260352  1
  Sn  Sn36  1  0.83347035  0.16585532  0.50033507  1
  Sn  Sn37  1  0.16616673  0.16643439  0.83307173  1
  Sn  Sn38  1  0.49916048  0.83272066  0.16676364  1
  Sn  Sn39  1  0.50016193  0.16625911  0.50048355  1
  Pb  Pb40  1  0.16677901  0.49697487  0.83054539  1
  Pb  Pb41  1  0.50282974  0.83563004  0.83567936  1
  Pb  Pb42  1  0.16859450  0.50330943  0.16904379  1
  Pb  Pb43  1  0.49981233  0.49682597  0.83566623  1
  Pb  Pb44  1  0.49995124  0.16619975  0.16668815  1
  Pb  Pb45  1  0.16639110  0.16422123  0.16687337  1
  Pb  Pb46  1  0.83362133  0.83332350  0.16677946  1
  Pb  Pb47  1  0.49746003  0.49706930  0.49844124  1
  Pb  Pb48  1  0.83376268  0.16678932  0.16700985  1
  Pb  Pb49  1  0.83339252  0.49953083  0.83292576  1
  Pb  Pb50  1  0.16476958  0.83520196  0.83286987  1
  Pb  Pb51  1  0.83544190  0.50016539  0.50009471  1
  Pb  Pb52  1  0.50035808  0.83524495  0.49885475  1
  Pb  Pb53  1  0.83085978  0.50017759  0.16702687  1
  I  I54  1  0.17336717  -0.00349767  0.17326445  1
  I  I55  1  0.16584730  0.00047800  0.49913661  1
  I  I56  1  0.16881713  0.00358538  0.82790080  1
  I  I57  1  0.16862319  0.33353925  0.16697099  1
  I  I58  1  0.16711282  0.33148499  0.50455258  1
  I  I59  1  0.16438450  0.32823896  0.82865264  1
  I  I60  1  0.16713656  0.67104176  0.17200814  1
  I  I61  1  0.16075461  0.66813437  0.49300647  1
  I  I62  1  0.16455419  0.66687891  0.83330002  1
  I  I63  1  0.49663968  -0.00262077  0.16710707  1
  I  I64  1  0.49555401  0.00356728  0.50071207  1
  I  I65  1  0.49774083  0.00387598  0.83157793  1
  I  I66  1  0.50049341  0.33516451  0.16685561  1
  I  I67  1  0.50108818  0.32867706  0.50118182  1
  I  I68  1  0.50301427  0.32837110  0.83092432  1
  I  I69  1  0.49620838  0.66777054  0.16864932  1
  I  I70  1  0.50020392  0.66670966  0.49923616  1
  I  I71  1  0.50159457  0.66684859  0.83279109  1
  I  I72  1  0.82951545  -0.00021156  0.16629755  1
  I  I73  1  0.83795655  0.00063174  0.50297067  1
  I  I74  1  0.83337125  0.00127302  0.82974062  1
  I  I75  1  0.83103534  0.33332583  0.16643084  1
  I  I76  1  0.83329141  0.32956068  0.50444687  1
  I  I77  1  0.83206010  0.32897721  0.82804075  1
  I  I78  1  0.83541919  0.66722189  0.16651078  1
  I  I79  1  0.83847222  0.67037393  0.50238926  1
  I  I80  1  0.83420631  0.66997460  0.82997667  1
  I  I81  1  0.16782973  0.16418535  -0.00311504  1
  I  I82  1  0.16740849  0.16833834  0.33724773  1
  I  I83  1  0.16711728  0.16489203  0.66520986  1
  I  I84  1  0.16693166  0.49891429  0.00019037  1
  I  I85  1  0.16700248  0.49244645  0.33676695  1
  I  I86  1  0.16685751  0.50465449  0.66247950  1
  I  I87  1  0.16940627  0.83657532  0.00219658  1
  I  I88  1  0.16479273  0.83618082  0.33517789  1
  I  I89  1  0.16408428  0.83330685  0.66310477  1
  I  I90  1  0.50076829  0.16643628  -0.00303271  1
  I  I91  1  0.49924596  0.16643351  0.33642554  1
  I  I92  1  0.49930408  0.16621227  0.66608893  1
  I  I93  1  0.49910070  0.50274556  0.00350752  1
  I  I94  1  0.49950715  0.50195763  0.33061916  1
  I  I95  1  0.49963546  0.50065510  0.66656440  1
  I  I96  1  0.49452858  0.83232735  0.00361713  1
  I  I97  1  0.50025565  0.83348381  0.33077061  1
  I  I98  1  0.49704252  0.83300675  0.66677707  1
  I  I99  1  0.83130423  0.16133747  -0.00387633  1
  I  I100  1  0.83275176  0.16170155  0.33760156  1
  I  I101  1  0.83352794  0.16242444  0.66596308  1
  I  I102  1  0.83427211  0.49950872  -0.00012248  1
  I  I103  1  0.83347784  0.49895866  0.33381336  1
  I  I104  1  0.83232402  0.50011212  0.66639419  1
  I  I105  1  0.83211309  0.83992714  -0.00287679  1
  I  I106  1  0.83504807  0.83870234  0.33669842  1
  I  I107  1  0.84024133  0.83985995  0.66540499  1
  I  I108  1  0.00020766  0.16475391  0.16629632  1
  I  I109  1  0.00040901  0.16548966  0.50564117  1
  I  I110  1  -0.00030793  0.16173594  0.82568604  1
  I  I111  1  0.00062913  0.49984352  0.16658420  1
  I  I112  1  0.00342489  0.49468299  0.49875785  1
  I  I113  1  0.00017815  0.49801655  0.83533301  1
  I  I114  1  0.00275052  0.83611121  0.16972602  1
  I  I115  1  0.00076416  0.83825978  0.49695257  1
  I  I116  1  -0.00301794  0.84062097  0.83388446  1
  I  I117  1  0.33329888  0.16755563  0.16669383  1
  I  I118  1  0.33247472  0.16663950  0.50498467  1
  I  I119  1  0.33307085  0.16721245  0.82678317  1
  I  I120  1  0.33613769  0.49990889  0.16797664  1
  I  I121  1  0.32967552  0.49971411  0.49839911  1
  I  I122  1  0.33328200  0.49899621  0.83320357  1
  I  I123  1  0.33280777  0.83160823  0.17327365  1
  I  I124  1  0.33040806  0.83573165  0.49610738  1
  I  I125  1  0.33335737  0.83558117  0.83232052  1
  I  I126  1  0.66653634  0.16497155  0.16729756  1
  I  I127  1  0.66721304  0.16179945  0.50462150  1
  I  I128  1  0.66712320  0.16304809  0.82825183  1
  I  I129  1  0.66275522  0.50621559  0.16785092  1
  I  I130  1  0.66632320  0.49947627  0.49783792  1
  I  I131  1  0.66652598  0.49809227  0.83417725  1
  I  I132  1  0.66411639  0.83034505  0.16676234  1
  I  I133  1  0.66964297  0.83960345  0.50086117  1
  I  I134  1  0.67054177  0.84045467  0.82890792  1
