# generated using pymatgen
data_Cs27Sn14Pb13I81
_symmetry_space_group_name_H-M   'P 1'
_cell_length_a   18.96026580
_cell_length_b   18.98816484
_cell_length_c   18.97894705
_cell_angle_alpha   90.00031978
_cell_angle_beta   89.99917398
_cell_angle_gamma   90.00039659
_symmetry_Int_Tables_number   1
_chemical_formula_structural   Cs27Sn14Pb13I81
_chemical_formula_sum   'Cs27 Sn14 Pb13 I81'
_cell_volume   6832.81289828
_cell_formula_units_Z   1
loop_
 _symmetry_equiv_pos_site_id
 _symmetry_equiv_pos_as_xyz
  1  'x, y, z'
loop_
 _atom_site_type_symbol
 _atom_site_label
 _atom_site_symmetry_multiplicity
 _atom_site_fract_x
 _atom_site_fract_y
 _atom_site_fract_z
 _atom_site_occupancy
  Cs  Cs0  1  -0.00488068  0.00122341  -0.00053807  1
  Cs  Cs1  1  0.00428500  0.00159999  0.34344184  1
  Cs  Cs2  1  0.00066021  -0.00195231  0.66073768  1
  Cs  Cs3  1  -0.00134343  0.33448525  0.00062615  1
  Cs  Cs4  1  0.00970111  0.33179008  0.33791891  1
  Cs  Cs5  1  -0.00069021  0.34074606  0.66050780  1
  Cs  Cs6  1  0.00370817  0.66451850  -0.00309533  1
  Cs  Cs7  1  0.00602962  0.66651204  0.34256974  1
  Cs  Cs8  1  0.00795088  0.66038257  0.66117895  1
  Cs  Cs9  1  0.33199291  -0.00115745  -0.00021467  1
  Cs  Cs10  1  0.32914875  -0.00121596  0.32955454  1
  Cs  Cs11  1  0.33524692  -0.00018893  0.66987870  1
  Cs  Cs12  1  0.33378773  0.33178632  0.00044584  1
  Cs  Cs13  1  0.33133339  0.33302156  0.33230267  1
  Cs  Cs14  1  0.33871531  0.33208991  0.66714230  1
  Cs  Cs15  1  0.32760521  0.67012206  0.00092872  1
  Cs  Cs16  1  0.33093444  0.66827760  0.32909843  1
  Cs  Cs17  1  0.33230243  0.66824930  0.66877506  1
  Cs  Cs18  1  0.66780770  0.00017209  -0.00019032  1
  Cs  Cs19  1  0.66736305  -0.00132351  0.33089676  1
  Cs  Cs20  1  0.66562507  0.00012344  0.66830311  1
  Cs  Cs21  1  0.66722138  0.33230572  0.00050707  1
  Cs  Cs22  1  0.66604945  0.33352377  0.33054856  1
  Cs  Cs23  1  0.66472174  0.33389870  0.66731121  1
  Cs  Cs24  1  0.66771776  0.66813289  0.00197852  1
  Cs  Cs25  1  0.66618703  0.66762255  0.33036112  1
  Cs  Cs26  1  0.66652824  0.66617984  0.66650407  1
  Sn  Sn27  1  0.50066283  0.16618434  0.49942829  1
  Sn  Sn28  1  0.83296230  0.49980822  0.16691821  1
  Sn  Sn29  1  0.83272137  0.16670023  0.16649261  1
  Sn  Sn30  1  0.50046843  0.16646560  0.83385198  1
  Sn  Sn31  1  0.16559178  0.16681048  0.83340738  1
  Sn  Sn32  1  0.83274904  0.83343403  0.83359003  1
  Sn  Sn33  1  0.50071247  0.50029666  0.49954365  1
  Sn  Sn34  1  0.50107120  0.83339798  0.83297048  1
  Sn  Sn35  1  0.50072799  0.16714886  0.16647858  1
  Sn  Sn36  1  0.50059426  0.49936179  0.16628975  1
  Sn  Sn37  1  0.83344105  0.16625783  0.83344523  1
  Sn  Sn38  1  0.83322733  0.83340626  0.16628298  1
  Sn  Sn39  1  0.50048023  0.50039574  0.83415319  1
  Sn  Sn40  1  0.50069120  0.83344802  0.50054302  1
  Pb  Pb41  1  0.83120657  0.83323892  0.50082822  1
  Pb  Pb42  1  0.17004810  0.16667169  0.50328545  1
  Pb  Pb43  1  0.16570404  0.83566202  0.83350088  1
  Pb  Pb44  1  0.83105682  0.16680325  0.50013965  1
  Pb  Pb45  1  0.17042763  0.83357406  0.50034421  1
  Pb  Pb46  1  0.50099591  0.83353504  0.16614975  1
  Pb  Pb47  1  0.16611959  0.16648089  0.16439664  1
  Pb  Pb48  1  0.16962582  0.49706885  0.83358523  1
  Pb  Pb49  1  0.16165672  0.83373657  0.16621932  1
  Pb  Pb50  1  0.16656425  0.49983805  0.16641295  1
  Pb  Pb51  1  0.17051132  0.49976147  0.50006042  1
  Pb  Pb52  1  0.83149202  0.50016943  0.83483499  1
  Pb  Pb53  1  0.83078358  0.49986970  0.49670858  1
  I  I54  1  0.17183758  0.00027257  0.16597372  1
  I  I55  1  0.16832560  0.00032337  0.49945150  1
  I  I56  1  0.17434597  0.00333591  0.83420908  1
  I  I57  1  0.16426224  0.33314521  0.16577014  1
  I  I58  1  0.16812418  0.33306526  0.50002571  1
  I  I59  1  0.16752544  0.32914744  0.83468864  1
  I  I60  1  0.17052790  0.66667206  0.16589317  1
  I  I61  1  0.16749826  0.66662738  0.50065474  1
  I  I62  1  0.16743345  0.66661204  0.83311819  1
  I  I63  1  0.50351299  0.00295637  0.16674600  1
  I  I64  1  0.50085057  0.00047086  0.50416745  1
  I  I65  1  0.49984517  0.00090210  0.83034840  1
  I  I66  1  0.50619925  0.33269006  0.16612392  1
  I  I67  1  0.50025788  0.33303047  0.50325609  1
  I  I68  1  0.49956756  0.33236057  0.83100030  1
  I  I69  1  0.50427723  0.66415582  0.16732805  1
  I  I70  1  0.50137927  0.66651413  0.50311061  1
  I  I71  1  0.50501698  0.66707460  0.83008340  1
  I  I72  1  0.82671682  0.00092094  0.16084203  1
  I  I73  1  0.82990764  0.00003618  0.49497510  1
  I  I74  1  0.82678871  0.00084089  0.84205992  1
  I  I75  1  0.82654499  0.33238340  0.16108688  1
  I  I76  1  0.82961800  0.33325805  0.50237270  1
  I  I77  1  0.83118434  0.33011418  0.83748982  1
  I  I78  1  0.82540595  0.66661612  0.16216413  1
  I  I79  1  0.82885788  0.66664960  0.49972263  1
  I  I80  1  0.82552595  0.66948715  0.83883185  1
  I  I81  1  0.17410983  0.16645069  -0.00322974  1
  I  I82  1  0.16682507  0.16682448  0.33357136  1
  I  I83  1  0.16756345  0.16554837  0.67109766  1
  I  I84  1  0.17088947  0.50012499  -0.00008864  1
  I  I85  1  0.16797283  0.49910854  0.33327277  1
  I  I86  1  0.16661747  0.49953217  0.66684379  1
  I  I87  1  0.17498276  0.83320760  -0.00033037  1
  I  I88  1  0.16809794  0.83396626  0.33339421  1
  I  I89  1  0.16304302  0.83438502  0.66695234  1
  I  I90  1  0.50013748  0.16940804  -0.00069527  1
  I  I91  1  0.50525042  0.16938663  0.33247178  1
  I  I92  1  0.49940306  0.16889439  0.66784359  1
  I  I93  1  0.50383153  0.49567543  0.00020422  1
  I  I94  1  0.50431846  0.49701754  0.33270443  1
  I  I95  1  0.49877749  0.49661006  0.66714775  1
  I  I96  1  0.50178261  0.83403211  -0.00311847  1
  I  I97  1  0.50200066  0.83347268  0.33535928  1
  I  I98  1  0.50471129  0.83413514  0.66811487  1
  I  I99  1  0.82791551  0.16591803  -0.00024308  1
  I  I100  1  0.82672049  0.16586444  0.32976510  1
  I  I101  1  0.83135608  0.16062913  0.67046863  1
  I  I102  1  0.82547682  0.49922004  0.00304670  1
  I  I103  1  0.82534875  0.49978396  0.32830045  1
  I  I104  1  0.83178643  0.49972134  0.66671607  1
  I  I105  1  0.82534330  0.83538953  -0.00059755  1
  I  I106  1  0.82986867  0.83412964  0.33035267  1
  I  I107  1  0.82926766  0.84102885  0.67053572  1
  I  I108  1  -0.00404069  0.16730794  0.16062215  1
  I  I109  1  0.00010898  0.16636591  0.49906185  1
  I  I110  1  -0.00167532  0.16051025  0.84132880  1
  I  I111  1  -0.00371630  0.49879793  0.16375359  1
  I  I112  1  0.00006610  0.50047985  0.49903768  1
  I  I113  1  -0.00020558  0.50000247  0.83590989  1
  I  I114  1  -0.00639584  0.83405469  0.15764650  1
  I  I115  1  -0.00007548  0.83342687  0.49912606  1
  I  I116  1  -0.00406681  0.83914010  0.84041212  1
  I  I117  1  0.33705515  0.17183563  0.16665217  1
  I  I118  1  0.33887793  0.16757480  0.49921527  1
  I  I119  1  0.33612976  0.16743472  0.83234806  1
  I  I120  1  0.33765328  0.49455938  0.16778350  1
  I  I121  1  0.33923867  0.49885627  0.49784536  1
  I  I122  1  0.33893683  0.50053551  0.83494695  1
  I  I123  1  0.33345032  0.83284082  0.16761455  1
  I  I124  1  0.33912892  0.83339089  0.50655232  1
  I  I125  1  0.33685859  0.83373426  0.82861692  1
  I  I126  1  0.66568344  0.16769802  0.16222815  1
  I  I127  1  0.66220691  0.16706568  0.50480436  1
  I  I128  1  0.66530892  0.16587577  0.83410512  1
  I  I129  1  0.66519880  0.49832152  0.16670847  1
  I  I130  1  0.66194060  0.49905078  0.50306327  1
  I  I131  1  0.66250301  0.49533951  0.83105936  1
  I  I132  1  0.66910798  0.83372373  0.16542558  1
  I  I133  1  0.66257691  0.83384516  0.50204529  1
  I  I134  1  0.66540552  0.83865220  0.83339118  1
