# generated using pymatgen
data_Cs27Sn13Pb14I81
_symmetry_space_group_name_H-M   'P 1'
_cell_length_a   18.97101344
_cell_length_b   18.98067131
_cell_length_c   18.97963291
_cell_angle_alpha   90.00146092
_cell_angle_beta   89.99960228
_cell_angle_gamma   90.00401323
_symmetry_Int_Tables_number   1
_chemical_formula_structural   Cs27Sn13Pb14I81
_chemical_formula_sum   'Cs27 Sn13 Pb14 I81'
_cell_volume   6834.23498830
_cell_formula_units_Z   1
loop_
 _symmetry_equiv_pos_site_id
 _symmetry_equiv_pos_as_xyz
  1  'x, y, z'
loop_
 _atom_site_type_symbol
 _atom_site_label
 _atom_site_symmetry_multiplicity
 _atom_site_fract_x
 _atom_site_fract_y
 _atom_site_fract_z
 _atom_site_occupancy
  Cs  Cs0  1  0.00232156  0.00142313  0.00080649  1
  Cs  Cs1  1  0.00283674  0.00391539  0.33087283  1
  Cs  Cs2  1  -0.00230346  -0.00285185  0.66755029  1
  Cs  Cs3  1  0.00004606  0.33483984  0.00127928  1
  Cs  Cs4  1  0.00215010  0.32874619  0.32980269  1
  Cs  Cs5  1  -0.00072040  0.33489929  0.66863086  1
  Cs  Cs6  1  0.00142793  0.66279995  -0.00314669  1
  Cs  Cs7  1  0.00024117  0.66806647  0.34002645  1
  Cs  Cs8  1  -0.00087745  0.66798537  0.66684753  1
  Cs  Cs9  1  0.33334876  -0.00159927  0.00191750  1
  Cs  Cs10  1  0.32466687  0.00206342  0.32805165  1
  Cs  Cs11  1  0.33457701  0.00293116  0.66684449  1
  Cs  Cs12  1  0.33226701  0.33375753  -0.00294056  1
  Cs  Cs13  1  0.33362717  0.33446989  0.34263994  1
  Cs  Cs14  1  0.33634039  0.33189143  0.66309169  1
  Cs  Cs15  1  0.33316666  0.66728154  0.00148088  1
  Cs  Cs16  1  0.33571616  0.66349563  0.33105149  1
  Cs  Cs17  1  0.33007513  0.66582370  0.66716678  1
  Cs  Cs18  1  0.66511025  0.00036331  -0.00045916  1
  Cs  Cs19  1  0.66926110  -0.00304587  0.33334510  1
  Cs  Cs20  1  0.66708253  -0.00031195  0.66700459  1
  Cs  Cs21  1  0.66789714  0.33479484  0.00193860  1
  Cs  Cs22  1  0.66466599  0.33612132  0.32979955  1
  Cs  Cs23  1  0.66484612  0.33068760  0.66746762  1
  Cs  Cs24  1  0.66592446  0.66489538  0.00123995  1
  Cs  Cs25  1  0.66372995  0.66815267  0.33221769  1
  Cs  Cs26  1  0.66975240  0.66936032  0.66747068  1
  Sn  Sn27  1  0.49944543  0.50085554  0.83317302  1
  Sn  Sn28  1  0.50007959  0.16671573  0.16687516  1
  Sn  Sn29  1  0.83405782  0.16600907  0.83296113  1
  Sn  Sn30  1  0.83254564  0.83412248  0.83395612  1
  Sn  Sn31  1  0.16589071  0.16735216  0.83314718  1
  Sn  Sn32  1  0.16666996  0.50013035  0.16645528  1
  Sn  Sn33  1  0.83262253  0.83370872  0.49981419  1
  Sn  Sn34  1  0.50018046  0.83377778  0.50063574  1
  Sn  Sn35  1  0.50072410  0.83242313  0.83246566  1
  Sn  Sn36  1  0.83301204  0.49960764  0.49991659  1
  Sn  Sn37  1  0.16768965  0.49907688  0.83379086  1
  Sn  Sn38  1  0.83366851  0.83305804  0.16622343  1
  Sn  Sn39  1  0.83307243  0.16678343  0.50056665  1
  Pb  Pb40  1  0.83326622  0.49986180  0.83206714  1
  Pb  Pb41  1  0.16901267  0.16891258  0.16423502  1
  Pb  Pb42  1  0.50235370  0.50227510  0.50256631  1
  Pb  Pb43  1  0.16384798  0.83078916  0.16654041  1
  Pb  Pb44  1  0.49798905  0.49801939  0.16454853  1
  Pb  Pb45  1  0.50240987  0.16380689  0.49749770  1
  Pb  Pb46  1  0.50043491  0.16623208  0.83427412  1
  Pb  Pb47  1  0.16709011  0.83346480  0.50004997  1
  Pb  Pb48  1  0.16461768  0.49997419  0.50075504  1
  Pb  Pb49  1  0.50151094  0.83463658  0.16653901  1
  Pb  Pb50  1  0.83215498  0.16501398  0.16622795  1
  Pb  Pb51  1  0.83525919  0.50244090  0.16944622  1
  Pb  Pb52  1  0.16410864  0.16656731  0.50293579  1
  Pb  Pb53  1  0.16694394  0.83331928  0.83323309  1
  I  I54  1  0.16723161  0.00025685  0.16589669  1
  I  I55  1  0.16453434  0.00016587  0.50110678  1
  I  I56  1  0.16461371  0.00262347  0.83247689  1
  I  I57  1  0.16438838  0.33646162  0.16286588  1
  I  I58  1  0.16432076  0.33329550  0.49828189  1
  I  I59  1  0.16532873  0.33374921  0.83737676  1
  I  I60  1  0.16705153  0.66315673  0.15838102  1
  I  I61  1  0.16173267  0.66654001  0.50265631  1
  I  I62  1  0.16685829  0.66379909  0.83666268  1
  I  I63  1  0.50145196  0.00215335  0.16306887  1
  I  I64  1  0.50791065  -0.00397441  0.50858139  1
  I  I65  1  0.50188543  -0.00286875  0.83117810  1
  I  I66  1  0.50284066  0.33052756  0.16350211  1
  I  I67  1  0.50224001  0.33322944  0.50014388  1
  I  I68  1  0.49955437  0.33529496  0.83629431  1
  I  I69  1  0.49983832  0.66665207  0.16786897  1
  I  I70  1  0.50741702  0.67021864  0.50033163  1
  I  I71  1  0.50096351  0.66758127  0.83088454  1
  I  I72  1  0.83197059  -0.00302092  0.17021952  1
  I  I73  1  0.82942171  -0.00089687  0.50194126  1
  I  I74  1  0.83327693  -0.00068498  0.82888037  1
  I  I75  1  0.83282059  0.33340372  0.16699703  1
  I  I76  1  0.83517770  0.33253919  0.50669942  1
  I  I77  1  0.83367886  0.33080873  0.82840894  1
  I  I78  1  0.83236350  0.67048265  0.16488891  1
  I  I79  1  0.83126028  0.66816050  0.50069480  1
  I  I80  1  0.83285523  0.66952052  0.83163225  1
  I  I81  1  0.15946473  0.16839282  -0.00371764  1
  I  I82  1  0.16609482  0.16789687  0.33319833  1
  I  I83  1  0.16686466  0.17313880  0.67104041  1
  I  I84  1  0.16857011  0.49679756  -0.00189633  1
  I  I85  1  0.16347734  0.50151668  0.33107299  1
  I  I86  1  0.16919214  0.49671943  0.67027606  1
  I  I87  1  0.16592125  0.83515903  -0.00034244  1
  I  I88  1  0.16632147  0.83126911  0.33320002  1
  I  I89  1  0.16152793  0.83042747  0.66702378  1
  I  I90  1  0.50248196  0.16434401  0.00155871  1
  I  I91  1  0.50249836  0.16556758  0.33030792  1
  I  I92  1  0.49823173  0.16826940  0.66663891  1
  I  I93  1  0.50037958  0.50611547  -0.00370246  1
  I  I94  1  0.49879342  0.50067716  0.33354699  1
  I  I95  1  0.49364848  0.49970521  0.67059306  1
  I  I96  1  0.50493059  0.83149755  -0.00320778  1
  I  I97  1  0.50685368  0.83513038  0.33595539  1
  I  I98  1  0.50927506  0.83030161  0.66778461  1
  I  I99  1  0.83526241  0.16179631  -0.00328647  1
  I  I100  1  0.83057499  0.16491804  0.33600059  1
  I  I101  1  0.83652731  0.16182603  0.66740368  1
  I  I102  1  0.83200772  0.50066513  -0.00009294  1
  I  I103  1  0.83516616  0.49994518  0.33735006  1
  I  I104  1  0.83515943  0.50484437  0.66428628  1
  I  I105  1  0.82940133  0.83819540  -0.00165030  1
  I  I106  1  0.82940744  0.83249480  0.33480713  1
  I  I107  1  0.82981297  0.83413412  0.66688368  1
  I  I108  1  0.00006314  0.16607597  0.16838539  1
  I  I109  1  -0.00457781  0.16293835  0.49973017  1
  I  I110  1  -0.00124572  0.16665528  0.83026267  1
  I  I111  1  0.00278910  0.49975873  0.15793844  1
  I  I112  1  -0.00369714  0.50439147  0.50312424  1
  I  I113  1  0.00218005  0.49920385  0.83522524  1
  I  I114  1  -0.00453975  0.83521127  0.16720063  1
  I  I115  1  -0.00431063  0.83249662  0.50175498  1
  I  I116  1  -0.00345360  0.83374065  0.83151977  1
  I  I117  1  0.33639628  0.16381070  0.16345545  1
  I  I118  1  0.33362368  0.16531805  0.50002363  1
  I  I119  1  0.33132256  0.16757963  0.83702028  1
  I  I120  1  0.33014195  0.50069191  0.16401859  1
  I  I121  1  0.33358567  0.50223032  0.49828049  1
  I  I122  1  0.33301832  0.50020772  0.83708882  1
  I  I123  1  0.33345365  0.83460147  0.16656107  1
  I  I124  1  0.33702436  0.83260177  0.50663106  1
  I  I125  1  0.33666906  0.83285739  0.82885455  1
  I  I126  1  0.66465261  0.16623497  0.16314099  1
  I  I127  1  0.67074781  0.16739464  0.50806816  1
  I  I128  1  0.66966100  0.16534383  0.83065664  1
  I  I129  1  0.66668338  0.49955934  0.16574246  1
  I  I130  1  0.67045165  0.49904096  0.50188552  1
  I  I131  1  0.66452748  0.50117028  0.83093216  1
  I  I132  1  0.66978008  0.83361442  0.16693518  1
  I  I133  1  0.66860034  0.83302491  0.50165642  1
  I  I134  1  0.66778192  0.83343352  0.83205806  1
