# generated using pymatgen
data_Cs27Sn13Pb14I81
_symmetry_space_group_name_H-M   'P 1'
_cell_length_a   18.97462073
_cell_length_b   18.98051555
_cell_length_c   18.97555063
_cell_angle_alpha   89.99968000
_cell_angle_beta   90.00035679
_cell_angle_gamma   89.99917958
_symmetry_Int_Tables_number   1
_chemical_formula_structural   Cs27Sn13Pb14I81
_chemical_formula_sum   'Cs27 Sn13 Pb14 I81'
_cell_volume   6834.00819487
_cell_formula_units_Z   1
loop_
 _symmetry_equiv_pos_site_id
 _symmetry_equiv_pos_as_xyz
  1  'x, y, z'
loop_
 _atom_site_type_symbol
 _atom_site_label
 _atom_site_symmetry_multiplicity
 _atom_site_fract_x
 _atom_site_fract_y
 _atom_site_fract_z
 _atom_site_occupancy
  Cs  Cs0  1  -0.00039339  0.00088906  -0.00069590  1
  Cs  Cs1  1  0.00139307  -0.00055756  0.33505384  1
  Cs  Cs2  1  -0.00032369  -0.00161535  0.66604077  1
  Cs  Cs3  1  0.00025429  0.33297407  0.00005627  1
  Cs  Cs4  1  0.00024998  0.33281792  0.33247681  1
  Cs  Cs5  1  -0.00105303  0.33373716  0.66727157  1
  Cs  Cs6  1  -0.00018155  0.66632696  -0.00062046  1
  Cs  Cs7  1  0.00126801  0.66761525  0.33615614  1
  Cs  Cs8  1  0.00061189  0.66832046  0.66497082  1
  Cs  Cs9  1  0.33282001  0.00129747  -0.00194074  1
  Cs  Cs10  1  0.33185095  -0.00148231  0.33641412  1
  Cs  Cs11  1  0.34326973  -0.00003341  0.66423588  1
  Cs  Cs12  1  0.33033979  0.33332788  -0.00226470  1
  Cs  Cs13  1  0.33256357  0.33302949  0.33096347  1
  Cs  Cs14  1  0.33973394  0.33373134  0.67251640  1
  Cs  Cs15  1  0.33412312  0.66564531  -0.00107932  1
  Cs  Cs16  1  0.32927995  0.66868392  0.33312043  1
  Cs  Cs17  1  0.33894841  0.66614651  0.66823204  1
  Cs  Cs18  1  0.66762563  -0.00384398  0.00118092  1
  Cs  Cs19  1  0.66525356  -0.00408526  0.33130729  1
  Cs  Cs20  1  0.65883236  0.00323066  0.66817717  1
  Cs  Cs21  1  0.67031544  0.33410880  0.00335968  1
  Cs  Cs22  1  0.66662987  0.33387149  0.33287837  1
  Cs  Cs23  1  0.66296282  0.33345564  0.66269428  1
  Cs  Cs24  1  0.66637596  0.66980716  0.00197604  1
  Cs  Cs25  1  0.66736465  0.67072708  0.33625485  1
  Cs  Cs26  1  0.66119906  0.66319507  0.66017736  1
  Sn  Sn27  1  0.83322578  0.49974831  0.16630829  1
  Sn  Sn28  1  0.50070301  0.16733528  0.16654563  1
  Sn  Sn29  1  0.83419059  0.16664885  0.49977368  1
  Sn  Sn30  1  0.83400668  0.83299884  0.83309207  1
  Sn  Sn31  1  0.16645704  0.49852311  0.49989579  1
  Sn  Sn32  1  0.83383030  0.16677476  0.83324847  1
  Sn  Sn33  1  0.83273935  0.16710648  0.16697353  1
  Sn  Sn34  1  0.16617455  0.16801440  0.50049763  1
  Sn  Sn35  1  0.50022005  0.49936495  0.16670121  1
  Sn  Sn36  1  0.16604085  0.83351676  0.83396926  1
  Sn  Sn37  1  0.16642138  0.50068572  0.16705066  1
  Sn  Sn38  1  0.83360716  0.50032583  0.83362448  1
  Sn  Sn39  1  0.16600461  0.83265493  0.16543728  1
  Pb  Pb40  1  0.16660278  0.83328344  0.50081348  1
  Pb  Pb41  1  0.16628326  0.16681822  0.16779236  1
  Pb  Pb42  1  0.16479106  0.50159573  0.83326421  1
  Pb  Pb43  1  0.50343771  0.49986153  0.83631925  1
  Pb  Pb44  1  0.16489439  0.16433667  0.83025552  1
  Pb  Pb45  1  0.50014172  0.83313568  0.49963579  1
  Pb  Pb46  1  0.83325658  0.83637405  0.50335469  1
  Pb  Pb47  1  0.83503481  0.49819308  0.49961577  1
  Pb  Pb48  1  0.50016944  0.16698460  0.49713475  1
  Pb  Pb49  1  0.50304135  0.16698243  0.83668510  1
  Pb  Pb50  1  0.83544473  0.83326252  0.16532438  1
  Pb  Pb51  1  0.49700051  0.83325630  0.16656648  1
  Pb  Pb52  1  0.49670795  0.49970998  0.49694115  1
  Pb  Pb53  1  0.50030081  0.83315617  0.83369272  1
  I  I54  1  0.16592727  -0.00199960  0.16498168  1
  I  I55  1  0.16193968  0.00284824  0.49833642  1
  I  I56  1  0.15951217  -0.00344714  0.84018786  1
  I  I57  1  0.16615343  0.33619115  0.16938289  1
  I  I58  1  0.16152613  0.33353685  0.49212609  1
  I  I59  1  0.16455116  0.33329441  0.83587504  1
  I  I60  1  0.16643946  0.66511320  0.16912242  1
  I  I61  1  0.16617637  0.66380900  0.49669348  1
  I  I62  1  0.15934126  0.66950158  0.83383692  1
  I  I63  1  0.50512977  0.00298447  0.16685417  1
  I  I64  1  0.49728894  0.00064443  0.49777260  1
  I  I65  1  0.50137104  0.00018692  0.83536230  1
  I  I66  1  0.49977520  0.33381852  0.16729843  1
  I  I67  1  0.50134101  0.33330633  0.50131194  1
  I  I68  1  0.49908275  0.33336928  0.83154234  1
  I  I69  1  0.50271267  0.66321715  0.16607744  1
  I  I70  1  0.49873905  0.66606401  0.49813729  1
  I  I71  1  0.50196360  0.66645867  0.83569101  1
  I  I72  1  0.83049947  0.00310270  0.16591076  1
  I  I73  1  0.84083207  0.00487904  0.49684210  1
  I  I74  1  0.83820709  0.00058297  0.83410850  1
  I  I75  1  0.83507418  0.33340857  0.16230944  1
  I  I76  1  0.83601984  0.33000419  0.50329386  1
  I  I77  1  0.83360905  0.33309970  0.83571404  1
  I  I78  1  0.83153806  0.66342846  0.16173802  1
  I  I79  1  0.83510698  0.66649181  0.49971918  1
  I  I80  1  0.83839652  0.66623700  0.84067326  1
  I  I81  1  0.16623046  0.16791688  -0.00007900  1
  I  I82  1  0.16102341  0.16569609  0.33559656  1
  I  I83  1  0.15973397  0.17133596  0.66242839  1
  I  I84  1  0.16771420  0.50218526  0.00330838  1
  I  I85  1  0.16454332  0.50212543  0.33148230  1
  I  I86  1  0.16226323  0.49787639  0.66420827  1
  I  I87  1  0.16272626  0.82823053  0.00064132  1
  I  I88  1  0.16751845  0.83184775  0.33080661  1
  I  I89  1  0.16031625  0.83369880  0.66976107  1
  I  I90  1  0.50350095  0.17051199  0.00452945  1
  I  I91  1  0.50561125  0.17088995  0.32940061  1
  I  I92  1  0.50013484  0.16478171  0.66667794  1
  I  I93  1  0.49395970  0.49587643  0.00449662  1
  I  I94  1  0.50569221  0.49541530  0.32868674  1
  I  I95  1  0.49980706  0.50152701  0.66665342  1
  I  I96  1  0.50115769  0.83394400  0.00031872  1
  I  I97  1  0.49813262  0.83447722  0.33249638  1
  I  I98  1  0.49746313  0.83430299  0.66699089  1
  I  I99  1  0.82909694  0.16735333  0.00046131  1
  I  I100  1  0.83377634  0.17245609  0.33224992  1
  I  I101  1  0.84051177  0.16596652  0.66697394  1
  I  I102  1  0.83573741  0.49505572  0.00128348  1
  I  I103  1  0.83238537  0.49480804  0.32974830  1
  I  I104  1  0.83719305  0.49946041  0.66926126  1
  I  I105  1  0.83603913  0.83775908  -0.00282038  1
  I  I106  1  0.83490609  0.83352235  0.33335853  1
  I  I107  1  0.84210291  0.83153804  0.67166942  1
  I  I108  1  -0.00321084  0.16955772  0.16477353  1
  I  I109  1  -0.00076559  0.16998664  0.49684471  1
  I  I110  1  -0.00383548  0.16859206  0.83965523  1
  I  I111  1  -0.00035347  0.49905777  0.16621788  1
  I  I112  1  0.00291487  0.49816466  0.49338285  1
  I  I113  1  -0.00346800  0.49728092  0.83980533  1
  I  I114  1  0.00335277  0.83000096  0.16490171  1
  I  I115  1  0.00003523  0.83270469  0.49800116  1
  I  I116  1  -0.00072800  0.83380913  0.83798808  1
  I  I117  1  0.33516929  0.16904606  0.16967428  1
  I  I118  1  0.33037856  0.16835167  0.49669322  1
  I  I119  1  0.33334274  0.16404487  0.83309025  1
  I  I120  1  0.33252744  0.49986287  0.17214630  1
  I  I121  1  0.32847249  0.49487844  0.49513943  1
  I  I122  1  0.33326702  0.50276117  0.83336794  1
  I  I123  1  0.32891708  0.83012739  0.16174273  1
  I  I124  1  0.33258151  0.83652217  0.50105126  1
  I  I125  1  0.33007244  0.83264752  0.83715692  1
  I  I126  1  0.66858051  0.17408707  0.16777333  1
  I  I127  1  0.67010545  0.16621379  0.50303479  1
  I  I128  1  0.67185778  0.16388102  0.82765361  1
  I  I129  1  0.66786022  0.49396226  0.16063638  1
  I  I130  1  0.66674185  0.49908101  0.50057028  1
  I  I131  1  0.67196255  0.50148410  0.83776884  1
  I  I132  1  0.66691546  0.83170677  0.16518440  1
  I  I133  1  0.66721661  0.83429280  0.50034218  1
  I  I134  1  0.67051447  0.83523382  0.83448642  1
