# generated using pymatgen
data_Cs27Sn14Pb13I81
_symmetry_space_group_name_H-M   'P 1'
_cell_length_a   18.97359350
_cell_length_b   18.97910335
_cell_length_c   18.97368659
_cell_angle_alpha   90.00154102
_cell_angle_beta   89.99803390
_cell_angle_gamma   89.99871522
_symmetry_Int_Tables_number   1
_chemical_formula_structural   Cs27Sn14Pb13I81
_chemical_formula_sum   'Cs27 Sn14 Pb13 I81'
_cell_volume   6832.45853228
_cell_formula_units_Z   1
loop_
 _symmetry_equiv_pos_site_id
 _symmetry_equiv_pos_as_xyz
  1  'x, y, z'
loop_
 _atom_site_type_symbol
 _atom_site_label
 _atom_site_symmetry_multiplicity
 _atom_site_fract_x
 _atom_site_fract_y
 _atom_site_fract_z
 _atom_site_occupancy
  Cs  Cs0  1  0.00163079  0.00217835  0.00079774  1
  Cs  Cs1  1  -0.00057279  -0.00309833  0.33284297  1
  Cs  Cs2  1  0.00089036  -0.00327132  0.66299060  1
  Cs  Cs3  1  -0.00094697  0.33320290  0.00081392  1
  Cs  Cs4  1  0.00408631  0.33308684  0.32880506  1
  Cs  Cs5  1  -0.00479683  0.33435889  0.66783418  1
  Cs  Cs6  1  0.00005026  0.66480546  -0.00025164  1
  Cs  Cs7  1  -0.00235163  0.67053176  0.33422072  1
  Cs  Cs8  1  0.00038491  0.66872923  0.66302300  1
  Cs  Cs9  1  0.33361542  0.00146722  -0.00143302  1
  Cs  Cs10  1  0.33245665  0.00306896  0.33325068  1
  Cs  Cs11  1  0.33283971  -0.00242499  0.66839016  1
  Cs  Cs12  1  0.33171747  0.33259726  0.00022210  1
  Cs  Cs13  1  0.33262398  0.33530339  0.33463229  1
  Cs  Cs14  1  0.33407868  0.33323483  0.66640141  1
  Cs  Cs15  1  0.33474877  0.66385894  -0.00069441  1
  Cs  Cs16  1  0.33669927  0.66061504  0.32954338  1
  Cs  Cs17  1  0.33186502  0.67053197  0.66942647  1
  Cs  Cs18  1  0.66570568  -0.00185528  0.00065542  1
  Cs  Cs19  1  0.66957455  -0.00290587  0.33364924  1
  Cs  Cs20  1  0.66456531  0.00241782  0.66641899  1
  Cs  Cs21  1  0.67144964  0.33139507  -0.00291856  1
  Cs  Cs22  1  0.66536530  0.33442659  0.34285677  1
  Cs  Cs23  1  0.67309882  0.33537573  0.66091839  1
  Cs  Cs24  1  0.66513170  0.67084211  0.00058674  1
  Cs  Cs25  1  0.66641536  0.66851069  0.33299916  1
  Cs  Cs26  1  0.66665831  0.66351386  0.66799615  1
  Sn  Sn27  1  0.16710385  0.16753557  0.83280961  1
  Sn  Sn28  1  0.49961504  0.49905580  0.83352329  1
  Sn  Sn29  1  0.83280155  0.83367190  0.83333684  1
  Sn  Sn30  1  0.83291611  0.16763887  0.16665673  1
  Sn  Sn31  1  0.49961601  0.16754975  0.83383887  1
  Sn  Sn32  1  0.16708089  0.16577790  0.16657688  1
  Sn  Sn33  1  0.49958832  0.83347100  0.50036068  1
  Sn  Sn34  1  0.16722503  0.83372023  0.16628953  1
  Sn  Sn35  1  0.16676396  0.16740461  0.50053563  1
  Sn  Sn36  1  0.83276010  0.49929715  0.16668276  1
  Sn  Sn37  1  0.16675311  0.49934058  0.50118631  1
  Sn  Sn38  1  0.16720490  0.49890134  0.83230158  1
  Sn  Sn39  1  0.50098658  0.83359396  0.83259545  1
  Sn  Sn40  1  0.50022736  0.16696185  0.16628911  1
  Pb  Pb41  1  0.49795127  0.16528754  0.50054075  1
  Pb  Pb42  1  0.16561598  0.49952979  0.16626156  1
  Pb  Pb43  1  0.16880512  0.83298884  0.49749726  1
  Pb  Pb44  1  0.83520806  0.83370043  0.16490022  1
  Pb  Pb45  1  0.83040318  0.83336070  0.50287652  1
  Pb  Pb46  1  0.49767469  0.50209652  0.50266187  1
  Pb  Pb47  1  0.49800879  0.83540522  0.16617223  1
  Pb  Pb48  1  0.83368058  0.50182542  0.83479038  1
  Pb  Pb49  1  0.83649739  0.16660794  0.49689958  1
  Pb  Pb50  1  0.50272807  0.49675831  0.16425072  1
  Pb  Pb51  1  0.83624337  0.49997608  0.49715564  1
  Pb  Pb52  1  0.83351235  0.16484062  0.83483857  1
  Pb  Pb53  1  0.16719538  0.83334808  0.83486689  1
  I  I54  1  0.16422631  0.00263991  0.16592129  1
  I  I55  1  0.16833473  0.00281991  0.50182479  1
  I  I56  1  0.16937742  0.00306710  0.83270319  1
  I  I57  1  0.16760465  0.32997244  0.16651040  1
  I  I58  1  0.16814740  0.33239712  0.49722821  1
  I  I59  1  0.17366646  0.33236367  0.83579246  1
  I  I60  1  0.16398222  0.66830009  0.16594455  1
  I  I61  1  0.16788866  0.66406641  0.50391686  1
  I  I62  1  0.16914580  0.66415766  0.83170786  1
  I  I63  1  0.50271409  0.00351903  0.16079367  1
  I  I64  1  0.49644323  -0.00240777  0.50630520  1
  I  I65  1  0.49911970  0.00063532  0.83396418  1
  I  I66  1  0.49230201  0.32877640  0.16221919  1
  I  I67  1  0.50038874  0.33337627  0.49933685  1
  I  I68  1  0.49324371  0.33241724  0.84009471  1
  I  I69  1  0.49923609  0.66654405  0.16594275  1
  I  I70  1  0.49683396  0.66989785  0.50501906  1
  I  I71  1  0.49916581  0.66675131  0.82867720  1
  I  I72  1  0.83328899  0.00308318  0.16476305  1
  I  I73  1  0.83692635  -0.00005571  0.49720027  1
  I  I74  1  0.82957691  -0.00282292  0.83714751  1
  I  I75  1  0.83809312  0.33182785  0.16345898  1
  I  I76  1  0.82926564  0.33323189  0.50365050  1
  I  I77  1  0.83151248  0.33318300  0.83388070  1
  I  I78  1  0.83772836  0.66478310  0.16425393  1
  I  I79  1  0.83723428  0.66673395  0.49626122  1
  I  I80  1  0.82962019  0.66952526  0.83774523  1
  I  I81  1  0.16723643  0.16628945  -0.00000682  1
  I  I82  1  0.16644259  0.16641890  0.33232318  1
  I  I83  1  0.17281228  0.17030606  0.66789027  1
  I  I84  1  0.16892758  0.49779526  -0.00288799  1
  I  I85  1  0.16416512  0.49741251  0.33510311  1
  I  I86  1  0.17032958  0.49309405  0.66797065  1
  I  I87  1  0.16779915  0.83826374  0.00255948  1
  I  I88  1  0.16706225  0.83830575  0.32987397  1
  I  I89  1  0.16458088  0.83572974  0.66679244  1
  I  I90  1  0.49473956  0.16400053  -0.00095574  1
  I  I91  1  0.49848721  0.16341347  0.33069480  1
  I  I92  1  0.49434064  0.16637266  0.67031887  1
  I  I93  1  0.49197199  0.50615298  -0.00389517  1
  I  I94  1  0.49919197  0.50159236  0.33329517  1
  I  I95  1  0.49936111  0.49491381  0.67106299  1
  I  I96  1  0.50239511  0.83230706  -0.00328796  1
  I  I97  1  0.49595372  0.83578911  0.33508977  1
  I  I98  1  0.50213360  0.83595126  0.66895004  1
  I  I99  1  0.83879924  0.16925810  0.00300462  1
  I  I100  1  0.83229710  0.16910599  0.32841095  1
  I  I101  1  0.83334676  0.16481616  0.66667352  1
  I  I102  1  0.83751115  0.49571766  0.00241936  1
  I  I103  1  0.83579411  0.49591385  0.32924476  1
  I  I104  1  0.83212429  0.50208819  0.66677598  1
  I  I105  1  0.82625717  0.83340879  -0.00260558  1
  I  I106  1  0.83326716  0.83311578  0.33314914  1
  I  I107  1  0.83487979  0.83285497  0.67083570  1
  I  I108  1  0.00129047  0.16683153  0.16632053  1
  I  I109  1  0.00505058  0.16889097  0.50181478  1
  I  I110  1  0.00347992  0.16968892  0.83534352  1
  I  I111  1  -0.00191443  0.49457653  0.16396633  1
  I  I112  1  0.00438868  0.49685835  0.50739820  1
  I  I113  1  0.00327949  0.49667998  0.83226780  1
  I  I114  1  0.00305894  0.83901520  0.16481516  1
  I  I115  1  0.00036617  0.83330212  0.50020864  1
  I  I116  1  -0.00133121  0.83328715  0.83812073  1
  I  I117  1  0.33235540  0.16073406  0.16503273  1
  I  I118  1  0.32977574  0.16940710  0.49475053  1
  I  I119  1  0.33301717  0.16475258  0.83834679  1
  I  I120  1  0.33353461  0.50088770  0.16828013  1
  I  I121  1  0.32977228  0.49565590  0.49874337  1
  I  I122  1  0.33285472  0.50198916  0.83125574  1
  I  I123  1  0.33021174  0.83904760  0.16424826  1
  I  I124  1  0.33600217  0.83442000  0.50895878  1
  I  I125  1  0.33621038  0.83389965  0.83106095  1
  I  I126  1  0.66615229  0.17002027  0.15909966  1
  I  I127  1  0.66650929  0.16468610  0.49948531  1
  I  I128  1  0.66345832  0.16718924  0.83903774  1
  I  I129  1  0.67018987  0.49648892  0.16332083  1
  I  I130  1  0.66645077  0.50146229  0.50035080  1
  I  I131  1  0.66376313  0.49861156  0.83678791  1
  I  I132  1  0.66640051  0.83447528  0.16799542  1
  I  I133  1  0.66249920  0.83451109  0.49956973  1
  I  I134  1  0.66474786  0.83331582  0.83168297  1
