# generated using pymatgen
data_Cs27Sn14Pb13I81
_symmetry_space_group_name_H-M   'P 1'
_cell_length_a   18.96015049
_cell_length_b   18.97716473
_cell_length_c   18.99012999
_cell_angle_alpha   89.99929538
_cell_angle_beta   90.00034170
_cell_angle_gamma   90.00097939
_symmetry_Int_Tables_number   1
_chemical_formula_structural   Cs27Sn14Pb13I81
_chemical_formula_sum   'Cs27 Sn14 Pb13 I81'
_cell_volume   6832.83675054
_cell_formula_units_Z   1
loop_
 _symmetry_equiv_pos_site_id
 _symmetry_equiv_pos_as_xyz
  1  'x, y, z'
loop_
 _atom_site_type_symbol
 _atom_site_label
 _atom_site_symmetry_multiplicity
 _atom_site_fract_x
 _atom_site_fract_y
 _atom_site_fract_z
 _atom_site_occupancy
  Cs  Cs0  1  0.00707394  -0.00782722  -0.00596593  1
  Cs  Cs1  1  0.00107988  0.00054118  0.32924951  1
  Cs  Cs2  1  0.00045777  0.00087306  0.67669241  1
  Cs  Cs3  1  -0.00100857  0.33161097  -0.00575770  1
  Cs  Cs4  1  0.00262117  0.33188600  0.33459397  1
  Cs  Cs5  1  -0.00080950  0.33244718  0.67022223  1
  Cs  Cs6  1  -0.00422852  0.67542774  0.00128814  1
  Cs  Cs7  1  -0.00715572  0.66846626  0.33355179  1
  Cs  Cs8  1  -0.00697248  0.66625991  0.66526413  1
  Cs  Cs9  1  0.33132620  -0.00242889  0.00085876  1
  Cs  Cs10  1  0.33316574  0.00026295  0.33406900  1
  Cs  Cs11  1  0.33541042  -0.00157859  0.66493546  1
  Cs  Cs12  1  0.33436447  0.33708263  0.00066040  1
  Cs  Cs13  1  0.33198160  0.33508516  0.33430776  1
  Cs  Cs14  1  0.33328191  0.33610931  0.66482315  1
  Cs  Cs15  1  0.33356101  0.66453363  -0.00063294  1
  Cs  Cs16  1  0.33457640  0.66410134  0.33577448  1
  Cs  Cs17  1  0.33435277  0.66483251  0.66551424  1
  Cs  Cs18  1  0.66455600  0.00334453  0.00097496  1
  Cs  Cs19  1  0.66542432  0.00228747  0.33339733  1
  Cs  Cs20  1  0.66422541  0.00052361  0.66545044  1
  Cs  Cs21  1  0.66767984  0.33272043  0.00263784  1
  Cs  Cs22  1  0.66643788  0.33119790  0.33112507  1
  Cs  Cs23  1  0.66666816  0.33202003  0.66680026  1
  Cs  Cs24  1  0.67053871  0.66417336  0.00448330  1
  Cs  Cs25  1  0.67299789  0.66600059  0.33196285  1
  Cs  Cs26  1  0.66911448  0.66790828  0.66462910  1
  Sn  Sn27  1  0.83287338  0.16645089  0.49924920  1
  Sn  Sn28  1  0.16727764  0.50055299  0.83310814  1
  Sn  Sn29  1  0.16718290  0.50127078  0.50012281  1
  Sn  Sn30  1  0.16721224  0.83252323  0.49997956  1
  Sn  Sn31  1  0.49978435  0.83273688  0.83342154  1
  Sn  Sn32  1  0.50046359  0.16695205  0.49983699  1
  Sn  Sn33  1  0.49958260  0.83291428  0.49964012  1
  Sn  Sn34  1  0.49993716  0.16595308  0.16689805  1
  Sn  Sn35  1  0.49998290  0.50022231  0.83245805  1
  Sn  Sn36  1  0.83334624  0.16650000  0.16718921  1
  Sn  Sn37  1  0.49967925  0.83376097  0.16709274  1
  Sn  Sn38  1  0.16632909  0.50010271  0.16668221  1
  Sn  Sn39  1  0.49995223  0.50008264  0.50053262  1
  Sn  Sn40  1  0.49963905  0.16696980  0.83331618  1
  Pb  Pb41  1  0.16686796  0.16823023  0.16650373  1
  Pb  Pb42  1  0.83336451  0.83657047  0.50006990  1
  Pb  Pb43  1  0.83002293  0.83338971  0.83322526  1
  Pb  Pb44  1  0.83274291  0.50012360  0.83329941  1
  Pb  Pb45  1  0.83068322  0.83655879  0.16679581  1
  Pb  Pb46  1  0.16669267  0.16638251  0.50006880  1
  Pb  Pb47  1  0.49912038  0.49997729  0.16694121  1
  Pb  Pb48  1  0.83323387  0.49738718  0.49994962  1
  Pb  Pb49  1  0.16921371  0.83042002  0.83059983  1
  Pb  Pb50  1  0.83694534  0.49710034  0.16670511  1
  Pb  Pb51  1  0.83100737  0.16655966  0.83367711  1
  Pb  Pb52  1  0.16989490  0.16882200  0.83332850  1
  Pb  Pb53  1  0.16921890  0.83090700  0.16920136  1
  I  I54  1  0.16528763  -0.00036426  0.16896855  1
  I  I55  1  0.17231231  -0.00275415  0.49853992  1
  I  I56  1  0.16653585  -0.00060317  0.83227520  1
  I  I57  1  0.17081599  0.33646174  0.17064089  1
  I  I58  1  0.17075327  0.33666018  0.49999981  1
  I  I59  1  0.17249311  0.33726551  0.82963025  1
  I  I60  1  0.17140285  0.66298348  0.16427977  1
  I  I61  1  0.17710243  0.66550365  0.49997126  1
  I  I62  1  0.17511053  0.66253872  0.83542901  1
  I  I63  1  0.50348145  0.00072420  0.16692730  1
  I  I64  1  0.49989763  -0.00002015  0.50218281  1
  I  I65  1  0.50242740  0.00012707  0.83034563  1
  I  I66  1  0.50198991  0.33054257  0.16680886  1
  I  I67  1  0.49949131  0.33341068  0.50225595  1
  I  I68  1  0.49645072  0.33354575  0.83048963  1
  I  I69  1  0.49585653  0.66909032  0.16648976  1
  I  I70  1  0.49429802  0.66650203  0.50278151  1
  I  I71  1  0.49503243  0.66619079  0.83038128  1
  I  I72  1  0.83016199  0.00435935  0.17300597  1
  I  I73  1  0.82648003  0.00414039  0.49579009  1
  I  I74  1  0.83282300  0.00029979  0.83209809  1
  I  I75  1  0.82301048  0.32953736  0.17094214  1
  I  I76  1  0.82763909  0.32974879  0.49645149  1
  I  I77  1  0.83156314  0.33313775  0.83294856  1
  I  I78  1  0.83212572  0.66686422  0.16583776  1
  I  I79  1  0.83072826  0.66678968  0.50041582  1
  I  I80  1  0.83072224  0.66662735  0.83332883  1
  I  I81  1  0.16694685  0.16989385  -0.00008790  1
  I  I82  1  0.17145630  0.17061517  0.33351785  1
  I  I83  1  0.16517247  0.16872053  0.66649079  1
  I  I84  1  0.17371403  0.49598409  -0.00079084  1
  I  I85  1  0.17259723  0.50158527  0.33486591  1
  I  I86  1  0.17317692  0.50244576  0.66592367  1
  I  I87  1  0.16772042  0.83222502  -0.00017227  1
  I  I88  1  0.17410225  0.82838889  0.33689955  1
  I  I89  1  0.17368599  0.82991740  0.66288197  1
  I  I90  1  0.50330815  0.16510979  0.00023859  1
  I  I91  1  0.50352100  0.16474831  0.33388031  1
  I  I92  1  0.50313084  0.16528150  0.66594348  1
  I  I93  1  0.49538604  0.49942459  -0.00251862  1
  I  I94  1  0.49517378  0.49902957  0.33634033  1
  I  I95  1  0.49312687  0.49844171  0.66604258  1
  I  I96  1  0.50120000  0.83670006  -0.00016840  1
  I  I97  1  0.49595688  0.83675665  0.33428386  1
  I  I98  1  0.49650112  0.83604820  0.66595652  1
  I  I99  1  0.82660277  0.16897730  0.00302596  1
  I  I100  1  0.82312106  0.16753480  0.33366756  1
  I  I101  1  0.82865644  0.16735617  0.66389561  1
  I  I102  1  0.83094599  0.49608261  0.00006349  1
  I  I103  1  0.83216398  0.50065314  0.33345512  1
  I  I104  1  0.83654431  0.49655012  0.66643535  1
  I  I105  1  0.83279768  0.83517533  0.00017821  1
  I  I106  1  0.83110091  0.83128890  0.33349963  1
  I  I107  1  0.83150641  0.83560568  0.66631786  1
  I  I108  1  -0.00290494  0.17165772  0.17484397  1
  I  I109  1  -0.00273979  0.16795517  0.49331120  1
  I  I110  1  0.00008180  0.16928756  0.83273844  1
  I  I111  1  0.00496102  0.49805510  0.16856284  1
  I  I112  1  0.00356618  0.50335016  0.50077460  1
  I  I113  1  0.00340546  0.49794609  0.83118385  1
  I  I114  1  0.00029097  0.83361753  0.16814349  1
  I  I115  1  0.00301615  0.82752790  0.49929024  1
  I  I116  1  0.00059224  0.83258686  0.83204778  1
  I  I117  1  0.33722306  0.16401840  0.16826043  1
  I  I118  1  0.33713282  0.16716221  0.49938323  1
  I  I119  1  0.33858857  0.16448554  0.83208873  1
  I  I120  1  0.33130872  0.49717881  0.16741471  1
  I  I121  1  0.33452759  0.49781373  0.50066635  1
  I  I122  1  0.33486545  0.49867589  0.83207596  1
  I  I123  1  0.33755106  0.84123961  0.16475045  1
  I  I124  1  0.33580381  0.83472747  0.50021667  1
  I  I125  1  0.33779869  0.83676534  0.83516981  1
  I  I126  1  0.66426897  0.16390872  0.16758266  1
  I  I127  1  0.66367988  0.16700367  0.49983485  1
  I  I128  1  0.66191360  0.16938851  0.83277405  1
  I  I129  1  0.66664511  0.50212807  0.16647324  1
  I  I130  1  0.66286497  0.50266317  0.50494620  1
  I  I131  1  0.66203213  0.49947558  0.82816803  1
  I  I132  1  0.66190095  0.83239690  0.16943407  1
  I  I133  1  0.66251753  0.83065365  0.50078590  1
  I  I134  1  0.66082554  0.83119787  0.82899283  1
