# generated using pymatgen
data_Cs27Sn14Pb13I81
_symmetry_space_group_name_H-M   'P 1'
_cell_length_a   18.96326624
_cell_length_b   18.96051931
_cell_length_c   18.95990115
_cell_angle_alpha   90.00235721
_cell_angle_beta   89.99953839
_cell_angle_gamma   90.00007535
_symmetry_Int_Tables_number   1
_chemical_formula_structural   Cs27Sn14Pb13I81
_chemical_formula_sum   'Cs27 Sn14 Pb13 I81'
_cell_volume   6817.09645595
_cell_formula_units_Z   1
loop_
 _symmetry_equiv_pos_site_id
 _symmetry_equiv_pos_as_xyz
  1  'x, y, z'
loop_
 _atom_site_type_symbol
 _atom_site_label
 _atom_site_symmetry_multiplicity
 _atom_site_fract_x
 _atom_site_fract_y
 _atom_site_fract_z
 _atom_site_occupancy
  Cs  Cs0  1  -0.00155319  -0.00026723  0.00204850  1
  Cs  Cs1  1  -0.00211644  -0.00003587  0.33085345  1
  Cs  Cs2  1  0.00103871  -0.00141353  0.66905061  1
  Cs  Cs3  1  -0.00644814  0.33272247  -0.00250866  1
  Cs  Cs4  1  0.00310068  0.33231024  0.33589804  1
  Cs  Cs5  1  0.00362114  0.33276131  0.66615262  1
  Cs  Cs6  1  -0.00474400  0.66611204  0.00466943  1
  Cs  Cs7  1  0.00203241  0.66860859  0.32576219  1
  Cs  Cs8  1  -0.00002756  0.66778746  0.66783923  1
  Cs  Cs9  1  0.33399755  -0.00073292  -0.00078011  1
  Cs  Cs10  1  0.33494228  0.00008620  0.33322644  1
  Cs  Cs11  1  0.33363066  -0.00184582  0.66784869  1
  Cs  Cs12  1  0.33485220  0.33371947  -0.00122768  1
  Cs  Cs13  1  0.33188201  0.33498936  0.33447891  1
  Cs  Cs14  1  0.33045903  0.33407640  0.66700099  1
  Cs  Cs15  1  0.33327099  0.66804021  -0.00227379  1
  Cs  Cs16  1  0.33281680  0.66533606  0.33216821  1
  Cs  Cs17  1  0.33422923  0.66722526  0.66724613  1
  Cs  Cs18  1  0.66500415  0.00257792  -0.00126935  1
  Cs  Cs19  1  0.66549779  0.00170092  0.33463444  1
  Cs  Cs20  1  0.66625272  -0.00134312  0.66525969  1
  Cs  Cs21  1  0.66935717  0.33449717  -0.00035489  1
  Cs  Cs22  1  0.66552504  0.33134985  0.33356896  1
  Cs  Cs23  1  0.66581861  0.33450630  0.66541865  1
  Cs  Cs24  1  0.67089708  0.66161020  -0.00039164  1
  Cs  Cs25  1  0.66636676  0.66577968  0.33529027  1
  Cs  Cs26  1  0.66578368  0.66708520  0.66527365  1
  Sn  Sn27  1  0.49982418  0.16610168  0.16743201  1
  Sn  Sn28  1  0.49918733  0.50079146  0.83242157  1
  Sn  Sn29  1  0.50035584  0.49989071  0.50076647  1
  Sn  Sn30  1  0.83307393  0.49946008  0.49999303  1
  Sn  Sn31  1  0.49904966  0.83327752  0.49989366  1
  Sn  Sn32  1  0.16736050  0.83223203  0.83279714  1
  Sn  Sn33  1  0.50021569  0.16681276  0.49949120  1
  Sn  Sn34  1  0.83265710  0.16753507  0.49965251  1
  Sn  Sn35  1  0.49970035  0.83236643  0.83353460  1
  Sn  Sn36  1  0.16731998  0.83337584  0.50028679  1
  Sn  Sn37  1  0.83285665  0.16665154  0.16776096  1
  Sn  Sn38  1  0.16720957  0.16698288  0.16654646  1
  Sn  Sn39  1  0.49999259  0.83362959  0.16662171  1
  Sn  Sn40  1  0.16734013  0.50089909  0.83349553  1
  Pb  Pb41  1  0.83308543  0.50009636  0.83064747  1
  Pb  Pb42  1  0.83326334  0.49746219  0.17002645  1
  Pb  Pb43  1  0.83317931  0.16656691  0.83220836  1
  Pb  Pb44  1  0.83337680  0.83349888  0.49994188  1
  Pb  Pb45  1  0.50003253  0.16687566  0.83283730  1
  Pb  Pb46  1  0.82982205  0.83564931  0.16678615  1
  Pb  Pb47  1  0.49987105  0.49984757  0.16664107  1
  Pb  Pb48  1  0.16875266  0.83486932  0.16622393  1
  Pb  Pb49  1  0.16681060  0.16426516  0.49853661  1
  Pb  Pb50  1  0.16672194  0.50247017  0.50145119  1
  Pb  Pb51  1  0.16677076  0.16619084  0.83581414  1
  Pb  Pb52  1  0.83306675  0.83319903  0.83342231  1
  Pb  Pb53  1  0.16677627  0.49748592  0.16331995  1
  I  I54  1  0.16542421  0.00300884  0.16552532  1
  I  I55  1  0.17138293  -0.00359240  0.50573475  1
  I  I56  1  0.17203918  -0.00358323  0.83034602  1
  I  I57  1  0.17025124  0.32914007  0.16764817  1
  I  I58  1  0.16859420  0.33332395  0.50074888  1
  I  I59  1  0.17124992  0.33617000  0.83441641  1
  I  I60  1  0.16844288  0.66691956  0.16883343  1
  I  I61  1  0.17116101  0.67040842  0.50109029  1
  I  I62  1  0.17257426  0.66752249  0.82870512  1
  I  I63  1  0.50002491  0.00064674  0.16930690  1
  I  I64  1  0.50044462  -0.00014647  0.49949707  1
  I  I65  1  0.49560143  -0.00320710  0.83162326  1
  I  I66  1  0.50087338  0.32973372  0.16947973  1
  I  I67  1  0.50464100  0.33313089  0.49967837  1
  I  I68  1  0.49640086  0.33647223  0.83037057  1
  I  I69  1  0.49773873  0.66965964  0.16947128  1
  I  I70  1  0.50079428  0.66698002  0.50049472  1
  I  I71  1  0.49612459  0.66715093  0.83003841  1
  I  I72  1  0.83542008  0.00405237  0.17400099  1
  I  I73  1  0.82954670  0.00326636  0.49537201  1
  I  I74  1  0.83361670  -0.00006503  0.83130304  1
  I  I75  1  0.82902996  0.32902934  0.16687594  1
  I  I76  1  0.82506144  0.33257622  0.49654878  1
  I  I77  1  0.83322070  0.33346383  0.83607065  1
  I  I78  1  0.83320125  0.66662105  0.16691259  1
  I  I79  1  0.82839378  0.66405285  0.50324064  1
  I  I80  1  0.83274826  0.66652267  0.83128112  1
  I  I81  1  0.16790198  0.16496120  0.00393509  1
  I  I82  1  0.16745774  0.16420865  0.33053216  1
  I  I83  1  0.16631223  0.16736964  0.66661834  1
  I  I84  1  0.17437541  0.50633832  -0.00469298  1
  I  I85  1  0.16670382  0.50099532  0.33350369  1
  I  I86  1  0.16864699  0.50029648  0.66956647  1
  I  I87  1  0.17195997  0.83190424  -0.00303201  1
  I  I88  1  0.17081969  0.83531911  0.33569684  1
  I  I89  1  0.17431901  0.83183244  0.66695082  1
  I  I90  1  0.50058520  0.16329825  0.00311267  1
  I  I91  1  0.50096804  0.16331385  0.33378721  1
  I  I92  1  0.50494088  0.16432811  0.66304354  1
  I  I93  1  0.49541453  0.50256253  -0.00314392  1
  I  I94  1  0.50421353  0.50188465  0.33679510  1
  I  I95  1  0.50049913  0.50232147  0.66584370  1
  I  I96  1  0.49581667  0.83512245  -0.00058239  1
  I  I97  1  0.49666902  0.83482828  0.33446371  1
  I  I98  1  0.49664673  0.83352409  0.66602873  1
  I  I99  1  0.83234625  0.16494877  0.00328077  1
  I  I100  1  0.83137419  0.17026845  0.33386834  1
  I  I101  1  0.82745992  0.16976635  0.66238772  1
  I  I102  1  0.83306749  0.49819457  -0.00004217  1
  I  I103  1  0.82568487  0.49899610  0.33796622  1
  I  I104  1  0.83057509  0.49283145  0.66283293  1
  I  I105  1  0.83378629  0.83612007  0.00019763  1
  I  I106  1  0.83521677  0.83067570  0.33358515  1
  I  I107  1  0.82980217  0.83702643  0.66637162  1
  I  I108  1  -0.00065929  0.16762936  0.17022538  1
  I  I109  1  -0.00261872  0.17010087  0.49583799  1
  I  I110  1  0.00015754  0.16677471  0.83366726  1
  I  I111  1  -0.00002613  0.49878578  0.16671413  1
  I  I112  1  -0.00233918  0.49472866  0.50173610  1
  I  I113  1  0.00288740  0.50348018  0.83260249  1
  I  I114  1  0.00010431  0.83575728  0.16661753  1
  I  I115  1  0.00295141  0.83422321  0.50579550  1
  I  I116  1  0.00372357  0.83068490  0.82766351  1
  I  I117  1  0.33498137  0.16248880  0.16988513  1
  I  I118  1  0.33665462  0.16852761  0.49575769  1
  I  I119  1  0.33357989  0.16751404  0.83417624  1
  I  I120  1  0.33362464  0.49563498  0.17163846  1
  I  I121  1  0.33670499  0.49717155  0.50166179  1
  I  I122  1  0.33471035  0.50322602  0.82781543  1
  I  I123  1  0.33702782  0.84036940  0.16725194  1
  I  I124  1  0.33549875  0.83418379  0.50086324  1
  I  I125  1  0.33459076  0.82980393  0.83221033  1
  I  I126  1  0.66566629  0.16225914  0.17121054  1
  I  I127  1  0.66514532  0.16553664  0.49308141  1
  I  I128  1  0.66621357  0.16612896  0.83813400  1
  I  I129  1  0.66630618  0.49926857  0.16121790  1
  I  I130  1  0.66452811  0.50071606  0.50508572  1
  I  I131  1  0.66321780  0.50414017  0.83177858  1
  I  I132  1  0.66144529  0.83844873  0.16800943  1
  I  I133  1  0.66290590  0.83387740  0.50071531  1
  I  I134  1  0.66229094  0.83031652  0.83172409  1
