# generated using pymatgen
data_Cs27Sn13Pb14I81
_symmetry_space_group_name_H-M   'P 1'
_cell_length_a   18.98217656
_cell_length_b   18.98567448
_cell_length_c   19.00919787
_cell_angle_alpha   89.99999999
_cell_angle_beta   90.00000008
_cell_angle_gamma   90.00127395
_symmetry_Int_Tables_number   1
_chemical_formula_structural   Cs27Sn13Pb14I81
_chemical_formula_sum   'Cs27 Sn13 Pb14 I81'
_cell_volume   6850.71389110
_cell_formula_units_Z   1
loop_
 _symmetry_equiv_pos_site_id
 _symmetry_equiv_pos_as_xyz
  1  'x, y, z'
loop_
 _atom_site_type_symbol
 _atom_site_label
 _atom_site_symmetry_multiplicity
 _atom_site_fract_x
 _atom_site_fract_y
 _atom_site_fract_z
 _atom_site_occupancy
  Cs  Cs0  1  -0.00121720  -0.00024435  0.00154628  1
  Cs  Cs1  1  0.00615721  -0.00407738  0.33333343  1
  Cs  Cs2  1  -0.00121701  -0.00024450  0.66512030  1
  Cs  Cs3  1  0.00262138  0.33181488  -0.00035993  1
  Cs  Cs4  1  0.00270553  0.33006568  0.33333322  1
  Cs  Cs5  1  0.00262148  0.33181498  0.66702662  1
  Cs  Cs6  1  -0.00557408  0.66760064  0.00035465  1
  Cs  Cs7  1  -0.00606657  0.67455103  0.33333332  1
  Cs  Cs8  1  -0.00557390  0.66760055  0.66631202  1
  Cs  Cs9  1  0.33557357  -0.00171783  0.00000461  1
  Cs  Cs10  1  0.33274411  -0.00113555  0.33333334  1
  Cs  Cs11  1  0.33557351  -0.00171777  0.66666219  1
  Cs  Cs12  1  0.33256190  0.33557782  -0.00270743  1
  Cs  Cs13  1  0.33134815  0.33474458  0.33333324  1
  Cs  Cs14  1  0.33256183  0.33557800  0.66937409  1
  Cs  Cs15  1  0.33289410  0.66686076  -0.00050358  1
  Cs  Cs16  1  0.33481029  0.66718360  0.33333329  1
  Cs  Cs17  1  0.33289409  0.66686072  0.66717026  1
  Cs  Cs18  1  0.66453698  0.00137957  0.00104170  1
  Cs  Cs19  1  0.66328449  0.00249950  0.33333339  1
  Cs  Cs20  1  0.66453685  0.00137947  0.66562484  1
  Cs  Cs21  1  0.66497626  0.33490656  0.00048131  1
  Cs  Cs22  1  0.66750597  0.33447379  0.33333331  1
  Cs  Cs23  1  0.66497622  0.33490678  0.66618520  1
  Cs  Cs24  1  0.67629171  0.66128920  0.00231548  1
  Cs  Cs25  1  0.67137816  0.65813963  0.33333325  1
  Cs  Cs26  1  0.67629166  0.66128904  0.66435124  1
  Sn  Sn27  1  0.50028234  0.83284760  0.83333330  1
  Sn  Sn28  1  0.16659044  0.50038760  0.16677764  1
  Sn  Sn29  1  0.16706592  0.83328962  0.83333334  1
  Sn  Sn30  1  0.16659043  0.50038760  0.49988900  1
  Sn  Sn31  1  0.83376936  0.16645986  0.83333329  1
  Sn  Sn32  1  0.83289678  0.16634932  0.16695172  1
  Sn  Sn33  1  0.50028126  0.16630543  0.16744412  1
  Sn  Sn34  1  0.50021616  0.83334749  0.16652834  1
  Sn  Sn35  1  0.83289681  0.16634936  0.49971496  1
  Sn  Sn36  1  0.50021617  0.83334745  0.50013835  1
  Sn  Sn37  1  0.16673427  0.50060282  0.83333335  1
  Sn  Sn38  1  0.16628112  0.16599314  0.83333334  1
  Sn  Sn39  1  0.50028127  0.16630545  0.49922252  1
  Pb  Pb40  1  0.49831902  0.49977529  0.50008316  1
  Pb  Pb41  1  0.83636620  0.49688172  0.49985428  1
  Pb  Pb42  1  0.83024039  0.83615449  0.49986069  1
  Pb  Pb43  1  0.49831902  0.49977532  0.16658351  1
  Pb  Pb44  1  0.16745141  0.16765733  0.50212427  1
  Pb  Pb45  1  0.16745140  0.16765733  0.16454235  1
  Pb  Pb46  1  0.83609683  0.49684447  0.83333336  1
  Pb  Pb47  1  0.83636618  0.49688173  0.16681240  1
  Pb  Pb48  1  0.49840939  0.50368428  0.83333335  1
  Pb  Pb49  1  0.50003720  0.16540772  0.83333331  1
  Pb  Pb50  1  0.83291450  0.83594147  0.83333332  1
  Pb  Pb51  1  0.16880410  0.83109512  0.16439138  1
  Pb  Pb52  1  0.83024038  0.83615453  0.16680597  1
  Pb  Pb53  1  0.16880413  0.83109507  0.50227527  1
  I  I54  1  0.16464653  -0.00007607  0.16458961  1
  I  I55  1  0.16464626  -0.00007608  0.50207699  1
  I  I56  1  0.16713229  0.00010656  0.83333338  1
  I  I57  1  0.16837608  0.33566027  0.16310070  1
  I  I58  1  0.16837614  0.33566029  0.50356602  1
  I  I59  1  0.16136653  0.33335940  0.83333333  1
  I  I60  1  0.17060730  0.66315470  0.16428044  1
  I  I61  1  0.17060741  0.66315476  0.50238637  1
  I  I62  1  0.17528947  0.66667369  0.83333323  1
  I  I63  1  0.50273807  0.00073484  0.16675255  1
  I  I64  1  0.50273813  0.00073483  0.49991387  1
  I  I65  1  0.49313862  -0.00251808  0.83333351  1
  I  I66  1  0.50310920  0.32967488  0.17168331  1
  I  I67  1  0.50310931  0.32967484  0.49498368  1
  I  I68  1  0.49872686  0.33319726  0.83333310  1
  I  I69  1  0.49458897  0.66983804  0.16668888  1
  I  I70  1  0.49458881  0.66983808  0.49997772  1
  I  I71  1  0.49193165  0.67203534  0.83333344  1
  I  I72  1  0.83390611  0.00446770  0.16538186  1
  I  I73  1  0.83390640  0.00446772  0.50128457  1
  I  I74  1  0.84043250  0.00402248  0.83333360  1
  I  I75  1  0.82562416  0.32878543  0.16566646  1
  I  I76  1  0.82562387  0.32878543  0.50100006  1
  I  I77  1  0.83807994  0.32862994  0.83333363  1
  I  I78  1  0.83258841  0.66661704  0.16588756  1
  I  I79  1  0.83258844  0.66661701  0.50077947  1
  I  I80  1  0.83325605  0.66670176  0.83333296  1
  I  I81  1  0.16370590  0.16932150  -0.00357475  1
  I  I82  1  0.16415898  0.17064195  0.33333336  1
  I  I83  1  0.16370574  0.16932134  0.67024142  1
  I  I84  1  0.16824203  0.49830196  -0.00109029  1
  I  I85  1  0.16926592  0.49557049  0.33333330  1
  I  I86  1  0.16824198  0.49830190  0.66775696  1
  I  I87  1  0.17318084  0.83276712  -0.00369692  1
  I  I88  1  0.16789585  0.83157872  0.33333335  1
  I  I89  1  0.17318060  0.83276732  0.67036358  1
  I  I90  1  0.50203130  0.16268116  0.00232754  1
  I  I91  1  0.50716832  0.15904838  0.33333332  1
  I  I92  1  0.50203153  0.16268072  0.66433915  1
  I  I93  1  0.49540791  0.49738163  -0.00004020  1
  I  I94  1  0.49412177  0.50371528  0.33333333  1
  I  I95  1  0.49540797  0.49738203  0.66670688  1
  I  I96  1  0.49352298  0.83969402  -0.00001132  1
  I  I97  1  0.49925606  0.83988178  0.33333333  1
  I  I98  1  0.49352311  0.83969425  0.66667798  1
  I  I99  1  0.83388088  0.16634399  0.00005507  1
  I  I100  1  0.82685060  0.16844303  0.33333331  1
  I  I101  1  0.83388077  0.16634403  0.66661161  1
  I  I102  1  0.83511424  0.49798055  0.00001393  1
  I  I103  1  0.83627968  0.49783844  0.33333334  1
  I  I104  1  0.83511417  0.49797985  0.66665278  1
  I  I105  1  0.83180453  0.83615758  -0.00002473  1
  I  I106  1  0.83475655  0.83512039  0.33333334  1
  I  I107  1  0.83180456  0.83615827  0.66669141  1
  I  I108  1  -0.00238498  0.17104282  0.16801012  1
  I  I109  1  -0.00238500  0.17104300  0.49865653  1
  I  I110  1  0.00049916  0.16648750  0.83333339  1
  I  I111  1  0.00429596  0.49733610  0.16393721  1
  I  I112  1  0.00429597  0.49733619  0.50272945  1
  I  I113  1  0.00475356  0.50514047  0.83333330  1
  I  I114  1  -0.00002116  0.83342787  0.16470998  1
  I  I115  1  -0.00002115  0.83342767  0.50195663  1
  I  I116  1  0.00316073  0.83072399  0.83333343  1
  I  I117  1  0.33662878  0.16401334  0.17038824  1
  I  I118  1  0.33662880  0.16401325  0.49627857  1
  I  I119  1  0.33068520  0.16926375  0.83333319  1
  I  I120  1  0.33023821  0.49647975  0.16489412  1
  I  I121  1  0.33023822  0.49647969  0.50177258  1
  I  I122  1  0.32926597  0.49243504  0.83333332  1
  I  I123  1  0.33685926  0.84126618  0.16840760  1
  I  I124  1  0.33685927  0.84126640  0.49825917  1
  I  I125  1  0.33307671  0.83622738  0.83333320  1
  I  I126  1  0.66608154  0.16237640  0.16453677  1
  I  I127  1  0.66608154  0.16237620  0.50212965  1
  I  I128  1  0.66901238  0.16315702  0.83333349  1
  I  I129  1  0.66688764  0.50237347  0.16676628  1
  I  I130  1  0.66688760  0.50237365  0.49990040  1
  I  I131  1  0.66708139  0.49986517  0.83333331  1
  I  I132  1  0.66182016  0.83507394  0.16247612  1
  I  I133  1  0.66182014  0.83507400  0.50419066  1
  I  I134  1  0.66327656  0.83854206  0.83333339  1
