# generated using pymatgen
data_Cs27Sn13Pb14I81
_symmetry_space_group_name_H-M   'P 1'
_cell_length_a   18.97209943
_cell_length_b   18.98110604
_cell_length_c   18.97759394
_cell_angle_alpha   90.00058519
_cell_angle_beta   89.99825641
_cell_angle_gamma   90.00063253
_symmetry_Int_Tables_number   1
_chemical_formula_structural   Cs27Sn13Pb14I81
_chemical_formula_sum   'Cs27 Sn13 Pb14 I81'
_cell_volume   6834.04850688
_cell_formula_units_Z   1
loop_
 _symmetry_equiv_pos_site_id
 _symmetry_equiv_pos_as_xyz
  1  'x, y, z'
loop_
 _atom_site_type_symbol
 _atom_site_label
 _atom_site_symmetry_multiplicity
 _atom_site_fract_x
 _atom_site_fract_y
 _atom_site_fract_z
 _atom_site_occupancy
  Cs  Cs0  1  -0.00034581  -0.00039653  -0.00242995  1
  Cs  Cs1  1  -0.00270445  -0.00038825  0.33620435  1
  Cs  Cs2  1  -0.00043714  -0.00140603  0.66723543  1
  Cs  Cs3  1  -0.00103213  0.33270150  -0.00049476  1
  Cs  Cs4  1  0.00578503  0.33291901  0.33351976  1
  Cs  Cs5  1  0.00065029  0.33108460  0.66975717  1
  Cs  Cs6  1  0.00005759  0.66638126  -0.00068201  1
  Cs  Cs7  1  -0.00081929  0.66741250  0.33214222  1
  Cs  Cs8  1  0.00008528  0.66942238  0.66981401  1
  Cs  Cs9  1  0.33994148  -0.00023157  0.00074513  1
  Cs  Cs10  1  0.33556723  0.00407006  0.33065709  1
  Cs  Cs11  1  0.33380460  -0.00128877  0.66914680  1
  Cs  Cs12  1  0.33118877  0.32714533  0.00343240  1
  Cs  Cs13  1  0.32732963  0.32993679  0.33906189  1
  Cs  Cs14  1  0.34118714  0.33469510  0.65855575  1
  Cs  Cs15  1  0.33229848  0.67030774  0.00002478  1
  Cs  Cs16  1  0.33308104  0.66516474  0.33536018  1
  Cs  Cs17  1  0.33452053  0.66662814  0.66446085  1
  Cs  Cs18  1  0.66249004  -0.00018725  0.00133381  1
  Cs  Cs19  1  0.66835127  0.00183529  0.33434318  1
  Cs  Cs20  1  0.66727601  0.00258298  0.66336795  1
  Cs  Cs21  1  0.66884452  0.33562231  -0.00138360  1
  Cs  Cs22  1  0.66651918  0.33515476  0.33457683  1
  Cs  Cs23  1  0.65756297  0.33728827  0.66550474  1
  Cs  Cs24  1  0.66607023  0.66523528  0.00117641  1
  Cs  Cs25  1  0.66862888  0.66659248  0.33126905  1
  Cs  Cs26  1  0.66484979  0.66225766  0.66701447  1
  Sn  Sn27  1  0.16616487  0.16648154  0.83324841  1
  Sn  Sn28  1  0.49947746  0.83343588  0.49969537  1
  Sn  Sn29  1  0.83351284  0.83403584  0.83424172  1
  Sn  Sn30  1  0.83406621  0.83368679  0.16566772  1
  Sn  Sn31  1  0.83358418  0.16578059  0.83407583  1
  Sn  Sn32  1  0.83367498  0.16649789  0.16595365  1
  Sn  Sn33  1  0.83419041  0.50003499  0.49954991  1
  Sn  Sn34  1  0.49964829  0.49987668  0.16648173  1
  Sn  Sn35  1  0.83294806  0.49986474  0.16765988  1
  Sn  Sn36  1  0.16755444  0.83330073  0.49981136  1
  Sn  Sn37  1  0.16705028  0.49972358  0.83329825  1
  Sn  Sn38  1  0.16595735  0.83350314  0.83373697  1
  Sn  Sn39  1  0.16597293  0.83339143  0.16655625  1
  Pb  Pb40  1  0.16636138  0.16381027  0.50285981  1
  Pb  Pb41  1  0.50185612  0.50194105  0.49739657  1
  Pb  Pb42  1  0.50039079  0.83190584  0.16856142  1
  Pb  Pb43  1  0.49642104  0.50011677  0.83622738  1
  Pb  Pb44  1  0.50281444  0.16974352  0.16669417  1
  Pb  Pb45  1  0.16431307  0.16372241  0.16467824  1
  Pb  Pb46  1  0.83357178  0.83189616  0.50036079  1
  Pb  Pb47  1  0.83349811  0.16967403  0.50066293  1
  Pb  Pb48  1  0.16442830  0.50210948  0.50230419  1
  Pb  Pb49  1  0.50063349  0.83317698  0.83141463  1
  Pb  Pb50  1  0.50004522  0.16391778  0.49973139  1
  Pb  Pb51  1  0.50051478  0.16664910  0.83348412  1
  Pb  Pb52  1  0.16626360  0.50165098  0.16504775  1
  Pb  Pb53  1  0.83448382  0.49990536  0.83373215  1
  I  I54  1  0.16233091  -0.00466561  0.16568983  1
  I  I55  1  0.16781030  -0.00472239  0.50143642  1
  I  I56  1  0.16122520  -0.00134605  0.83209139  1
  I  I57  1  0.16609756  0.33310556  0.16363887  1
  I  I58  1  0.16579711  0.33342556  0.50125410  1
  I  I59  1  0.15973835  0.33277725  0.83566815  1
  I  I60  1  0.16100783  0.67014247  0.16353361  1
  I  I61  1  0.16875731  0.67044904  0.50279569  1
  I  I62  1  0.16192009  0.66860048  0.83346186  1
  I  I63  1  0.50020693  -0.00002897  0.16800241  1
  I  I64  1  0.49755249  -0.00429724  0.49958293  1
  I  I65  1  0.49650375  -0.00025415  0.83326299  1
  I  I66  1  0.50563837  0.33754173  0.16547781  1
  I  I67  1  0.50186549  0.33376924  0.50047109  1
  I  I68  1  0.50162179  0.33345776  0.83252987  1
  I  I69  1  0.50717054  0.66434313  0.16722006  1
  I  I70  1  0.49582576  0.66959349  0.50030725  1
  I  I71  1  0.50105829  0.66673718  0.83289265  1
  I  I72  1  0.83841766  -0.00110852  0.16239025  1
  I  I73  1  0.83279098  -0.00019609  0.49788794  1
  I  I74  1  0.84171208  -0.00092053  0.84012739  1
  I  I75  1  0.82788737  0.33358598  0.16531684  1
  I  I76  1  0.83284862  0.33737421  0.49611335  1
  I  I77  1  0.83929554  0.33087647  0.83691898  1
  I  I78  1  0.83336813  0.66729560  0.16659252  1
  I  I79  1  0.83374502  0.66437611  0.49590734  1
  I  I80  1  0.83848477  0.66940432  0.83566741  1
  I  I81  1  0.16396465  0.16520894  -0.00358060  1
  I  I82  1  0.16562296  0.16568796  0.33316394  1
  I  I83  1  0.15825062  0.16428452  0.67126365  1
  I  I84  1  0.16353694  0.50388851  -0.00300527  1
  I  I85  1  0.16754758  0.50294535  0.33322567  1
  I  I86  1  0.16261124  0.50319668  0.67029532  1
  I  I87  1  0.16096374  0.83194980  -0.00079024  1
  I  I88  1  0.16498185  0.83097259  0.33276345  1
  I  I89  1  0.16572180  0.83320444  0.66806148  1
  I  I90  1  0.49763845  0.16515227  0.00019429  1
  I  I91  1  0.50218414  0.16582297  0.33298507  1
  I  I92  1  0.50266879  0.16761518  0.66674516  1
  I  I93  1  0.51003198  0.50250466  0.00350561  1
  I  I94  1  0.50333098  0.50280006  0.32988429  1
  I  I95  1  0.50191682  0.50054532  0.66641556  1
  I  I96  1  0.49767503  0.83227110  0.00028655  1
  I  I97  1  0.49620790  0.83100407  0.33618106  1
  I  I98  1  0.49627379  0.83187448  0.66360889  1
  I  I99  1  0.83763606  0.16789469  -0.00007921  1
  I  I100  1  0.83174854  0.16264514  0.33018395  1
  I  I101  1  0.83834891  0.16121220  0.67046005  1
  I  I102  1  0.83123151  0.50090422  0.00295314  1
  I  I103  1  0.82964485  0.50245203  0.33140211  1
  I  I104  1  0.83645215  0.50261834  0.66515074  1
  I  I105  1  0.84065840  0.83118801  0.00046428  1
  I  I106  1  0.83631278  0.83440150  0.33042487  1
  I  I107  1  0.83706088  0.83572635  0.66962686  1
  I  I108  1  -0.00398376  0.17201096  0.16464310  1
  I  I109  1  -0.00015164  0.16421032  0.49831355  1
  I  I110  1  -0.00049802  0.16503362  0.83703845  1
  I  I111  1  -0.00339686  0.49988169  0.16878083  1
  I  I112  1  -0.00323077  0.50297397  0.49223068  1
  I  I113  1  0.00244443  0.50226524  0.83531988  1
  I  I114  1  -0.00101694  0.83041684  0.16745862  1
  I  I115  1  0.00258070  0.83152333  0.50101199  1
  I  I116  1  0.00062196  0.83340374  0.83191171  1
  I  I117  1  0.33298459  0.16638212  0.16478789  1
  I  I118  1  0.33298599  0.16974976  0.50149036  1
  I  I119  1  0.32983752  0.16403127  0.83326191  1
  I  I120  1  0.33513716  0.50496997  0.16284940  1
  I  I121  1  0.33312995  0.50010358  0.49993913  1
  I  I122  1  0.32840266  0.50328598  0.83410045  1
  I  I123  1  0.33040743  0.83046579  0.16338839  1
  I  I124  1  0.33170534  0.83164435  0.50135540  1
  I  I125  1  0.32960295  0.83403567  0.83604257  1
  I  I126  1  0.67153598  0.16037178  0.16027984  1
  I  I127  1  0.66713967  0.16340312  0.50250684  1
  I  I128  1  0.67083943  0.16126208  0.83733571  1
  I  I129  1  0.66919155  0.50290893  0.16964057  1
  I  I130  1  0.66989284  0.50345591  0.50030114  1
  I  I131  1  0.66680674  0.50046547  0.83073269  1
  I  I132  1  0.67039790  0.83408905  0.16405534  1
  I  I133  1  0.66505048  0.83073460  0.49952342  1
  I  I134  1  0.67053180  0.83726020  0.83682401  1
