# generated using pymatgen
data_Cs27Sn14Pb13I81
_symmetry_space_group_name_H-M   'P 1'
_cell_length_a   18.96071097
_cell_length_b   18.96126752
_cell_length_c   18.96069514
_cell_angle_alpha   89.99922302
_cell_angle_beta   89.99988235
_cell_angle_gamma   89.99902020
_symmetry_Int_Tables_number   1
_chemical_formula_structural   Cs27Sn14Pb13I81
_chemical_formula_sum   'Cs27 Sn14 Pb13 I81'
_cell_volume   6816.73229984
_cell_formula_units_Z   1
loop_
 _symmetry_equiv_pos_site_id
 _symmetry_equiv_pos_as_xyz
  1  'x, y, z'
loop_
 _atom_site_type_symbol
 _atom_site_label
 _atom_site_symmetry_multiplicity
 _atom_site_fract_x
 _atom_site_fract_y
 _atom_site_fract_z
 _atom_site_occupancy
  Cs  Cs0  1  -0.00089317  -0.00112340  -0.00056143  1
  Cs  Cs1  1  -0.00282556  0.00133154  0.33318082  1
  Cs  Cs2  1  0.00213314  -0.00009993  0.66869276  1
  Cs  Cs3  1  0.00299153  0.33104287  -0.00066372  1
  Cs  Cs4  1  -0.00753649  0.33275521  0.33487637  1
  Cs  Cs5  1  -0.00057395  0.33165080  0.66477564  1
  Cs  Cs6  1  0.00160097  0.66935873  -0.00040119  1
  Cs  Cs7  1  0.00104776  0.66728164  0.33245239  1
  Cs  Cs8  1  -0.00091151  0.66700648  0.66736669  1
  Cs  Cs9  1  0.33434853  0.00072026  -0.00053306  1
  Cs  Cs10  1  0.33503982  -0.00110179  0.33667428  1
  Cs  Cs11  1  0.33444300  0.00082914  0.66257372  1
  Cs  Cs12  1  0.33371562  0.33219084  0.00109508  1
  Cs  Cs13  1  0.33400502  0.33513388  0.33109386  1
  Cs  Cs14  1  0.33176416  0.33153486  0.66562636  1
  Cs  Cs15  1  0.33321340  0.66647811  0.00041391  1
  Cs  Cs16  1  0.33224135  0.66667726  0.33451214  1
  Cs  Cs17  1  0.33339076  0.66756961  0.66451186  1
  Cs  Cs18  1  0.66551285  -0.00093710  -0.00131663  1
  Cs  Cs19  1  0.66662412  0.00334309  0.33361863  1
  Cs  Cs20  1  0.66434050  -0.00186478  0.66827364  1
  Cs  Cs21  1  0.66388246  0.33854000  -0.00031938  1
  Cs  Cs22  1  0.67550941  0.33328803  0.33510150  1
  Cs  Cs23  1  0.66997394  0.33567105  0.66574299  1
  Cs  Cs24  1  0.66518408  0.66323555  -0.00039103  1
  Cs  Cs25  1  0.66922734  0.66469218  0.33061129  1
  Cs  Cs26  1  0.66883278  0.66663977  0.66890124  1
  Sn  Sn27  1  0.16746821  0.50007237  0.50000227  1
  Sn  Sn28  1  0.83318412  0.83401711  0.83256453  1
  Sn  Sn29  1  0.49919747  0.16601407  0.16596281  1
  Sn  Sn30  1  0.83327979  0.83356121  0.50051224  1
  Sn  Sn31  1  0.49909737  0.83400996  0.16594347  1
  Sn  Sn32  1  0.16744507  0.16610961  0.16672218  1
  Sn  Sn33  1  0.83212578  0.16600264  0.83382304  1
  Sn  Sn34  1  0.16721372  0.83274548  0.83372839  1
  Sn  Sn35  1  0.16700375  0.49993822  0.16678849  1
  Sn  Sn36  1  0.16773635  0.83390070  0.16603419  1
  Sn  Sn37  1  0.49959466  0.83386076  0.83396176  1
  Sn  Sn38  1  0.16701268  0.50064160  0.83308667  1
  Sn  Sn39  1  0.50083067  0.16607965  0.83397671  1
  Sn  Sn40  1  0.49971671  0.49990416  0.50002746  1
  Pb  Pb41  1  0.16729416  0.16606523  0.83472352  1
  Pb  Pb42  1  0.16678435  0.16936444  0.49639530  1
  Pb  Pb43  1  0.50188924  0.83155416  0.49964383  1
  Pb  Pb44  1  0.49832402  0.49993712  0.16857448  1
  Pb  Pb45  1  0.50000039  0.16910646  0.49981438  1
  Pb  Pb46  1  0.16508999  0.83186414  0.49973504  1
  Pb  Pb47  1  0.83283277  0.83343088  0.16579929  1
  Pb  Pb48  1  0.83657359  0.49999116  0.16624777  1
  Pb  Pb49  1  0.83244187  0.16646035  0.16390189  1
  Pb  Pb50  1  0.83365561  0.50226403  0.50021386  1
  Pb  Pb51  1  0.83318299  0.16369359  0.50319287  1
  Pb  Pb52  1  0.49764073  0.49992235  0.83157905  1
  Pb  Pb53  1  0.83609615  0.50009945  0.83360908  1
  I  I54  1  0.16950243  -0.00104056  0.16031620  1
  I  I55  1  0.16485682  -0.00014118  0.50058348  1
  I  I56  1  0.16519746  -0.00325371  0.83806402  1
  I  I57  1  0.17074774  0.33345020  0.16556541  1
  I  I58  1  0.16984246  0.33791125  0.50304222  1
  I  I59  1  0.16635299  0.33550198  0.83447261  1
  I  I60  1  0.16970572  0.66729433  0.16580662  1
  I  I61  1  0.16921767  0.66360671  0.49627385  1
  I  I62  1  0.16618802  0.66791539  0.83755836  1
  I  I63  1  0.49183780  -0.00052109  0.16297852  1
  I  I64  1  0.50187470  -0.00018046  0.49985593  1
  I  I65  1  0.49917651  -0.00105931  0.83654409  1
  I  I66  1  0.49490264  0.33048581  0.16239140  1
  I  I67  1  0.49446448  0.33695606  0.50051186  1
  I  I68  1  0.50281220  0.33042163  0.83670236  1
  I  I69  1  0.49668445  0.66970604  0.16330632  1
  I  I70  1  0.49522756  0.66393863  0.50008621  1
  I  I71  1  0.50216984  0.66998922  0.83653119  1
  I  I72  1  0.83995617  -0.00019038  0.16980936  1
  I  I73  1  0.83342625  -0.00400093  0.50088981  1
  I  I74  1  0.83536476  -0.00142415  0.82971983  1
  I  I75  1  0.83346399  0.33300726  0.16568171  1
  I  I76  1  0.83393987  0.33332818  0.50046465  1
  I  I77  1  0.83018099  0.33033731  0.83512563  1
  I  I78  1  0.83245116  0.66712990  0.16526610  1
  I  I79  1  0.83378138  0.66983359  0.50738175  1
  I  I80  1  0.83176568  0.67027176  0.82983439  1
  I  I81  1  0.16730823  0.17124663  0.00291624  1
  I  I82  1  0.17286941  0.16420463  0.32796024  1
  I  I83  1  0.16626647  0.16767075  0.66683297  1
  I  I84  1  0.16535586  0.50142673  0.00026862  1
  I  I85  1  0.17122963  0.50082276  0.33264754  1
  I  I86  1  0.16991080  0.50556673  0.66725335  1
  I  I87  1  0.16498535  0.82861189  -0.00029886  1
  I  I88  1  0.16926580  0.83202624  0.32997821  1
  I  I89  1  0.16802292  0.82885483  0.66988102  1
  I  I90  1  0.49933450  0.16311815  -0.00018153  1
  I  I91  1  0.49420062  0.16258091  0.32971609  1
  I  I92  1  0.50340242  0.16282200  0.67014615  1
  I  I93  1  0.49907108  0.49998012  0.00000666  1
  I  I94  1  0.49317734  0.50170478  0.33607965  1
  I  I95  1  0.49303816  0.50090423  0.66402523  1
  I  I96  1  0.50051423  0.83603035  -0.00067434  1
  I  I97  1  0.49617956  0.83564908  0.33007346  1
  I  I98  1  0.49756123  0.83604548  0.67003447  1
  I  I99  1  0.83391687  0.15822306  -0.00384619  1
  I  I100  1  0.83392065  0.16670611  0.33324702  1
  I  I101  1  0.82857124  0.16585614  0.67122650  1
  I  I102  1  0.83306737  0.50281501  -0.00044821  1
  I  I103  1  0.83470492  0.50206501  0.33350229  1
  I  I104  1  0.83658763  0.49843022  0.66695119  1
  I  I105  1  0.83513737  0.83731650  -0.00364688  1
  I  I106  1  0.83442706  0.83010795  0.33524844  1
  I  I107  1  0.83380549  0.83578360  0.66898568  1
  I  I108  1  0.00298638  0.16735901  0.16534004  1
  I  I109  1  -0.00000233  0.16929525  0.50012912  1
  I  I110  1  -0.00162476  0.16395623  0.83449773  1
  I  I111  1  0.00564490  0.50110380  0.16916408  1
  I  I112  1  0.00338638  0.50141296  0.49911472  1
  I  I113  1  0.00455725  0.50365745  0.83207446  1
  I  I114  1  0.00337911  0.83208219  0.16390288  1
  I  I115  1  -0.00268393  0.83056060  0.50446573  1
  I  I116  1  0.00066647  0.83280259  0.83337571  1
  I  I117  1  0.33342710  0.16680323  0.16000817  1
  I  I118  1  0.33335720  0.16419431  0.50566239  1
  I  I119  1  0.33619232  0.16455397  0.83587164  1
  I  I120  1  0.32973683  0.50046218  0.16454669  1
  I  I121  1  0.33180055  0.50186233  0.49978126  1
  I  I122  1  0.32939305  0.50367418  0.83591715  1
  I  I123  1  0.33262045  0.83300243  0.15969449  1
  I  I124  1  0.33334901  0.83270112  0.50224465  1
  I  I125  1  0.33326933  0.83270254  0.83811531  1
  I  I126  1  0.66290166  0.16049387  0.16537612  1
  I  I127  1  0.66657476  0.17079757  0.49470875  1
  I  I128  1  0.66561729  0.15855919  0.83809960  1
  I  I129  1  0.66621377  0.50028538  0.16986267  1
  I  I130  1  0.66431222  0.50105234  0.50034776  1
  I  I131  1  0.66633540  0.50206692  0.83016856  1
  I  I132  1  0.66307899  0.83821510  0.16460170  1
  I  I133  1  0.66951868  0.83015337  0.50490412  1
  I  I134  1  0.66607388  0.83789171  0.83290228  1
