# generated using pymatgen
data_Cs27Sn13Pb14I81
_symmetry_space_group_name_H-M   'P 1'
_cell_length_a   18.97004164
_cell_length_b   18.98344898
_cell_length_c   18.97667810
_cell_angle_alpha   90.00006781
_cell_angle_beta   90.00065652
_cell_angle_gamma   90.00077106
_symmetry_Int_Tables_number   1
_chemical_formula_structural   Cs27Sn13Pb14I81
_chemical_formula_sum   'Cs27 Sn13 Pb14 I81'
_cell_volume   6833.82092879
_cell_formula_units_Z   1
loop_
 _symmetry_equiv_pos_site_id
 _symmetry_equiv_pos_as_xyz
  1  'x, y, z'
loop_
 _atom_site_type_symbol
 _atom_site_label
 _atom_site_symmetry_multiplicity
 _atom_site_fract_x
 _atom_site_fract_y
 _atom_site_fract_z
 _atom_site_occupancy
  Cs  Cs0  1  0.00050537  -0.00081199  0.00008151  1
  Cs  Cs1  1  0.00085857  -0.00003913  0.33383861  1
  Cs  Cs2  1  -0.00589230  -0.00498765  0.66829867  1
  Cs  Cs3  1  0.00315315  0.33462555  0.00097626  1
  Cs  Cs4  1  0.00017818  0.33262829  0.33284771  1
  Cs  Cs5  1  -0.00663208  0.33262478  0.66612024  1
  Cs  Cs6  1  0.00903328  0.66637553  -0.00317411  1
  Cs  Cs7  1  0.00125632  0.66852715  0.33241111  1
  Cs  Cs8  1  -0.00799227  0.67425072  0.67350823  1
  Cs  Cs9  1  0.33483627  0.00242264  -0.00037499  1
  Cs  Cs10  1  0.33375217  0.00085220  0.33500707  1
  Cs  Cs11  1  0.33245747  0.00026969  0.66307218  1
  Cs  Cs12  1  0.33318944  0.33250010  -0.00471144  1
  Cs  Cs13  1  0.33385040  0.33241633  0.33533986  1
  Cs  Cs14  1  0.33399789  0.33383895  0.66391658  1
  Cs  Cs15  1  0.32770009  0.66459117  -0.00184698  1
  Cs  Cs16  1  0.33435731  0.66579298  0.33398423  1
  Cs  Cs17  1  0.33418898  0.66617737  0.66660569  1
  Cs  Cs18  1  0.66517666  0.00097137  0.00175317  1
  Cs  Cs19  1  0.66506420  -0.00063036  0.33065816  1
  Cs  Cs20  1  0.67277259  -0.00012025  0.66893772  1
  Cs  Cs21  1  0.66418679  0.33198528  -0.00319959  1
  Cs  Cs22  1  0.66686919  0.33545916  0.33249454  1
  Cs  Cs23  1  0.67403457  0.33430562  0.67298154  1
  Cs  Cs24  1  0.66599772  0.66726659  0.00278507  1
  Cs  Cs25  1  0.66506191  0.66533541  0.33187382  1
  Cs  Cs26  1  0.66988383  0.66469011  0.66887046  1
  Sn  Sn27  1  0.49959704  0.49959410  0.49942565  1
  Sn  Sn28  1  0.83299156  0.83283297  0.16690411  1
  Sn  Sn29  1  0.16621078  0.16670321  0.16685963  1
  Sn  Sn30  1  0.50027998  0.50053139  0.16709588  1
  Sn  Sn31  1  0.16677209  0.16667770  0.83234159  1
  Sn  Sn32  1  0.83403692  0.16688116  0.16712817  1
  Sn  Sn33  1  0.50021688  0.83238351  0.16648241  1
  Sn  Sn34  1  0.50027815  0.16713718  0.50003951  1
  Sn  Sn35  1  0.49966212  0.83332608  0.83346982  1
  Sn  Sn36  1  0.83293385  0.50026914  0.16697516  1
  Sn  Sn37  1  0.49998799  0.83319689  0.50024220  1
  Sn  Sn38  1  0.16695865  0.16749330  0.50055725  1
  Sn  Sn39  1  0.16659688  0.49974193  0.50017699  1
  Pb  Pb40  1  0.49987293  0.50197543  0.83312895  1
  Pb  Pb41  1  0.16742003  0.83566429  0.16677604  1
  Pb  Pb42  1  0.16906456  0.83562733  0.83315744  1
  Pb  Pb43  1  0.83343859  0.50012001  0.49808902  1
  Pb  Pb44  1  0.83604998  0.16658813  0.83659223  1
  Pb  Pb45  1  0.83340096  0.50009537  0.83711784  1
  Pb  Pb46  1  0.83071736  0.83335089  0.83679988  1
  Pb  Pb47  1  0.49838136  0.16467720  0.82986568  1
  Pb  Pb48  1  0.16676270  0.49774008  0.82925791  1
  Pb  Pb49  1  0.16736218  0.49779328  0.16849776  1
  Pb  Pb50  1  0.49987024  0.16715281  0.16805758  1
  Pb  Pb51  1  0.16820995  0.83305774  0.50005321  1
  Pb  Pb52  1  0.83355375  0.16663539  0.49790543  1
  Pb  Pb53  1  0.83030352  0.83319024  0.49739670  1
  I  I54  1  0.16396059  0.00409574  0.16988317  1
  I  I55  1  0.17191217  0.00353436  0.49853094  1
  I  I56  1  0.16796073  0.00377875  0.83182407  1
  I  I57  1  0.16321106  0.32965632  0.16591684  1
  I  I58  1  0.17625558  0.33211679  0.49829009  1
  I  I59  1  0.16903012  0.32962093  0.83804088  1
  I  I60  1  0.16412969  0.66640286  0.16842911  1
  I  I61  1  0.17256313  0.66350506  0.49652148  1
  I  I62  1  0.16695849  0.66661633  0.83355417  1
  I  I63  1  0.50242029  -0.00242941  0.16805987  1
  I  I64  1  0.49530842  -0.00000789  0.49808919  1
  I  I65  1  0.49860016  -0.00323324  0.83649891  1
  I  I66  1  0.50281362  0.33592965  0.17226170  1
  I  I67  1  0.49401297  0.33370988  0.49247243  1
  I  I68  1  0.49877798  0.33313120  0.83485356  1
  I  I69  1  0.50807218  0.66698532  0.17179292  1
  I  I70  1  0.49569429  0.66635409  0.49770300  1
  I  I71  1  0.50017872  0.67010125  0.83021148  1
  I  I72  1  0.83226015  -0.00016797  0.16710133  1
  I  I73  1  0.83304351  -0.00001180  0.49612530  1
  I  I74  1  0.83321186  0.00000150  0.83560532  1
  I  I75  1  0.83318451  0.33344133  0.16831802  1
  I  I76  1  0.82858983  0.33333203  0.49608716  1
  I  I77  1  0.83194127  0.33306667  0.83501681  1
  I  I78  1  0.82551239  0.66668133  0.16816867  1
  I  I79  1  0.83498733  0.66662746  0.49706054  1
  I  I80  1  0.83358478  0.66693520  0.83331992  1
  I  I81  1  0.16168455  0.16474104  0.00082755  1
  I  I82  1  0.16687828  0.16960476  0.33387907  1
  I  I83  1  0.17512023  0.17038848  0.66523082  1
  I  I84  1  0.16651884  0.49813269  0.00007749  1
  I  I85  1  0.16938379  0.49329103  0.33624940  1
  I  I86  1  0.17669185  0.49404930  0.66139264  1
  I  I87  1  0.16932816  0.83551734  0.00025255  1
  I  I88  1  0.16858730  0.83710154  0.33327008  1
  I  I89  1  0.16972953  0.83568464  0.66645538  1
  I  I90  1  0.49875967  0.16589916  0.00006840  1
  I  I91  1  0.49487220  0.16265323  0.33606673  1
  I  I92  1  0.49347644  0.16725682  0.66156304  1
  I  I93  1  0.50467040  0.50372436  0.00352536  1
  I  I94  1  0.50006477  0.50427561  0.33336160  1
  I  I95  1  0.49443381  0.50069207  0.66291626  1
  I  I96  1  0.50455809  0.83033999  0.00163556  1
  I  I97  1  0.50358476  0.83304983  0.33307410  1
  I  I98  1  0.49576044  0.83440968  0.66550717  1
  I  I99  1  0.83648794  0.16626615  0.00502342  1
  I  I100  1  0.83821136  0.16620719  0.32947794  1
  I  I101  1  0.83313536  0.16634697  0.66673719  1
  I  I102  1  0.82625148  0.49885748  0.00575006  1
  I  I103  1  0.83085318  0.49948379  0.32951389  1
  I  I104  1  0.83262129  0.49904803  0.66658404  1
  I  I105  1  0.82662409  0.83483634  0.00488954  1
  I  I106  1  0.82775622  0.83406515  0.32904678  1
  I  I107  1  0.83274756  0.83434639  0.66690073  1
  I  I108  1  0.00011670  0.16652096  0.16871870  1
  I  I109  1  0.00361438  0.17251045  0.50018909  1
  I  I110  1  0.00409675  0.16640184  0.82773169  1
  I  I111  1  -0.00242035  0.50138407  0.16843851  1
  I  I112  1  0.00305561  0.49104616  0.49704079  1
  I  I113  1  0.00022841  0.50010739  0.83388283  1
  I  I114  1  -0.00285490  0.83170224  0.16687197  1
  I  I115  1  -0.00026915  0.83431942  0.49827526  1
  I  I116  1  -0.00020090  0.83406042  0.83448298  1
  I  I117  1  0.33081396  0.16595486  0.16644159  1
  I  I118  1  0.33325826  0.16639878  0.49652962  1
  I  I119  1  0.33039390  0.16540267  0.83998554  1
  I  I120  1  0.33656843  0.50427872  0.16929530  1
  I  I121  1  0.33495535  0.49891895  0.49365692  1
  I  I122  1  0.33335144  0.50065868  0.83963796  1
  I  I123  1  0.33734942  0.83039168  0.16775436  1
  I  I124  1  0.33743730  0.83447728  0.49549634  1
  I  I125  1  0.33724736  0.83354103  0.83670479  1
  I  I126  1  0.66879421  0.16583965  0.16961101  1
  I  I127  1  0.66342763  0.16609859  0.49647108  1
  I  I128  1  0.66668180  0.16571598  0.83350315  1
  I  I129  1  0.66568334  0.49927805  0.17268666  1
  I  I130  1  0.66295631  0.50018048  0.49670053  1
  I  I131  1  0.66640646  0.49858410  0.82865389  1
  I  I132  1  0.66546561  0.83561393  0.16750383  1
  I  I133  1  0.66142261  0.83389195  0.50130111  1
  I  I134  1  0.66267598  0.83492447  0.82997146  1
