# generated using pymatgen
data_Cs27Sn14Pb13I81
_symmetry_space_group_name_H-M   'P 1'
_cell_length_a   18.97102649
_cell_length_b   18.97149634
_cell_length_c   18.98489893
_cell_angle_alpha   89.99890813
_cell_angle_beta   89.99946129
_cell_angle_gamma   90.00106169
_symmetry_Int_Tables_number   1
_chemical_formula_structural   Cs27Sn14Pb13I81
_chemical_formula_sum   'Cs27 Sn14 Pb13 I81'
_cell_volume   6832.83142212
_cell_formula_units_Z   1
loop_
 _symmetry_equiv_pos_site_id
 _symmetry_equiv_pos_as_xyz
  1  'x, y, z'
loop_
 _atom_site_type_symbol
 _atom_site_label
 _atom_site_symmetry_multiplicity
 _atom_site_fract_x
 _atom_site_fract_y
 _atom_site_fract_z
 _atom_site_occupancy
  Cs  Cs0  1  -0.00179710  -0.00211937  -0.00043766  1
  Cs  Cs1  1  0.00190651  -0.00124156  0.33342420  1
  Cs  Cs2  1  0.00053117  0.00022829  0.66674864  1
  Cs  Cs3  1  0.00149394  0.33322064  -0.00323133  1
  Cs  Cs4  1  0.00060492  0.33596219  0.33318485  1
  Cs  Cs5  1  -0.00007868  0.33434663  0.67246286  1
  Cs  Cs6  1  -0.00030094  0.66834765  0.00083679  1
  Cs  Cs7  1  -0.00099180  0.66578924  0.33230943  1
  Cs  Cs8  1  -0.00086490  0.66585064  0.66689829  1
  Cs  Cs9  1  0.33518715  -0.00040740  0.00299769  1
  Cs  Cs10  1  0.33077047  0.00118416  0.33531825  1
  Cs  Cs11  1  0.33554896  -0.00501042  0.65904769  1
  Cs  Cs12  1  0.33068420  0.33718606  -0.00091365  1
  Cs  Cs13  1  0.33247282  0.33136123  0.32992928  1
  Cs  Cs14  1  0.32846549  0.33479791  0.67410532  1
  Cs  Cs15  1  0.33340554  0.66430845  -0.00198218  1
  Cs  Cs16  1  0.33279637  0.66676548  0.33454860  1
  Cs  Cs17  1  0.34003814  0.67039055  0.66981756  1
  Cs  Cs18  1  0.66759514  0.00044921  0.00086847  1
  Cs  Cs19  1  0.66811261  0.00190728  0.33046849  1
  Cs  Cs20  1  0.66560314  0.00193484  0.66788221  1
  Cs  Cs21  1  0.66613090  0.33073695  0.00151040  1
  Cs  Cs22  1  0.66643239  0.33371571  0.33431191  1
  Cs  Cs23  1  0.66940455  0.33008700  0.66066472  1
  Cs  Cs24  1  0.66634986  0.66863283  0.00106454  1
  Cs  Cs25  1  0.66847998  0.66073593  0.33422785  1
  Cs  Cs26  1  0.66242135  0.66556784  0.66427391  1
  Sn  Sn27  1  0.49902053  0.83375253  0.16700550  1
  Sn  Sn28  1  0.16623160  0.83362523  0.83393972  1
  Sn  Sn29  1  0.83277842  0.50096319  0.83431473  1
  Sn  Sn30  1  0.50063159  0.16591000  0.16668307  1
  Sn  Sn31  1  0.16566471  0.50102841  0.16756073  1
  Sn  Sn32  1  0.83367923  0.83246686  0.83205833  1
  Sn  Sn33  1  0.83319216  0.16776548  0.16737089  1
  Sn  Sn34  1  0.83410256  0.49874877  0.16555674  1
  Sn  Sn35  1  0.50029713  0.16694609  0.49967813  1
  Sn  Sn36  1  0.16688648  0.50020872  0.49952413  1
  Sn  Sn37  1  0.16772853  0.83254648  0.16596965  1
  Sn  Sn38  1  0.83331643  0.83402509  0.50100702  1
  Sn  Sn39  1  0.49970722  0.16663973  0.83350125  1
  Sn  Sn40  1  0.83329224  0.16565140  0.49895839  1
  Pb  Pb41  1  0.16468807  0.83136297  0.49979160  1
  Pb  Pb42  1  0.50047071  0.83509784  0.83528204  1
  Pb  Pb43  1  0.49675227  0.49695694  0.49999644  1
  Pb  Pb44  1  0.16606050  0.16906218  0.50003953  1
  Pb  Pb45  1  0.83216669  0.16632892  0.83346971  1
  Pb  Pb46  1  0.83459561  0.49956590  0.49995143  1
  Pb  Pb47  1  0.49993405  0.49979657  0.16668433  1
  Pb  Pb48  1  0.50348424  0.49744701  0.83333805  1
  Pb  Pb49  1  0.16966605  0.16300804  0.83333551  1
  Pb  Pb50  1  0.83344228  0.83331990  0.16670866  1
  Pb  Pb51  1  0.16625822  0.16664568  0.16648027  1
  Pb  Pb52  1  0.50286012  0.83520619  0.49689015  1
  Pb  Pb53  1  0.16482165  0.50244871  0.83384699  1
  I  I54  1  0.16708270  -0.00300416  0.16264792  1
  I  I55  1  0.16784016  -0.00019303  0.50003039  1
  I  I56  1  0.15781074  -0.00467045  0.83999242  1
  I  I57  1  0.16582627  0.33616056  0.17086999  1
  I  I58  1  0.16492280  0.33676847  0.49236730  1
  I  I59  1  0.16616604  0.33355222  0.83343545  1
  I  I60  1  0.16538142  0.66674935  0.16674708  1
  I  I61  1  0.16189216  0.66379107  0.49667426  1
  I  I62  1  0.16473799  0.67016658  0.83571023  1
  I  I63  1  0.50105574  0.00125640  0.16607214  1
  I  I64  1  0.50053444  0.00349042  0.50203105  1
  I  I65  1  0.50296464  0.00304059  0.83262263  1
  I  I66  1  0.50162873  0.32987873  0.16742645  1
  I  I67  1  0.50934293  0.32867478  0.49587567  1
  I  I68  1  0.50121005  0.32922206  0.83703543  1
  I  I69  1  0.49999483  0.66935766  0.16515693  1
  I  I70  1  0.50166879  0.66687364  0.49850954  1
  I  I71  1  0.49828148  0.66698106  0.83539735  1
  I  I72  1  0.83174007  0.00227508  0.16715595  1
  I  I73  1  0.83060287  0.00078437  0.49939390  1
  I  I74  1  0.83556308  -0.00268698  0.83332088  1
  I  I75  1  0.83265964  0.33306557  0.16697849  1
  I  I76  1  0.82973597  0.33046897  0.49877573  1
  I  I77  1  0.83181372  0.33534155  0.83419987  1
  I  I78  1  0.83415085  0.66453377  0.16641034  1
  I  I79  1  0.83661210  0.66870342  0.49992208  1
  I  I80  1  0.83783386  0.66746886  0.83425493  1
  I  I81  1  0.16608166  0.17134378  0.00007065  1
  I  I82  1  0.17044488  0.16261180  0.33311898  1
  I  I83  1  0.16583091  0.16908756  0.66669518  1
  I  I84  1  0.16455247  0.50172124  0.00302797  1
  I  I85  1  0.15990568  0.50491232  0.33120397  1
  I  I86  1  0.16399108  0.49855021  0.66498653  1
  I  I87  1  0.16410104  0.82818086  0.00111013  1
  I  I88  1  0.16856243  0.83162917  0.33031998  1
  I  I89  1  0.16354826  0.83259579  0.66903648  1
  I  I90  1  0.50535008  0.16221477  0.00156180  1
  I  I91  1  0.50502535  0.16298701  0.33256101  1
  I  I92  1  0.50587633  0.16772264  0.66596745  1
  I  I93  1  0.49584566  0.49654564  0.00016914  1
  I  I94  1  0.50536683  0.49877657  0.33314924  1
  I  I95  1  0.49931960  0.49890107  0.66668264  1
  I  I96  1  0.50148163  0.84031377  0.00316937  1
  I  I97  1  0.49508152  0.83937859  0.32916849  1
  I  I98  1  0.49707912  0.83550190  0.66645350  1
  I  I99  1  0.82875485  0.16722846  0.00275225  1
  I  I100  1  0.82530611  0.16665045  0.33278595  1
  I  I101  1  0.82873926  0.16626088  0.66431285  1
  I  I102  1  0.83916207  0.49944335  0.00132129  1
  I  I103  1  0.83535327  0.49970251  0.33059701  1
  I  I104  1  0.83581170  0.50017192  0.66874118  1
  I  I105  1  0.83421883  0.83299472  -0.00188003  1
  I  I106  1  0.83307300  0.83467816  0.33499329  1
  I  I107  1  0.83948433  0.83374598  0.66755301  1
  I  I108  1  -0.00336324  0.16713511  0.17191267  1
  I  I109  1  -0.00364653  0.16358012  0.49416705  1
  I  I110  1  -0.00017467  0.16856972  0.83304391  1
  I  I111  1  -0.00045784  0.50046658  0.16716872  1
  I  I112  1  0.00217048  0.49833029  0.49712195  1
  I  I113  1  -0.00323370  0.49962645  0.83469952  1
  I  I114  1  0.00214748  0.83239318  0.16573106  1
  I  I115  1  -0.00334867  0.83983582  0.49874250  1
  I  I116  1  -0.00092391  0.83038284  0.83663313  1
  I  I117  1  0.33638497  0.16537769  0.16771008  1
  I  I118  1  0.33638447  0.16817695  0.49814826  1
  I  I119  1  0.33775471  0.16679225  0.83478509  1
  I  I120  1  0.33032778  0.50040005  0.17062454  1
  I  I121  1  0.32900096  0.49979143  0.49202951  1
  I  I122  1  0.33320419  0.49959252  0.83341129  1
  I  I123  1  0.33247070  0.83391373  0.16116154  1
  I  I124  1  0.33347317  0.83387933  0.50227611  1
  I  I125  1  0.33100485  0.83515139  0.83628859  1
  I  I126  1  0.66677292  0.16588380  0.16715216  1
  I  I127  1  0.66743098  0.16348544  0.49905828  1
  I  I128  1  0.66425223  0.16461851  0.83456082  1
  I  I129  1  0.66984536  0.49959678  0.16327271  1
  I  I130  1  0.66688416  0.50170766  0.49963037  1
  I  I131  1  0.67150705  0.50761944  0.83972540  1
  I  I132  1  0.66497278  0.83566891  0.16615224  1
  I  I133  1  0.67083158  0.83363360  0.50519443  1
  I  I134  1  0.66979429  0.83123594  0.83167430  1
