# generated using pymatgen
data_Cs27Sn14Pb13I81
_symmetry_space_group_name_H-M   'P 1'
_cell_length_a   18.97318169
_cell_length_b   18.98683829
_cell_length_c   18.96812668
_cell_angle_alpha   89.99820197
_cell_angle_beta   90.00136643
_cell_angle_gamma   89.99873695
_symmetry_Int_Tables_number   1
_chemical_formula_structural   Cs27Sn14Pb13I81
_chemical_formula_sum   'Cs27 Sn14 Pb13 I81'
_cell_volume   6833.09184436
_cell_formula_units_Z   1
loop_
 _symmetry_equiv_pos_site_id
 _symmetry_equiv_pos_as_xyz
  1  'x, y, z'
loop_
 _atom_site_type_symbol
 _atom_site_label
 _atom_site_symmetry_multiplicity
 _atom_site_fract_x
 _atom_site_fract_y
 _atom_site_fract_z
 _atom_site_occupancy
  Cs  Cs0  1  -0.00059581  -0.00125875  -0.00123480  1
  Cs  Cs1  1  0.00322306  -0.00061401  0.33952602  1
  Cs  Cs2  1  -0.00167581  -0.00135409  0.66613670  1
  Cs  Cs3  1  -0.00305008  0.33259574  -0.00055467  1
  Cs  Cs4  1  -0.00003591  0.33428811  0.33991156  1
  Cs  Cs5  1  0.00294285  0.33391615  0.66369409  1
  Cs  Cs6  1  -0.00032582  0.66880811  0.00163987  1
  Cs  Cs7  1  -0.00165107  0.66636170  0.33509051  1
  Cs  Cs8  1  0.00452955  0.66844341  0.66133833  1
  Cs  Cs9  1  0.33194800  -0.00101080  0.00393626  1
  Cs  Cs10  1  0.33265325  0.00318176  0.32943577  1
  Cs  Cs11  1  0.33370185  -0.00042805  0.66637737  1
  Cs  Cs12  1  0.33088486  0.33365790  0.00116289  1
  Cs  Cs13  1  0.33381639  0.33019468  0.33090454  1
  Cs  Cs14  1  0.33493412  0.33806474  0.66774666  1
  Cs  Cs15  1  0.33259102  0.66712364  -0.00100301  1
  Cs  Cs16  1  0.33392067  0.66685047  0.33280874  1
  Cs  Cs17  1  0.33368842  0.66169689  0.66772351  1
  Cs  Cs18  1  0.66812276  -0.00130249  -0.00027290  1
  Cs  Cs19  1  0.66451051  -0.00058646  0.33320025  1
  Cs  Cs20  1  0.66770296  0.00224693  0.66706708  1
  Cs  Cs21  1  0.67119213  0.33214642  -0.00066984  1
  Cs  Cs22  1  0.66645271  0.33842535  0.33415094  1
  Cs  Cs23  1  0.66467607  0.32936722  0.66747900  1
  Cs  Cs24  1  0.66766992  0.66916531  -0.00036099  1
  Cs  Cs25  1  0.66730072  0.66238333  0.33352776  1
  Cs  Cs26  1  0.66327668  0.66836500  0.66778617  1
  Sn  Sn27  1  0.16609456  0.83408762  0.83405119  1
  Sn  Sn28  1  0.83418762  0.83454399  0.16634916  1
  Sn  Sn29  1  0.49999687  0.49993382  0.49927173  1
  Sn  Sn30  1  0.83357875  0.50041083  0.83290975  1
  Sn  Sn31  1  0.83417059  0.83309690  0.83384946  1
  Sn  Sn32  1  0.49959597  0.16636916  0.83338223  1
  Sn  Sn33  1  0.83360044  0.16563324  0.16662697  1
  Sn  Sn34  1  0.50008931  0.16640882  0.50048146  1
  Sn  Sn35  1  0.83381367  0.16665214  0.83389537  1
  Sn  Sn36  1  0.16570320  0.83255746  0.16598727  1
  Sn  Sn37  1  0.49988988  0.83351924  0.49995270  1
  Sn  Sn38  1  0.16693663  0.50051284  0.16630981  1
  Sn  Sn39  1  0.49930589  0.50008552  0.16649010  1
  Sn  Sn40  1  0.16650490  0.16597940  0.83356052  1
  Pb  Pb41  1  0.49966982  0.83554117  0.83188974  1
  Pb  Pb42  1  0.83126893  0.83336331  0.49992284  1
  Pb  Pb43  1  0.83140851  0.16659070  0.50005383  1
  Pb  Pb44  1  0.50177089  0.49777754  0.83387047  1
  Pb  Pb45  1  0.16910774  0.50001745  0.49687688  1
  Pb  Pb46  1  0.50016186  0.83145686  0.16839459  1
  Pb  Pb47  1  0.50236023  0.16874877  0.16627181  1
  Pb  Pb48  1  0.16949746  0.16660164  0.50326872  1
  Pb  Pb49  1  0.16917805  0.83339822  0.49996322  1
  Pb  Pb50  1  0.16434652  0.50039986  0.83531241  1
  Pb  Pb51  1  0.83108333  0.50008555  0.50342186  1
  Pb  Pb52  1  0.83371920  0.50026545  0.16534788  1
  Pb  Pb53  1  0.16383877  0.16644795  0.16478544  1
  I  I54  1  0.16551403  -0.00291320  0.16427188  1
  I  I55  1  0.17115071  -0.00004066  0.49503453  1
  I  I56  1  0.16330957  -0.00042440  0.83845466  1
  I  I57  1  0.17048881  0.33540232  0.16501694  1
  I  I58  1  0.16845237  0.33330782  0.50007407  1
  I  I59  1  0.16625060  0.33074448  0.83437395  1
  I  I60  1  0.16576333  0.66786692  0.16050502  1
  I  I61  1  0.17074250  0.66675731  0.50587655  1
  I  I62  1  0.16247963  0.66975798  0.83523670  1
  I  I63  1  0.49805272  0.00008703  0.16872958  1
  I  I64  1  0.50103008  0.00071329  0.50594843  1
  I  I65  1  0.50465416  0.00354459  0.82802318  1
  I  I66  1  0.49617421  0.33653195  0.17148836  1
  I  I67  1  0.50090106  0.33319764  0.50098465  1
  I  I68  1  0.50045440  0.32969901  0.82803535  1
  I  I69  1  0.50150844  0.66357732  0.17198260  1
  I  I70  1  0.50084925  0.66614236  0.49522200  1
  I  I71  1  0.50115732  0.66669163  0.83105100  1
  I  I72  1  0.83606782  -0.00081736  0.15787014  1
  I  I73  1  0.82855125  -0.00005583  0.50324888  1
  I  I74  1  0.83296208  0.00014365  0.83721667  1
  I  I75  1  0.83138007  0.33131744  0.16063453  1
  I  I76  1  0.82995065  0.33331352  0.49860505  1
  I  I77  1  0.83165284  0.33171980  0.83797522  1
  I  I78  1  0.83322949  0.66943320  0.16158815  1
  I  I79  1  0.82851499  0.66676486  0.49990997  1
  I  I80  1  0.83588232  0.66815308  0.83835477  1
  I  I81  1  0.17224763  0.16575565  -0.00352479  1
  I  I82  1  0.16689147  0.16642424  0.33309003  1
  I  I83  1  0.16017679  0.16074426  0.67173279  1
  I  I84  1  0.17457222  0.50160118  0.00300385  1
  I  I85  1  0.16613383  0.50618606  0.32872394  1
  I  I86  1  0.16719877  0.50014398  0.66697062  1
  I  I87  1  0.16363873  0.83334127  -0.00022943  1
  I  I88  1  0.16279934  0.82856056  0.32987002  1
  I  I89  1  0.16224157  0.83816053  0.67011205  1
  I  I90  1  0.49996176  0.16853353  -0.00295986  1
  I  I91  1  0.50251341  0.16585128  0.33569589  1
  I  I92  1  0.50249958  0.16864007  0.66731219  1
  I  I93  1  0.49779400  0.49861474  0.00260730  1
  I  I94  1  0.49718775  0.49785375  0.33352703  1
  I  I95  1  0.50326347  0.50085306  0.66435121  1
  I  I96  1  0.50039837  0.83279560  0.00002553  1
  I  I97  1  0.50022804  0.83812599  0.33641001  1
  I  I98  1  0.50055707  0.82877434  0.66384195  1
  I  I99  1  0.82986890  0.16642171  -0.00182973  1
  I  I100  1  0.83109000  0.16239927  0.33025872  1
  I  I101  1  0.83380975  0.16564416  0.67052850  1
  I  I102  1  0.82976689  0.49854777  -0.00261908  1
  I  I103  1  0.83397750  0.49968107  0.33320371  1
  I  I104  1  0.83182450  0.49849053  0.67157386  1
  I  I105  1  0.83555243  0.83428018  -0.00077180  1
  I  I106  1  0.83656868  0.83756440  0.32974360  1
  I  I107  1  0.83614783  0.83506889  0.67039850  1
  I  I108  1  -0.00392111  0.16819753  0.15900045  1
  I  I109  1  0.00009193  0.16699060  0.50010683  1
  I  I110  1  -0.00089807  0.16617840  0.83966645  1
  I  I111  1  0.00226477  0.50141355  0.16187831  1
  I  I112  1  0.00011123  0.49978219  0.49900117  1
  I  I113  1  -0.00344927  0.49470045  0.83751198  1
  I  I114  1  -0.00008280  0.83067056  0.16166766  1
  I  I115  1  0.00015137  0.83315438  0.50034642  1
  I  I116  1  -0.00058553  0.83817662  0.83727486  1
  I  I117  1  0.33324788  0.16509858  0.16593646  1
  I  I118  1  0.33792199  0.16693778  0.50404591  1
  I  I119  1  0.33324366  0.16261865  0.82800752  1
  I  I120  1  0.33334295  0.50481310  0.16977531  1
  I  I121  1  0.33756334  0.49991023  0.50167646  1
  I  I122  1  0.33328968  0.49953491  0.83145005  1
  I  I123  1  0.33059921  0.83082812  0.16313305  1
  I  I124  1  0.33720423  0.83334397  0.50064674  1
  I  I125  1  0.33036555  0.83801907  0.83663307  1
  I  I126  1  0.67005065  0.16228187  0.16020555  1
  I  I127  1  0.66311349  0.16696607  0.50665369  1
  I  I128  1  0.66750663  0.16721264  0.83218244  1
  I  I129  1  0.66464850  0.49924923  0.17039942  1
  I  I130  1  0.66268288  0.49958350  0.49204767  1
  I  I131  1  0.66970841  0.50033034  0.83539395  1
  I  I132  1  0.66962223  0.83556333  0.16242591  1
  I  I133  1  0.66320167  0.83342861  0.50070629  1
  I  I134  1  0.66968597  0.83412820  0.83642172  1
