# generated using pymatgen
data_Cs27Sn13Pb14I81
_symmetry_space_group_name_H-M   'P 1'
_cell_length_a   18.99895333
_cell_length_b   19.00816137
_cell_length_c   18.97282432
_cell_angle_alpha   89.99999992
_cell_angle_beta   90.00040319
_cell_angle_gamma   90.00000009
_symmetry_Int_Tables_number   1
_chemical_formula_structural   Cs27Sn13Pb14I81
_chemical_formula_sum   'Cs27 Sn13 Pb14 I81'
_cell_volume   6851.75415014
_cell_formula_units_Z   1
loop_
 _symmetry_equiv_pos_site_id
 _symmetry_equiv_pos_as_xyz
  1  'x, y, z'
loop_
 _atom_site_type_symbol
 _atom_site_label
 _atom_site_symmetry_multiplicity
 _atom_site_fract_x
 _atom_site_fract_y
 _atom_site_fract_z
 _atom_site_occupancy
  Cs  Cs0  1  -0.00097861  -0.00143389  -0.00068512  1
  Cs  Cs1  1  0.00151042  0.00014622  0.33841749  1
  Cs  Cs2  1  0.00051257  -0.00062903  0.66320752  1
  Cs  Cs3  1  -0.00097867  0.33476727  -0.00068513  1
  Cs  Cs4  1  0.00151045  0.33318708  0.33841747  1
  Cs  Cs5  1  0.00051252  0.33396231  0.66320742  1
  Cs  Cs6  1  -0.00031205  0.66666664  -0.00103617  1
  Cs  Cs7  1  0.00168990  0.66666661  0.33609024  1
  Cs  Cs8  1  0.00107162  0.66666675  0.66826586  1
  Cs  Cs9  1  0.33048602  0.00157749  -0.00137261  1
  Cs  Cs10  1  0.32941232  0.00067042  0.33516774  1
  Cs  Cs11  1  0.34270245  0.00764890  0.66124362  1
  Cs  Cs12  1  0.33048614  0.33175569  -0.00137266  1
  Cs  Cs13  1  0.32941232  0.33266284  0.33516773  1
  Cs  Cs14  1  0.34270265  0.32568439  0.66124349  1
  Cs  Cs15  1  0.33096509  0.66666671  0.00052169  1
  Cs  Cs16  1  0.32964353  0.66666666  0.33371226  1
  Cs  Cs17  1  0.33961901  0.66666669  0.66094991  1
  Cs  Cs18  1  0.66949805  -0.00124749  0.00113136  1
  Cs  Cs19  1  0.66813002  0.00078607  0.33317410  1
  Cs  Cs20  1  0.65990108  0.00005287  0.65901955  1
  Cs  Cs21  1  0.66949787  0.33458076  0.00113131  1
  Cs  Cs22  1  0.66813005  0.33254723  0.33317412  1
  Cs  Cs23  1  0.65990120  0.33328037  0.65901951  1
  Cs  Cs24  1  0.66835375  0.66666670  0.00069325  1
  Cs  Cs25  1  0.66831136  0.66666664  0.33151049  1
  Cs  Cs26  1  0.65762484  0.66666667  0.66184600  1
  Sn  Sn27  1  0.83390474  0.83325654  0.16621793  1
  Sn  Sn28  1  0.49978205  0.49991152  0.16575776  1
  Sn  Sn29  1  0.16614187  0.83247593  0.16555827  1
  Sn  Sn30  1  0.83390475  0.50007677  0.16621795  1
  Sn  Sn31  1  0.50062378  0.16666667  0.16565835  1
  Sn  Sn32  1  0.16646507  0.83267362  0.83389271  1
  Sn  Sn33  1  0.83365508  0.50020353  0.83375273  1
  Sn  Sn34  1  0.16646510  0.50065971  0.83389269  1
  Sn  Sn35  1  0.83329730  0.16666666  0.83393850  1
  Sn  Sn36  1  0.83302142  0.16666665  0.16577182  1
  Sn  Sn37  1  0.49978205  0.83342185  0.16575775  1
  Sn  Sn38  1  0.83365507  0.83312980  0.83375274  1
  Sn  Sn39  1  0.16614190  0.50085740  0.16555830  1
  Pb  Pb40  1  0.50043264  0.16666666  0.49579028  1
  Pb  Pb41  1  0.16639252  0.16666665  0.50051011  1
  Pb  Pb42  1  0.49996929  0.50017325  0.49617928  1
  Pb  Pb43  1  0.49978718  0.83329268  0.83559734  1
  Pb  Pb44  1  0.83349047  0.83299959  0.50105527  1
  Pb  Pb45  1  0.16437589  0.16666671  0.83353823  1
  Pb  Pb46  1  0.16653556  0.83311185  0.50147605  1
  Pb  Pb47  1  0.83349046  0.50033375  0.50105533  1
  Pb  Pb48  1  0.50325016  0.16666668  0.83634549  1
  Pb  Pb49  1  0.83340318  0.16666666  0.50028721  1
  Pb  Pb50  1  0.16569007  0.16666667  0.16653243  1
  Pb  Pb51  1  0.49996934  0.83316007  0.49617932  1
  Pb  Pb52  1  0.49978717  0.50004064  0.83559735  1
  Pb  Pb53  1  0.16653553  0.50022145  0.50147602  1
  I  I54  1  0.16751614  -0.00348047  0.16311010  1
  I  I55  1  0.16610145  -0.00044717  0.49702834  1
  I  I56  1  0.16145175  -0.00358179  0.84058816  1
  I  I57  1  0.16751616  0.33681382  0.16310974  1
  I  I58  1  0.16610143  0.33378052  0.49702869  1
  I  I59  1  0.16145188  0.33691514  0.84058852  1
  I  I60  1  0.16730375  0.66666666  0.16427617  1
  I  I61  1  0.16689498  0.66666665  0.49661236  1
  I  I62  1  0.15654037  0.66666669  0.84020345  1
  I  I63  1  0.50406436  -0.00038643  0.16623495  1
  I  I64  1  0.49980346  0.00006470  0.49928582  1
  I  I65  1  0.49871918  -0.00006554  0.83697405  1
  I  I66  1  0.50406435  0.33371977  0.16623517  1
  I  I67  1  0.49980357  0.33326862  0.49928592  1
  I  I68  1  0.49871901  0.33339885  0.83697369  1
  I  I69  1  0.50331108  0.66666666  0.16659727  1
  I  I70  1  0.50034053  0.66666669  0.49941677  1
  I  I71  1  0.50574380  0.66666670  0.83605320  1
  I  I72  1  0.82954818  -0.00051883  0.16153169  1
  I  I73  1  0.83341201  -0.00011498  0.49796719  1
  I  I74  1  0.83785004  -0.00082575  0.84244295  1
  I  I75  1  0.82954820  0.33385214  0.16153175  1
  I  I76  1  0.83341190  0.33344834  0.49796719  1
  I  I77  1  0.83784998  0.33415907  0.84244303  1
  I  I78  1  0.83007766  0.66666665  0.16267813  1
  I  I79  1  0.83278250  0.66666669  0.49619371  1
  I  I80  1  0.83852294  0.66666666  0.84188787  1
  I  I81  1  0.17101890  0.16666638  0.00033092  1
  I  I82  1  0.16532123  0.16666694  0.33255542  1
  I  I83  1  0.16340465  0.16666651  0.66742428  1
  I  I84  1  0.16530806  0.50422971  0.00143898  1
  I  I85  1  0.16685839  0.50370928  0.32943293  1
  I  I86  1  0.15767769  0.50539697  0.67117338  1
  I  I87  1  0.16530819  0.82910385  0.00143897  1
  I  I88  1  0.16685830  0.82962390  0.32943295  1
  I  I89  1  0.15767781  0.82793638  0.67117333  1
  I  I90  1  0.50136236  0.16666695  0.00456046  1
  I  I91  1  0.50798735  0.16666662  0.32774299  1
  I  I92  1  0.50053471  0.16666654  0.66648964  1
  I  I93  1  0.50124644  0.50063959  0.00448153  1
  I  I94  1  0.50091031  0.50025643  0.32714064  1
  I  I95  1  0.50067572  0.49957981  0.66680229  1
  I  I96  1  0.50124638  0.83269343  0.00448151  1
  I  I97  1  0.50091018  0.83307694  0.32714063  1
  I  I98  1  0.50067590  0.83375364  0.66680230  1
  I  I99  1  0.82923360  0.16666664  0.00143189  1
  I  I100  1  0.82879661  0.16666667  0.32917508  1
  I  I101  1  0.83684396  0.16666676  0.67043405  1
  I  I102  1  0.83359659  0.49985646  0.00158922  1
  I  I103  1  0.83280175  0.49964661  0.32881333  1
  I  I104  1  0.84026253  0.49973669  0.67111296  1
  I  I105  1  0.83359651  0.83347693  0.00158921  1
  I  I106  1  0.83280197  0.83368681  0.32881331  1
  I  I107  1  0.84026235  0.83359662  0.67111299  1
  I  I108  1  -0.00381209  0.16666669  0.16259635  1
  I  I109  1  -0.00053329  0.16666673  0.49533509  1
  I  I110  1  -0.00394364  0.16666673  0.84304951  1
  I  I111  1  -0.00044251  0.50206702  0.16348092  1
  I  I112  1  0.00003412  0.49885057  0.49264742  1
  I  I113  1  -0.00086309  0.50070030  0.84233535  1
  I  I114  1  -0.00044251  0.83126633  0.16348073  1
  I  I115  1  0.00003412  0.83448269  0.49264770  1
  I  I116  1  -0.00086313  0.83263301  0.84233531  1
  I  I117  1  0.33588419  0.16666667  0.16902426  1
  I  I118  1  0.33385169  0.16666674  0.49895212  1
  I  I119  1  0.33345861  0.16666657  0.83299865  1
  I  I120  1  0.33266706  0.50293878  0.16364116  1
  I  I121  1  0.33327534  0.49981602  0.49938765  1
  I  I122  1  0.32973582  0.50668966  0.83987288  1
  I  I123  1  0.33266707  0.83039460  0.16364116  1
  I  I124  1  0.33327531  0.83351732  0.49938775  1
  I  I125  1  0.32973581  0.82664384  0.83987277  1
  I  I126  1  0.66779933  0.16666663  0.16333656  1
  I  I127  1  0.66678304  0.16666663  0.50188946  1
  I  I128  1  0.67160739  0.16666671  0.83701058  1
  I  I129  1  0.66764205  0.50201016  0.16384979  1
  I  I130  1  0.66667166  0.49970399  0.50031474  1
  I  I131  1  0.67028467  0.50074559  0.83893944  1
  I  I132  1  0.66764205  0.83132321  0.16384989  1
  I  I133  1  0.66667163  0.83362941  0.50031452  1
  I  I134  1  0.67028467  0.83258779  0.83893947  1
