# generated using pymatgen
data_Cs27Sn13Pb14I81
_symmetry_space_group_name_H-M   'P 1'
_cell_length_a   18.97823473
_cell_length_b   18.97540738
_cell_length_c   18.97816249
_cell_angle_alpha   89.99783445
_cell_angle_beta   89.99850632
_cell_angle_gamma   90.00016376
_symmetry_Int_Tables_number   1
_chemical_formula_structural   Cs27Sn13Pb14I81
_chemical_formula_sum   'Cs27 Sn13 Pb14 I81'
_cell_volume   6834.41084729
_cell_formula_units_Z   1
loop_
 _symmetry_equiv_pos_site_id
 _symmetry_equiv_pos_as_xyz
  1  'x, y, z'
loop_
 _atom_site_type_symbol
 _atom_site_label
 _atom_site_symmetry_multiplicity
 _atom_site_fract_x
 _atom_site_fract_y
 _atom_site_fract_z
 _atom_site_occupancy
  Cs  Cs0  1  -0.00272487  -0.00052651  -0.00025648  1
  Cs  Cs1  1  0.00059543  -0.00207915  0.33329951  1
  Cs  Cs2  1  -0.00344662  -0.00107557  0.66772573  1
  Cs  Cs3  1  0.00077057  0.32961984  -0.00000298  1
  Cs  Cs4  1  -0.00297311  0.33672526  0.33439830  1
  Cs  Cs5  1  0.00948222  0.33732161  0.66493148  1
  Cs  Cs6  1  0.00218553  0.66874193  -0.00103800  1
  Cs  Cs7  1  -0.00038628  0.66697336  0.33440861  1
  Cs  Cs8  1  -0.00107169  0.66580598  0.66643407  1
  Cs  Cs9  1  0.33432546  -0.00093970  0.00157440  1
  Cs  Cs10  1  0.33384779  -0.00103550  0.33396357  1
  Cs  Cs11  1  0.33474458  0.00330115  0.66449755  1
  Cs  Cs12  1  0.33197865  0.33242062  -0.00303936  1
  Cs  Cs13  1  0.33358244  0.32777090  0.33506822  1
  Cs  Cs14  1  0.32929631  0.32754255  0.66686026  1
  Cs  Cs15  1  0.33405130  0.66651858  -0.00002428  1
  Cs  Cs16  1  0.33466472  0.66944011  0.33133023  1
  Cs  Cs17  1  0.33610717  0.66646769  0.66841163  1
  Cs  Cs18  1  0.67028198  0.00854275  -0.00041399  1
  Cs  Cs19  1  0.66633064  0.00081943  0.33452088  1
  Cs  Cs20  1  0.66800821  0.00053011  0.66738092  1
  Cs  Cs21  1  0.66898772  0.32852734  0.00623229  1
  Cs  Cs22  1  0.67035948  0.33398465  0.32597253  1
  Cs  Cs23  1  0.66319974  0.33616375  0.66693622  1
  Cs  Cs24  1  0.66314288  0.66500516  -0.00360446  1
  Cs  Cs25  1  0.66570568  0.66444536  0.33321924  1
  Cs  Cs26  1  0.66553405  0.66675847  0.66760271  1
  Sn  Sn27  1  0.83331682  0.16662484  0.50062713  1
  Sn  Sn28  1  0.16667675  0.16623899  0.16687440  1
  Sn  Sn29  1  0.83282778  0.49995788  0.83339217  1
  Sn  Sn30  1  0.16585183  0.83326814  0.16661268  1
  Sn  Sn31  1  0.49978618  0.50060106  0.50039206  1
  Sn  Sn32  1  0.49938968  0.83317993  0.83264787  1
  Sn  Sn33  1  0.16757096  0.83313611  0.83307246  1
  Sn  Sn34  1  0.16684340  0.50017206  0.16691408  1
  Sn  Sn35  1  0.16671858  0.83305134  0.50044204  1
  Sn  Sn36  1  0.83341177  0.83260981  0.16704196  1
  Sn  Sn37  1  0.50016705  0.83253493  0.50090502  1
  Sn  Sn38  1  0.83304712  0.83378406  0.49913900  1
  Sn  Sn39  1  0.50087195  0.50058125  0.83248423  1
  Pb  Pb40  1  0.50054269  0.83351098  0.16631368  1
  Pb  Pb41  1  0.83556410  0.16418605  0.16878990  1
  Pb  Pb42  1  0.49750550  0.16661566  0.16682079  1
  Pb  Pb43  1  0.16438415  0.16410206  0.49809746  1
  Pb  Pb44  1  0.16942399  0.50228307  0.49798161  1
  Pb  Pb45  1  0.83271134  0.83228513  0.83323807  1
  Pb  Pb46  1  0.50228828  0.16657113  0.49995347  1
  Pb  Pb47  1  0.83136367  0.50057565  0.50159584  1
  Pb  Pb48  1  0.16651915  0.16322591  0.83536877  1
  Pb  Pb49  1  0.49776838  0.50003655  0.16639924  1
  Pb  Pb50  1  0.83352412  0.17028965  0.83031423  1
  Pb  Pb51  1  0.50011363  0.16665282  0.83315322  1
  Pb  Pb52  1  0.83542135  0.50261203  0.16428479  1
  Pb  Pb53  1  0.16736360  0.50196628  0.83492059  1
  I  I54  1  0.16300379  -0.00200857  0.16682773  1
  I  I55  1  0.17179182  -0.00467098  0.49744220  1
  I  I56  1  0.17133422  -0.00539259  0.83485448  1
  I  I57  1  0.16869200  0.33346568  0.16575895  1
  I  I58  1  0.16627912  0.33341613  0.49774336  1
  I  I59  1  0.16679256  0.33345627  0.83608738  1
  I  I60  1  0.16352276  0.66867254  0.16644318  1
  I  I61  1  0.16128342  0.67099311  0.49727124  1
  I  I62  1  0.16763401  0.67043126  0.83625937  1
  I  I63  1  0.49750425  -0.00057940  0.16672000  1
  I  I64  1  0.49758706  -0.00392678  0.50321575  1
  I  I65  1  0.49518480  -0.00385548  0.82923805  1
  I  I66  1  0.49839988  0.33362794  0.16745312  1
  I  I67  1  0.50074413  0.33647628  0.50448601  1
  I  I68  1  0.50312588  0.33714437  0.82907645  1
  I  I69  1  0.49669309  0.66698593  0.16716184  1
  I  I70  1  0.50156439  0.66858123  0.50374235  1
  I  I71  1  0.49963107  0.66751270  0.82924173  1
  I  I72  1  0.83909848  -0.00400005  0.16641811  1
  I  I73  1  0.83228877  -0.00287776  0.49624879  1
  I  I74  1  0.83353608  -0.00019208  0.83582579  1
  I  I75  1  0.83526124  0.33338649  0.16776326  1
  I  I76  1  0.83154055  0.33141502  0.50163685  1
  I  I77  1  0.82652531  0.33795454  0.83350968  1
  I  I78  1  0.84033813  0.67056136  0.17377000  1
  I  I79  1  0.83553796  0.67026176  0.49729615  1
  I  I80  1  0.83232351  0.66468419  0.83163439  1
  I  I81  1  0.16574442  0.16470566  0.00362317  1
  I  I82  1  0.16649636  0.16373201  0.33013655  1
  I  I83  1  0.16622892  0.16616335  0.66637898  1
  I  I84  1  0.16803229  0.50423930  0.00287606  1
  I  I85  1  0.16697237  0.50357863  0.33009247  1
  I  I86  1  0.16426526  0.50190300  0.66663055  1
  I  I87  1  0.16633172  0.83278576  0.00074035  1
  I  I88  1  0.16621330  0.83334750  0.33310315  1
  I  I89  1  0.16635977  0.83217989  0.66619869  1
  I  I90  1  0.50082619  0.16575090  -0.00014528  1
  I  I91  1  0.49960661  0.16618793  0.33371044  1
  I  I92  1  0.49897615  0.16601837  0.66644089  1
  I  I93  1  0.50148908  0.50638466  -0.00350386  1
  I  I94  1  0.49831335  0.50615019  0.33634912  1
  I  I95  1  0.50413176  0.50652257  0.66700877  1
  I  I96  1  0.49548524  0.82773447  -0.00321807  1
  I  I97  1  0.49757893  0.82969778  0.33660533  1
  I  I98  1  0.49695047  0.82923235  0.66603752  1
  I  I99  1  0.83376448  0.16537218  0.00018229  1
  I  I100  1  0.83353453  0.16462026  0.33648301  1
  I  I101  1  0.83316940  0.15572044  0.66293662  1
  I  I102  1  0.82671908  0.50349386  -0.00328438  1
  I  I103  1  0.83248789  0.49856806  0.33334845  1
  I  I104  1  0.83240396  0.50361268  0.66937738  1
  I  I105  1  0.83859416  0.83058230  0.00214267  1
  I  I106  1  0.83736934  0.83604556  0.33429562  1
  I  I107  1  0.83624601  0.83537513  0.66367815  1
  I  I108  1  0.00342374  0.16688740  0.16713974  1
  I  I109  1  -0.00325230  0.16063056  0.49915341  1
  I  I110  1  0.00002505  0.16658808  0.83350258  1
  I  I111  1  0.00343092  0.50020891  0.16540611  1
  I  I112  1  0.00009990  0.50051918  0.50117530  1
  I  I113  1  -0.00159476  0.50264011  0.83502962  1
  I  I114  1  0.00158806  0.83326760  0.16930790  1
  I  I115  1  0.00011066  0.83779133  0.49868867  1
  I  I116  1  0.00232435  0.83120764  0.83248088  1
  I  I117  1  0.32892288  0.16210206  0.16772382  1
  I  I118  1  0.33312816  0.16605243  0.49819753  1
  I  I119  1  0.33316474  0.17058871  0.83381817  1
  I  I120  1  0.32967055  0.50532124  0.16494689  1
  I  I121  1  0.33720858  0.50593166  0.50594933  1
  I  I122  1  0.33638976  0.50372367  0.83177695  1
  I  I123  1  0.32993941  0.83341056  0.16876079  1
  I  I124  1  0.33330175  0.82864397  0.49925155  1
  I  I125  1  0.33334678  0.82765591  0.83194159  1
  I  I126  1  0.66737475  0.16508534  0.16700767  1
  I  I127  1  0.66982295  0.15859169  0.49939174  1
  I  I128  1  0.66688226  0.16051725  0.83425639  1
  I  I129  1  0.66675877  0.50190153  0.16807608  1
  I  I130  1  0.66347571  0.50675877  0.50169219  1
  I  I131  1  0.66530956  0.50834381  0.82928259  1
  I  I132  1  0.66966083  0.83259752  0.17073645  1
  I  I133  1  0.66658159  0.83356291  0.49993833  1
  I  I134  1  0.66384224  0.82981873  0.82985128  1
