# generated using pymatgen
data_Cs27Sn14Pb13I81
_symmetry_space_group_name_H-M   'P 1'
_cell_length_a   18.97319123
_cell_length_b   18.97861794
_cell_length_c   18.97410556
_cell_angle_alpha   89.99935138
_cell_angle_beta   89.99871753
_cell_angle_gamma   90.00125990
_symmetry_Int_Tables_number   1
_chemical_formula_structural   Cs27Sn14Pb13I81
_chemical_formula_sum   'Cs27 Sn14 Pb13 I81'
_cell_volume   6832.28980081
_cell_formula_units_Z   1
loop_
 _symmetry_equiv_pos_site_id
 _symmetry_equiv_pos_as_xyz
  1  'x, y, z'
loop_
 _atom_site_type_symbol
 _atom_site_label
 _atom_site_symmetry_multiplicity
 _atom_site_fract_x
 _atom_site_fract_y
 _atom_site_fract_z
 _atom_site_occupancy
  Cs  Cs0  1  0.00012911  0.00160626  0.00330238  1
  Cs  Cs1  1  0.00898963  0.00144188  0.33088942  1
  Cs  Cs2  1  -0.00184681  -0.00281601  0.66577209  1
  Cs  Cs3  1  -0.00153520  0.33296850  -0.00145895  1
  Cs  Cs4  1  0.00352967  0.33033523  0.33495684  1
  Cs  Cs5  1  -0.00087262  0.33574128  0.66964651  1
  Cs  Cs6  1  -0.00061840  0.66507409  -0.00100465  1
  Cs  Cs7  1  -0.00009116  0.66798677  0.34353010  1
  Cs  Cs8  1  -0.00118737  0.66656494  0.65948792  1
  Cs  Cs9  1  0.33264543  -0.00574143  -0.00252163  1
  Cs  Cs10  1  0.32756184  0.00286496  0.33378834  1
  Cs  Cs11  1  0.33701356  0.00203440  0.66852383  1
  Cs  Cs12  1  0.33274489  0.33889496  -0.00096322  1
  Cs  Cs13  1  0.33402087  0.33146741  0.33694502  1
  Cs  Cs14  1  0.33347548  0.33014090  0.66472528  1
  Cs  Cs15  1  0.33190807  0.66594191  -0.00043607  1
  Cs  Cs16  1  0.33719478  0.66652834  0.33148043  1
  Cs  Cs17  1  0.33248006  0.66873477  0.66821730  1
  Cs  Cs18  1  0.66730485  -0.00069413  0.00029254  1
  Cs  Cs19  1  0.66711214  -0.00186218  0.33170940  1
  Cs  Cs20  1  0.66397000  0.00263645  0.66707092  1
  Cs  Cs21  1  0.66870491  0.33540260  0.00113175  1
  Cs  Cs22  1  0.66519791  0.33279971  0.32971484  1
  Cs  Cs23  1  0.66694970  0.33076871  0.66734835  1
  Cs  Cs24  1  0.66681272  0.66601896  0.00182893  1
  Cs  Cs25  1  0.66513436  0.66786514  0.33336984  1
  Cs  Cs26  1  0.66852018  0.66712278  0.66437049  1
  Sn  Sn27  1  0.16485392  0.50039587  0.16641678  1
  Sn  Sn28  1  0.83330694  0.16664485  0.50020075  1
  Sn  Sn29  1  0.83477679  0.50100212  0.16650941  1
  Sn  Sn30  1  0.16600043  0.16713824  0.83367150  1
  Sn  Sn31  1  0.50042882  0.50050492  0.50126984  1
  Sn  Sn32  1  0.50024590  0.83300853  0.49936357  1
  Sn  Sn33  1  0.50028631  0.50013474  0.83202559  1
  Sn  Sn34  1  0.50057176  0.83460042  0.16732805  1
  Sn  Sn35  1  0.83344343  0.50049670  0.83379578  1
  Sn  Sn36  1  0.83306250  0.83231059  0.16618679  1
  Sn  Sn37  1  0.83405074  0.16660857  0.83251006  1
  Sn  Sn38  1  0.49990671  0.16536987  0.16606052  1
  Sn  Sn39  1  0.16618618  0.49935484  0.83391699  1
  Sn  Sn40  1  0.83311483  0.83300219  0.83407945  1
  Pb  Pb41  1  0.16347185  0.83286704  0.83343032  1
  Pb  Pb42  1  0.16383163  0.16688093  0.50318870  1
  Pb  Pb43  1  0.17033549  0.83346468  0.50014890  1
  Pb  Pb44  1  0.83254547  0.16661529  0.16619105  1
  Pb  Pb45  1  0.16948083  0.50004758  0.50047669  1
  Pb  Pb46  1  0.50167501  0.16641269  0.49798662  1
  Pb  Pb47  1  0.50017867  0.16888100  0.83551288  1
  Pb  Pb48  1  0.83127473  0.49821835  0.49959351  1
  Pb  Pb49  1  0.50223340  0.83089749  0.83372222  1
  Pb  Pb50  1  0.83161071  0.83568804  0.49930821  1
  Pb  Pb51  1  0.16614199  0.83050912  0.16655863  1
  Pb  Pb52  1  0.16951224  0.16934935  0.16383356  1
  Pb  Pb53  1  0.50023851  0.50062337  0.16645354  1
  I  I54  1  0.16515448  0.00010389  0.16597133  1
  I  I55  1  0.16824646  0.00040404  0.50090870  1
  I  I56  1  0.16260404  0.00283977  0.83240390  1
  I  I57  1  0.16214058  0.33720616  0.16382244  1
  I  I58  1  0.17070964  0.33348739  0.49661955  1
  I  I59  1  0.16185192  0.33474221  0.83728504  1
  I  I60  1  0.16924116  0.66261045  0.15798222  1
  I  I61  1  0.16280114  0.66637300  0.50284638  1
  I  I62  1  0.16798202  0.66289036  0.83786618  1
  I  I63  1  0.50735523  -0.00149881  0.17137066  1
  I  I64  1  0.50289809  -0.00261044  0.49734623  1
  I  I65  1  0.49977455  -0.00012192  0.83122680  1
  I  I66  1  0.50125488  0.33228279  0.16612941  1
  I  I67  1  0.50113861  0.33574205  0.50190247  1
  I  I68  1  0.50440688  0.33709921  0.83067250  1
  I  I69  1  0.50163061  0.66895902  0.16790795  1
  I  I70  1  0.50191350  0.66646869  0.49708399  1
  I  I71  1  0.49947481  0.66267387  0.83494218  1
  I  I72  1  0.82818286  -0.00259348  0.16308459  1
  I  I73  1  0.82910750  0.00303981  0.50583446  1
  I  I74  1  0.83685083  0.00033595  0.83349623  1
  I  I75  1  0.83323591  0.33610505  0.16299383  1
  I  I76  1  0.82973898  0.33065588  0.50451470  1
  I  I77  1  0.83344285  0.33427797  0.83360168  1
  I  I78  1  0.82942670  0.66628726  0.15793345  1
  I  I79  1  0.83333503  0.66674942  0.50245623  1
  I  I80  1  0.83179125  0.66557144  0.83878642  1
  I  I81  1  0.15837386  0.16938576  -0.00373122  1
  I  I82  1  0.16609415  0.16799388  0.33306880  1
  I  I83  1  0.16719707  0.17498992  0.67115680  1
  I  I84  1  0.16874393  0.49656854  -0.00128512  1
  I  I85  1  0.16380112  0.50129358  0.33046711  1
  I  I86  1  0.16384155  0.49628106  0.67048925  1
  I  I87  1  0.17344732  0.83489520  -0.00006249  1
  I  I88  1  0.16115775  0.83154096  0.33307204  1
  I  I89  1  0.16581615  0.83065919  0.66709985  1
  I  I90  1  0.50344242  0.16275597  0.00303217  1
  I  I91  1  0.50388295  0.16972070  0.33022580  1
  I  I92  1  0.49851094  0.16496070  0.66703830  1
  I  I93  1  0.50046295  0.49901516  -0.00243851  1
  I  I94  1  0.50068593  0.50046927  0.33494305  1
  I  I95  1  0.50091953  0.50448532  0.66756158  1
  I  I96  1  0.50260199  0.83558524  0.00284058  1
  I  I97  1  0.50700848  0.82963364  0.33228271  1
  I  I98  1  0.50185057  0.83016750  0.66466072  1
  I  I99  1  0.83528690  0.16769699  -0.00317088  1
  I  I100  1  0.82764009  0.16786534  0.33485882  1
  I  I101  1  0.83497820  0.16769236  0.66900628  1
  I  I102  1  0.83075781  0.49815230  -0.00115787  1
  I  I103  1  0.83454239  0.50297117  0.33012777  1
  I  I104  1  0.83538893  0.50214847  0.67000311  1
  I  I105  1  0.82671088  0.83379494  0.00019562  1
  I  I106  1  0.82951915  0.82889831  0.33010357  1
  I  I107  1  0.83268021  0.83051464  0.66939624  1
  I  I108  1  0.00017274  0.16432932  0.16937929  1
  I  I109  1  -0.00415882  0.16738421  0.49938978  1
  I  I110  1  -0.00149669  0.17249389  0.83019488  1
  I  I111  1  -0.00143942  0.50374182  0.15720475  1
  I  I112  1  -0.00019865  0.49852241  0.50135368  1
  I  I113  1  -0.00103630  0.49820831  0.83919001  1
  I  I114  1  -0.00363280  0.83222487  0.16080469  1
  I  I115  1  -0.00047402  0.83437905  0.49992693  1
  I  I116  1  -0.00487743  0.83020283  0.83957934  1
  I  I117  1  0.33717436  0.16298461  0.16678190  1
  I  I118  1  0.33345231  0.16660174  0.50003004  1
  I  I119  1  0.33108676  0.17277135  0.83629868  1
  I  I120  1  0.33169791  0.49911232  0.16264323  1
  I  I121  1  0.33759318  0.50291186  0.50233117  1
  I  I122  1  0.33298473  0.49531737  0.83479827  1
  I  I123  1  0.33647058  0.83528976  0.17143979  1
  I  I124  1  0.33864467  0.82885772  0.49387251  1
  I  I125  1  0.33357886  0.83327335  0.83268420  1
  I  I126  1  0.66463926  0.16900704  0.16473141  1
  I  I127  1  0.66923644  0.16760608  0.50819738  1
  I  I128  1  0.66980269  0.16822049  0.83106756  1
  I  I129  1  0.66913062  0.50012314  0.16285016  1
  I  I130  1  0.66345987  0.50284026  0.50338104  1
  I  I131  1  0.66792961  0.49940571  0.83460299  1
  I  I132  1  0.66698284  0.83037225  0.16615316  1
  I  I133  1  0.66384568  0.82886769  0.49819834  1
  I  I134  1  0.67038294  0.83387889  0.83468332  1
