# generated using pymatgen
data_Cs27Sn13Pb14I81
_symmetry_space_group_name_H-M   'P 1'
_cell_length_a   18.97950921
_cell_length_b   18.97928543
_cell_length_c   18.97301651
_cell_angle_alpha   89.99955520
_cell_angle_beta   89.99960194
_cell_angle_gamma   89.99874375
_symmetry_Int_Tables_number   1
_chemical_formula_structural   Cs27Sn13Pb14I81
_chemical_formula_sum   'Cs27 Sn13 Pb14 I81'
_cell_volume   6834.41300280
_cell_formula_units_Z   1
loop_
 _symmetry_equiv_pos_site_id
 _symmetry_equiv_pos_as_xyz
  1  'x, y, z'
loop_
 _atom_site_type_symbol
 _atom_site_label
 _atom_site_symmetry_multiplicity
 _atom_site_fract_x
 _atom_site_fract_y
 _atom_site_fract_z
 _atom_site_occupancy
  Cs  Cs0  1  0.00438281  -0.00401821  0.00336346  1
  Cs  Cs1  1  -0.00048402  0.00144104  0.33244456  1
  Cs  Cs2  1  -0.00131082  0.00271386  0.66555713  1
  Cs  Cs3  1  -0.00072081  0.33568557  -0.00147944  1
  Cs  Cs4  1  0.00119878  0.33383820  0.33436529  1
  Cs  Cs5  1  -0.00315794  0.33261591  0.66985248  1
  Cs  Cs6  1  0.00135221  0.66798103  0.00118489  1
  Cs  Cs7  1  -0.00031772  0.66469733  0.33182851  1
  Cs  Cs8  1  -0.00028488  0.66536505  0.66604634  1
  Cs  Cs9  1  0.33364085  -0.00043646  -0.00320199  1
  Cs  Cs10  1  0.33280406  0.00205129  0.33514007  1
  Cs  Cs11  1  0.33189645  -0.00042243  0.66503706  1
  Cs  Cs12  1  0.34137963  0.33108314  -0.00329246  1
  Cs  Cs13  1  0.33131886  0.33261326  0.33208312  1
  Cs  Cs14  1  0.33349417  0.33372984  0.67177527  1
  Cs  Cs15  1  0.33152194  0.66861997  -0.00354861  1
  Cs  Cs16  1  0.33440036  0.66372133  0.33722006  1
  Cs  Cs17  1  0.33515113  0.66572943  0.66407164  1
  Cs  Cs18  1  0.66323209  -0.00240430  0.00108543  1
  Cs  Cs19  1  0.66753397  0.00036757  0.33339176  1
  Cs  Cs20  1  0.66913877  -0.00135315  0.66577862  1
  Cs  Cs21  1  0.65959364  0.33291308  -0.00381607  1
  Cs  Cs22  1  0.66725974  0.33344477  0.33071954  1
  Cs  Cs23  1  0.67131174  0.33201765  0.67575975  1
  Cs  Cs24  1  0.66739954  0.66851117  -0.00091415  1
  Cs  Cs25  1  0.66617039  0.66598533  0.33454563  1
  Cs  Cs26  1  0.66485889  0.66842242  0.66613921  1
  Sn  Sn27  1  0.16611020  0.49885518  0.16720684  1
  Sn  Sn28  1  0.83386155  0.49884570  0.16737540  1
  Sn  Sn29  1  0.16551766  0.83324897  0.49966481  1
  Sn  Sn30  1  0.49963948  0.83300458  0.16657769  1
  Sn  Sn31  1  0.50059910  0.83341204  0.83402532  1
  Sn  Sn32  1  0.16750039  0.16724278  0.49945200  1
  Sn  Sn33  1  0.83388682  0.16768256  0.16673413  1
  Sn  Sn34  1  0.16582864  0.16775428  0.16719663  1
  Sn  Sn35  1  0.49970016  0.16734039  0.49987024  1
  Sn  Sn36  1  0.83431187  0.83262747  0.50044101  1
  Sn  Sn37  1  0.83387874  0.50051675  0.49920171  1
  Sn  Sn38  1  0.83320877  0.83342552  0.83259404  1
  Sn  Sn39  1  0.16560817  0.49953539  0.49934293  1
  Pb  Pb40  1  0.50057716  0.49676414  0.50000995  1
  Pb  Pb41  1  0.83216790  0.83291317  0.16718843  1
  Pb  Pb42  1  0.83368356  0.16366966  0.83744036  1
  Pb  Pb43  1  0.49953163  0.16497016  0.16814796  1
  Pb  Pb44  1  0.16638709  0.16677582  0.83384840  1
  Pb  Pb45  1  0.49968485  0.50223841  0.16684116  1
  Pb  Pb46  1  0.16900339  0.83304160  0.16913762  1
  Pb  Pb47  1  0.50036525  0.83471087  0.50015083  1
  Pb  Pb48  1  0.16649525  0.49986822  0.83357300  1
  Pb  Pb49  1  0.83348079  0.50227749  0.83369854  1
  Pb  Pb50  1  0.83383279  0.16723625  0.49865253  1
  Pb  Pb51  1  0.50007763  0.50286760  0.83316510  1
  Pb  Pb52  1  0.16639270  0.83329976  0.83022191  1
  Pb  Pb53  1  0.50009225  0.16400761  0.83019684  1
  I  I54  1  0.16314555  0.00264481  0.17153771  1
  I  I55  1  0.16741344  0.00026963  0.49683012  1
  I  I56  1  0.16664172  -0.00026011  0.83354904  1
  I  I57  1  0.16223120  0.33324254  0.17644102  1
  I  I58  1  0.16712739  0.33353664  0.49490916  1
  I  I59  1  0.16666119  0.33333707  0.82797449  1
  I  I60  1  0.16287705  0.66373531  0.17087559  1
  I  I61  1  0.16274500  0.66628075  0.49648118  1
  I  I62  1  0.16774355  0.66689334  0.83450334  1
  I  I63  1  0.50135841  -0.00287774  0.16441181  1
  I  I64  1  0.49540719  0.00232530  0.49931136  1
  I  I65  1  0.50430490  -0.00380885  0.83765777  1
  I  I66  1  0.50079041  0.33324851  0.16843925  1
  I  I67  1  0.49524520  0.32921377  0.49629731  1
  I  I68  1  0.49964559  0.33292861  0.83283527  1
  I  I69  1  0.50105850  0.67018478  0.16420461  1
  I  I70  1  0.49730351  0.66670444  0.50093321  1
  I  I71  1  0.50401871  0.67119343  0.83552545  1
  I  I72  1  0.83616075  0.00192923  0.16744995  1
  I  I73  1  0.83543452  -0.00234534  0.50183637  1
  I  I74  1  0.82929558  -0.00422561  0.82629073  1
  I  I75  1  0.83684652  0.33404392  0.17454936  1
  I  I76  1  0.83585962  0.33622186  0.49666023  1
  I  I77  1  0.83344578  0.33333611  0.82969054  1
  I  I78  1  0.83667943  0.66393556  0.16774399  1
  I  I79  1  0.83980009  0.66688748  0.49803355  1
  I  I80  1  0.82884885  0.67032163  0.83320576  1
  I  I81  1  0.16229593  0.16996285  0.00417558  1
  I  I82  1  0.16695413  0.16647023  0.33404733  1
  I  I83  1  0.17120066  0.16593508  0.66276496  1
  I  I84  1  0.16203572  0.49695530  0.00406562  1
  I  I85  1  0.16245249  0.49988214  0.33417051  1
  I  I86  1  0.16302483  0.50033883  0.66245714  1
  I  I87  1  0.16555624  0.83366743  0.00025001  1
  I  I88  1  0.16242706  0.83413445  0.33724054  1
  I  I89  1  0.16825641  0.83331434  0.66176380  1
  I  I90  1  0.49979762  0.16620919  -0.00002077  1
  I  I91  1  0.49795228  0.16144198  0.33585231  1
  I  I92  1  0.49350633  0.16440388  0.66231702  1
  I  I93  1  0.49986167  0.49805794  0.00030703  1
  I  I94  1  0.50104272  0.50554454  0.33349411  1
  I  I95  1  0.49895596  0.50224458  0.66616395  1
  I  I96  1  0.50629128  0.83384757  -0.00037288  1
  I  I97  1  0.50046353  0.83512930  0.33177451  1
  I  I98  1  0.50156547  0.83552748  0.66868416  1
  I  I99  1  0.83876922  0.17133818  0.00540505  1
  I  I100  1  0.83422864  0.16394245  0.33075524  1
  I  I101  1  0.83266020  0.16828901  0.66663615  1
  I  I102  1  0.83805383  0.49854351  0.00366839  1
  I  I103  1  0.83725634  0.50333740  0.33374877  1
  I  I104  1  0.83762733  0.50205900  0.66327605  1
  I  I105  1  0.82905143  0.83419714  -0.00177727  1
  I  I106  1  0.83506041  0.83275385  0.33621410  1
  I  I107  1  0.83062461  0.82862951  0.66504824  1
  I  I108  1  0.00072493  0.16783206  0.17354478  1
  I  I109  1  0.00306010  0.16486329  0.49735407  1
  I  I110  1  -0.00017941  0.16331956  0.82738980  1
  I  I111  1  -0.00006203  0.49756717  0.17158419  1
  I  I112  1  0.00030062  0.50067182  0.49583093  1
  I  I113  1  -0.00015399  0.50400104  0.83309264  1
  I  I114  1  0.00020570  0.83435054  0.16402304  1
  I  I115  1  -0.00046144  0.83492242  0.50456573  1
  I  I116  1  -0.00299307  0.83279066  0.83131144  1
  I  I117  1  0.32998137  0.16951039  0.17025489  1
  I  I118  1  0.33114022  0.16411814  0.49417099  1
  I  I119  1  0.33339649  0.16339100  0.83683352  1
  I  I120  1  0.32961634  0.49711045  0.17270856  1
  I  I121  1  0.32978665  0.50432475  0.49530511  1
  I  I122  1  0.33317015  0.50308808  0.83278148  1
  I  I123  1  0.33644989  0.83430260  0.16252655  1
  I  I124  1  0.33079017  0.83156137  0.49908596  1
  I  I125  1  0.33599575  0.83391175  0.83669522  1
  I  I126  1  0.66911296  0.16859196  0.16965799  1
  I  I127  1  0.66531329  0.16334511  0.49728701  1
  I  I128  1  0.66689064  0.16750950  0.83188029  1
  I  I129  1  0.67009706  0.49771830  0.17154311  1
  I  I130  1  0.67038323  0.50545441  0.49528574  1
  I  I131  1  0.66709251  0.49898899  0.83266419  1
  I  I132  1  0.66445935  0.83437253  0.16791635  1
  I  I133  1  0.66952015  0.83110396  0.50048858  1
  I  I134  1  0.66711274  0.83317786  0.83083750  1
