# generated using pymatgen
data_Cs27Sn14Pb13I81
_symmetry_space_group_name_H-M   'P 1'
_cell_length_a   18.95805177
_cell_length_b   18.96206211
_cell_length_c   18.96305105
_cell_angle_alpha   89.99636486
_cell_angle_beta   89.99760395
_cell_angle_gamma   90.00227345
_symmetry_Int_Tables_number   1
_chemical_formula_structural   Cs27Sn14Pb13I81
_chemical_formula_sum   'Cs27 Sn14 Pb13 I81'
_cell_volume   6816.90877636
_cell_formula_units_Z   1
loop_
 _symmetry_equiv_pos_site_id
 _symmetry_equiv_pos_as_xyz
  1  'x, y, z'
loop_
 _atom_site_type_symbol
 _atom_site_label
 _atom_site_symmetry_multiplicity
 _atom_site_fract_x
 _atom_site_fract_y
 _atom_site_fract_z
 _atom_site_occupancy
  Cs  Cs0  1  0.00235439  0.00619343  -0.00456969  1
  Cs  Cs1  1  0.00003155  -0.00052685  0.33590444  1
  Cs  Cs2  1  0.00058821  -0.00090402  0.66780675  1
  Cs  Cs3  1  -0.00054857  0.33304580  0.00002586  1
  Cs  Cs4  1  0.00096988  0.33432119  0.33269181  1
  Cs  Cs5  1  -0.00114554  0.33227998  0.66706842  1
  Cs  Cs6  1  -0.00199583  0.66291033  0.00278011  1
  Cs  Cs7  1  -0.00152405  0.66744438  0.33400280  1
  Cs  Cs8  1  -0.00023114  0.66772070  0.66457438  1
  Cs  Cs9  1  0.33574923  -0.00365515  -0.00096746  1
  Cs  Cs10  1  0.33536033  0.00258997  0.33179890  1
  Cs  Cs11  1  0.33133635  -0.00519519  0.66945542  1
  Cs  Cs12  1  0.33125469  0.33476741  0.00215878  1
  Cs  Cs13  1  0.33331582  0.33244759  0.33366452  1
  Cs  Cs14  1  0.33679703  0.33583475  0.66360650  1
  Cs  Cs15  1  0.33545681  0.66702011  -0.00171927  1
  Cs  Cs16  1  0.33002920  0.66433054  0.33379694  1
  Cs  Cs17  1  0.33693737  0.66817100  0.66940532  1
  Cs  Cs18  1  0.66238712  -0.00071175  0.00060071  1
  Cs  Cs19  1  0.66333999  -0.00152587  0.33180786  1
  Cs  Cs20  1  0.66914000  0.00167658  0.66594825  1
  Cs  Cs21  1  0.66900414  0.33261390  -0.00102191  1
  Cs  Cs22  1  0.66549370  0.33134011  0.33547555  1
  Cs  Cs23  1  0.66522847  0.33379767  0.66559123  1
  Cs  Cs24  1  0.66643512  0.66991936  0.00063682  1
  Cs  Cs25  1  0.67209757  0.67088474  0.33109150  1
  Cs  Cs26  1  0.66459395  0.66567503  0.66823049  1
  Sn  Sn27  1  0.16583846  0.16645321  0.16741286  1
  Sn  Sn28  1  0.83391699  0.83244972  0.83339741  1
  Sn  Sn29  1  0.16752328  0.50007118  0.16671897  1
  Sn  Sn30  1  0.49989949  0.83312152  0.49973409  1
  Sn  Sn31  1  0.83420756  0.16744381  0.49893439  1
  Sn  Sn32  1  0.83412913  0.49925020  0.50076447  1
  Sn  Sn33  1  0.83411292  0.50097850  0.83248369  1
  Sn  Sn34  1  0.49946914  0.16710491  0.83322965  1
  Sn  Sn35  1  0.16604188  0.49986678  0.83295194  1
  Sn  Sn36  1  0.83390468  0.16665808  0.16770856  1
  Sn  Sn37  1  0.16587098  0.16735326  0.49950402  1
  Sn  Sn38  1  0.49984524  0.49982807  0.16696124  1
  Sn  Sn39  1  0.16590158  0.49931649  0.50038120  1
  Sn  Sn40  1  0.16620666  0.83347004  0.16664904  1
  Pb  Pb41  1  0.83581070  0.83669461  0.16435796  1
  Pb  Pb42  1  0.16881352  0.16891767  0.83290063  1
  Pb  Pb43  1  0.16460881  0.83035642  0.83574309  1
  Pb  Pb44  1  0.16819579  0.83325416  0.49837438  1
  Pb  Pb45  1  0.50044357  0.49871485  0.83529284  1
  Pb  Pb46  1  0.49777606  0.83079324  0.16849122  1
  Pb  Pb47  1  0.49952959  0.16499727  0.50166831  1
  Pb  Pb48  1  0.50216936  0.83538407  0.83162819  1
  Pb  Pb49  1  0.83212688  0.16739764  0.83294155  1
  Pb  Pb50  1  0.83377811  0.49842179  0.16698404  1
  Pb  Pb51  1  0.83188784  0.83338485  0.50138577  1
  Pb  Pb52  1  0.50036448  0.50175050  0.49788934  1
  Pb  Pb53  1  0.49951284  0.16833683  0.16507557  1
  I  I54  1  0.16192476  0.00154766  0.17157959  1
  I  I55  1  0.16403931  0.00316516  0.49545251  1
  I  I56  1  0.16648667  0.00004563  0.83384053  1
  I  I57  1  0.16680871  0.33370784  0.16706724  1
  I  I58  1  0.16385100  0.33397464  0.49557794  1
  I  I59  1  0.16034787  0.33708202  0.83811963  1
  I  I60  1  0.17164044  0.66494202  0.16649614  1
  I  I61  1  0.16359418  0.66317023  0.49822946  1
  I  I62  1  0.16662841  0.66199889  0.83241982  1
  I  I63  1  0.49940232  0.00001512  0.16566736  1
  I  I64  1  0.50037049  -0.00237341  0.50078648  1
  I  I65  1  0.50161951  0.00295731  0.83416475  1
  I  I66  1  0.49379767  0.33605634  0.16690821  1
  I  I67  1  0.50028591  0.33345286  0.50035400  1
  I  I68  1  0.50264531  0.33123117  0.83274606  1
  I  I69  1  0.49487762  0.66294588  0.16590641  1
  I  I70  1  0.49940156  0.66902969  0.49985289  1
  I  I71  1  0.49879781  0.66654099  0.83366896  1
  I  I72  1  0.83732799  0.00463281  0.17089695  1
  I  I73  1  0.83627243  0.00316949  0.49875978  1
  I  I74  1  0.83003137  -0.00133114  0.83394820  1
  I  I75  1  0.83834804  0.33051251  0.16497300  1
  I  I76  1  0.83631686  0.33361435  0.50227555  1
  I  I77  1  0.83595803  0.33624681  0.83292837  1
  I  I78  1  0.83352501  0.66662076  0.16837363  1
  I  I79  1  0.83655783  0.66352038  0.50181957  1
  I  I80  1  0.83652304  0.66464649  0.82829611  1
  I  I81  1  0.16322229  0.16851687  0.00302782  1
  I  I82  1  0.16381245  0.17136248  0.33295766  1
  I  I83  1  0.16331224  0.17077918  0.66344343  1
  I  I84  1  0.16651870  0.49952169  0.00074998  1
  I  I85  1  0.16711670  0.49927969  0.33325564  1
  I  I86  1  0.16205853  0.49484388  0.66573842  1
  I  I87  1  0.16686856  0.83495649  0.00375244  1
  I  I88  1  0.16685407  0.82881746  0.33039506  1
  I  I89  1  0.16780917  0.83405248  0.66677742  1
  I  I90  1  0.50167871  0.16769384  -0.00242521  1
  I  I91  1  0.50065152  0.16618585  0.33335933  1
  I  I92  1  0.50159690  0.16757011  0.66907243  1
  I  I93  1  0.49496640  0.49869222  0.00306574  1
  I  I94  1  0.49441334  0.49876875  0.33026181  1
  I  I95  1  0.49751875  0.50023900  0.66652197  1
  I  I96  1  0.50014503  0.83381624  0.00012808  1
  I  I97  1  0.50181497  0.83484702  0.33590422  1
  I  I98  1  0.49823588  0.83257679  0.66408672  1
  I  I99  1  0.83669234  0.16747160  0.00213800  1
  I  I100  1  0.83646524  0.17252487  0.33418503  1
  I  I101  1  0.83601451  0.16741596  0.66373204  1
  I  I102  1  0.83608403  0.50088462  -0.00220422  1
  I  I103  1  0.83580099  0.49767327  0.33612231  1
  I  I104  1  0.83993222  0.49784713  0.66619975  1
  I  I105  1  0.83290701  0.82678504  -0.00323555  1
  I  I106  1  0.83223027  0.83100640  0.33318156  1
  I  I107  1  0.83292521  0.83398347  0.66929490  1
  I  I108  1  0.00126512  0.16953226  0.16877463  1
  I  I109  1  0.00016479  0.17024979  0.49649716  1
  I  I110  1  0.00020723  0.16516509  0.83419593  1
  I  I111  1  0.00322818  0.50075438  0.16610231  1
  I  I112  1  0.00060731  0.49699781  0.49876727  1
  I  I113  1  0.00003743  0.50214088  0.83536802  1
  I  I114  1  0.00360408  0.82612457  0.16839711  1
  I  I115  1  0.00007504  0.83339468  0.50014027  1
  I  I116  1  -0.00316377  0.83411171  0.83163841  1
  I  I117  1  0.32966290  0.16669180  0.17002812  1
  I  I118  1  0.32991711  0.17082160  0.49612556  1
  I  I119  1  0.33591664  0.16862650  0.83367145  1
  I  I120  1  0.33047798  0.49765083  0.16645285  1
  I  I121  1  0.32997793  0.49677189  0.50110397  1
  I  I122  1  0.33046327  0.49692944  0.83188489  1
  I  I123  1  0.32971177  0.83781281  0.16674491  1
  I  I124  1  0.33568143  0.83356949  0.49963503  1
  I  I125  1  0.33309090  0.83335929  0.83330892  1
  I  I126  1  0.66915437  0.16983464  0.16889241  1
  I  I127  1  0.66969335  0.16982996  0.49809171  1
  I  I128  1  0.66474638  0.16840220  0.83367570  1
  I  I129  1  0.66513923  0.49710474  0.16630827  1
  I  I130  1  0.66991334  0.49650163  0.50334983  1
  I  I131  1  0.66985073  0.50113646  0.83042206  1
  I  I132  1  0.66689499  0.83272706  0.16640240  1
  I  I133  1  0.66434216  0.83331731  0.50071947  1
  I  I134  1  0.66997261  0.82697079  0.83329599  1
