# generated using pymatgen
data_Cs27Sn14Pb13I81
_symmetry_space_group_name_H-M   'P 1'
_cell_length_a   18.97563381
_cell_length_b   18.98073447
_cell_length_c   18.97367545
_cell_angle_alpha   90.00041878
_cell_angle_beta   90.00116928
_cell_angle_gamma   90.00053908
_symmetry_Int_Tables_number   1
_chemical_formula_structural   Cs27Sn14Pb13I81
_chemical_formula_sum   'Cs27 Sn14 Pb13 I81'
_cell_volume   6833.77651437
_cell_formula_units_Z   1
loop_
 _symmetry_equiv_pos_site_id
 _symmetry_equiv_pos_as_xyz
  1  'x, y, z'
loop_
 _atom_site_type_symbol
 _atom_site_label
 _atom_site_symmetry_multiplicity
 _atom_site_fract_x
 _atom_site_fract_y
 _atom_site_fract_z
 _atom_site_occupancy
  Cs  Cs0  1  -0.00290487  -0.00304812  -0.00088633  1
  Cs  Cs1  1  0.00255072  0.00045722  0.34118528  1
  Cs  Cs2  1  0.00249903  -0.00014857  0.66132281  1
  Cs  Cs3  1  0.00313203  0.33490804  0.00152184  1
  Cs  Cs4  1  0.00288139  0.33258988  0.33382584  1
  Cs  Cs5  1  0.00202203  0.33048789  0.66343139  1
  Cs  Cs6  1  -0.00138373  0.66745842  0.00029541  1
  Cs  Cs7  1  0.00034953  0.66617538  0.33478412  1
  Cs  Cs8  1  -0.00187215  0.66984729  0.66341223  1
  Cs  Cs9  1  0.33475464  -0.00044087  -0.00026021  1
  Cs  Cs10  1  0.33479438  -0.00215592  0.33658144  1
  Cs  Cs11  1  0.33076577  0.00095741  0.66700592  1
  Cs  Cs12  1  0.32688026  0.33609186  0.00007148  1
  Cs  Cs13  1  0.33060012  0.33217736  0.32874574  1
  Cs  Cs14  1  0.33436230  0.33738236  0.67105335  1
  Cs  Cs15  1  0.33155834  0.66627831  -0.00077607  1
  Cs  Cs16  1  0.33531056  0.66994624  0.33626265  1
  Cs  Cs17  1  0.33522340  0.66180485  0.66410568  1
  Cs  Cs18  1  0.66665571  0.00015499  -0.00008568  1
  Cs  Cs19  1  0.66357545  0.00104117  0.33162137  1
  Cs  Cs20  1  0.66802644  0.00254650  0.67166367  1
  Cs  Cs21  1  0.66731053  0.33191677  0.00116136  1
  Cs  Cs22  1  0.66765228  0.33269904  0.33200091  1
  Cs  Cs23  1  0.66491102  0.33422394  0.66466340  1
  Cs  Cs24  1  0.66932684  0.66764755  0.00044585  1
  Cs  Cs25  1  0.66352621  0.66589923  0.33656982  1
  Cs  Cs26  1  0.66524940  0.66158306  0.66209267  1
  Sn  Sn27  1  0.50051296  0.16763908  0.16615636  1
  Sn  Sn28  1  0.16565071  0.83369455  0.16600742  1
  Sn  Sn29  1  0.50063701  0.49937206  0.16587493  1
  Sn  Sn30  1  0.16660592  0.49985393  0.49994302  1
  Sn  Sn31  1  0.83326418  0.49971251  0.83387187  1
  Sn  Sn32  1  0.50040359  0.83347461  0.83352769  1
  Sn  Sn33  1  0.83289685  0.16693399  0.83431920  1
  Sn  Sn34  1  0.83416509  0.83357770  0.16658763  1
  Sn  Sn35  1  0.83310857  0.83324876  0.83384619  1
  Sn  Sn36  1  0.83302928  0.16647110  0.16582124  1
  Sn  Sn37  1  0.83253704  0.49998508  0.16583136  1
  Sn  Sn38  1  0.50055163  0.16628073  0.83373706  1
  Sn  Sn39  1  0.50020645  0.16670970  0.50017424  1
  Sn  Sn40  1  0.16649378  0.83337477  0.83420190  1
  Pb  Pb41  1  0.83282229  0.83350794  0.49978832  1
  Pb  Pb42  1  0.50032256  0.83578363  0.50372922  1
  Pb  Pb43  1  0.50207105  0.49956388  0.83560580  1
  Pb  Pb44  1  0.83469761  0.49971796  0.49942682  1
  Pb  Pb45  1  0.16343493  0.50272238  0.83170718  1
  Pb  Pb46  1  0.50056795  0.83354478  0.16488171  1
  Pb  Pb47  1  0.16625931  0.50255014  0.16779623  1
  Pb  Pb48  1  0.49833191  0.49743295  0.49692537  1
  Pb  Pb49  1  0.16612832  0.16447745  0.83370206  1
  Pb  Pb50  1  0.16675386  0.83178635  0.50013701  1
  Pb  Pb51  1  0.83135822  0.16671307  0.49986529  1
  Pb  Pb52  1  0.16969734  0.16907460  0.50007666  1
  Pb  Pb53  1  0.16624364  0.16372012  0.16639869  1
  I  I54  1  0.16334906  -0.00415133  0.16245352  1
  I  I55  1  0.16719445  -0.00001521  0.50003735  1
  I  I56  1  0.16292689  -0.00375160  0.83645627  1
  I  I57  1  0.16513490  0.33344069  0.16974949  1
  I  I58  1  0.16470449  0.33642226  0.49840838  1
  I  I59  1  0.16722896  0.33362229  0.83063241  1
  I  I60  1  0.16308383  0.67021256  0.16270797  1
  I  I61  1  0.16714609  0.66430663  0.49971878  1
  I  I62  1  0.16803575  0.67078574  0.83742928  1
  I  I63  1  0.50260090  0.00302635  0.16816161  1
  I  I64  1  0.49982573  0.00364381  0.49251905  1
  I  I65  1  0.50443659  0.00076434  0.83527369  1
  I  I66  1  0.50761239  0.33213433  0.16608046  1
  I  I67  1  0.49987689  0.32982557  0.50638337  1
  I  I68  1  0.50502693  0.33002655  0.83074378  1
  I  I69  1  0.50270716  0.66468863  0.16470508  1
  I  I70  1  0.49837665  0.66630284  0.49968190  1
  I  I71  1  0.50055020  0.66913144  0.83634071  1
  I  I72  1  0.83219563  0.00020565  0.16026734  1
  I  I73  1  0.83442070  0.00016947  0.49994445  1
  I  I74  1  0.83159225  -0.00015723  0.83905868  1
  I  I75  1  0.82759102  0.33310185  0.16096468  1
  I  I76  1  0.83478738  0.33324258  0.50136324  1
  I  I77  1  0.82752921  0.33254703  0.83875306  1
  I  I78  1  0.83368473  0.66672836  0.16033776  1
  I  I79  1  0.83358707  0.66655034  0.50096793  1
  I  I80  1  0.83412855  0.66754486  0.83949758  1
  I  I81  1  0.17261131  0.17065164  0.00008579  1
  I  I82  1  0.16632292  0.16362892  0.33310466  1
  I  I83  1  0.16558121  0.16378946  0.66691619  1
  I  I84  1  0.16855413  0.49934837  -0.00001332  1
  I  I85  1  0.16553171  0.50264843  0.33530960  1
  I  I86  1  0.16666757  0.50177498  0.66423570  1
  I  I87  1  0.16506920  0.83262049  -0.00057286  1
  I  I88  1  0.16150077  0.83221242  0.33032451  1
  I  I89  1  0.16515233  0.83292793  0.67008607  1
  I  I90  1  0.50541045  0.16500832  -0.00008202  1
  I  I91  1  0.50391129  0.17169344  0.33166723  1
  I  I92  1  0.50368861  0.16084542  0.66833790  1
  I  I93  1  0.50068738  0.49488582  0.00348007  1
  I  I94  1  0.50657233  0.49652294  0.32900011  1
  I  I95  1  0.50021697  0.50007184  0.66690841  1
  I  I96  1  0.50036117  0.83905683  -0.00317556  1
  I  I97  1  0.49862988  0.83377999  0.33305152  1
  I  I98  1  0.50034711  0.83756515  0.67216408  1
  I  I99  1  0.82523523  0.16552993  0.00000296  1
  I  I100  1  0.82949764  0.16709750  0.32949190  1
  I  I101  1  0.82970300  0.16586681  0.67041174  1
  I  I102  1  0.83019157  0.50083362  0.00073168  1
  I  I103  1  0.83084656  0.50007843  0.32929258  1
  I  I104  1  0.83492858  0.50146218  0.66989358  1
  I  I105  1  0.83424901  0.83343609  -0.00041204  1
  I  I106  1  0.83891997  0.83308505  0.32914937  1
  I  I107  1  0.83469688  0.83373273  0.67100112  1
  I  I108  1  -0.00386679  0.17015221  0.16094817  1
  I  I109  1  0.00006953  0.16686210  0.50017432  1
  I  I110  1  -0.00396902  0.16671986  0.83876284  1
  I  I111  1  -0.00357558  0.49763128  0.16413995  1
  I  I112  1  0.00238035  0.50129369  0.49849600  1
  I  I113  1  -0.00471271  0.49864895  0.84055395  1
  I  I114  1  -0.00160569  0.83230196  0.15842478  1
  I  I115  1  -0.00002807  0.83378266  0.50381210  1
  I  I116  1  -0.00125166  0.83253069  0.83775953  1
  I  I117  1  0.33682996  0.17043279  0.16609699  1
  I  I118  1  0.33769987  0.16571683  0.49951988  1
  I  I119  1  0.33678201  0.16168981  0.83331380  1
  I  I120  1  0.33577257  0.49598881  0.16874411  1
  I  I121  1  0.33081992  0.50071349  0.49940798  1
  I  I122  1  0.33335176  0.50034078  0.83335539  1
  I  I123  1  0.33166966  0.83266055  0.16217282  1
  I  I124  1  0.33349791  0.83315695  0.49829374  1
  I  I125  1  0.33356181  0.83906396  0.83749015  1
  I  I126  1  0.66687598  0.16513395  0.16624918  1
  I  I127  1  0.66344952  0.16789712  0.50026038  1
  I  I128  1  0.66677280  0.16118754  0.83393029  1
  I  I129  1  0.66794545  0.50125923  0.16363584  1
  I  I130  1  0.66642319  0.49969511  0.50147237  1
  I  I131  1  0.67020719  0.50520466  0.83429454  1
  I  I132  1  0.66983139  0.83342379  0.16215951  1
  I  I133  1  0.66640452  0.83092916  0.49789305  1
  I  I134  1  0.66773535  0.83567347  0.83785309  1
