# generated using pymatgen
data_Cs27Sn14Pb13I81
_symmetry_space_group_name_H-M   'P 1'
_cell_length_a   18.96263820
_cell_length_b   18.95383467
_cell_length_c   18.96630395
_cell_angle_alpha   89.99830705
_cell_angle_beta   90.00097852
_cell_angle_gamma   89.99883406
_symmetry_Int_Tables_number   1
_chemical_formula_structural   Cs27Sn14Pb13I81
_chemical_formula_sum   'Cs27 Sn14 Pb13 I81'
_cell_volume   6816.76861293
_cell_formula_units_Z   1
loop_
 _symmetry_equiv_pos_site_id
 _symmetry_equiv_pos_as_xyz
  1  'x, y, z'
loop_
 _atom_site_type_symbol
 _atom_site_label
 _atom_site_symmetry_multiplicity
 _atom_site_fract_x
 _atom_site_fract_y
 _atom_site_fract_z
 _atom_site_occupancy
  Cs  Cs0  1  -0.00032878  -0.00042510  -0.00156400  1
  Cs  Cs1  1  0.00144222  0.00122730  0.33480355  1
  Cs  Cs2  1  -0.00399278  0.00715056  0.66824452  1
  Cs  Cs3  1  0.00141921  0.33377861  -0.00431019  1
  Cs  Cs4  1  -0.00058795  0.33502050  0.33555399  1
  Cs  Cs5  1  0.00133369  0.32610606  0.66653496  1
  Cs  Cs6  1  0.00175863  0.66612794  0.00299431  1
  Cs  Cs7  1  0.00093616  0.66571974  0.33096592  1
  Cs  Cs8  1  -0.00241038  0.66732085  0.66459777  1
  Cs  Cs9  1  0.33301787  -0.00109711  0.00376124  1
  Cs  Cs10  1  0.33310819  -0.00107689  0.33162741  1
  Cs  Cs11  1  0.33317354  0.00117571  0.66641943  1
  Cs  Cs12  1  0.33255586  0.33516165  -0.00390152  1
  Cs  Cs13  1  0.33565868  0.33365050  0.33465196  1
  Cs  Cs14  1  0.33361495  0.33164263  0.66847461  1
  Cs  Cs15  1  0.33200140  0.66571834  -0.00107846  1
  Cs  Cs16  1  0.33184848  0.66713355  0.33299706  1
  Cs  Cs17  1  0.33635079  0.66740066  0.66753683  1
  Cs  Cs18  1  0.66922397  0.00434608  0.00103169  1
  Cs  Cs19  1  0.66736724  0.00213673  0.33246543  1
  Cs  Cs20  1  0.67107644  -0.00787946  0.66819576  1
  Cs  Cs21  1  0.66601620  0.33136908  0.00184775  1
  Cs  Cs22  1  0.66493627  0.33357125  0.33212710  1
  Cs  Cs23  1  0.66344469  0.33594623  0.66652658  1
  Cs  Cs24  1  0.66689607  0.66651529  -0.00132253  1
  Cs  Cs25  1  0.66717856  0.66554298  0.33425425  1
  Cs  Cs26  1  0.66550232  0.67043251  0.66825612  1
  Sn  Sn27  1  0.50032637  0.83237583  0.16683168  1
  Sn  Sn28  1  0.16661194  0.83285821  0.50045779  1
  Sn  Sn29  1  0.83335203  0.50009095  0.83334434  1
  Sn  Sn30  1  0.83325541  0.83276724  0.16691808  1
  Sn  Sn31  1  0.16652993  0.83418321  0.16677184  1
  Sn  Sn32  1  0.83258291  0.50073093  0.16646061  1
  Sn  Sn33  1  0.50020946  0.16629033  0.83217434  1
  Sn  Sn34  1  0.16657591  0.16655798  0.16688068  1
  Sn  Sn35  1  0.16667014  0.83316621  0.83294234  1
  Sn  Sn36  1  0.50045375  0.50103713  0.16718547  1
  Sn  Sn37  1  0.49984301  0.49962907  0.49939399  1
  Sn  Sn38  1  0.16690994  0.50062108  0.50016748  1
  Sn  Sn39  1  0.83313501  0.50011785  0.50028769  1
  Sn  Sn40  1  0.50013899  0.16667176  0.50112804  1
  Pb  Pb41  1  0.16680524  0.50017421  0.16801876  1
  Pb  Pb42  1  0.49840273  0.83559884  0.83619504  1
  Pb  Pb43  1  0.16854873  0.16658499  0.49838611  1
  Pb  Pb44  1  0.83552478  0.83133774  0.83573129  1
  Pb  Pb45  1  0.83611062  0.16733603  0.16677357  1
  Pb  Pb46  1  0.83072275  0.16898580  0.83329639  1
  Pb  Pb47  1  0.49842338  0.16722335  0.16700874  1
  Pb  Pb48  1  0.16446584  0.50197292  0.82992785  1
  Pb  Pb49  1  0.83013065  0.16907201  0.49984086  1
  Pb  Pb50  1  0.16848717  0.16433344  0.83555357  1
  Pb  Pb51  1  0.49835487  0.83304160  0.49812921  1
  Pb  Pb52  1  0.50159726  0.49893036  0.83344354  1
  Pb  Pb53  1  0.83585809  0.83134734  0.49779048  1
  I  I54  1  0.16827476  -0.00256927  0.16880181  1
  I  I55  1  0.16974927  -0.00288491  0.49880981  1
  I  I56  1  0.16708625  -0.00377480  0.83049146  1
  I  I57  1  0.16807003  0.33161223  0.16941173  1
  I  I58  1  0.16480156  0.33630475  0.49659099  1
  I  I59  1  0.16613959  0.33337830  0.83476808  1
  I  I60  1  0.16666698  0.66961203  0.16604661  1
  I  I61  1  0.16840424  0.66641868  0.49627469  1
  I  I62  1  0.16753948  0.66985553  0.84070752  1
  I  I63  1  0.50025653  -0.00254643  0.16665376  1
  I  I64  1  0.49555135  0.00213322  0.50057964  1
  I  I65  1  0.49828833  0.00332744  0.82870488  1
  I  I66  1  0.50305205  0.33641541  0.16817020  1
  I  I67  1  0.49831051  0.33530342  0.49711522  1
  I  I68  1  0.49983773  0.33099856  0.83480208  1
  I  I69  1  0.49821219  0.66603168  0.17172954  1
  I  I70  1  0.50116146  0.66336681  0.49690194  1
  I  I71  1  0.49992755  0.66687092  0.83190648  1
  I  I72  1  0.83100397  -0.00316008  0.16602712  1
  I  I73  1  0.83378526  -0.00026166  0.49824131  1
  I  I74  1  0.83361590  -0.00027742  0.83541214  1
  I  I75  1  0.82920882  0.33735806  0.16769249  1
  I  I76  1  0.83912859  0.33818602  0.49619708  1
  I  I77  1  0.83450501  0.33740684  0.83654002  1
  I  I78  1  0.83532352  0.66587642  0.16733072  1
  I  I79  1  0.82843239  0.66256979  0.50104943  1
  I  I80  1  0.83194492  0.66319945  0.83128039  1
  I  I81  1  0.16960320  0.16221034  0.00347142  1
  I  I82  1  0.16957160  0.16083761  0.33061769  1
  I  I83  1  0.16679412  0.16594041  0.66658046  1
  I  I84  1  0.16669337  0.50014160  -0.00004579  1
  I  I85  1  0.16391893  0.50450867  0.33615892  1
  I  I86  1  0.16847863  0.50451615  0.66172705  1
  I  I87  1  0.16669312  0.83799747  0.00174621  1
  I  I88  1  0.16707804  0.83277478  0.33231842  1
  I  I89  1  0.16856797  0.82657570  0.66575220  1
  I  I90  1  0.49786676  0.16647216  -0.00142469  1
  I  I91  1  0.49782651  0.16932012  0.33545589  1
  I  I92  1  0.49769999  0.17452400  0.66551969  1
  I  I93  1  0.50368439  0.50156214  0.00311941  1
  I  I94  1  0.50362693  0.49784666  0.33345360  1
  I  I95  1  0.50027102  0.49732846  0.66358553  1
  I  I96  1  0.49686209  0.82881614  0.00455632  1
  I  I97  1  0.49695178  0.83364914  0.32971222  1
  I  I98  1  0.49714398  0.83149546  0.66661850  1
  I  I99  1  0.83064182  0.16959124  0.00023645  1
  I  I100  1  0.83129700  0.16857209  0.33316885  1
  I  I101  1  0.83699871  0.16838312  0.66651580  1
  I  I102  1  0.82890760  0.50378378  0.00159986  1
  I  I103  1  0.83265845  0.50382472  0.33303328  1
  I  I104  1  0.83365501  0.49884111  0.66557339  1
  I  I105  1  0.83551623  0.82719218  0.00411765  1
  I  I106  1  0.83527800  0.82741349  0.32935948  1
  I  I107  1  0.83507760  0.83117979  0.66658290  1
  I  I108  1  0.00391915  0.16223760  0.16710535  1
  I  I109  1  0.00016861  0.16794932  0.49841143  1
  I  I110  1  0.00011496  0.16700686  0.83495321  1
  I  I111  1  -0.00261334  0.50284943  0.16810253  1
  I  I112  1  -0.00011820  0.50604407  0.49790324  1
  I  I113  1  -0.00344150  0.50136411  0.83716921  1
  I  I114  1  0.00063214  0.83197008  0.16675242  1
  I  I115  1  0.00415347  0.82752279  0.49636865  1
  I  I116  1  0.00357049  0.83218966  0.83613866  1
  I  I117  1  0.33081483  0.16155414  0.16743646  1
  I  I118  1  0.33635970  0.17336674  0.50151385  1
  I  I119  1  0.33618399  0.16893724  0.83055323  1
  I  I120  1  0.33594025  0.50217140  0.17162971  1
  I  I121  1  0.33406334  0.50005238  0.49394983  1
  I  I122  1  0.33325612  0.49947392  0.83417262  1
  I  I123  1  0.33267481  0.83371246  0.16716626  1
  I  I124  1  0.33006014  0.82791643  0.49609510  1
  I  I125  1  0.33020622  0.83246586  0.83649936  1
  I  I126  1  0.66648140  0.16402992  0.16650317  1
  I  I127  1  0.66197206  0.17200727  0.50037166  1
  I  I128  1  0.66287153  0.16674380  0.83196223  1
  I  I129  1  0.66657284  0.50631462  0.17090584  1
  I  I130  1  0.66632044  0.49437265  0.49776439  1
  I  I131  1  0.66961496  0.49964254  0.83060176  1
  I  I132  1  0.66649785  0.82806794  0.16698309  1
  I  I133  1  0.66670082  0.83337132  0.49835588  1
  I  I134  1  0.66681335  0.83386336  0.83455165  1
