# generated using pymatgen
data_Cs27Sn13Pb14I81
_symmetry_space_group_name_H-M   'P 1'
_cell_length_a   18.99095629
_cell_length_b   18.98608515
_cell_length_c   18.99621069
_cell_angle_alpha   90.00231461
_cell_angle_beta   90.00121444
_cell_angle_gamma   89.99759277
_symmetry_Int_Tables_number   1
_chemical_formula_structural   Cs27Sn13Pb14I81
_chemical_formula_sum   'Cs27 Sn13 Pb14 I81'
_cell_volume   6849.34804925
_cell_formula_units_Z   1
loop_
 _symmetry_equiv_pos_site_id
 _symmetry_equiv_pos_as_xyz
  1  'x, y, z'
loop_
 _atom_site_type_symbol
 _atom_site_label
 _atom_site_symmetry_multiplicity
 _atom_site_fract_x
 _atom_site_fract_y
 _atom_site_fract_z
 _atom_site_occupancy
  Cs  Cs0  1  -0.00066762  0.00205950  0.00320451  1
  Cs  Cs1  1  -0.00133187  0.00204989  0.33245398  1
  Cs  Cs2  1  -0.00195111  -0.00340799  0.66327609  1
  Cs  Cs3  1  0.00029459  0.33079576  -0.00012455  1
  Cs  Cs4  1  -0.00225091  0.33016340  0.33281947  1
  Cs  Cs5  1  -0.00085309  0.33486787  0.66779900  1
  Cs  Cs6  1  0.00269078  0.66644362  -0.00149669  1
  Cs  Cs7  1  0.00232970  0.66785298  0.34336798  1
  Cs  Cs8  1  0.00252947  0.66881542  0.65707825  1
  Cs  Cs9  1  0.33186916  -0.00189123  -0.00408575  1
  Cs  Cs10  1  0.33307193  0.00011717  0.33566136  1
  Cs  Cs11  1  0.33705174  0.00455900  0.66670974  1
  Cs  Cs12  1  0.33017538  0.33359220  -0.00054434  1
  Cs  Cs13  1  0.33816879  0.33272150  0.33163862  1
  Cs  Cs14  1  0.33284301  0.32981569  0.67082752  1
  Cs  Cs15  1  0.33291813  0.66680994  0.00137530  1
  Cs  Cs16  1  0.33325750  0.66780434  0.33237079  1
  Cs  Cs17  1  0.32807911  0.66543546  0.66362381  1
  Cs  Cs18  1  0.66828385  -0.01244178  -0.00060436  1
  Cs  Cs19  1  0.66721029  -0.00020551  0.32868703  1
  Cs  Cs20  1  0.66414221  0.00294483  0.67168025  1
  Cs  Cs21  1  0.66929144  0.33665333  0.00113524  1
  Cs  Cs22  1  0.66457937  0.33486731  0.33365344  1
  Cs  Cs23  1  0.66700318  0.33141008  0.66645677  1
  Cs  Cs24  1  0.66555286  0.66868359  -0.00073494  1
  Cs  Cs25  1  0.66591637  0.66608967  0.33304511  1
  Cs  Cs26  1  0.66996067  0.66712522  0.66812738  1
  Sn  Sn27  1  0.50020431  0.16676937  0.16562140  1
  Sn  Sn28  1  0.83355968  0.50028813  0.16623318  1
  Sn  Sn29  1  0.50037383  0.83248114  0.50013266  1
  Sn  Sn30  1  0.83376191  0.16715478  0.50065218  1
  Sn  Sn31  1  0.83318538  0.16714881  0.83309370  1
  Sn  Sn32  1  0.16594894  0.16729763  0.49996718  1
  Sn  Sn33  1  0.50009516  0.49932826  0.16617834  1
  Sn  Sn34  1  0.16659837  0.83270948  0.16609804  1
  Sn  Sn35  1  0.50032490  0.49992833  0.83344733  1
  Sn  Sn36  1  0.83301531  0.49949760  0.83392708  1
  Sn  Sn37  1  0.16631251  0.50057493  0.16687424  1
  Sn  Sn38  1  0.16648771  0.83318327  0.83377592  1
  Sn  Sn39  1  0.49990083  0.50082665  0.50044262  1
  Pb  Pb40  1  0.49787685  0.83024439  0.83098180  1
  Pb  Pb41  1  0.83120107  0.49831765  0.50025740  1
  Pb  Pb42  1  0.83641055  0.82955860  0.16687308  1
  Pb  Pb43  1  0.16414499  0.16452498  0.83135900  1
  Pb  Pb44  1  0.83094180  0.16850911  0.16613900  1
  Pb  Pb45  1  0.50069804  0.16705742  0.49869815  1
  Pb  Pb46  1  0.49807183  0.83275219  0.16794257  1
  Pb  Pb47  1  0.16926656  0.49742986  0.49736148  1
  Pb  Pb48  1  0.16852738  0.83549270  0.49959899  1
  Pb  Pb49  1  0.50242477  0.16878776  0.83660212  1
  Pb  Pb50  1  0.16600810  0.50129997  0.83510885  1
  Pb  Pb51  1  0.16863418  0.16680028  0.16800752  1
  Pb  Pb52  1  0.83568228  0.83239651  0.83329400  1
  Pb  Pb53  1  0.83017250  0.83637160  0.50005412  1
  I  I54  1  0.17015917  -0.00241127  0.16485462  1
  I  I55  1  0.16594478  0.00296545  0.49741208  1
  I  I56  1  0.16629256  -0.00318185  0.84095525  1
  I  I57  1  0.16670746  0.33648058  0.16876202  1
  I  I58  1  0.16500869  0.33011784  0.49854617  1
  I  I59  1  0.16887058  0.33341856  0.83344270  1
  I  I60  1  0.16989933  0.66550685  0.16293663  1
  I  I61  1  0.16628745  0.66645745  0.50123106  1
  I  I62  1  0.16622489  0.66906757  0.83473651  1
  I  I63  1  0.49845386  0.00199711  0.17193422  1
  I  I64  1  0.49839596  -0.00159448  0.49644699  1
  I  I65  1  0.50069281  -0.00008603  0.83267634  1
  I  I66  1  0.49774109  0.33595397  0.17064036  1
  I  I67  1  0.50022199  0.33619319  0.49929734  1
  I  I68  1  0.49974693  0.33714077  0.82788253  1
  I  I69  1  0.50144144  0.66283878  0.16564170  1
  I  I70  1  0.49858323  0.66504101  0.49656005  1
  I  I71  1  0.50683025  0.66219345  0.83985453  1
  I  I72  1  0.83207042  0.00000030  0.16673453  1
  I  I73  1  0.83548473  0.00435948  0.50550691  1
  I  I74  1  0.83499046  0.00260584  0.82802095  1
  I  I75  1  0.83707504  0.33681019  0.16578658  1
  I  I76  1  0.83438074  0.33054210  0.50052474  1
  I  I77  1  0.82980234  0.33446744  0.83305405  1
  I  I78  1  0.82540208  0.66142685  0.16003422  1
  I  I79  1  0.83467110  0.66641727  0.50037218  1
  I  I80  1  0.82843102  0.66286389  0.83931925  1
  I  I81  1  0.16649237  0.16763687  0.00004515  1
  I  I82  1  0.16103190  0.16487066  0.33577678  1
  I  I83  1  0.16835164  0.16476805  0.66349818  1
  I  I84  1  0.17197487  0.50075876  0.00332805  1
  I  I85  1  0.16620904  0.50684293  0.32926809  1
  I  I86  1  0.16728221  0.50194860  0.66647895  1
  I  I87  1  0.16814936  0.82889688  0.00096622  1
  I  I88  1  0.16909118  0.82930322  0.33076893  1
  I  I89  1  0.16778234  0.83440536  0.66850262  1
  I  I90  1  0.49882768  0.17353417  0.00403105  1
  I  I91  1  0.50147549  0.17330669  0.33114674  1
  I  I92  1  0.49805287  0.16713777  0.66700250  1
  I  I93  1  0.50059590  0.49462844  0.00085119  1
  I  I94  1  0.49965396  0.49931362  0.33236514  1
  I  I95  1  0.50545816  0.50474977  0.66685434  1
  I  I96  1  0.50036043  0.83406111  -0.00019024  1
  I  I97  1  0.49669219  0.82834691  0.33567349  1
  I  I98  1  0.49677542  0.83004799  0.66335065  1
  I  I99  1  0.83207090  0.17058082  -0.00257932  1
  I  I100  1  0.83544535  0.16783911  0.33536122  1
  I  I101  1  0.83649794  0.17340918  0.66680678  1
  I  I102  1  0.82815093  0.49361457  -0.00003495  1
  I  I103  1  0.83191293  0.49822221  0.33069341  1
  I  I104  1  0.82771274  0.49741594  0.66949829  1
  I  I105  1  0.83045301  0.83913394  0.00012077  1
  I  I106  1  0.83574188  0.83407851  0.33338783  1
  I  I107  1  0.83765341  0.82788867  0.66664352  1
  I  I108  1  -0.00023538  0.16755570  0.16671202  1
  I  I109  1  -0.00056024  0.16645056  0.50180183  1
  I  I110  1  -0.00356796  0.17485011  0.83317586  1
  I  I111  1  -0.00015114  0.50362779  0.16046584  1
  I  I112  1  0.00005971  0.50076880  0.49978677  1
  I  I113  1  -0.00315701  0.49648399  0.83948007  1
  I  I114  1  0.00439753  0.83034365  0.16358428  1
  I  I115  1  0.00012504  0.83277721  0.50011840  1
  I  I116  1  0.00329222  0.83161109  0.83735054  1
  I  I117  1  0.33627180  0.17381116  0.17119493  1
  I  I118  1  0.33208470  0.16588957  0.49622800  1
  I  I119  1  0.33346774  0.16717105  0.83137043  1
  I  I120  1  0.33423405  0.50006163  0.16748434  1
  I  I121  1  0.33728224  0.50116315  0.49998324  1
  I  I122  1  0.33597618  0.50237658  0.83422299  1
  I  I123  1  0.33046581  0.82710914  0.16441995  1
  I  I124  1  0.33601986  0.83119315  0.49890343  1
  I  I125  1  0.33041707  0.83192573  0.83796651  1
  I  I126  1  0.66338802  0.17389450  0.17110226  1
  I  I127  1  0.66908168  0.16759879  0.50279583  1
  I  I128  1  0.67000859  0.16836154  0.82476384  1
  I  I129  1  0.66580204  0.49385056  0.16706940  1
  I  I130  1  0.66321397  0.50054975  0.49433220  1
  I  I131  1  0.66652227  0.49651684  0.83794983  1
  I  I132  1  0.66662162  0.83439745  0.16849336  1
  I  I133  1  0.66258438  0.82922813  0.49872993  1
  I  I134  1  0.66665406  0.83563669  0.83161104  1
