# generated using pymatgen
data_Cs27Sn14Pb13I81
_symmetry_space_group_name_H-M   'P 1'
_cell_length_a   18.95544314
_cell_length_b   18.96502296
_cell_length_c   18.96042096
_cell_angle_alpha   89.99822551
_cell_angle_beta   89.99932587
_cell_angle_gamma   90.00027418
_symmetry_Int_Tables_number   1
_chemical_formula_structural   Cs27Sn14Pb13I81
_chemical_formula_sum   'Cs27 Sn14 Pb13 I81'
_cell_volume   6816.08958065
_cell_formula_units_Z   1
loop_
 _symmetry_equiv_pos_site_id
 _symmetry_equiv_pos_as_xyz
  1  'x, y, z'
loop_
 _atom_site_type_symbol
 _atom_site_label
 _atom_site_symmetry_multiplicity
 _atom_site_fract_x
 _atom_site_fract_y
 _atom_site_fract_z
 _atom_site_occupancy
  Cs  Cs0  1  0.00666282  0.00184344  -0.00279165  1
  Cs  Cs1  1  -0.00132937  -0.00060869  0.33456331  1
  Cs  Cs2  1  -0.00049654  0.00127113  0.66856641  1
  Cs  Cs3  1  -0.00094604  0.32911128  -0.00128417  1
  Cs  Cs4  1  0.00438817  0.33757389  0.33149710  1
  Cs  Cs5  1  -0.00019335  0.33461141  0.66907692  1
  Cs  Cs6  1  -0.00262878  0.66915204  -0.00329050  1
  Cs  Cs7  1  -0.00154028  0.66290226  0.33585620  1
  Cs  Cs8  1  0.00043054  0.66611210  0.66621135  1
  Cs  Cs9  1  0.32669230  -0.00168995  0.00061773  1
  Cs  Cs10  1  0.33441363  -0.00018562  0.33311409  1
  Cs  Cs11  1  0.33399366  -0.00095121  0.66632367  1
  Cs  Cs12  1  0.33559844  0.33392995  0.00247157  1
  Cs  Cs13  1  0.32739487  0.33384926  0.33514372  1
  Cs  Cs14  1  0.33638080  0.33556430  0.66337490  1
  Cs  Cs15  1  0.33673061  0.66919416  0.00591792  1
  Cs  Cs16  1  0.33184796  0.66626544  0.32997440  1
  Cs  Cs17  1  0.33345440  0.66710117  0.66656444  1
  Cs  Cs18  1  0.66644894  -0.00009648  0.00050879  1
  Cs  Cs19  1  0.66642861  0.00108855  0.33546647  1
  Cs  Cs20  1  0.66594741  0.00085726  0.66437733  1
  Cs  Cs21  1  0.66705032  0.33442289  -0.00081828  1
  Cs  Cs22  1  0.66687765  0.32954857  0.33346946  1
  Cs  Cs23  1  0.66492985  0.33058435  0.66723985  1
  Cs  Cs24  1  0.66553111  0.66574909  -0.00051425  1
  Cs  Cs25  1  0.66863644  0.66881108  0.33210276  1
  Cs  Cs26  1  0.66623646  0.66718270  0.66794637  1
  Sn  Sn27  1  0.83276694  0.16642755  0.16649150  1
  Sn  Sn28  1  0.16639149  0.16555980  0.50045627  1
  Sn  Sn29  1  0.16658333  0.50032203  0.83379601  1
  Sn  Sn30  1  0.50099438  0.50111692  0.49969172  1
  Sn  Sn31  1  0.16739953  0.83418212  0.50022391  1
  Sn  Sn32  1  0.50068370  0.83421810  0.83286926  1
  Sn  Sn33  1  0.83201567  0.49988712  0.50035284  1
  Sn  Sn34  1  0.49928469  0.83227073  0.50048504  1
  Sn  Sn35  1  0.50041393  0.16650600  0.16560191  1
  Sn  Sn36  1  0.50010140  0.16554121  0.83436358  1
  Sn  Sn37  1  0.83410027  0.50056340  0.83321639  1
  Sn  Sn38  1  0.83298323  0.49990670  0.16630873  1
  Sn  Sn39  1  0.83319780  0.83371279  0.16559143  1
  Sn  Sn40  1  0.83250545  0.83302442  0.83398662  1
  Pb  Pb41  1  0.16674303  0.50061630  0.50140182  1
  Pb  Pb42  1  0.83166333  0.16640647  0.83509495  1
  Pb  Pb43  1  0.16342582  0.83313987  0.16951267  1
  Pb  Pb44  1  0.50187263  0.83522720  0.16669105  1
  Pb  Pb45  1  0.83302138  0.83188296  0.50053686  1
  Pb  Pb46  1  0.16978263  0.16898573  0.83127589  1
  Pb  Pb47  1  0.49869277  0.16637231  0.49976349  1
  Pb  Pb48  1  0.16690071  0.83159051  0.83156726  1
  Pb  Pb49  1  0.16672102  0.16656789  0.16858387  1
  Pb  Pb50  1  0.50047126  0.50052971  0.83207532  1
  Pb  Pb51  1  0.83576936  0.16961383  0.49771044  1
  Pb  Pb52  1  0.50218988  0.49766937  0.16968227  1
  Pb  Pb53  1  0.16407356  0.50024570  0.16315929  1
  I  I54  1  0.16322439  -0.00008239  0.16522948  1
  I  I55  1  0.17248043  -0.00093270  0.50020060  1
  I  I56  1  0.16424080  -0.00009502  0.83274113  1
  I  I57  1  0.16492478  0.33339384  0.17074228  1
  I  I58  1  0.16716333  0.33198986  0.50061903  1
  I  I59  1  0.16012349  0.33661555  0.82992684  1
  I  I60  1  0.16673039  0.66665318  0.17047151  1
  I  I61  1  0.16740782  0.66902857  0.50196599  1
  I  I62  1  0.16494348  0.66387002  0.82872308  1
  I  I63  1  0.50732043  0.00307458  0.16862757  1
  I  I64  1  0.49776619  -0.00272878  0.50117108  1
  I  I65  1  0.50600404  -0.00123328  0.82979128  1
  I  I66  1  0.50596273  0.32981897  0.16200365  1
  I  I67  1  0.50211155  0.33540682  0.50080191  1
  I  I68  1  0.50018791  0.33150513  0.83444565  1
  I  I69  1  0.50135299  0.66672000  0.16487250  1
  I  I70  1  0.49854150  0.66750957  0.50616733  1
  I  I71  1  0.50171184  0.66945248  0.82954972  1
  I  I72  1  0.82907305  -0.00017727  0.16366881  1
  I  I73  1  0.83186902  0.00002241  0.49918689  1
  I  I74  1  0.83099464  -0.00300605  0.83673509  1
  I  I75  1  0.82938206  0.33382766  0.16751255  1
  I  I76  1  0.82881664  0.33787312  0.50168151  1
  I  I77  1  0.83526045  0.33614947  0.83354964  1
  I  I78  1  0.83428940  0.66634483  0.16663447  1
  I  I79  1  0.83444179  0.66365115  0.49624591  1
  I  I80  1  0.83153241  0.66644086  0.83723365  1
  I  I81  1  0.16549174  0.16848274  -0.00023018  1
  I  I82  1  0.16864762  0.16517383  0.33658976  1
  I  I83  1  0.16820248  0.16382349  0.66355784  1
  I  I84  1  0.16274672  0.49961568  -0.00457781  1
  I  I85  1  0.16558265  0.49915173  0.33344481  1
  I  I86  1  0.16013321  0.49982680  0.66889210  1
  I  I87  1  0.16855219  0.83170632  -0.00026193  1
  I  I88  1  0.17191674  0.83582235  0.33767285  1
  I  I89  1  0.16583454  0.83536747  0.66350977  1
  I  I90  1  0.50444205  0.16324378  -0.00031305  1
  I  I91  1  0.50356733  0.16722635  0.33112620  1
  I  I92  1  0.49833300  0.16642062  0.66872002  1
  I  I93  1  0.49968958  0.50121755  0.00012536  1
  I  I94  1  0.50421033  0.50429084  0.33775472  1
  I  I95  1  0.50485868  0.49858492  0.66397864  1
  I  I96  1  0.50309568  0.83454986  -0.00285532  1
  I  I97  1  0.49833070  0.83130241  0.33617519  1
  I  I98  1  0.50272667  0.83530698  0.66689638  1
  I  I99  1  0.83140553  0.17147679  0.00334411  1
  I  I100  1  0.82654715  0.16491525  0.32948418  1
  I  I101  1  0.83233464  0.16719844  0.66665871  1
  I  I102  1  0.83813177  0.50066774  -0.00039572  1
  I  I103  1  0.82874389  0.50046016  0.33331169  1
  I  I104  1  0.83411219  0.50540029  0.66734085  1
  I  I105  1  0.82761842  0.82758929  -0.00086558  1
  I  I106  1  0.83366435  0.83208897  0.33114920  1
  I  I107  1  0.83251104  0.82778887  0.66945083  1
  I  I108  1  -0.00337701  0.16802201  0.16881435  1
  I  I109  1  0.00321989  0.16161294  0.49899819  1
  I  I110  1  -0.00000642  0.16531354  0.83381976  1
  I  I111  1  -0.00484272  0.49768773  0.17382458  1
  I  I112  1  -0.00284627  0.50015646  0.49799374  1
  I  I113  1  -0.00254823  0.50486159  0.83039739  1
  I  I114  1  -0.00509298  0.83519527  0.16188746  1
  I  I115  1  0.00182736  0.83477224  0.49916513  1
  I  I116  1  -0.00300127  0.83022961  0.83532629  1
  I  I117  1  0.33636515  0.16632116  0.16452634  1
  I  I118  1  0.33107169  0.16863056  0.49885668  1
  I  I119  1  0.33773788  0.16235774  0.83867268  1
  I  I120  1  0.33365498  0.49737179  0.16742070  1
  I  I121  1  0.33569075  0.49978413  0.50370510  1
  I  I122  1  0.33182527  0.49860850  0.82734798  1
  I  I123  1  0.33356273  0.83559177  0.16467561  1
  I  I124  1  0.33476696  0.83144374  0.50597481  1
  I  I125  1  0.33638139  0.83520524  0.82966381  1
  I  I126  1  0.66737354  0.16761035  0.16452267  1
  I  I127  1  0.66674417  0.16567770  0.50057479  1
  I  I128  1  0.66356860  0.16803531  0.83295521  1
  I  I129  1  0.67073989  0.50213086  0.16151606  1
  I  I130  1  0.66712500  0.50493754  0.50212684  1
  I  I131  1  0.66981306  0.50118899  0.83484689  1
  I  I132  1  0.67027472  0.83064857  0.16785212  1
  I  I133  1  0.66410407  0.83076941  0.50111345  1
  I  I134  1  0.66688953  0.83076201  0.83106231  1
