# generated using pymatgen
data_Cs27Sn14Pb13I81
_symmetry_space_group_name_H-M   'P 1'
_cell_length_a   18.97109246
_cell_length_b   18.96644583
_cell_length_c   18.98855381
_cell_angle_alpha   89.99991049
_cell_angle_beta   90.00134799
_cell_angle_gamma   90.00067342
_symmetry_Int_Tables_number   1
_chemical_formula_structural   Cs27Sn14Pb13I81
_chemical_formula_sum   'Cs27 Sn14 Pb13 I81'
_cell_volume   6832.35125056
_cell_formula_units_Z   1
loop_
 _symmetry_equiv_pos_site_id
 _symmetry_equiv_pos_as_xyz
  1  'x, y, z'
loop_
 _atom_site_type_symbol
 _atom_site_label
 _atom_site_symmetry_multiplicity
 _atom_site_fract_x
 _atom_site_fract_y
 _atom_site_fract_z
 _atom_site_occupancy
  Cs  Cs0  1  0.00342790  0.00108983  0.00277659  1
  Cs  Cs1  1  0.00081030  -0.00168501  0.33284126  1
  Cs  Cs2  1  0.00158647  -0.00285683  0.66542289  1
  Cs  Cs3  1  0.00270919  0.33177958  0.00081278  1
  Cs  Cs4  1  -0.00183259  0.33401680  0.33000543  1
  Cs  Cs5  1  -0.00121859  0.33416066  0.66787321  1
  Cs  Cs6  1  -0.00118177  0.66814112  0.00181987  1
  Cs  Cs7  1  -0.00042008  0.66856802  0.33299763  1
  Cs  Cs8  1  -0.00243738  0.66985922  0.66618015  1
  Cs  Cs9  1  0.33274832  -0.00085573  -0.00027617  1
  Cs  Cs10  1  0.33488863  -0.00108324  0.33670572  1
  Cs  Cs11  1  0.33203110  0.00171082  0.66324674  1
  Cs  Cs12  1  0.32390432  0.33860485  -0.00167163  1
  Cs  Cs13  1  0.33370191  0.34130649  0.33416277  1
  Cs  Cs14  1  0.33247247  0.33769527  0.66742505  1
  Cs  Cs15  1  0.34257717  0.66352776  0.00056252  1
  Cs  Cs16  1  0.33412000  0.66166809  0.33182915  1
  Cs  Cs17  1  0.33324204  0.65840241  0.66728049  1
  Cs  Cs18  1  0.66370964  0.00014694  -0.00060567  1
  Cs  Cs19  1  0.66435090  0.00263911  0.33489939  1
  Cs  Cs20  1  0.66638609  0.00083428  0.66617588  1
  Cs  Cs21  1  0.67022881  0.33093664  -0.00154638  1
  Cs  Cs22  1  0.66841561  0.33055980  0.33450297  1
  Cs  Cs23  1  0.66724015  0.33161894  0.66616636  1
  Cs  Cs24  1  0.66089090  0.66843104  -0.00074797  1
  Cs  Cs25  1  0.66750298  0.66547109  0.33108483  1
  Cs  Cs26  1  0.66960044  0.66769534  0.67178185  1
  Sn  Sn27  1  0.83332738  0.49933176  0.50018255  1
  Sn  Sn28  1  0.83390534  0.16719245  0.50076360  1
  Sn  Sn29  1  0.83320071  0.50088039  0.16631330  1
  Sn  Sn30  1  0.49945065  0.16623893  0.50013047  1
  Sn  Sn31  1  0.49919436  0.83336944  0.50018945  1
  Sn  Sn32  1  0.83313388  0.16680498  0.83251256  1
  Sn  Sn33  1  0.49928052  0.16708381  0.16651140  1
  Sn  Sn34  1  0.49999098  0.16661878  0.83332171  1
  Sn  Sn35  1  0.83347501  0.49945467  0.83349506  1
  Sn  Sn36  1  0.16707592  0.83312936  0.83319225  1
  Sn  Sn37  1  0.16662231  0.16657566  0.49969357  1
  Sn  Sn38  1  0.16805248  0.83375804  0.50001470  1
  Sn  Sn39  1  0.16667060  0.83337108  0.16677629  1
  Sn  Sn40  1  0.83329620  0.83313297  0.16675082  1
  Pb  Pb41  1  0.16962264  0.16466795  0.16953087  1
  Pb  Pb42  1  0.50253647  0.49686830  0.83326856  1
  Pb  Pb43  1  0.83314180  0.83386694  0.49842132  1
  Pb  Pb44  1  0.16437500  0.50290481  0.16667777  1
  Pb  Pb45  1  0.50287446  0.49990467  0.50011064  1
  Pb  Pb46  1  0.16385411  0.50028957  0.50000338  1
  Pb  Pb47  1  0.49974547  0.83495036  0.16877765  1
  Pb  Pb48  1  0.50274461  0.49669968  0.16660647  1
  Pb  Pb49  1  0.83466829  0.83429672  0.83588555  1
  Pb  Pb50  1  0.83229379  0.16638672  0.16651655  1
  Pb  Pb51  1  0.49745813  0.83564714  0.83041850  1
  Pb  Pb52  1  0.16642217  0.16518787  0.83122923  1
  Pb  Pb53  1  0.16381356  0.50302764  0.83330404  1
  I  I54  1  0.15798697  -0.00343560  0.16552508  1
  I  I55  1  0.16454621  -0.00028216  0.50017973  1
  I  I56  1  0.16308770  -0.00278656  0.83437272  1
  I  I57  1  0.16621040  0.33313343  0.16790335  1
  I  I58  1  0.16975309  0.33012865  0.50101740  1
  I  I59  1  0.16858680  0.33320613  0.83155736  1
  I  I60  1  0.16477870  0.67130576  0.17125373  1
  I  I61  1  0.16959238  0.67041596  0.49929004  1
  I  I62  1  0.16383734  0.67113776  0.82921414  1
  I  I63  1  0.50435459  0.00290314  0.16644359  1
  I  I64  1  0.50207569  0.00172094  0.49957326  1
  I  I65  1  0.50855571  0.00371373  0.83432843  1
  I  I66  1  0.50319003  0.32868094  0.17190623  1
  I  I67  1  0.49802181  0.32939538  0.50008714  1
  I  I68  1  0.50133794  0.32852564  0.82860930  1
  I  I69  1  0.49886496  0.66669307  0.16880815  1
  I  I70  1  0.49555258  0.66954754  0.49806431  1
  I  I71  1  0.50069287  0.66684836  0.83227731  1
  I  I72  1  0.83642662  -0.00234195  0.16776158  1
  I  I73  1  0.83277700  0.00318077  0.50305917  1
  I  I74  1  0.83040139  0.00331839  0.82829555  1
  I  I75  1  0.82963566  0.33550805  0.16761631  1
  I  I76  1  0.83277761  0.33188893  0.49816117  1
  I  I77  1  0.82931435  0.33253404  0.83400029  1
  I  I78  1  0.83814781  0.66653119  0.16840334  1
  I  I79  1  0.83371636  0.66452735  0.50158566  1
  I  I80  1  0.83710296  0.66430926  0.82986429  1
  I  I81  1  0.16629484  0.16415688  0.00008442  1
  I  I82  1  0.16361543  0.16030504  0.33769690  1
  I  I83  1  0.16898725  0.15986454  0.66305979  1
  I  I84  1  0.16315822  0.49938286  0.00000458  1
  I  I85  1  0.16336610  0.50096810  0.33347076  1
  I  I86  1  0.16381973  0.50277065  0.66651489  1
  I  I87  1  0.15864586  0.83399606  0.00053931  1
  I  I88  1  0.16501830  0.83818872  0.33413214  1
  I  I89  1  0.16925055  0.83848629  0.66521942  1
  I  I90  1  0.50863188  0.16603276  -0.00065133  1
  I  I91  1  0.50204941  0.16204780  0.33508498  1
  I  I92  1  0.50249030  0.16213747  0.66559077  1
  I  I93  1  0.50318386  0.50037089  -0.00004933  1
  I  I94  1  0.50344579  0.49752344  0.33347163  1
  I  I95  1  0.50232472  0.49972387  0.66657274  1
  I  I96  1  0.49944516  0.83578153  -0.00011439  1
  I  I97  1  0.49640932  0.84109056  0.33657371  1
  I  I98  1  0.49744149  0.84009688  0.66256359  1
  I  I99  1  0.82819296  0.16881111  -0.00256355  1
  I  I100  1  0.83211132  0.16877597  0.33620831  1
  I  I101  1  0.82897771  0.17359947  0.66574691  1
  I  I102  1  0.83359997  0.49923238  -0.00017676  1
  I  I103  1  0.83343982  0.49942059  0.33357395  1
  I  I104  1  0.83353190  0.49462826  0.66655849  1
  I  I105  1  0.83859848  0.83066495  0.00365246  1
  I  I106  1  0.83817794  0.83039344  0.33071624  1
  I  I107  1  0.83447736  0.83038264  0.66661435  1
  I  I108  1  0.00021995  0.16789893  0.16693290  1
  I  I109  1  -0.00079314  0.16559310  0.50475922  1
  I  I110  1  -0.00311865  0.16947591  0.82883597  1
  I  I111  1  -0.00422103  0.49931325  0.16760972  1
  I  I112  1  -0.00432985  0.49645348  0.49982815  1
  I  I113  1  -0.00449529  0.49194015  0.83308746  1
  I  I114  1  0.00009621  0.83038852  0.16974133  1
  I  I115  1  0.00259177  0.83633636  0.50066644  1
  I  I116  1  0.00253174  0.83513813  0.82740951  1
  I  I117  1  0.33750005  0.16233558  0.16576971  1
  I  I118  1  0.33391582  0.15932872  0.49988807  1
  I  I119  1  0.33589481  0.16212270  0.83207400  1
  I  I120  1  0.33347261  0.50055481  0.16711232  1
  I  I121  1  0.33333120  0.49787132  0.49962845  1
  I  I122  1  0.33329852  0.49932550  0.83353783  1
  I  I123  1  0.33054459  0.83793095  0.16604026  1
  I  I124  1  0.33242585  0.84402406  0.49778246  1
  I  I125  1  0.32956201  0.83679818  0.83856443  1
  I  I126  1  0.66449971  0.16458414  0.17189610  1
  I  I127  1  0.66658050  0.16637600  0.50004319  1
  I  I128  1  0.66742515  0.16966592  0.82855486  1
  I  I129  1  0.67114127  0.50783761  0.16747686  1
  I  I130  1  0.67102049  0.49579927  0.49950759  1
  I  I131  1  0.67102198  0.50041683  0.83240991  1
  I  I132  1  0.66906558  0.83032517  0.16879926  1
  I  I133  1  0.66456706  0.83761620  0.49715980  1
  I  I134  1  0.66655810  0.83138391  0.83332658  1
