# generated using pymatgen
data_Cs27Sn13Pb14I81
_symmetry_space_group_name_H-M   'P 1'
_cell_length_a   18.98378618
_cell_length_b   18.99231628
_cell_length_c   18.99992552
_cell_angle_alpha   89.99992062
_cell_angle_beta   90.00279629
_cell_angle_gamma   89.99924707
_symmetry_Int_Tables_number   1
_chemical_formula_structural   Cs27Sn13Pb14I81
_chemical_formula_sum   'Cs27 Sn13 Pb14 I81'
_cell_volume   6850.34849548
_cell_formula_units_Z   1
loop_
 _symmetry_equiv_pos_site_id
 _symmetry_equiv_pos_as_xyz
  1  'x, y, z'
loop_
 _atom_site_type_symbol
 _atom_site_label
 _atom_site_symmetry_multiplicity
 _atom_site_fract_x
 _atom_site_fract_y
 _atom_site_fract_z
 _atom_site_occupancy
  Cs  Cs0  1  -0.00286830  0.00171071  0.00059954  1
  Cs  Cs1  1  0.00335907  0.00362981  0.33093239  1
  Cs  Cs2  1  -0.00141347  0.00331264  0.66987078  1
  Cs  Cs3  1  -0.00063833  0.33276030  0.00114037  1
  Cs  Cs4  1  -0.00004190  0.33184609  0.33317753  1
  Cs  Cs5  1  -0.00069502  0.33311890  0.66514539  1
  Cs  Cs6  1  0.00151530  0.66743984  -0.00161206  1
  Cs  Cs7  1  -0.00160181  0.66642059  0.33399924  1
  Cs  Cs8  1  -0.00078506  0.66739921  0.66697629  1
  Cs  Cs9  1  0.33815833  -0.00102188  -0.00242642  1
  Cs  Cs10  1  0.33235931  0.00219939  0.33578777  1
  Cs  Cs11  1  0.33955697  -0.00169299  0.66501478  1
  Cs  Cs12  1  0.33380525  0.33580097  0.00314747  1
  Cs  Cs13  1  0.33325039  0.33345295  0.33274912  1
  Cs  Cs14  1  0.33265312  0.33568686  0.66564723  1
  Cs  Cs15  1  0.33347986  0.66529479  -0.00363897  1
  Cs  Cs16  1  0.33255021  0.66467643  0.33200879  1
  Cs  Cs17  1  0.33141788  0.66426307  0.67091549  1
  Cs  Cs18  1  0.66225408  -0.00832773  -0.00915147  1
  Cs  Cs19  1  0.65929209  -0.00922559  0.33447966  1
  Cs  Cs20  1  0.65748372  -0.00535241  0.67472077  1
  Cs  Cs21  1  0.66666324  0.33344659  -0.00137300  1
  Cs  Cs22  1  0.66768505  0.33439694  0.33200297  1
  Cs  Cs23  1  0.66745503  0.33383957  0.66933175  1
  Cs  Cs24  1  0.66538930  0.66938600  0.00477586  1
  Cs  Cs25  1  0.66889979  0.67424316  0.33386473  1
  Cs  Cs26  1  0.66938073  0.66761370  0.66132550  1
  Sn  Sn27  1  0.16638063  0.16659885  0.16635785  1
  Sn  Sn28  1  0.83321066  0.16636434  0.49912028  1
  Sn  Sn29  1  0.16630104  0.83341945  0.16735629  1
  Sn  Sn30  1  0.50151391  0.49936202  0.83247411  1
  Sn  Sn31  1  0.16609040  0.83329862  0.49939242  1
  Sn  Sn32  1  0.16691068  0.16692926  0.83342673  1
  Sn  Sn33  1  0.16554417  0.50014804  0.16750993  1
  Sn  Sn34  1  0.83317540  0.16689313  0.16762160  1
  Sn  Sn35  1  0.16708153  0.50015627  0.49925115  1
  Sn  Sn36  1  0.16596573  0.16656989  0.50027735  1
  Sn  Sn37  1  0.83434011  0.49909767  0.16606088  1
  Sn  Sn38  1  0.49953799  0.49933433  0.50029127  1
  Sn  Sn39  1  0.83268258  0.49974705  0.83441258  1
  Pb  Pb40  1  0.49685224  0.82997575  0.49990314  1
  Pb  Pb41  1  0.50051446  0.16890039  0.49972883  1
  Pb  Pb42  1  0.83615976  0.83763697  0.49989922  1
  Pb  Pb43  1  0.16647916  0.83653604  0.83323392  1
  Pb  Pb44  1  0.83362652  0.49852460  0.49922283  1
  Pb  Pb45  1  0.49650075  0.83329725  0.16682611  1
  Pb  Pb46  1  0.83385546  0.83011237  0.83327021  1
  Pb  Pb47  1  0.50052574  0.49978275  0.16719121  1
  Pb  Pb48  1  0.49731891  0.16941623  0.83340612  1
  Pb  Pb49  1  0.83479518  0.16821765  0.83366619  1
  Pb  Pb50  1  0.50127755  0.16672208  0.16676280  1
  Pb  Pb51  1  0.49964874  0.82952743  0.83316059  1
  Pb  Pb52  1  0.83571310  0.83413217  0.16679070  1
  Pb  Pb53  1  0.16617574  0.49838098  0.83344230  1
  I  I54  1  0.16303221  0.00122546  0.17001479  1
  I  I55  1  0.16137779  0.00109480  0.49643743  1
  I  I56  1  0.16468719  0.00449138  0.83367547  1
  I  I57  1  0.16371101  0.33347252  0.16900532  1
  I  I58  1  0.16741182  0.33332700  0.49793825  1
  I  I59  1  0.16666407  0.33069381  0.83273749  1
  I  I60  1  0.16353090  0.66531667  0.17370682  1
  I  I61  1  0.17196394  0.66555979  0.49322521  1
  I  I62  1  0.16760686  0.66650108  0.83351954  1
  I  I63  1  0.49966721  -0.00003821  0.16681702  1
  I  I64  1  0.49941469  -0.00020437  0.49974344  1
  I  I65  1  0.49905792  -0.00009569  0.83381913  1
  I  I66  1  0.49296827  0.33363036  0.16656678  1
  I  I67  1  0.49146469  0.33677486  0.50335060  1
  I  I68  1  0.50330857  0.33719503  0.82919756  1
  I  I69  1  0.49967586  0.66620050  0.16595056  1
  I  I70  1  0.49531105  0.66199260  0.50423715  1
  I  I71  1  0.50029176  0.66163187  0.82943783  1
  I  I72  1  0.84076001  0.00385339  0.17182176  1
  I  I73  1  0.84122054  0.00550913  0.49278704  1
  I  I74  1  0.83571754  0.00042298  0.83383218  1
  I  I75  1  0.84259296  0.33375995  0.16658623  1
  I  I76  1  0.84110818  0.33085477  0.49925067  1
  I  I77  1  0.83090245  0.33637926  0.83481861  1
  I  I78  1  0.83742492  0.66355591  0.16198288  1
  I  I79  1  0.83346205  0.66673256  0.50090752  1
  I  I80  1  0.83167527  0.66127773  0.83888853  1
  I  I81  1  0.16281411  0.16844591  0.00155558  1
  I  I82  1  0.16337111  0.16725048  0.33331642  1
  I  I83  1  0.16227110  0.16871643  0.66510138  1
  I  I84  1  0.16672900  0.49948221  0.00298302  1
  I  I85  1  0.16755105  0.49641595  0.33333413  1
  I  I86  1  0.16751512  0.49932263  0.66394104  1
  I  I87  1  0.16618836  0.83140949  0.00330779  1
  I  I88  1  0.16657348  0.83645596  0.33332283  1
  I  I89  1  0.16701879  0.83141738  0.66329751  1
  I  I90  1  0.49708387  0.17045759  -0.00001708  1
  I  I91  1  0.49444041  0.17061531  0.33340630  1
  I  I92  1  0.49881979  0.16697436  0.66653802  1
  I  I93  1  0.49921750  0.49940559  -0.00229581  1
  I  I94  1  0.49570010  0.49899302  0.33608238  1
  I  I95  1  0.49764617  0.49869282  0.66615720  1
  I  I96  1  0.49737067  0.83163255  -0.00012417  1
  I  I97  1  0.50274066  0.82999258  0.33362659  1
  I  I98  1  0.49645561  0.83549832  0.66642096  1
  I  I99  1  0.84119984  0.17099847  0.00325186  1
  I  I100  1  0.84489533  0.17564522  0.33261997  1
  I  I101  1  0.84156514  0.17047279  0.66422660  1
  I  I102  1  0.83468728  0.49364477  0.00131031  1
  I  I103  1  0.83564989  0.49745809  0.33043127  1
  I  I104  1  0.83324264  0.49767752  0.66817292  1
  I  I105  1  0.83687955  0.83759948  0.00021396  1
  I  I106  1  0.83102674  0.82566371  0.33337856  1
  I  I107  1  0.83767767  0.83204776  0.66640015  1
  I  I108  1  0.00185947  0.16840655  0.16766123  1
  I  I109  1  0.00235893  0.17012521  0.49907199  1
  I  I110  1  0.00302003  0.17053060  0.83276498  1
  I  I111  1  0.00137271  0.49885180  0.16634139  1
  I  I112  1  0.00340524  0.50125766  0.49979142  1
  I  I113  1  -0.00221101  0.49781889  0.83451402  1
  I  I114  1  0.00404595  0.83266793  0.17128470  1
  I  I115  1  0.00450273  0.82554592  0.49586036  1
  I  I116  1  0.00062491  0.82901835  0.83278015  1
  I  I117  1  0.32892945  0.16828285  0.16817236  1
  I  I118  1  0.32934261  0.16494191  0.49875904  1
  I  I119  1  0.32888820  0.16887240  0.83326835  1
  I  I120  1  0.32983984  0.49909654  0.16704838  1
  I  I121  1  0.33096380  0.49803676  0.50067513  1
  I  I122  1  0.33482276  0.49810918  0.83195430  1
  I  I123  1  0.32774855  0.83261141  0.17093547  1
  I  I124  1  0.32861144  0.84010057  0.49528037  1
  I  I125  1  0.33284589  0.83101714  0.83463726  1
  I  I126  1  0.67111618  0.17639507  0.17242694  1
  I  I127  1  0.67012069  0.17248456  0.49408885  1
  I  I128  1  0.66677894  0.16666944  0.83306175  1
  I  I129  1  0.67012890  0.49343408  0.16520716  1
  I  I130  1  0.66470059  0.49595929  0.50194628  1
  I  I131  1  0.66700704  0.49762920  0.83274461  1
  I  I132  1  0.66695079  0.83226285  0.16602796  1
  I  I133  1  0.66658227  0.83254790  0.50042484  1
  I  I134  1  0.66655937  0.83842495  0.83358711  1
