# generated using pymatgen
data_Cs27Sn13Pb14I81
_symmetry_space_group_name_H-M   'P 1'
_cell_length_a   18.97992338
_cell_length_b   18.97619425
_cell_length_c   18.97604905
_cell_angle_alpha   89.99909598
_cell_angle_beta   89.99967127
_cell_angle_gamma   89.99947783
_symmetry_Int_Tables_number   1
_chemical_formula_structural   Cs27Sn13Pb14I81
_chemical_formula_sum   'Cs27 Sn13 Pb14 I81'
_cell_volume   6834.54120799
_cell_formula_units_Z   1
loop_
 _symmetry_equiv_pos_site_id
 _symmetry_equiv_pos_as_xyz
  1  'x, y, z'
loop_
 _atom_site_type_symbol
 _atom_site_label
 _atom_site_symmetry_multiplicity
 _atom_site_fract_x
 _atom_site_fract_y
 _atom_site_fract_z
 _atom_site_occupancy
  Cs  Cs0  1  0.00328717  0.00025100  -0.00109746  1
  Cs  Cs1  1  0.00115846  -0.00070766  0.33283555  1
  Cs  Cs2  1  0.00212718  0.00079039  0.66795396  1
  Cs  Cs3  1  -0.00044134  0.33354718  0.00018438  1
  Cs  Cs4  1  0.00005761  0.33277321  0.33390676  1
  Cs  Cs5  1  0.00034857  0.33304547  0.66638798  1
  Cs  Cs6  1  -0.00194316  0.66616495  -0.00022090  1
  Cs  Cs7  1  -0.00000688  0.66801270  0.33397089  1
  Cs  Cs8  1  -0.00097268  0.66509866  0.66567803  1
  Cs  Cs9  1  0.32827550  -0.00065867  -0.00119379  1
  Cs  Cs10  1  0.33307929  -0.00295120  0.33394542  1
  Cs  Cs11  1  0.33255273  0.00088671  0.66704865  1
  Cs  Cs12  1  0.33287587  0.33626159  0.00845713  1
  Cs  Cs13  1  0.33286366  0.33484879  0.32671272  1
  Cs  Cs14  1  0.33209491  0.33178274  0.66718293  1
  Cs  Cs15  1  0.33358203  0.66447681  0.00370001  1
  Cs  Cs16  1  0.33270290  0.66764482  0.33179041  1
  Cs  Cs17  1  0.33560179  0.66627793  0.66443095  1
  Cs  Cs18  1  0.66756270  -0.00272408  -0.00048609  1
  Cs  Cs19  1  0.66602415  0.00070739  0.33099284  1
  Cs  Cs20  1  0.66627977  0.00127760  0.66796185  1
  Cs  Cs21  1  0.66607207  0.33346497  0.00027751  1
  Cs  Cs22  1  0.66502852  0.33191413  0.33226617  1
  Cs  Cs23  1  0.66674890  0.33348688  0.66715749  1
  Cs  Cs24  1  0.66825157  0.66983361  -0.00184004  1
  Cs  Cs25  1  0.66752434  0.66815581  0.34098498  1
  Cs  Cs26  1  0.66615217  0.66566332  0.66350736  1
  Sn  Sn27  1  0.83268866  0.16658324  0.83263179  1
  Sn  Sn28  1  0.50111077  0.83350445  0.16563173  1
  Sn  Sn29  1  0.50068666  0.83413067  0.83402920  1
  Sn  Sn30  1  0.50050831  0.16617509  0.83304883  1
  Sn  Sn31  1  0.16627065  0.49990151  0.83256796  1
  Sn  Sn32  1  0.83238104  0.83231973  0.16584630  1
  Sn  Sn33  1  0.50000638  0.16682141  0.50069354  1
  Sn  Sn34  1  0.83270919  0.83340829  0.83371575  1
  Sn  Sn35  1  0.83297238  0.50080238  0.16615823  1
  Sn  Sn36  1  0.83319566  0.16654940  0.50079440  1
  Sn  Sn37  1  0.16663960  0.49922725  0.50093347  1
  Sn  Sn38  1  0.83386679  0.50001671  0.83379547  1
  Sn  Sn39  1  0.16682924  0.16763556  0.50031699  1
  Pb  Pb40  1  0.50348113  0.50309783  0.16656914  1
  Pb  Pb41  1  0.50031144  0.49993629  0.83339648  1
  Pb  Pb42  1  0.83338797  0.83604681  0.50042445  1
  Pb  Pb43  1  0.16707641  0.16882031  0.83212231  1
  Pb  Pb44  1  0.16610108  0.83322342  0.16631446  1
  Pb  Pb45  1  0.16660188  0.83310165  0.50033446  1
  Pb  Pb46  1  0.16668046  0.16667389  0.16974589  1
  Pb  Pb47  1  0.50017804  0.16427251  0.16562218  1
  Pb  Pb48  1  0.83328946  0.16617134  0.16579385  1
  Pb  Pb49  1  0.83468811  0.49771283  0.50014659  1
  Pb  Pb50  1  0.16394680  0.50015860  0.16672055  1
  Pb  Pb51  1  0.49715105  0.49698803  0.49997747  1
  Pb  Pb52  1  0.50015958  0.83559624  0.50063183  1
  Pb  Pb53  1  0.16688787  0.83049671  0.83320619  1
  I  I54  1  0.16361445  -0.00016208  0.16860177  1
  I  I55  1  0.16659969  0.00374317  0.49950251  1
  I  I56  1  0.16415111  0.00019033  0.83166387  1
  I  I57  1  0.16535922  0.33368114  0.16455640  1
  I  I58  1  0.16582216  0.33257402  0.50515858  1
  I  I59  1  0.16152572  0.33656664  0.83059264  1
  I  I60  1  0.16928979  0.66653525  0.17020525  1
  I  I61  1  0.16487740  0.66313989  0.50330405  1
  I  I62  1  0.16191898  0.66260075  0.82708441  1
  I  I63  1  0.50871106  -0.00347749  0.16645816  1
  I  I64  1  0.49781181  0.00394814  0.50123941  1
  I  I65  1  0.50784848  0.00029726  0.83254107  1
  I  I66  1  0.49979214  0.33330290  0.16723269  1
  I  I67  1  0.50361862  0.32861030  0.50720365  1
  I  I68  1  0.50381803  0.33012062  0.82703556  1
  I  I69  1  0.50012590  0.67104799  0.15887719  1
  I  I70  1  0.49777756  0.66675466  0.50005616  1
  I  I71  1  0.50267364  0.66982933  0.83797319  1
  I  I72  1  0.82911814  -0.00328732  0.16476087  1
  I  I73  1  0.83581379  0.00437239  0.50324090  1
  I  I74  1  0.82877061  0.00011726  0.83307366  1
  I  I75  1  0.83622190  0.33578658  0.16369295  1
  I  I76  1  0.83167829  0.32960440  0.50377038  1
  I  I77  1  0.83356296  0.33308689  0.83295862  1
  I  I78  1  0.83089599  0.66709896  0.15825669  1
  I  I79  1  0.83608350  0.66654639  0.50158002  1
  I  I80  1  0.83394165  0.66679738  0.83838822  1
  I  I81  1  0.16640375  0.16801345  -0.00037559  1
  I  I82  1  0.16560789  0.17327506  0.33869121  1
  I  I83  1  0.16603337  0.16899957  0.66381155  1
  I  I84  1  0.16439379  0.50071669  -0.00291764  1
  I  I85  1  0.16584170  0.49437756  0.33630384  1
  I  I86  1  0.16005517  0.49632741  0.66706084  1
  I  I87  1  0.16697219  0.83221852  -0.00040749  1
  I  I88  1  0.16666999  0.83280938  0.33328225  1
  I  I89  1  0.16621250  0.83438124  0.66701708  1
  I  I90  1  0.50691920  0.16539975  -0.00384899  1
  I  I91  1  0.50020891  0.16604393  0.33626589  1
  I  I92  1  0.50103334  0.16083216  0.66739803  1
  I  I93  1  0.49372088  0.49351203  -0.00022532  1
  I  I94  1  0.50006660  0.49980309  0.33324723  1
  I  I95  1  0.50423680  0.50537596  0.66685737  1
  I  I96  1  0.50517516  0.83923527  -0.00131522  1
  I  I97  1  0.50421827  0.83415815  0.33056209  1
  I  I98  1  0.50454654  0.83499210  0.67028724  1
  I  I99  1  0.82803014  0.16734559  -0.00388315  1
  I  I100  1  0.83394108  0.16720489  0.33612232  1
  I  I101  1  0.83299022  0.16681498  0.66787225  1
  I  I102  1  0.83921708  0.49855483  -0.00178833  1
  I  I103  1  0.83472867  0.50363240  0.33093261  1
  I  I104  1  0.83553465  0.50218690  0.66990870  1
  I  I105  1  0.82931880  0.83401257  -0.00125099  1
  I  I106  1  0.82980833  0.82963809  0.33024437  1
  I  I107  1  0.82918580  0.83047754  0.67049752  1
  I  I108  1  -0.00044559  0.16406553  0.16685656  1
  I  I109  1  -0.00032850  0.17030443  0.50359098  1
  I  I110  1  -0.00316198  0.16425559  0.82983474  1
  I  I111  1  -0.00387607  0.50650838  0.16490170  1
  I  I112  1  0.00256832  0.49308386  0.50140184  1
  I  I113  1  -0.00177879  0.49972984  0.83309814  1
  I  I114  1  -0.00407013  0.82991872  0.16283976  1
  I  I115  1  -0.00028315  0.83721787  0.49903558  1
  I  I116  1  -0.00364106  0.83659333  0.83749169  1
  I  I117  1  0.33362630  0.16493043  0.16582147  1
  I  I118  1  0.33361981  0.16963362  0.50472635  1
  I  I119  1  0.33632830  0.16221229  0.82853891  1
  I  I120  1  0.33334195  0.50063110  0.16672655  1
  I  I121  1  0.32903221  0.49557526  0.50698945  1
  I  I122  1  0.33069180  0.49981484  0.82767758  1
  I  I123  1  0.33663417  0.83597773  0.16302024  1
  I  I124  1  0.33355662  0.83553158  0.49951007  1
  I  I125  1  0.33683890  0.83798217  0.83656019  1
  I  I126  1  0.66689720  0.17001082  0.17354716  1
  I  I127  1  0.66688135  0.16503056  0.50436580  1
  I  I128  1  0.66767327  0.16770750  0.82541659  1
  I  I129  1  0.67130636  0.49931822  0.15931480  1
  I  I130  1  0.66684466  0.49874640  0.50002971  1
  I  I131  1  0.67025521  0.49931157  0.83753530  1
  I  I132  1  0.66772836  0.83026582  0.16161595  1
  I  I133  1  0.66683719  0.83390811  0.49911774  1
  I  I134  1  0.66773543  0.83327240  0.83741143  1
