# generated using pymatgen
data_Cs27Sn14Pb13I81
_symmetry_space_group_name_H-M   'P 1'
_cell_length_a   18.95546364
_cell_length_b   18.96471183
_cell_length_c   18.96427763
_cell_angle_alpha   90.00059539
_cell_angle_beta   89.99926302
_cell_angle_gamma   89.99862235
_symmetry_Int_Tables_number   1
_chemical_formula_structural   Cs27Sn14Pb13I81
_chemical_formula_sum   'Cs27 Sn14 Pb13 I81'
_cell_volume   6817.37154988
_cell_formula_units_Z   1
loop_
 _symmetry_equiv_pos_site_id
 _symmetry_equiv_pos_as_xyz
  1  'x, y, z'
loop_
 _atom_site_type_symbol
 _atom_site_label
 _atom_site_symmetry_multiplicity
 _atom_site_fract_x
 _atom_site_fract_y
 _atom_site_fract_z
 _atom_site_occupancy
  Cs  Cs0  1  -0.00136842  0.00288018  0.00010709  1
  Cs  Cs1  1  -0.00038260  -0.00052530  0.33499093  1
  Cs  Cs2  1  0.00071441  -0.00108726  0.66545844  1
  Cs  Cs3  1  0.00153496  0.33185386  -0.00240122  1
  Cs  Cs4  1  0.00195409  0.33259039  0.33376945  1
  Cs  Cs5  1  -0.00006520  0.33278351  0.67034854  1
  Cs  Cs6  1  0.00039531  0.66549694  -0.00074338  1
  Cs  Cs7  1  -0.00629673  0.66720084  0.33556194  1
  Cs  Cs8  1  0.00067260  0.66761918  0.66623342  1
  Cs  Cs9  1  0.33417447  -0.00201943  0.00195693  1
  Cs  Cs10  1  0.33388123  -0.00012391  0.33327037  1
  Cs  Cs11  1  0.33643794  -0.00375187  0.66257312  1
  Cs  Cs12  1  0.32987233  0.33448480  0.00159920  1
  Cs  Cs13  1  0.33271533  0.33298913  0.33460500  1
  Cs  Cs14  1  0.33843097  0.33221375  0.66263562  1
  Cs  Cs15  1  0.33375826  0.66775565  -0.00050565  1
  Cs  Cs16  1  0.33429547  0.66782985  0.33132227  1
  Cs  Cs17  1  0.33313655  0.67066188  0.67044560  1
  Cs  Cs18  1  0.66783609  0.00073875  0.00003751  1
  Cs  Cs19  1  0.66604482  -0.00224613  0.33147289  1
  Cs  Cs20  1  0.66517034  0.00257046  0.66924725  1
  Cs  Cs21  1  0.66615291  0.33307708  -0.00046271  1
  Cs  Cs22  1  0.66593129  0.34007063  0.33520370  1
  Cs  Cs23  1  0.66155079  0.33301262  0.66521025  1
  Cs  Cs24  1  0.66611796  0.66389076  0.00145073  1
  Cs  Cs25  1  0.67161719  0.66316727  0.33545716  1
  Cs  Cs26  1  0.66521509  0.66396676  0.66489074  1
  Sn  Sn27  1  0.83341736  0.83334029  0.83353302  1
  Sn  Sn28  1  0.83322678  0.16680352  0.16708207  1
  Sn  Sn29  1  0.16671721  0.83358649  0.16664909  1
  Sn  Sn30  1  0.16634498  0.50016257  0.16692169  1
  Sn  Sn31  1  0.50015857  0.83335846  0.49908761  1
  Sn  Sn32  1  0.16663436  0.16687222  0.83347244  1
  Sn  Sn33  1  0.83392883  0.49966316  0.83349622  1
  Sn  Sn34  1  0.16671578  0.16634951  0.16610497  1
  Sn  Sn35  1  0.16658179  0.50010270  0.50036887  1
  Sn  Sn36  1  0.83409416  0.16694976  0.83308082  1
  Sn  Sn37  1  0.49986183  0.16630626  0.16647889  1
  Sn  Sn38  1  0.49967606  0.83394008  0.16769628  1
  Sn  Sn39  1  0.83350688  0.16667961  0.50005049  1
  Sn  Sn40  1  0.16618226  0.49904052  0.83292191  1
  Pb  Pb41  1  0.49782851  0.50018268  0.16661978  1
  Pb  Pb42  1  0.16805343  0.83104693  0.49727680  1
  Pb  Pb43  1  0.50259439  0.83341118  0.83431193  1
  Pb  Pb44  1  0.16532480  0.16795018  0.50026846  1
  Pb  Pb45  1  0.83585932  0.49726604  0.16468556  1
  Pb  Pb46  1  0.83544343  0.49769363  0.50261006  1
  Pb  Pb47  1  0.16498930  0.83385731  0.83532974  1
  Pb  Pb48  1  0.50248997  0.16508233  0.49701598  1
  Pb  Pb49  1  0.83319248  0.83494637  0.16514631  1
  Pb  Pb50  1  0.49917947  0.16666026  0.83563428  1
  Pb  Pb51  1  0.49740180  0.50267867  0.49988803  1
  Pb  Pb52  1  0.83119300  0.83533147  0.50246304  1
  Pb  Pb53  1  0.49923621  0.49975023  0.83341717  1
  I  I54  1  0.16731618  0.00133454  0.16173425  1
  I  I55  1  0.16649508  -0.00011639  0.50037219  1
  I  I56  1  0.16147954  0.00316435  0.83898924  1
  I  I57  1  0.16613328  0.33247150  0.16535963  1
  I  I58  1  0.16534408  0.33601808  0.49585125  1
  I  I59  1  0.15803008  0.33306483  0.83962094  1
  I  I60  1  0.17251586  0.66653550  0.16531268  1
  I  I61  1  0.16694674  0.66298965  0.50200000  1
  I  I62  1  0.16253961  0.66387817  0.83453833  1
  I  I63  1  0.49506225  0.00032345  0.16930867  1
  I  I64  1  0.49896870  -0.00273191  0.49829948  1
  I  I65  1  0.50055406  0.00006213  0.83187955  1
  I  I66  1  0.49997099  0.33010717  0.16480244  1
  I  I67  1  0.50056650  0.33326344  0.49956259  1
  I  I68  1  0.50428745  0.33304229  0.83465285  1
  I  I69  1  0.49490508  0.66997245  0.16882691  1
  I  I70  1  0.50093449  0.67038656  0.49257217  1
  I  I71  1  0.50021724  0.66675526  0.83553610  1
  I  I72  1  0.83758945  0.00364640  0.16335331  1
  I  I73  1  0.83484840  0.00343653  0.50161992  1
  I  I74  1  0.83633495  0.00188670  0.83424685  1
  I  I75  1  0.83232123  0.32867652  0.16478536  1
  I  I76  1  0.83359874  0.32969704  0.50003681  1
  I  I77  1  0.83866613  0.33218535  0.83443859  1
  I  I78  1  0.83334325  0.66641391  0.16405979  1
  I  I79  1  0.83295083  0.66649815  0.50160619  1
  I  I80  1  0.83761747  0.66590067  0.83407982  1
  I  I81  1  0.16237537  0.17076535  0.00095108  1
  I  I82  1  0.16550865  0.16773909  0.32993163  1
  I  I83  1  0.16040688  0.17163223  0.66983606  1
  I  I84  1  0.16331744  0.49843067  -0.00004573  1
  I  I85  1  0.16890595  0.49863730  0.33212207  1
  I  I86  1  0.16215834  0.49534384  0.66818515  1
  I  I87  1  0.17230934  0.83042332  0.00361420  1
  I  I88  1  0.16744189  0.83561510  0.32882848  1
  I  I89  1  0.16806853  0.83314468  0.66675151  1
  I  I90  1  0.50335146  0.16017831  0.00395526  1
  I  I91  1  0.49754367  0.16458206  0.32879149  1
  I  I92  1  0.50030227  0.16484572  0.66641919  1
  I  I93  1  0.49869612  0.50259876  0.00021038  1
  I  I94  1  0.49803384  0.49734446  0.33310199  1
  I  I95  1  0.49802681  0.50218311  0.66660492  1
  I  I96  1  0.49651252  0.83730503  0.00364586  1
  I  I97  1  0.49524988  0.83859993  0.33151840  1
  I  I98  1  0.50170762  0.83224125  0.66448181  1
  I  I99  1  0.83434231  0.16621110  -0.00034341  1
  I  I100  1  0.83463930  0.16510469  0.33209826  1
  I  I101  1  0.83869926  0.16623791  0.66843928  1
  I  I102  1  0.83853840  0.49838672  -0.00356527  1
  I  I103  1  0.83507948  0.49852551  0.33333613  1
  I  I104  1  0.83953544  0.49845728  0.67076383  1
  I  I105  1  0.83254750  0.83607053  -0.00287626  1
  I  I106  1  0.83506767  0.83572537  0.33322623  1
  I  I107  1  0.83304800  0.83573701  0.67046156  1
  I  I108  1  0.00068666  0.16681517  0.16488602  1
  I  I109  1  -0.00283509  0.16658957  0.49643233  1
  I  I110  1  -0.00059753  0.16763214  0.83848905  1
  I  I111  1  0.00442376  0.50130923  0.16804869  1
  I  I112  1  0.00343734  0.50054405  0.49674042  1
  I  I113  1  0.00089741  0.49839534  0.83447775  1
  I  I114  1  0.00279938  0.83399733  0.16386232  1
  I  I115  1  -0.00013875  0.83311893  0.49923945  1
  I  I116  1  -0.00303835  0.83450796  0.83541111  1
  I  I117  1  0.33189473  0.16634546  0.16195592  1
  I  I118  1  0.33344962  0.16725975  0.50063693  1
  I  I119  1  0.32947484  0.17207077  0.83840804  1
  I  I120  1  0.32895642  0.49559093  0.16340753  1
  I  I121  1  0.32918089  0.49736272  0.50183786  1
  I  I122  1  0.32873852  0.49556534  0.83448021  1
  I  I123  1  0.33282720  0.83787609  0.16884283  1
  I  I124  1  0.33611331  0.83419279  0.49934279  1
  I  I125  1  0.33321808  0.83299826  0.83208047  1
  I  I126  1  0.66714609  0.16033595  0.16533378  1
  I  I127  1  0.67056390  0.16625917  0.50306271  1
  I  I128  1  0.67015293  0.16703650  0.83445053  1
  I  I129  1  0.66709796  0.49990464  0.16481340  1
  I  I130  1  0.66693630  0.49976972  0.50151655  1
  I  I131  1  0.67005822  0.49879466  0.83362264  1
  I  I132  1  0.66400510  0.83951827  0.16780609  1
  I  I133  1  0.66350500  0.83387264  0.49216260  1
  I  I134  1  0.67076403  0.83529510  0.83541532  1
