# generated using pymatgen
data_Cs27Sn13Pb14I81
_symmetry_space_group_name_H-M   'P 1'
_cell_length_a   18.97513078
_cell_length_b   18.98009893
_cell_length_c   18.97577759
_cell_angle_alpha   90.00043925
_cell_angle_beta   89.99751704
_cell_angle_gamma   90.00087286
_symmetry_Int_Tables_number   1
_chemical_formula_structural   Cs27Sn13Pb14I81
_chemical_formula_sum   'Cs27 Sn13 Pb14 I81'
_cell_volume   6834.12362550
_cell_formula_units_Z   1
loop_
 _symmetry_equiv_pos_site_id
 _symmetry_equiv_pos_as_xyz
  1  'x, y, z'
loop_
 _atom_site_type_symbol
 _atom_site_label
 _atom_site_symmetry_multiplicity
 _atom_site_fract_x
 _atom_site_fract_y
 _atom_site_fract_z
 _atom_site_occupancy
  Cs  Cs0  1  -0.00131056  0.00149761  0.00069532  1
  Cs  Cs1  1  0.00244631  0.00173220  0.33505160  1
  Cs  Cs2  1  0.00140708  0.00042364  0.66363597  1
  Cs  Cs3  1  0.00147293  0.33308398  0.00099179  1
  Cs  Cs4  1  -0.00090072  0.33266091  0.33051196  1
  Cs  Cs5  1  -0.00411575  0.33589498  0.66639327  1
  Cs  Cs6  1  -0.00126058  0.66538448  -0.00135469  1
  Cs  Cs7  1  0.00315460  0.66633805  0.33181040  1
  Cs  Cs8  1  -0.00247505  0.66388824  0.67001261  1
  Cs  Cs9  1  0.33374256  0.00142902  -0.00138821  1
  Cs  Cs10  1  0.32990894  -0.00005335  0.33558023  1
  Cs  Cs11  1  0.33292668  -0.00181877  0.66629396  1
  Cs  Cs12  1  0.33222268  0.33146602  -0.00088120  1
  Cs  Cs13  1  0.33874686  0.33654452  0.33414413  1
  Cs  Cs14  1  0.33710537  0.33214662  0.66862790  1
  Cs  Cs15  1  0.33273381  0.66588611  -0.00169786  1
  Cs  Cs16  1  0.33322902  0.66567870  0.33320208  1
  Cs  Cs17  1  0.33278653  0.66933780  0.66911905  1
  Cs  Cs18  1  0.66775618  -0.00052881  0.00134315  1
  Cs  Cs19  1  0.66581908  -0.00317486  0.33130966  1
  Cs  Cs20  1  0.66550683  -0.00024760  0.66718417  1
  Cs  Cs21  1  0.66450221  0.32752316  0.00190036  1
  Cs  Cs22  1  0.66260857  0.33687253  0.34110750  1
  Cs  Cs23  1  0.66584905  0.33350030  0.65695327  1
  Cs  Cs24  1  0.66798239  0.67135999  0.00061112  1
  Cs  Cs25  1  0.66291181  0.66723617  0.33259891  1
  Cs  Cs26  1  0.66844291  0.66661266  0.66661085  1
  Sn  Sn27  1  0.16608932  0.49971549  0.16742399  1
  Sn  Sn28  1  0.49949646  0.83234839  0.83285485  1
  Sn  Sn29  1  0.16552155  0.16588787  0.83378396  1
  Sn  Sn30  1  0.83285896  0.83324125  0.49996835  1
  Sn  Sn31  1  0.50084046  0.83316464  0.50074275  1
  Sn  Sn32  1  0.83401883  0.16784755  0.16612906  1
  Sn  Sn33  1  0.16663746  0.83340782  0.16554429  1
  Sn  Sn34  1  0.16614825  0.16680437  0.16592300  1
  Sn  Sn35  1  0.83357879  0.49933931  0.16639091  1
  Sn  Sn36  1  0.50048580  0.50061067  0.83383544  1
  Sn  Sn37  1  0.16641058  0.49973451  0.49972606  1
  Sn  Sn38  1  0.83417820  0.16669140  0.83362435  1
  Sn  Sn39  1  0.16686243  0.83402315  0.83428650  1
  Pb  Pb40  1  0.83520435  0.50227514  0.49736480  1
  Pb  Pb41  1  0.83586566  0.83360933  0.16850106  1
  Pb  Pb42  1  0.49775299  0.50249253  0.50239576  1
  Pb  Pb43  1  0.49977255  0.16356709  0.49992299  1
  Pb  Pb44  1  0.50008228  0.50003063  0.16438344  1
  Pb  Pb45  1  0.16661966  0.16962767  0.50017061  1
  Pb  Pb46  1  0.49709338  0.83340549  0.16617845  1
  Pb  Pb47  1  0.83348432  0.16475982  0.49922714  1
  Pb  Pb48  1  0.16752825  0.49954099  0.83388347  1
  Pb  Pb49  1  0.83045481  0.49718483  0.83575271  1
  Pb  Pb50  1  0.83367360  0.83528808  0.83185999  1
  Pb  Pb51  1  0.16676589  0.83169028  0.50060620  1
  Pb  Pb52  1  0.50005986  0.16603089  0.83331117  1
  Pb  Pb53  1  0.49991453  0.16674856  0.16693284  1
  I  I54  1  0.16354208  0.00031506  0.16237943  1
  I  I55  1  0.16771099  -0.00018893  0.49742327  1
  I  I56  1  0.16916994  -0.00048078  0.83990950  1
  I  I57  1  0.16234669  0.33306312  0.16576676  1
  I  I58  1  0.16598298  0.33727318  0.49633234  1
  I  I59  1  0.16566722  0.33054880  0.83635276  1
  I  I60  1  0.16362243  0.66643426  0.16714283  1
  I  I61  1  0.16701712  0.66419318  0.49484054  1
  I  I62  1  0.17013835  0.66919474  0.83562860  1
  I  I63  1  0.50087940  -0.00020586  0.16519439  1
  I  I64  1  0.50139900  -0.00472267  0.50728165  1
  I  I65  1  0.49744419  -0.00325849  0.82880348  1
  I  I66  1  0.49500196  0.33351201  0.16311403  1
  I  I67  1  0.49908548  0.33395307  0.50178112  1
  I  I68  1  0.49768486  0.33533824  0.83551858  1
  I  I69  1  0.49980967  0.66682930  0.16757779  1
  I  I70  1  0.50276639  0.67021115  0.50213104  1
  I  I71  1  0.49292595  0.66834718  0.83037270  1
  I  I72  1  0.83727165  0.00299309  0.16426375  1
  I  I73  1  0.83061521  -0.00314339  0.49844938  1
  I  I74  1  0.83296502  0.00311673  0.84003283  1
  I  I75  1  0.84289645  0.33281144  0.16203878  1
  I  I76  1  0.83456489  0.33354873  0.50207930  1
  I  I77  1  0.84005196  0.32944647  0.83481382  1
  I  I78  1  0.83843981  0.66441623  0.16895872  1
  I  I79  1  0.83051623  0.66991848  0.49981357  1
  I  I80  1  0.83539500  0.66667268  0.83350505  1
  I  I81  1  0.16340610  0.16736161  0.00030463  1
  I  I82  1  0.16184940  0.16239487  0.32968738  1
  I  I83  1  0.16391739  0.16217961  0.67018874  1
  I  I84  1  0.16488162  0.50051506  0.00308610  1
  I  I85  1  0.16358618  0.50176827  0.33129105  1
  I  I86  1  0.16985112  0.50210302  0.66518169  1
  I  I87  1  0.17162301  0.83206569  -0.00045914  1
  I  I88  1  0.16614953  0.83550827  0.33082400  1
  I  I89  1  0.16835558  0.83625702  0.66967694  1
  I  I90  1  0.50011044  0.16420424  -0.00017946  1
  I  I91  1  0.49935883  0.16557040  0.33331080  1
  I  I92  1  0.49958084  0.16968605  0.66713347  1
  I  I93  1  0.49652368  0.50705494  -0.00325225  1
  I  I94  1  0.50064792  0.50107342  0.33343205  1
  I  I95  1  0.49693322  0.50123972  0.67005745  1
  I  I96  1  0.49706710  0.83021795  -0.00338585  1
  I  I97  1  0.50268878  0.83400658  0.33596775  1
  I  I98  1  0.49679018  0.82992018  0.66786148  1
  I  I99  1  0.83784504  0.16878323  0.00060923  1
  I  I100  1  0.83966658  0.16860228  0.32954085  1
  I  I101  1  0.83758653  0.16390429  0.66946737  1
  I  I102  1  0.84173900  0.50069576  0.00356376  1
  I  I103  1  0.83546315  0.49341694  0.32938931  1
  I  I104  1  0.83469450  0.49904408  0.66668045  1
  I  I105  1  0.83091885  0.83203617  0.00016841  1
  I  I106  1  0.82883231  0.83454056  0.33620061  1
  I  I107  1  0.83475569  0.83514006  0.66409161  1
  I  I108  1  0.00111775  0.16724645  0.16200524  1
  I  I109  1  0.00016790  0.16177752  0.50135275  1
  I  I110  1  0.00129502  0.16111245  0.83776860  1
  I  I111  1  0.00151722  0.49947102  0.16965461  1
  I  I112  1  0.00307581  0.50373516  0.49994243  1
  I  I113  1  -0.00010167  0.50295730  0.83099805  1
  I  I114  1  0.00406492  0.83271384  0.16310991  1
  I  I115  1  -0.00157957  0.83269987  0.49901902  1
  I  I116  1  0.00317487  0.83510506  0.83531306  1
  I  I117  1  0.32912110  0.16696533  0.16158251  1
  I  I118  1  0.33284254  0.16462046  0.50023992  1
  I  I119  1  0.33012396  0.16590217  0.83809547  1
  I  I120  1  0.32975319  0.49970803  0.16959667  1
  I  I121  1  0.33007339  0.50196735  0.49226624  1
  I  I122  1  0.33531055  0.50056730  0.83448149  1
  I  I123  1  0.32863727  0.83321896  0.16779499  1
  I  I124  1  0.33535516  0.83141274  0.50177908  1
  I  I125  1  0.33250894  0.83507396  0.83115643  1
  I  I126  1  0.67053880  0.17016717  0.16133038  1
  I  I127  1  0.66685912  0.16918206  0.50089091  1
  I  I128  1  0.66955801  0.16597312  0.83890654  1
  I  I129  1  0.66977146  0.49506112  0.16444336  1
  I  I130  1  0.66657505  0.49921216  0.49917320  1
  I  I131  1  0.66307306  0.50696053  0.83472754  1
  I  I132  1  0.66686619  0.83328104  0.16561669  1
  I  I133  1  0.66585202  0.83354216  0.50548348  1
  I  I134  1  0.66411551  0.83119636  0.83023552  1
