# generated using pymatgen
data_Cs27Sn13Pb14I81
_symmetry_space_group_name_H-M   'P 1'
_cell_length_a   18.97273264
_cell_length_b   18.96990594
_cell_length_c   18.98844968
_cell_angle_alpha   90.00024133
_cell_angle_beta   90.00048000
_cell_angle_gamma   89.99877669
_symmetry_Int_Tables_number   1
_chemical_formula_structural   Cs27Sn13Pb14I81
_chemical_formula_sum   'Cs27 Sn13 Pb14 I81'
_cell_volume   6834.15103121
_cell_formula_units_Z   1
loop_
 _symmetry_equiv_pos_site_id
 _symmetry_equiv_pos_as_xyz
  1  'x, y, z'
loop_
 _atom_site_type_symbol
 _atom_site_label
 _atom_site_symmetry_multiplicity
 _atom_site_fract_x
 _atom_site_fract_y
 _atom_site_fract_z
 _atom_site_occupancy
  Cs  Cs0  1  0.00010787  0.00165698  -0.00084601  1
  Cs  Cs1  1  -0.00019548  0.00047100  0.33432565  1
  Cs  Cs2  1  0.00110904  0.00131493  0.66647054  1
  Cs  Cs3  1  -0.00016899  0.33184855  0.00076639  1
  Cs  Cs4  1  0.00057391  0.33472917  0.33229381  1
  Cs  Cs5  1  -0.00173198  0.32833009  0.66715942  1
  Cs  Cs6  1  0.00100028  0.66159676  0.00136212  1
  Cs  Cs7  1  -0.00623009  0.65906831  0.33810456  1
  Cs  Cs8  1  0.00749178  0.66715550  0.66088973  1
  Cs  Cs9  1  0.33349373  -0.00076924  0.00280363  1
  Cs  Cs10  1  0.33489553  0.00044022  0.33030441  1
  Cs  Cs11  1  0.33108397  -0.00169909  0.66571143  1
  Cs  Cs12  1  0.33544040  0.33652725  -0.00068806  1
  Cs  Cs13  1  0.33501221  0.33455895  0.33467300  1
  Cs  Cs14  1  0.34208366  0.34079620  0.66651973  1
  Cs  Cs15  1  0.33242750  0.66667423  0.00030533  1
  Cs  Cs16  1  0.33256385  0.66596384  0.33168201  1
  Cs  Cs17  1  0.32723590  0.66274286  0.66633548  1
  Cs  Cs18  1  0.66661654  -0.00111133  -0.00015175  1
  Cs  Cs19  1  0.66548827  -0.00145544  0.33228321  1
  Cs  Cs20  1  0.66690329  0.00004658  0.66894416  1
  Cs  Cs21  1  0.66570275  0.33135016  -0.00284694  1
  Cs  Cs22  1  0.66359984  0.33392525  0.33727520  1
  Cs  Cs23  1  0.66201384  0.33623548  0.66720231  1
  Cs  Cs24  1  0.66700280  0.66970680  0.00173071  1
  Cs  Cs25  1  0.67235811  0.66739407  0.33284722  1
  Cs  Cs26  1  0.66648847  0.66564929  0.66577395  1
  Sn  Sn27  1  0.49940072  0.83235272  0.16678460  1
  Sn  Sn28  1  0.16599720  0.16579777  0.16660087  1
  Sn  Sn29  1  0.49991200  0.83353099  0.50008674  1
  Sn  Sn30  1  0.83379346  0.16648790  0.83332789  1
  Sn  Sn31  1  0.83348727  0.83285167  0.83341416  1
  Sn  Sn32  1  0.16658639  0.16642925  0.50001538  1
  Sn  Sn33  1  0.83380622  0.16628648  0.16676617  1
  Sn  Sn34  1  0.50033846  0.50101705  0.16647165  1
  Sn  Sn35  1  0.50008184  0.83364253  0.83294852  1
  Sn  Sn36  1  0.16676037  0.16660892  0.83336684  1
  Sn  Sn37  1  0.83375526  0.50035773  0.83323565  1
  Sn  Sn38  1  0.16626770  0.83358121  0.16693530  1
  Sn  Sn39  1  0.83355356  0.16618784  0.50004779  1
  Pb  Pb40  1  0.50208550  0.50332381  0.83519006  1
  Pb  Pb41  1  0.83177331  0.83544589  0.50265045  1
  Pb  Pb42  1  0.83106688  0.49692626  0.16483452  1
  Pb  Pb43  1  0.49979350  0.16478660  0.50018425  1
  Pb  Pb44  1  0.49976629  0.16640418  0.16657611  1
  Pb  Pb45  1  0.83387058  0.83492306  0.16504956  1
  Pb  Pb46  1  0.49979482  0.16464287  0.83326308  1
  Pb  Pb47  1  0.16659331  0.49673374  0.49992377  1
  Pb  Pb48  1  0.16837358  0.83532186  0.49696965  1
  Pb  Pb49  1  0.83331829  0.49721323  0.50281202  1
  Pb  Pb50  1  0.16417295  0.49686053  0.83343146  1
  Pb  Pb51  1  0.16831223  0.49964428  0.16667234  1
  Pb  Pb52  1  0.16630691  0.83504164  0.83529522  1
  Pb  Pb53  1  0.50019156  0.50347297  0.49750687  1
  I  I54  1  0.17010018  0.00124607  0.16596609  1
  I  I55  1  0.16273348  0.00375045  0.50212709  1
  I  I56  1  0.16096779  0.00346931  0.83237711  1
  I  I57  1  0.16385718  0.32932100  0.16648159  1
  I  I58  1  0.16271388  0.32781822  0.49655893  1
  I  I59  1  0.16107253  0.32814363  0.83690789  1
  I  I60  1  0.17118714  0.66971386  0.16426581  1
  I  I61  1  0.16815067  0.66705414  0.49912212  1
  I  I62  1  0.16587673  0.66680427  0.83575687  1
  I  I63  1  0.49889642  -0.00317639  0.16618616  1
  I  I64  1  0.50052139  -0.00311342  0.49637076  1
  I  I65  1  0.50605847  -0.00354035  0.83753424  1
  I  I66  1  0.50082113  0.33532202  0.16590197  1
  I  I67  1  0.49966184  0.33348236  0.49809579  1
  I  I68  1  0.50049709  0.33359783  0.83536594  1
  I  I69  1  0.49456248  0.66894177  0.16544277  1
  I  I70  1  0.50062865  0.67139629  0.50312576  1
  I  I71  1  0.50559246  0.67141992  0.83251663  1
  I  I72  1  0.83202369  0.00345170  0.16347592  1
  I  I73  1  0.83648063  0.00392331  0.50231206  1
  I  I74  1  0.83216469  0.00119169  0.83364985  1
  I  I75  1  0.83801386  0.32861709  0.16408322  1
  I  I76  1  0.83654905  0.32847938  0.50087902  1
  I  I77  1  0.83846668  0.33144723  0.83407336  1
  I  I78  1  0.83511489  0.66667982  0.16382164  1
  I  I79  1  0.83145419  0.66681680  0.50067331  1
  I  I80  1  0.82526168  0.66751248  0.83591740  1
  I  I81  1  0.15999666  0.16259018  0.00037565  1
  I  I82  1  0.16078570  0.16245527  0.33262302  1
  I  I83  1  0.15876741  0.16560726  0.66699735  1
  I  I84  1  0.16711235  0.49706824  0.00006075  1
  I  I85  1  0.16737422  0.49792788  0.33305940  1
  I  I86  1  0.16801056  0.50037004  0.66685427  1
  I  I87  1  0.17306246  0.84095929  0.00306238  1
  I  I88  1  0.17351893  0.84111303  0.32911602  1
  I  I89  1  0.16842188  0.83570148  0.66664870  1
  I  I90  1  0.50102748  0.16417542  0.00006325  1
  I  I91  1  0.50152831  0.16423582  0.33318462  1
  I  I92  1  0.50006149  0.16401081  0.66676900  1
  I  I93  1  0.50018662  0.50445353  0.00285511  1
  I  I94  1  0.50011185  0.50329339  0.32969090  1
  I  I95  1  0.50099400  0.49962815  0.66680546  1
  I  I96  1  0.50076142  0.83083395  0.00041878  1
  I  I97  1  0.49492537  0.83143470  0.33209915  1
  I  I98  1  0.50641711  0.83789366  0.66747003  1
  I  I99  1  0.83832403  0.16639148  -0.00078349  1
  I  I100  1  0.83866568  0.16547121  0.33303936  1
  I  I101  1  0.83934625  0.16558919  0.66768796  1
  I  I102  1  0.83223346  0.49702934  -0.00307168  1
  I  I103  1  0.83206965  0.49852038  0.33329820  1
  I  I104  1  0.83106451  0.49748978  0.67083581  1
  I  I105  1  0.82708913  0.83775689  -0.00312733  1
  I  I106  1  0.83102629  0.83671730  0.33329688  1
  I  I107  1  0.82758493  0.83676629  0.67095154  1
  I  I108  1  0.00039245  0.16133274  0.16560891  1
  I  I109  1  -0.00031975  0.16547374  0.50079503  1
  I  I110  1  -0.00133382  0.16439257  0.83371963  1
  I  I111  1  -0.00030118  0.50208065  0.16544993  1
  I  I112  1  -0.00027262  0.50405867  0.49873783  1
  I  I113  1  -0.00403864  0.50426991  0.83554299  1
  I  I114  1  0.00267714  0.83901818  0.16313828  1
  I  I115  1  0.00007294  0.83322077  0.50053651  1
  I  I116  1  -0.00299156  0.83441959  0.83594619  1
  I  I117  1  0.33009495  0.16502761  0.16665306  1
  I  I118  1  0.33010081  0.16406002  0.49820361  1
  I  I119  1  0.33014620  0.16339112  0.83504252  1
  I  I120  1  0.33642170  0.49975922  0.16535248  1
  I  I121  1  0.33367508  0.49629771  0.50079903  1
  I  I122  1  0.33350922  0.49847920  0.83411269  1
  I  I123  1  0.33426693  0.83675138  0.16448329  1
  I  I124  1  0.33655395  0.83708459  0.50428916  1
  I  I125  1  0.33593803  0.83690970  0.83344106  1
  I  I126  1  0.66954409  0.16622472  0.16512441  1
  I  I127  1  0.66981026  0.16528556  0.50044206  1
  I  I128  1  0.67029937  0.16772817  0.83396734  1
  I  I129  1  0.66344789  0.50655129  0.16563138  1
  I  I130  1  0.66666104  0.49577676  0.49988677  1
  I  I131  1  0.66987232  0.49230299  0.83440212  1
  I  I132  1  0.66391185  0.83216148  0.16711511  1
  I  I133  1  0.66362014  0.83672404  0.49467993  1
  I  I134  1  0.66681743  0.83694290  0.83603614  1
