# generated using pymatgen
data_Cs27Sn13Pb14I81
_symmetry_space_group_name_H-M   'P 1'
_cell_length_a   19.03172759
_cell_length_b   19.02199140
_cell_length_c   19.01031489
_cell_angle_alpha   90.00471992
_cell_angle_beta   90.00077802
_cell_angle_gamma   89.99854717
_symmetry_Int_Tables_number   1
_chemical_formula_structural   Cs27Sn13Pb14I81
_chemical_formula_sum   'Cs27 Sn13 Pb14 I81'
_cell_volume   6882.13999687
_cell_formula_units_Z   1
loop_
 _symmetry_equiv_pos_site_id
 _symmetry_equiv_pos_as_xyz
  1  'x, y, z'
loop_
 _atom_site_type_symbol
 _atom_site_label
 _atom_site_symmetry_multiplicity
 _atom_site_fract_x
 _atom_site_fract_y
 _atom_site_fract_z
 _atom_site_occupancy
  Cs  Cs0  1  0.00087648  0.00034476  0.00019849  1
  Cs  Cs1  1  0.00437959  0.00526374  0.33098261  1
  Cs  Cs2  1  0.00133733  0.00383364  0.66660748  1
  Cs  Cs3  1  -0.00533161  0.33515119  -0.00417102  1
  Cs  Cs4  1  -0.00002993  0.33033337  0.33332250  1
  Cs  Cs5  1  0.00109919  0.32788491  0.66876690  1
  Cs  Cs6  1  -0.01145456  0.66660849  0.00083650  1
  Cs  Cs7  1  0.00020858  0.66593226  0.33182431  1
  Cs  Cs8  1  0.00425001  0.66803075  0.66754234  1
  Cs  Cs9  1  0.33957030  0.00138301  0.01114736  1
  Cs  Cs10  1  0.33102415  0.00145980  0.32367299  1
  Cs  Cs11  1  0.33017252  -0.00233785  0.66725597  1
  Cs  Cs12  1  0.33720969  0.33296628  -0.00290899  1
  Cs  Cs13  1  0.33321364  0.33636186  0.33279813  1
  Cs  Cs14  1  0.33414279  0.33607243  0.66912225  1
  Cs  Cs15  1  0.33409458  0.66580266  -0.00048431  1
  Cs  Cs16  1  0.33267943  0.66372312  0.33601482  1
  Cs  Cs17  1  0.33031326  0.66553956  0.66534317  1
  Cs  Cs18  1  0.65858500  -0.00482682  -0.00041391  1
  Cs  Cs19  1  0.66479679  0.00035410  0.33496558  1
  Cs  Cs20  1  0.66654257  -0.00112597  0.66697033  1
  Cs  Cs21  1  0.66932664  0.33117470  -0.00170229  1
  Cs  Cs22  1  0.66700988  0.33633627  0.33484469  1
  Cs  Cs23  1  0.66274617  0.33109657  0.66552437  1
  Cs  Cs24  1  0.67979753  0.67703514  -0.00712688  1
  Cs  Cs25  1  0.66721344  0.66295842  0.33498512  1
  Cs  Cs26  1  0.66661583  0.67013837  0.66655324  1
  Sn  Sn27  1  0.16652493  0.83298641  0.50015358  1
  Sn  Sn28  1  0.49982275  0.50023496  0.49976281  1
  Sn  Sn29  1  0.49919901  0.83333459  0.49980708  1
  Sn  Sn30  1  0.16711712  0.49995349  0.16705970  1
  Sn  Sn31  1  0.83423803  0.83274688  0.49974200  1
  Sn  Sn32  1  0.16683048  0.16528439  0.83351676  1
  Sn  Sn33  1  0.83351329  0.16616516  0.83447014  1
  Sn  Sn34  1  0.83392879  0.50051675  0.50042043  1
  Sn  Sn35  1  0.49917805  0.16647846  0.49983976  1
  Sn  Sn36  1  0.83305770  0.16652906  0.16577408  1
  Sn  Sn37  1  0.16618287  0.50035047  0.49929936  1
  Sn  Sn38  1  0.50012032  0.50059347  0.16675809  1
  Sn  Sn39  1  0.16695188  0.83447028  0.83330832  1
  Pb  Pb40  1  0.50034575  0.50050013  0.83394647  1
  Pb  Pb41  1  0.50014725  0.82967734  0.16932148  1
  Pb  Pb42  1  0.16916674  0.16674015  0.50131260  1
  Pb  Pb43  1  0.49683944  0.83325332  0.83114781  1
  Pb  Pb44  1  0.83591511  0.83600824  0.83042732  1
  Pb  Pb45  1  0.49963400  0.16650201  0.83143736  1
  Pb  Pb46  1  0.16664856  0.50053765  0.83372734  1
  Pb  Pb47  1  0.83341108  0.83615577  0.16973562  1
  Pb  Pb48  1  0.83326544  0.49784406  0.82985308  1
  Pb  Pb49  1  0.83170242  0.16643568  0.50030145  1
  Pb  Pb50  1  0.16656368  0.83058739  0.16661674  1
  Pb  Pb51  1  0.50219541  0.16938053  0.16924173  1
  Pb  Pb52  1  0.83296914  0.49859814  0.16890699  1
  Pb  Pb53  1  0.16510736  0.16983421  0.16365113  1
  I  I54  1  0.16472494  0.00004032  0.17039383  1
  I  I55  1  0.16532627  -0.00292444  0.50392824  1
  I  I56  1  0.16080258  -0.00028909  0.82224302  1
  I  I57  1  0.17033705  0.33696689  0.17569928  1
  I  I58  1  0.16624496  0.33648297  0.49773548  1
  I  I59  1  0.16189497  0.33106471  0.83208079  1
  I  I60  1  0.17074780  0.66296496  0.16829157  1
  I  I61  1  0.17078227  0.66648522  0.50304638  1
  I  I62  1  0.16942193  0.66930779  0.82840062  1
  I  I63  1  0.50119535  -0.00012134  0.16852739  1
  I  I64  1  0.50316200  -0.00064216  0.50375268  1
  I  I65  1  0.50336668  0.00002601  0.82899635  1
  I  I66  1  0.49518947  0.33668975  0.17640478  1
  I  I67  1  0.50191152  0.33468850  0.49695161  1
  I  I68  1  0.49670424  0.33321968  0.82730305  1
  I  I69  1  0.49462892  0.66208202  0.17583304  1
  I  I70  1  0.50004424  0.66624613  0.49603443  1
  I  I71  1  0.49687323  0.66688537  0.83010988  1
  I  I72  1  0.83455548  0.00386257  0.16548098  1
  I  I73  1  0.83251700  -0.00263236  0.50072401  1
  I  I74  1  0.83591545  0.00346747  0.83318432  1
  I  I75  1  0.83369822  0.33095304  0.16575411  1
  I  I76  1  0.83258468  0.33584808  0.49983196  1
  I  I77  1  0.84183503  0.32996170  0.83425283  1
  I  I78  1  0.83346109  0.66658698  0.16493331  1
  I  I79  1  0.82812380  0.66629163  0.49906547  1
  I  I80  1  0.83409512  0.66709788  0.83610840  1
  I  I81  1  0.16554463  0.16046467  -0.00404326  1
  I  I82  1  0.16488792  0.16339180  0.33315579  1
  I  I83  1  0.15881935  0.16829337  0.66877759  1
  I  I84  1  0.17442421  0.49779475  0.00299287  1
  I  I85  1  0.16780653  0.50586416  0.33570572  1
  I  I86  1  0.16801547  0.50093658  0.66341479  1
  I  I87  1  0.16589597  0.83710416  -0.00302065  1
  I  I88  1  0.16737965  0.83087032  0.33704777  1
  I  I89  1  0.16692784  0.83057278  0.66447043  1
  I  I90  1  0.49826101  0.16974528  0.00018877  1
  I  I91  1  0.50270450  0.16373801  0.33718404  1
  I  I92  1  0.50396017  0.17114224  0.66310568  1
  I  I93  1  0.49002771  0.49579324  0.00374692  1
  I  I94  1  0.49889122  0.49978453  0.33616470  1
  I  I95  1  0.49863692  0.49944744  0.66211978  1
  I  I96  1  0.49891615  0.83277514  0.00025603  1
  I  I97  1  0.49624179  0.83688435  0.33833232  1
  I  I98  1  0.50401824  0.82937903  0.66186355  1
  I  I99  1  0.83972201  0.17063831  -0.00061000  1
  I  I100  1  0.83016343  0.16762831  0.33203940  1
  I  I101  1  0.83689023  0.16712432  0.66856014  1
  I  I102  1  0.83394423  0.50011285  0.00008176  1
  I  I103  1  0.83275307  0.50034145  0.33712141  1
  I  I104  1  0.83317350  0.50198869  0.66141422  1
  I  I105  1  0.83534991  0.83033617  -0.00024251  1
  I  I106  1  0.83590913  0.83113473  0.33816322  1
  I  I107  1  0.82910886  0.83088501  0.66249532  1
  I  I108  1  -0.00245526  0.16973331  0.16954866  1
  I  I109  1  0.00017678  0.16755580  0.49861489  1
  I  I110  1  0.00022917  0.16368512  0.83426394  1
  I  I111  1  0.00236840  0.49864089  0.17245293  1
  I  I112  1  0.00066694  0.50726850  0.49608389  1
  I  I113  1  0.00014377  0.50100356  0.83364217  1
  I  I114  1  0.00005667  0.82963144  0.17054448  1
  I  I115  1  0.00070271  0.82479934  0.50450972  1
  I  I116  1  0.00322921  0.83391637  0.82446904  1
  I  I117  1  0.33342879  0.16477087  0.16587389  1
  I  I118  1  0.33673274  0.16838310  0.50293045  1
  I  I119  1  0.33029014  0.16412306  0.82850651  1
  I  I120  1  0.33321354  0.49942765  0.17821287  1
  I  I121  1  0.33321178  0.50228172  0.49665914  1
  I  I122  1  0.33304142  0.49606958  0.82749162  1
  I  I123  1  0.33331100  0.83857045  0.16766694  1
  I  I124  1  0.33293885  0.82905880  0.50601675  1
  I  I125  1  0.32915170  0.83987383  0.82469639  1
  I  I126  1  0.66963698  0.17010053  0.15994810  1
  I  I127  1  0.66404093  0.16801512  0.50178371  1
  I  I128  1  0.66944749  0.16993306  0.83509297  1
  I  I129  1  0.66404354  0.49595826  0.17618289  1
  I  I130  1  0.66597441  0.50156764  0.49591661  1
  I  I131  1  0.66687854  0.49592614  0.83261317  1
  I  I132  1  0.66674467  0.83122233  0.16830132  1
  I  I133  1  0.66643187  0.83034422  0.49800259  1
  I  I134  1  0.66687939  0.83416356  0.83240972  1
