# generated using pymatgen
data_Cs27Sn14Pb13I81
_symmetry_space_group_name_H-M   'P 1'
_cell_length_a   18.95785165
_cell_length_b   18.96173247
_cell_length_c   18.96211942
_cell_angle_alpha   90.00064988
_cell_angle_beta   90.00176108
_cell_angle_gamma   89.99988528
_symmetry_Int_Tables_number   1
_chemical_formula_structural   Cs27Sn14Pb13I81
_chemical_formula_sum   'Cs27 Sn14 Pb13 I81'
_cell_volume   6816.38343710
_cell_formula_units_Z   1
loop_
 _symmetry_equiv_pos_site_id
 _symmetry_equiv_pos_as_xyz
  1  'x, y, z'
loop_
 _atom_site_type_symbol
 _atom_site_label
 _atom_site_symmetry_multiplicity
 _atom_site_fract_x
 _atom_site_fract_y
 _atom_site_fract_z
 _atom_site_occupancy
  Cs  Cs0  1  -0.00170740  0.00025088  -0.00088910  1
  Cs  Cs1  1  0.00361579  -0.00369014  0.33152179  1
  Cs  Cs2  1  -0.00699663  -0.00844052  0.66952362  1
  Cs  Cs3  1  -0.00031164  0.33259249  0.00200274  1
  Cs  Cs4  1  0.00216056  0.33492851  0.33087359  1
  Cs  Cs5  1  -0.00053472  0.33387386  0.66614451  1
  Cs  Cs6  1  0.00084490  0.66611749  -0.00220495  1
  Cs  Cs7  1  -0.00071968  0.66526299  0.33576929  1
  Cs  Cs8  1  -0.00105844  0.67438627  0.66714593  1
  Cs  Cs9  1  0.33387299  0.00062068  0.00110236  1
  Cs  Cs10  1  0.33277253  -0.00013204  0.33347448  1
  Cs  Cs11  1  0.33613516  0.00053599  0.66571414  1
  Cs  Cs12  1  0.33306524  0.33396033  -0.00177613  1
  Cs  Cs13  1  0.33059856  0.33204923  0.33505006  1
  Cs  Cs14  1  0.33306274  0.33393325  0.66665382  1
  Cs  Cs15  1  0.33623369  0.66682749  -0.00282813  1
  Cs  Cs16  1  0.33510809  0.66944867  0.33262060  1
  Cs  Cs17  1  0.33302028  0.66555949  0.66895226  1
  Cs  Cs18  1  0.66754523  0.00020480  -0.00137709  1
  Cs  Cs19  1  0.66450986  0.00271914  0.33384639  1
  Cs  Cs20  1  0.66790671  0.00117260  0.66742619  1
  Cs  Cs21  1  0.66730952  0.33479975  0.00077181  1
  Cs  Cs22  1  0.66755558  0.33322891  0.33535841  1
  Cs  Cs23  1  0.66931138  0.33073885  0.66196901  1
  Cs  Cs24  1  0.66349538  0.66317634  0.00262836  1
  Cs  Cs25  1  0.66622099  0.66534610  0.33233827  1
  Cs  Cs26  1  0.66686853  0.66744487  0.66440936  1
  Sn  Sn27  1  0.16644184  0.49967964  0.16705581  1
  Sn  Sn28  1  0.83422692  0.50014777  0.16573978  1
  Sn  Sn29  1  0.83336526  0.83304322  0.16673556  1
  Sn  Sn30  1  0.16637441  0.16691202  0.50046966  1
  Sn  Sn31  1  0.83348827  0.49977105  0.83369543  1
  Sn  Sn32  1  0.49969452  0.83249043  0.50061696  1
  Sn  Sn33  1  0.16692445  0.16662386  0.83306816  1
  Sn  Sn34  1  0.49943702  0.16617800  0.83410074  1
  Sn  Sn35  1  0.83351655  0.16658004  0.16673110  1
  Sn  Sn36  1  0.16682916  0.16740604  0.16651241  1
  Sn  Sn37  1  0.49970272  0.16702179  0.16585799  1
  Sn  Sn38  1  0.49904496  0.50067492  0.49982203  1
  Sn  Sn39  1  0.49989917  0.83381651  0.83282874  1
  Sn  Sn40  1  0.16751447  0.49952322  0.49938706  1
  Pb  Pb41  1  0.83044949  0.83357512  0.49751747  1
  Pb  Pb42  1  0.49840871  0.16684045  0.50030112  1
  Pb  Pb43  1  0.83056765  0.83084279  0.83569397  1
  Pb  Pb44  1  0.49947618  0.49762785  0.16864966  1
  Pb  Pb45  1  0.50178612  0.83569634  0.16654410  1
  Pb  Pb46  1  0.83427234  0.49999280  0.49963030  1
  Pb  Pb47  1  0.83322171  0.16818836  0.83507080  1
  Pb  Pb48  1  0.16913060  0.83634383  0.83352968  1
  Pb  Pb49  1  0.16479456  0.49814193  0.83314500  1
  Pb  Pb50  1  0.16877926  0.83299782  0.50002474  1
  Pb  Pb51  1  0.50191453  0.49910930  0.83091603  1
  Pb  Pb52  1  0.16473383  0.83284553  0.16647750  1
  Pb  Pb53  1  0.83718320  0.16651484  0.49719933  1
  I  I54  1  0.16613357  0.00376771  0.16788191  1
  I  I55  1  0.16870020  0.00318273  0.49702815  1
  I  I56  1  0.16690889  0.00498483  0.83476957  1
  I  I57  1  0.16244392  0.33232838  0.16778270  1
  I  I58  1  0.17305926  0.33351001  0.49786473  1
  I  I59  1  0.17313949  0.32978841  0.83445395  1
  I  I60  1  0.16195431  0.66293597  0.17228920  1
  I  I61  1  0.16830517  0.66315484  0.49391300  1
  I  I62  1  0.16669089  0.66645843  0.83366002  1
  I  I63  1  0.49916013  0.00406073  0.16806063  1
  I  I64  1  0.49897771  -0.00175541  0.50011073  1
  I  I65  1  0.49669220  0.00110948  0.83165272  1
  I  I66  1  0.50347972  0.32936178  0.16235123  1
  I  I67  1  0.49817057  0.33548376  0.49928342  1
  I  I68  1  0.49708514  0.33010850  0.83672728  1
  I  I69  1  0.50087272  0.66649383  0.16534491  1
  I  I70  1  0.49519315  0.66631245  0.50416935  1
  I  I71  1  0.50317307  0.66866441  0.83100239  1
  I  I72  1  0.83285658  0.00135071  0.16787536  1
  I  I73  1  0.83278414  0.00014511  0.49854385  1
  I  I74  1  0.83494230  0.00000511  0.83521820  1
  I  I75  1  0.83463227  0.33336397  0.16290738  1
  I  I76  1  0.82629989  0.33340250  0.49925016  1
  I  I77  1  0.83128059  0.33594216  0.83953164  1
  I  I78  1  0.83666798  0.66523982  0.16349208  1
  I  I79  1  0.83647514  0.66652258  0.49760829  1
  I  I80  1  0.83287325  0.66318629  0.83911098  1
  I  I81  1  0.16752431  0.17017342  0.00118494  1
  I  I82  1  0.16679047  0.17071274  0.33225522  1
  I  I83  1  0.17443329  0.17193955  0.66665247  1
  I  I84  1  0.16346471  0.49511841  0.00296954  1
  I  I85  1  0.16445110  0.49165522  0.33267075  1
  I  I86  1  0.16951633  0.49464856  0.66381264  1
  I  I87  1  0.16929568  0.83271561  0.00009820  1
  I  I88  1  0.16914142  0.83838857  0.33319647  1
  I  I89  1  0.16422807  0.83290503  0.66671424  1
  I  I90  1  0.49604756  0.16179585  0.00006279  1
  I  I91  1  0.50017052  0.16674599  0.33081819  1
  I  I92  1  0.49531458  0.16607332  0.66923643  1
  I  I93  1  0.49855826  0.50240019  0.00007812  1
  I  I94  1  0.50089063  0.50371940  0.33652908  1
  I  I95  1  0.49588741  0.49906298  0.66309056  1
  I  I96  1  0.50179209  0.83644576  -0.00240918  1
  I  I97  1  0.50155152  0.83111249  0.33561398  1
  I  I98  1  0.49948958  0.83598836  0.66680998  1
  I  I99  1  0.83696729  0.16569231  0.00379533  1
  I  I100  1  0.82991645  0.17047708  0.32836942  1
  I  I101  1  0.83235891  0.16921393  0.66680476  1
  I  I102  1  0.83740045  0.49916227  0.00235748  1
  I  I103  1  0.83412682  0.49903021  0.32976907  1
  I  I104  1  0.83190295  0.49883775  0.66889412  1
  I  I105  1  0.83126278  0.83645507  0.00355843  1
  I  I106  1  0.83198334  0.83137632  0.32935827  1
  I  I107  1  0.83441933  0.83124981  0.66698243  1
  I  I108  1  0.00064883  0.16788929  0.16708808  1
  I  I109  1  0.00531201  0.17488467  0.50040341  1
  I  I110  1  0.00272228  0.17047600  0.83467902  1
  I  I111  1  0.00009910  0.49499543  0.16864316  1
  I  I112  1  0.00342496  0.49381873  0.49743920  1
  I  I113  1  -0.00297258  0.49691354  0.83496404  1
  I  I114  1  -0.00342320  0.83797327  0.16655424  1
  I  I115  1  -0.00000817  0.83322060  0.49920576  1
  I  I116  1  -0.00040521  0.83406671  0.83361635  1
  I  I117  1  0.33235646  0.17052188  0.16633117  1
  I  I118  1  0.33038603  0.16783667  0.49490489  1
  I  I119  1  0.33352413  0.16407607  0.83861388  1
  I  I120  1  0.33034325  0.49444426  0.16926343  1
  I  I121  1  0.33247756  0.49917201  0.49500496  1
  I  I122  1  0.33337842  0.50159495  0.83552246  1
  I  I123  1  0.33374118  0.83392286  0.16698691  1
  I  I124  1  0.33691047  0.83267477  0.50171773  1
  I  I125  1  0.33737817  0.83311941  0.83128483  1
  I  I126  1  0.66672195  0.16643226  0.16207022  1
  I  I127  1  0.66653700  0.16720362  0.49911775  1
  I  I128  1  0.66373536  0.16437145  0.83780856  1
  I  I129  1  0.66927229  0.49862799  0.16478608  1
  I  I130  1  0.66431634  0.50382970  0.49981592  1
  I  I131  1  0.66957755  0.49863097  0.83993492  1
  I  I132  1  0.66981156  0.83248560  0.16700471  1
  I  I133  1  0.66237691  0.82799222  0.50318442  1
  I  I134  1  0.66285615  0.84111804  0.82935355  1
