# generated using pymatgen
data_Cs27Sn13Pb14I81
_symmetry_space_group_name_H-M   'P 1'
_cell_length_a   18.97485276
_cell_length_b   18.97975732
_cell_length_c   18.97539341
_cell_angle_alpha   90.00024592
_cell_angle_beta   89.99936775
_cell_angle_gamma   89.99846888
_symmetry_Int_Tables_number   1
_chemical_formula_structural   Cs27Sn13Pb14I81
_chemical_formula_sum   'Cs27 Sn13 Pb14 I81'
_cell_volume   6833.76213669
_cell_formula_units_Z   1
loop_
 _symmetry_equiv_pos_site_id
 _symmetry_equiv_pos_as_xyz
  1  'x, y, z'
loop_
 _atom_site_type_symbol
 _atom_site_label
 _atom_site_symmetry_multiplicity
 _atom_site_fract_x
 _atom_site_fract_y
 _atom_site_fract_z
 _atom_site_occupancy
  Cs  Cs0  1  0.00142031  -0.00182539  -0.00353231  1
  Cs  Cs1  1  0.00059954  -0.00373885  0.33528556  1
  Cs  Cs2  1  0.00590619  -0.00499794  0.66843240  1
  Cs  Cs3  1  -0.00029658  0.33595527  0.00509286  1
  Cs  Cs4  1  0.00020995  0.33524637  0.33154162  1
  Cs  Cs5  1  0.00037120  0.32985825  0.66504842  1
  Cs  Cs6  1  -0.00695725  0.66474503  -0.00005053  1
  Cs  Cs7  1  -0.00125671  0.66596696  0.33220545  1
  Cs  Cs8  1  -0.00103386  0.67485281  0.66757079  1
  Cs  Cs9  1  0.33298329  -0.00063404  0.00102072  1
  Cs  Cs10  1  0.33346831  -0.00065426  0.33115494  1
  Cs  Cs11  1  0.32991220  0.00098763  0.66786357  1
  Cs  Cs12  1  0.33188045  0.33467962  -0.00040634  1
  Cs  Cs13  1  0.33268675  0.33560130  0.33433270  1
  Cs  Cs14  1  0.33400706  0.33258728  0.66682097  1
  Cs  Cs15  1  0.33335625  0.66473088  0.00179457  1
  Cs  Cs16  1  0.33363885  0.66400316  0.33225811  1
  Cs  Cs17  1  0.33552113  0.66595409  0.66706070  1
  Cs  Cs18  1  0.66561119  0.00185547  0.00864041  1
  Cs  Cs19  1  0.66607234  0.00007491  0.32707893  1
  Cs  Cs20  1  0.66569598  0.00295833  0.66629498  1
  Cs  Cs21  1  0.67064193  0.33141181  -0.00310469  1
  Cs  Cs22  1  0.66647821  0.33026181  0.33652139  1
  Cs  Cs23  1  0.66563063  0.33331423  0.66647679  1
  Cs  Cs24  1  0.67426626  0.66732920  -0.00419349  1
  Cs  Cs25  1  0.66476806  0.67134301  0.33500422  1
  Cs  Cs26  1  0.66631006  0.66579039  0.66836738  1
  Sn  Sn27  1  0.50069858  0.49974146  0.16685137  1
  Sn  Sn28  1  0.50023333  0.49994463  0.49912572  1
  Sn  Sn29  1  0.16643580  0.50004482  0.50139265  1
  Sn  Sn30  1  0.50036635  0.16627509  0.50059852  1
  Sn  Sn31  1  0.50051191  0.16571883  0.83270529  1
  Sn  Sn32  1  0.16679666  0.83393525  0.16662960  1
  Sn  Sn33  1  0.16650430  0.49996090  0.83215388  1
  Sn  Sn34  1  0.83281535  0.16653550  0.83227983  1
  Sn  Sn35  1  0.83279569  0.16711224  0.50103349  1
  Sn  Sn36  1  0.83310105  0.49950928  0.50024542  1
  Sn  Sn37  1  0.16684042  0.16564041  0.16694422  1
  Sn  Sn38  1  0.49989227  0.83439829  0.83288707  1
  Sn  Sn39  1  0.49970373  0.83383859  0.50083250  1
  Pb  Pb40  1  0.83633521  0.83335772  0.16669660  1
  Pb  Pb41  1  0.16907399  0.83073390  0.83529917  1
  Pb  Pb42  1  0.83611854  0.49773849  0.83038007  1
  Pb  Pb43  1  0.83026616  0.83667206  0.83304314  1
  Pb  Pb44  1  0.16679150  0.16825268  0.83504410  1
  Pb  Pb45  1  0.83067121  0.83412374  0.50012289  1
  Pb  Pb46  1  0.83599955  0.16659645  0.16722437  1
  Pb  Pb47  1  0.82974122  0.49977163  0.16954551  1
  Pb  Pb48  1  0.49925119  0.49957595  0.83297231  1
  Pb  Pb49  1  0.16930565  0.83050774  0.49841068  1
  Pb  Pb50  1  0.49850330  0.16871846  0.16662376  1
  Pb  Pb51  1  0.16665665  0.16828493  0.49837277  1
  Pb  Pb52  1  0.16775875  0.50029448  0.16689585  1
  Pb  Pb53  1  0.49893829  0.83102054  0.16623407  1
  I  I54  1  0.16950717  0.00028305  0.16664555  1
  I  I55  1  0.16673568  -0.00011923  0.49917205  1
  I  I56  1  0.16539707  -0.00000224  0.83416744  1
  I  I57  1  0.16835137  0.33186573  0.16662372  1
  I  I58  1  0.17219295  0.33649549  0.49988986  1
  I  I59  1  0.17072077  0.33596036  0.83212129  1
  I  I60  1  0.17087075  0.66838119  0.16759540  1
  I  I61  1  0.16720772  0.66225029  0.50048784  1
  I  I62  1  0.17035895  0.66301588  0.83089718  1
  I  I63  1  0.49920191  0.00005188  0.16912487  1
  I  I64  1  0.50411763  0.00099420  0.50402365  1
  I  I65  1  0.50182364  0.00101147  0.82569860  1
  I  I66  1  0.49499183  0.33629190  0.17180914  1
  I  I67  1  0.50003108  0.33347708  0.49980373  1
  I  I68  1  0.50146553  0.33043368  0.83039589  1
  I  I69  1  0.49461584  0.66344454  0.17226331  1
  I  I70  1  0.49874050  0.66568930  0.49927561  1
  I  I71  1  0.49545391  0.66845690  0.83049174  1
  I  I72  1  0.82976925  0.00034629  0.16963667  1
  I  I73  1  0.82901425  0.00386066  0.50267042  1
  I  I74  1  0.83457777  0.00458370  0.82561907  1
  I  I75  1  0.83764993  0.33324552  0.16466977  1
  I  I76  1  0.82805974  0.33325999  0.50302284  1
  I  I77  1  0.82550528  0.32998204  0.83165624  1
  I  I78  1  0.83600664  0.66624339  0.16763266  1
  I  I79  1  0.83288572  0.66370925  0.49794944  1
  I  I80  1  0.83320859  0.66663507  0.83375658  1
  I  I81  1  0.16822033  0.16709336  0.00276277  1
  I  I82  1  0.16826678  0.16660408  0.33066596  1
  I  I83  1  0.16721939  0.16786975  0.66653615  1
  I  I84  1  0.17163864  0.49888536  -0.00170217  1
  I  I85  1  0.16686992  0.49945501  0.33628370  1
  I  I86  1  0.17136588  0.49790422  0.66522213  1
  I  I87  1  0.17109545  0.83533652  0.00291935  1
  I  I88  1  0.17007197  0.83534703  0.33068537  1
  I  I89  1  0.16615921  0.83320561  0.66663789  1
  I  I90  1  0.50244794  0.16412393  -0.00299265  1
  I  I91  1  0.50285644  0.16556357  0.33671819  1
  I  I92  1  0.50251316  0.16890936  0.66565813  1
  I  I93  1  0.49320597  0.49983936  0.00155489  1
  I  I94  1  0.49628206  0.49988514  0.33605957  1
  I  I95  1  0.50060447  0.49990427  0.66320832  1
  I  I96  1  0.49728123  0.83679566  -0.00276089  1
  I  I97  1  0.49882654  0.83421938  0.33626018  1
  I  I98  1  0.49907955  0.83099465  0.66571765  1
  I  I99  1  0.82874391  0.16597323  -0.00292541  1
  I  I100  1  0.82880963  0.17139073  0.33712144  1
  I  I101  1  0.82819897  0.17241534  0.66561985  1
  I  I102  1  0.83449262  0.49874376  -0.00032821  1
  I  I103  1  0.83913597  0.49306638  0.33791211  1
  I  I104  1  0.82632647  0.49774302  0.66239772  1
  I  I105  1  0.83032725  0.83415878  -0.00035988  1
  I  I106  1  0.83048105  0.83490711  0.33374726  1
  I  I107  1  0.83688609  0.83019279  0.66652875  1
  I  I108  1  0.00372192  0.16520848  0.16658681  1
  I  I109  1  -0.00288514  0.17300284  0.50218513  1
  I  I110  1  -0.00254955  0.17033516  0.83001300  1
  I  I111  1  -0.00017192  0.50023891  0.16725425  1
  I  I112  1  0.00000908  0.49353520  0.50356175  1
  I  I113  1  0.00381972  0.49788267  0.83104550  1
  I  I114  1  0.00446741  0.83593038  0.16745442  1
  I  I115  1  0.00020339  0.83283808  0.49742558  1
  I  I116  1  0.00008432  0.83356094  0.83544931  1
  I  I117  1  0.33083766  0.16536476  0.16687296  1
  I  I118  1  0.33671595  0.16854574  0.50288172  1
  I  I119  1  0.33649528  0.16522029  0.82957173  1
  I  I120  1  0.33551804  0.49958470  0.17314812  1
  I  I121  1  0.33446425  0.49966771  0.49903347  1
  I  I122  1  0.33142626  0.49768066  0.82859408  1
  I  I123  1  0.33119766  0.83572517  0.16736972  1
  I  I124  1  0.33758397  0.83380604  0.50272973  1
  I  I125  1  0.33694355  0.83949188  0.82901487  1
  I  I126  1  0.66658564  0.16870309  0.16644667  1
  I  I127  1  0.66531002  0.17234719  0.50335855  1
  I  I128  1  0.66533006  0.16483548  0.82944159  1
  I  I129  1  0.66195530  0.49967109  0.17080307  1
  I  I130  1  0.66550497  0.49880815  0.49460895  1
  I  I131  1  0.66690534  0.50201647  0.83464407  1
  I  I132  1  0.66628584  0.83161392  0.16702696  1
  I  I133  1  0.66223103  0.82750700  0.50269088  1
  I  I134  1  0.66214323  0.83054183  0.82941344  1
