# generated using pymatgen
data_Cs27Sn13Pb14I81
_symmetry_space_group_name_H-M   'P 1'
_cell_length_a   18.97256048
_cell_length_b   18.97620460
_cell_length_c   18.98135228
_cell_angle_alpha   90.00051641
_cell_angle_beta   90.00123524
_cell_angle_gamma   89.99724643
_symmetry_Int_Tables_number   1
_chemical_formula_structural   Cs27Sn13Pb14I81
_chemical_formula_sum   'Cs27 Sn13 Pb14 I81'
_cell_volume   6833.80290097
_cell_formula_units_Z   1
loop_
 _symmetry_equiv_pos_site_id
 _symmetry_equiv_pos_as_xyz
  1  'x, y, z'
loop_
 _atom_site_type_symbol
 _atom_site_label
 _atom_site_symmetry_multiplicity
 _atom_site_fract_x
 _atom_site_fract_y
 _atom_site_fract_z
 _atom_site_occupancy
  Cs  Cs0  1  0.00240710  0.00084446  0.00042883  1
  Cs  Cs1  1  0.00175217  0.00071990  0.33213043  1
  Cs  Cs2  1  -0.00121606  0.00084356  0.66656498  1
  Cs  Cs3  1  -0.00041583  0.33222690  -0.00044720  1
  Cs  Cs4  1  -0.00238816  0.33500737  0.33373977  1
  Cs  Cs5  1  0.00203382  0.33838643  0.66416350  1
  Cs  Cs6  1  -0.00357577  0.66841870  0.00336917  1
  Cs  Cs7  1  0.00149343  0.66313182  0.33085110  1
  Cs  Cs8  1  -0.00491704  0.66099067  0.66670415  1
  Cs  Cs9  1  0.33171652  0.00107829  0.00311743  1
  Cs  Cs10  1  0.33382228  -0.00024704  0.33208769  1
  Cs  Cs11  1  0.33184556  0.00195653  0.66509360  1
  Cs  Cs12  1  0.33379553  0.33201961  -0.00226668  1
  Cs  Cs13  1  0.33491686  0.33344243  0.33373187  1
  Cs  Cs14  1  0.33310492  0.33425470  0.66741705  1
  Cs  Cs15  1  0.33550991  0.66665224  -0.00078158  1
  Cs  Cs16  1  0.33198230  0.66656848  0.33409017  1
  Cs  Cs17  1  0.33530783  0.66235443  0.66786967  1
  Cs  Cs18  1  0.66521931  0.00164902  0.00105409  1
  Cs  Cs19  1  0.66421703  -0.00079855  0.33520624  1
  Cs  Cs20  1  0.67029919  -0.00377445  0.66465823  1
  Cs  Cs21  1  0.66709902  0.33322437  0.00042927  1
  Cs  Cs22  1  0.66628931  0.33316089  0.33375937  1
  Cs  Cs23  1  0.66494329  0.33123706  0.66535644  1
  Cs  Cs24  1  0.66875035  0.66528474  -0.00997395  1
  Cs  Cs25  1  0.66635623  0.66614292  0.33575345  1
  Cs  Cs26  1  0.67052664  0.67672621  0.67722306  1
  Sn  Sn27  1  0.49945950  0.50012739  0.16727169  1
  Sn  Sn28  1  0.83352332  0.83445760  0.16709051  1
  Sn  Sn29  1  0.16683289  0.83310214  0.83303852  1
  Sn  Sn30  1  0.16736516  0.16616097  0.49908372  1
  Sn  Sn31  1  0.50038394  0.49980022  0.49954489  1
  Sn  Sn32  1  0.16630599  0.83328482  0.16680843  1
  Sn  Sn33  1  0.16781366  0.49967659  0.16653187  1
  Sn  Sn34  1  0.49911170  0.16719456  0.50075230  1
  Sn  Sn35  1  0.16676426  0.83365987  0.50029337  1
  Sn  Sn36  1  0.50074125  0.16633195  0.83226267  1
  Sn  Sn37  1  0.16602346  0.16709971  0.16758595  1
  Sn  Sn38  1  0.83280244  0.16672377  0.83385383  1
  Sn  Sn39  1  0.83405958  0.16560151  0.16614780  1
  Pb  Pb40  1  0.83347150  0.49684978  0.83336801  1
  Pb  Pb41  1  0.83592186  0.83605582  0.83575701  1
  Pb  Pb42  1  0.16642835  0.16547039  0.83301730  1
  Pb  Pb43  1  0.16661523  0.50305213  0.83631891  1
  Pb  Pb44  1  0.82930741  0.50023558  0.50002912  1
  Pb  Pb45  1  0.16816692  0.49983839  0.49810150  1
  Pb  Pb46  1  0.83646898  0.83341379  0.49722771  1
  Pb  Pb47  1  0.83294264  0.49988649  0.16670394  1
  Pb  Pb48  1  0.50007166  0.16809359  0.16711945  1
  Pb  Pb49  1  0.49994754  0.49773712  0.83297453  1
  Pb  Pb50  1  0.50033236  0.83029182  0.16658341  1
  Pb  Pb51  1  0.49789585  0.83329386  0.49998111  1
  Pb  Pb52  1  0.49752225  0.83664930  0.83340862  1
  Pb  Pb53  1  0.83358701  0.16676059  0.49961195  1
  I  I54  1  0.16244602  0.00019514  0.16699665  1
  I  I55  1  0.17243224  0.00103380  0.49471802  1
  I  I56  1  0.16738191  -0.00235538  0.83865649  1
  I  I57  1  0.16631600  0.33209359  0.17122300  1
  I  I58  1  0.16841059  0.33013975  0.49574015  1
  I  I59  1  0.16665595  0.33314330  0.83397047  1
  I  I60  1  0.16628492  0.66765476  0.16703536  1
  I  I61  1  0.16808112  0.66930044  0.49761161  1
  I  I62  1  0.16737344  0.67119215  0.83243396  1
  I  I63  1  0.49751451  0.00017286  0.16664537  1
  I  I64  1  0.49750991  0.00336635  0.50322006  1
  I  I65  1  0.50355133  0.00464287  0.82850730  1
  I  I66  1  0.49536943  0.33584895  0.16755026  1
  I  I67  1  0.49360629  0.33189669  0.49959645  1
  I  I68  1  0.50157835  0.32951577  0.83287872  1
  I  I69  1  0.49459102  0.66248483  0.17353686  1
  I  I70  1  0.49711281  0.66372832  0.49278373  1
  I  I71  1  0.49915204  0.66677620  0.83328835  1
  I  I72  1  0.84222627  0.00103522  0.16301070  1
  I  I73  1  0.82839408  0.00027438  0.50122720  1
  I  I74  1  0.82945499  0.00372136  0.83583488  1
  I  I75  1  0.83711702  0.33000487  0.16297214  1
  I  I76  1  0.83889660  0.33296981  0.49779532  1
  I  I77  1  0.83106367  0.32845471  0.84158393  1
  I  I78  1  0.83862686  0.66945407  0.16840029  1
  I  I79  1  0.83478659  0.66689575  0.49677613  1
  I  I80  1  0.83344640  0.66732203  0.83485009  1
  I  I81  1  0.16665880  0.16543732  0.00300640  1
  I  I82  1  0.16745794  0.16220756  0.33239306  1
  I  I83  1  0.16792139  0.16155477  0.66388828  1
  I  I84  1  0.17280611  0.49741813  0.00503380  1
  I  I85  1  0.16851063  0.50366962  0.32980407  1
  I  I86  1  0.16838895  0.49946603  0.66641781  1
  I  I87  1  0.16330178  0.83427766  0.00178099  1
  I  I88  1  0.16360717  0.83468622  0.33222943  1
  I  I89  1  0.16965812  0.84131903  0.66583710  1
  I  I90  1  0.50015188  0.16803586  -0.00158927  1
  I  I91  1  0.49824214  0.16890680  0.33586759  1
  I  I92  1  0.49821828  0.17260283  0.66557386  1
  I  I93  1  0.49582314  0.49895651  0.00282172  1
  I  I94  1  0.49532820  0.49331097  0.33308742  1
  I  I95  1  0.49783743  0.49573038  0.66352598  1
  I  I96  1  0.49616118  0.83354070  0.00016200  1
  I  I97  1  0.49798483  0.83825145  0.33318166  1
  I  I98  1  0.49759716  0.82886632  0.66664528  1
  I  I99  1  0.83354248  0.16336166  0.00139547  1
  I  I100  1  0.83498391  0.16362351  0.32997329  1
  I  I101  1  0.83225937  0.16711695  0.66914868  1
  I  I102  1  0.83110713  0.50179000  0.00054563  1
  I  I103  1  0.83534500  0.49721925  0.33285653  1
  I  I104  1  0.83415270  0.49837216  0.66668486  1
  I  I105  1  0.84030874  0.83462962  0.00367642  1
  I  I106  1  0.83850311  0.84035882  0.32897623  1
  I  I107  1  0.83440890  0.83399964  0.66697501  1
  I  I108  1  0.00135225  0.16746852  0.16602226  1
  I  I109  1  0.00342319  0.16180737  0.49866420  1
  I  I110  1  -0.00216965  0.16374935  0.83627763  1
  I  I111  1  0.00309086  0.50060437  0.16647233  1
  I  I112  1  0.00027526  0.49894130  0.49863839  1
  I  I113  1  0.00029461  0.49697629  0.83464577  1
  I  I114  1  0.00204332  0.83261825  0.16644518  1
  I  I115  1  0.00498006  0.84146179  0.50115793  1
  I  I116  1  0.00370302  0.83734413  0.83284758  1
  I  I117  1  0.33030938  0.16382395  0.16689957  1
  I  I118  1  0.33273190  0.16629478  0.49974083  1
  I  I119  1  0.33536061  0.16545353  0.83282784  1
  I  I120  1  0.33227819  0.49968279  0.17023390  1
  I  I121  1  0.33608138  0.49771415  0.49681301  1
  I  I122  1  0.33326174  0.49755801  0.83340571  1
  I  I123  1  0.32951396  0.83669174  0.16704514  1
  I  I124  1  0.32929000  0.83589290  0.49493788  1
  I  I125  1  0.32941693  0.83586987  0.83787759  1
  I  I126  1  0.66921489  0.16406702  0.16547575  1
  I  I127  1  0.66367315  0.17188472  0.50011721  1
  I  I128  1  0.66656926  0.16769982  0.83502973  1
  I  I129  1  0.66369606  0.49781468  0.17135004  1
  I  I130  1  0.66121961  0.49030223  0.49007796  1
  I  I131  1  0.66641555  0.50239960  0.83658989  1
  I  I132  1  0.66978695  0.83872632  0.16664940  1
  I  I133  1  0.66674997  0.83346893  0.49802959  1
  I  I134  1  0.66704827  0.83165980  0.83518663  1
