# generated using pymatgen
data_Cs27Sn13Pb14I81
_symmetry_space_group_name_H-M   'P 1'
_cell_length_a   18.98200556
_cell_length_b   18.97703746
_cell_length_c   18.97107702
_cell_angle_alpha   89.99886536
_cell_angle_beta   89.99998042
_cell_angle_gamma   89.99994190
_symmetry_Int_Tables_number   1
_chemical_formula_structural   Cs27Sn13Pb14I81
_chemical_formula_sum   'Cs27 Sn13 Pb14 I81'
_cell_volume   6833.80367899
_cell_formula_units_Z   1
loop_
 _symmetry_equiv_pos_site_id
 _symmetry_equiv_pos_as_xyz
  1  'x, y, z'
loop_
 _atom_site_type_symbol
 _atom_site_label
 _atom_site_symmetry_multiplicity
 _atom_site_fract_x
 _atom_site_fract_y
 _atom_site_fract_z
 _atom_site_occupancy
  Cs  Cs0  1  0.00603818  0.00002083  0.00317701  1
  Cs  Cs1  1  -0.00472591  -0.00068833  0.33357801  1
  Cs  Cs2  1  -0.00122362  -0.00206480  0.66315935  1
  Cs  Cs3  1  0.00179830  0.33420644  -0.00320480  1
  Cs  Cs4  1  0.00183835  0.33363438  0.33338247  1
  Cs  Cs5  1  -0.00542060  0.33613010  0.66846783  1
  Cs  Cs6  1  -0.00130057  0.66535590  -0.00100563  1
  Cs  Cs7  1  -0.00075218  0.66591058  0.33130922  1
  Cs  Cs8  1  0.00628346  0.66404585  0.67007141  1
  Cs  Cs9  1  0.33378053  0.00235231  0.00033382  1
  Cs  Cs10  1  0.33290479  0.00244610  0.33269136  1
  Cs  Cs11  1  0.33190007  -0.00330332  0.66731584  1
  Cs  Cs12  1  0.33224188  0.32795373  0.00044837  1
  Cs  Cs13  1  0.33241894  0.33445181  0.33294147  1
  Cs  Cs14  1  0.33380592  0.33175969  0.66549743  1
  Cs  Cs15  1  0.33517827  0.66712400  0.00017368  1
  Cs  Cs16  1  0.33546098  0.66392975  0.33518822  1
  Cs  Cs17  1  0.33266128  0.67066565  0.66577630  1
  Cs  Cs18  1  0.66452960  -0.00373166  0.00049757  1
  Cs  Cs19  1  0.67044146  -0.00058700  0.33317567  1
  Cs  Cs20  1  0.66912658  0.00373860  0.66601544  1
  Cs  Cs21  1  0.66595300  0.33381703  -0.00161441  1
  Cs  Cs22  1  0.66584857  0.33514743  0.33290292  1
  Cs  Cs23  1  0.67122235  0.32904486  0.66986885  1
  Cs  Cs24  1  0.66614942  0.66852309  0.00057099  1
  Cs  Cs25  1  0.66542415  0.66580072  0.33422795  1
  Cs  Cs26  1  0.66258234  0.66715729  0.66911208  1
  Sn  Sn27  1  0.50107264  0.16590999  0.16763681  1
  Sn  Sn28  1  0.49943266  0.16663964  0.49904567  1
  Sn  Sn29  1  0.83293008  0.83341039  0.83334548  1
  Sn  Sn30  1  0.49914873  0.83391703  0.16660829  1
  Sn  Sn31  1  0.83373290  0.50039435  0.49938744  1
  Sn  Sn32  1  0.49966881  0.50034852  0.83348681  1
  Sn  Sn33  1  0.50095352  0.83251173  0.83414859  1
  Sn  Sn34  1  0.16609834  0.50081712  0.16713852  1
  Sn  Sn35  1  0.16711209  0.16742448  0.49976846  1
  Sn  Sn36  1  0.83249530  0.16773290  0.16636836  1
  Sn  Sn37  1  0.16599016  0.49907379  0.49912731  1
  Sn  Sn38  1  0.16779707  0.83218833  0.16709087  1
  Sn  Sn39  1  0.83386439  0.49909231  0.16720057  1
  Pb  Pb40  1  0.49987507  0.49977547  0.16533494  1
  Pb  Pb41  1  0.16715622  0.83333277  0.83596927  1
  Pb  Pb42  1  0.83309823  0.83286302  0.16551353  1
  Pb  Pb43  1  0.50018545  0.83604879  0.49977796  1
  Pb  Pb44  1  0.83347304  0.16867661  0.49791376  1
  Pb  Pb45  1  0.83337116  0.82987919  0.50290655  1
  Pb  Pb46  1  0.16636287  0.16674854  0.82936139  1
  Pb  Pb47  1  0.16665999  0.83290005  0.49710325  1
  Pb  Pb48  1  0.83345113  0.16377597  0.83667726  1
  Pb  Pb49  1  0.16666722  0.16704534  0.16819836  1
  Pb  Pb50  1  0.49992349  0.16581401  0.83349344  1
  Pb  Pb51  1  0.49992649  0.49774135  0.50242528  1
  Pb  Pb52  1  0.16930695  0.49981797  0.83332886  1
  Pb  Pb53  1  0.83145697  0.50166812  0.83373467  1
  I  I54  1  0.16734972  -0.00191303  0.16656227  1
  I  I55  1  0.17186519  0.00279492  0.49927218  1
  I  I56  1  0.16885871  -0.00025515  0.83512431  1
  I  I57  1  0.16633521  0.33611368  0.16918425  1
  I  I58  1  0.16799292  0.33438300  0.49271990  1
  I  I59  1  0.16981751  0.33363512  0.84001760  1
  I  I60  1  0.16643643  0.66565243  0.17145958  1
  I  I61  1  0.16240273  0.66312092  0.49846377  1
  I  I62  1  0.16609839  0.66659424  0.82914154  1
  I  I63  1  0.49949643  -0.00017959  0.16417376  1
  I  I64  1  0.49396858  0.00412373  0.50015422  1
  I  I65  1  0.50355581  -0.00327367  0.83549543  1
  I  I66  1  0.50052140  0.33078639  0.16832014  1
  I  I67  1  0.49818577  0.33011085  0.49432996  1
  I  I68  1  0.49957999  0.33528038  0.83376757  1
  I  I69  1  0.49939163  0.66900388  0.16299417  1
  I  I70  1  0.49961051  0.66644242  0.49855305  1
  I  I71  1  0.50375703  0.66793536  0.83905249  1
  I  I72  1  0.83245871  0.00198262  0.16490155  1
  I  I73  1  0.83393483  0.00025544  0.49950592  1
  I  I74  1  0.82486474  -0.00388681  0.83455941  1
  I  I75  1  0.83272547  0.33416687  0.17033079  1
  I  I76  1  0.83425357  0.33661273  0.49897005  1
  I  I77  1  0.83102897  0.33355932  0.83180897  1
  I  I78  1  0.83435784  0.66378473  0.16857740  1
  I  I79  1  0.83866468  0.66193722  0.49179238  1
  I  I80  1  0.82968602  0.66932402  0.83635719  1
  I  I81  1  0.16754936  0.16672142  0.00060796  1
  I  I82  1  0.16913745  0.16866807  0.33588550  1
  I  I83  1  0.17390295  0.17250006  0.66109783  1
  I  I84  1  0.16267139  0.50429945  0.00345319  1
  I  I85  1  0.16358995  0.50010272  0.33286978  1
  I  I86  1  0.16255924  0.49517580  0.66326530  1
  I  I87  1  0.16761463  0.82819605  0.00420011  1
  I  I88  1  0.17229436  0.83175456  0.32900544  1
  I  I89  1  0.16719617  0.83360357  0.66657189  1
  I  I90  1  0.50355976  0.16567794  0.00327092  1
  I  I91  1  0.49970298  0.16220693  0.33205362  1
  I  I92  1  0.49526073  0.16803718  0.66390731  1
  I  I93  1  0.50098927  0.50041698  -0.00231730  1
  I  I94  1  0.50035064  0.50205407  0.33334226  1
  I  I95  1  0.50000187  0.50535737  0.66991672  1
  I  I96  1  0.50007599  0.83503769  0.00090295  1
  I  I97  1  0.49614597  0.83515960  0.32982545  1
  I  I98  1  0.50358542  0.83027929  0.66975015  1
  I  I99  1  0.82692984  0.17365086  0.00485835  1
  I  I100  1  0.83149040  0.16651262  0.32985337  1
  I  I101  1  0.83267556  0.16761323  0.66642721  1
  I  I102  1  0.83673301  0.49766525  0.00325940  1
  I  I103  1  0.83653770  0.49681055  0.33219089  1
  I  I104  1  0.83705273  0.50119615  0.66413344  1
  I  I105  1  0.83049702  0.83118207  -0.00212023  1
  I  I106  1  0.83319652  0.83510725  0.33304417  1
  I  I107  1  0.82572818  0.83301729  0.67069561  1
  I  I108  1  -0.00210125  0.16632845  0.16796502  1
  I  I109  1  0.00253865  0.16866572  0.49804762  1
  I  I110  1  -0.00030450  0.16509026  0.83502875  1
  I  I111  1  0.00004247  0.50053719  0.17011240  1
  I  I112  1  0.00071455  0.49429119  0.49629213  1
  I  I113  1  -0.00005282  0.50216776  0.83312681  1
  I  I114  1  0.00205139  0.83301442  0.16518718  1
  I  I115  1  0.00007704  0.83965474  0.49991492  1
  I  I116  1  -0.00239764  0.83304462  0.83492043  1
  I  I117  1  0.33586347  0.16565439  0.16811366  1
  I  I118  1  0.33355102  0.17241791  0.49377115  1
  I  I119  1  0.33362881  0.16556770  0.83864038  1
  I  I120  1  0.33078381  0.50114697  0.16983222  1
  I  I121  1  0.33046081  0.49754350  0.49583025  1
  I  I122  1  0.33697470  0.50674302  0.83401784  1
  I  I123  1  0.33438181  0.83394674  0.16111913  1
  I  I124  1  0.33344986  0.82939693  0.50406366  1
  I  I125  1  0.33680055  0.82985768  0.83537472  1
  I  I126  1  0.66560343  0.16617134  0.17211982  1
  I  I127  1  0.66427815  0.16759667  0.49817449  1
  I  I128  1  0.66652506  0.16920523  0.82834905  1
  I  I129  1  0.66912310  0.49935686  0.16945403  1
  I  I130  1  0.66913471  0.49910395  0.49580066  1
  I  I131  1  0.66373997  0.50236542  0.83384003  1
  I  I132  1  0.66390662  0.83459636  0.16351115  1
  I  I133  1  0.66664363  0.83302727  0.49514503  1
  I  I134  1  0.66497819  0.82902289  0.84055624  1
