# generated using pymatgen
data_Cs27Sn13Pb14I81
_symmetry_space_group_name_H-M   'P 1'
_cell_length_a   18.97254532
_cell_length_b   18.98161989
_cell_length_c   18.97776597
_cell_angle_alpha   90.00013405
_cell_angle_beta   89.99834588
_cell_angle_gamma   89.99847017
_symmetry_Int_Tables_number   1
_chemical_formula_structural   Cs27Sn13Pb14I81
_chemical_formula_sum   'Cs27 Sn13 Pb14 I81'
_cell_volume   6834.45609039
_cell_formula_units_Z   1
loop_
 _symmetry_equiv_pos_site_id
 _symmetry_equiv_pos_as_xyz
  1  'x, y, z'
loop_
 _atom_site_type_symbol
 _atom_site_label
 _atom_site_symmetry_multiplicity
 _atom_site_fract_x
 _atom_site_fract_y
 _atom_site_fract_z
 _atom_site_occupancy
  Cs  Cs0  1  -0.00175670  -0.00184617  0.00093968  1
  Cs  Cs1  1  -0.00104558  0.00124385  0.33174650  1
  Cs  Cs2  1  -0.00088655  -0.00143946  0.66712593  1
  Cs  Cs3  1  0.00008728  0.33450636  0.00018361  1
  Cs  Cs4  1  0.00119961  0.33507212  0.33592774  1
  Cs  Cs5  1  0.00254349  0.33885801  0.66367638  1
  Cs  Cs6  1  0.00152687  0.66709004  -0.00338898  1
  Cs  Cs7  1  -0.00026766  0.66413750  0.33221298  1
  Cs  Cs8  1  0.00715059  0.65998739  0.67310144  1
  Cs  Cs9  1  0.33454692  0.00314114  0.00169888  1
  Cs  Cs10  1  0.33065508  -0.00275682  0.33235651  1
  Cs  Cs11  1  0.33372712  -0.00181641  0.66469085  1
  Cs  Cs12  1  0.33464947  0.33093248  0.00097395  1
  Cs  Cs13  1  0.33011332  0.32964666  0.33077819  1
  Cs  Cs14  1  0.33666507  0.33373776  0.66801658  1
  Cs  Cs15  1  0.33188042  0.66584523  0.00142090  1
  Cs  Cs16  1  0.33458818  0.67319105  0.33233360  1
  Cs  Cs17  1  0.32979831  0.66800500  0.66534995  1
  Cs  Cs18  1  0.66813775  0.00037773  -0.00163474  1
  Cs  Cs19  1  0.66840338  -0.00198840  0.33517158  1
  Cs  Cs20  1  0.66691322  0.00219863  0.66662075  1
  Cs  Cs21  1  0.66513979  0.33413361  0.00093785  1
  Cs  Cs22  1  0.66756643  0.33622089  0.33483348  1
  Cs  Cs23  1  0.66388969  0.33110944  0.66555158  1
  Cs  Cs24  1  0.66779306  0.66354001  0.00093377  1
  Cs  Cs25  1  0.66610105  0.66678329  0.33108923  1
  Cs  Cs26  1  0.66655706  0.66517309  0.66806913  1
  Sn  Sn27  1  0.83267662  0.16595315  0.50010570  1
  Sn  Sn28  1  0.50011365  0.83344524  0.83348500  1
  Sn  Sn29  1  0.50049082  0.16712971  0.50032683  1
  Sn  Sn30  1  0.83373942  0.16677372  0.83294577  1
  Sn  Sn31  1  0.83404945  0.83401233  0.16734606  1
  Sn  Sn32  1  0.49997223  0.49941280  0.50028110  1
  Sn  Sn33  1  0.49999457  0.16651904  0.83262240  1
  Sn  Sn34  1  0.16580135  0.83283321  0.16656512  1
  Sn  Sn35  1  0.83299445  0.16627424  0.16690729  1
  Sn  Sn36  1  0.16652450  0.16639769  0.83284812  1
  Sn  Sn37  1  0.16669017  0.50072125  0.16679891  1
  Sn  Sn38  1  0.50008812  0.50004156  0.83266210  1
  Sn  Sn39  1  0.83366309  0.83337211  0.50008811  1
  Pb  Pb40  1  0.83531092  0.50040368  0.16665337  1
  Pb  Pb41  1  0.17009975  0.50004083  0.49767065  1
  Pb  Pb42  1  0.16893377  0.83554604  0.83545583  1
  Pb  Pb43  1  0.16401551  0.16623470  0.16484782  1
  Pb  Pb44  1  0.16933373  0.49773106  0.83503358  1
  Pb  Pb45  1  0.16653177  0.16651853  0.50243232  1
  Pb  Pb46  1  0.83106524  0.49708516  0.83317503  1
  Pb  Pb47  1  0.50085325  0.83352790  0.16443201  1
  Pb  Pb48  1  0.16326245  0.83344943  0.49790100  1
  Pb  Pb49  1  0.50268562  0.16653045  0.16747787  1
  Pb  Pb50  1  0.83142205  0.50025097  0.50012446  1
  Pb  Pb51  1  0.50205383  0.83363261  0.50199062  1
  Pb  Pb52  1  0.83192295  0.83471212  0.83316306  1
  Pb  Pb53  1  0.49785385  0.49983738  0.16717959  1
  I  I54  1  0.16428533  -0.00252853  0.16462543  1
  I  I55  1  0.17277336  0.00011377  0.49771426  1
  I  I56  1  0.16898298  0.00355665  0.83602022  1
  I  I57  1  0.16714568  0.33494704  0.16447233  1
  I  I58  1  0.16203957  0.33316518  0.49630615  1
  I  I59  1  0.16760832  0.32978485  0.83674640  1
  I  I60  1  0.16149668  0.66767334  0.16594103  1
  I  I61  1  0.16718414  0.66674263  0.50224526  1
  I  I62  1  0.16860679  0.66666366  0.83344458  1
  I  I63  1  0.49447538  0.00007864  0.16512336  1
  I  I64  1  0.50289713  0.00311452  0.50518020  1
  I  I65  1  0.50065983  0.00190019  0.83079947  1
  I  I66  1  0.49906558  0.33309148  0.16190727  1
  I  I67  1  0.50618659  0.33185714  0.50874480  1
  I  I68  1  0.50027882  0.33196450  0.82960592  1
  I  I69  1  0.50402339  0.66671309  0.16586612  1
  I  I70  1  0.50115650  0.66434920  0.50448988  1
  I  I71  1  0.50060880  0.66618296  0.83021749  1
  I  I72  1  0.83870340  0.00025747  0.16679564  1
  I  I73  1  0.82722543  0.00168160  0.49895787  1
  I  I74  1  0.82969245  0.00362412  0.83414329  1
  I  I75  1  0.83373202  0.33011972  0.16628370  1
  I  I76  1  0.83097134  0.32970114  0.49965094  1
  I  I77  1  0.83146724  0.32808873  0.83408929  1
  I  I78  1  0.83398597  0.67018069  0.17166183  1
  I  I79  1  0.83019416  0.66976495  0.49216071  1
  I  I80  1  0.83012072  0.66670532  0.83465852  1
  I  I81  1  0.16910262  0.16679516  -0.00312278  1
  I  I82  1  0.16777289  0.16689215  0.33314572  1
  I  I83  1  0.16394403  0.16715890  0.67058350  1
  I  I84  1  0.16829682  0.50342760  0.00275122  1
  I  I85  1  0.16746561  0.50200346  0.32974637  1
  I  I86  1  0.16499594  0.49876441  0.66684155  1
  I  I87  1  0.15960921  0.83017444  0.00336046  1
  I  I88  1  0.16785502  0.83149452  0.32945038  1
  I  I89  1  0.16631999  0.83430719  0.66699096  1
  I  I90  1  0.50072644  0.16778982  -0.00335300  1
  I  I91  1  0.50428998  0.17199754  0.33700025  1
  I  I92  1  0.50465618  0.16749792  0.66784051  1
  I  I93  1  0.49922869  0.49790938  -0.00309465  1
  I  I94  1  0.49993764  0.49398653  0.33661870  1
  I  I95  1  0.50088837  0.49717234  0.66745520  1
  I  I96  1  0.50173640  0.83490607  -0.00370033  1
  I  I97  1  0.49814425  0.83313812  0.33347411  1
  I  I98  1  0.50237513  0.83506196  0.66994566  1
  I  I99  1  0.83294559  0.16286809  -0.00036199  1
  I  I100  1  0.82870974  0.16246371  0.33383314  1
  I  I101  1  0.83055273  0.16218494  0.66650312  1
  I  I102  1  0.82988648  0.49879857  -0.00003715  1
  I  I103  1  0.83055758  0.49497839  0.33332126  1
  I  I104  1  0.83635435  0.50193706  0.66667152  1
  I  I105  1  0.83533582  0.83848671  0.00278058  1
  I  I106  1  0.83559533  0.84233541  0.33272223  1
  I  I107  1  0.82839131  0.83953180  0.66414562  1
  I  I108  1  -0.00406904  0.16537158  0.16663183  1
  I  I109  1  -0.00374232  0.16227720  0.50028341  1
  I  I110  1  -0.00110407  0.16497013  0.83501868  1
  I  I111  1  0.00304508  0.50016445  0.16590405  1
  I  I112  1  0.00015256  0.49871699  0.49837904  1
  I  I113  1  0.00036164  0.49839984  0.83461730  1
  I  I114  1  -0.00107243  0.83452795  0.16969241  1
  I  I115  1  -0.00487274  0.84235675  0.49902322  1
  I  I116  1  -0.00004572  0.83622697  0.83238046  1
  I  I117  1  0.33313808  0.16645020  0.16548688  1
  I  I118  1  0.33676803  0.17117134  0.50515122  1
  I  I119  1  0.33510022  0.16724550  0.83037059  1
  I  I120  1  0.33012678  0.50573611  0.16563238  1
  I  I121  1  0.33810624  0.49297503  0.50517535  1
  I  I122  1  0.33745646  0.49681298  0.83044601  1
  I  I123  1  0.33082441  0.82900320  0.16397728  1
  I  I124  1  0.33358376  0.83387448  0.49883129  1
  I  I125  1  0.33707580  0.83622945  0.83437562  1
  I  I126  1  0.67085105  0.16079699  0.16177517  1
  I  I127  1  0.66688529  0.16664053  0.50465541  1
  I  I128  1  0.66617127  0.16646934  0.83305567  1
  I  I129  1  0.66654711  0.50022405  0.16578974  1
  I  I130  1  0.66327433  0.49725179  0.50367066  1
  I  I131  1  0.66253751  0.49811379  0.83141799  1
  I  I132  1  0.67025905  0.83862957  0.16925279  1
  I  I133  1  0.66985449  0.83615700  0.49296462  1
  I  I134  1  0.66372559  0.83617967  0.83543980  1
