# generated using pymatgen
data_Cs27Sn14Pb13I81
_symmetry_space_group_name_H-M   'P 1'
_cell_length_a   18.96853852
_cell_length_b   18.97931459
_cell_length_c   18.97887976
_cell_angle_alpha   90.00106743
_cell_angle_beta   90.00074928
_cell_angle_gamma   90.00116198
_symmetry_Int_Tables_number   1
_chemical_formula_structural   Cs27Sn14Pb13I81
_chemical_formula_sum   'Cs27 Sn14 Pb13 I81'
_cell_volume   6832.58383726
_cell_formula_units_Z   1
loop_
 _symmetry_equiv_pos_site_id
 _symmetry_equiv_pos_as_xyz
  1  'x, y, z'
loop_
 _atom_site_type_symbol
 _atom_site_label
 _atom_site_symmetry_multiplicity
 _atom_site_fract_x
 _atom_site_fract_y
 _atom_site_fract_z
 _atom_site_occupancy
  Cs  Cs0  1  -0.00235549  -0.00223467  -0.00067824  1
  Cs  Cs1  1  0.00075194  -0.00117574  0.33347270  1
  Cs  Cs2  1  -0.00220373  0.00074811  0.66720986  1
  Cs  Cs3  1  0.00166117  0.33542843  0.00173719  1
  Cs  Cs4  1  -0.00095309  0.33434150  0.33207495  1
  Cs  Cs5  1  -0.00121764  0.33295747  0.66552207  1
  Cs  Cs6  1  0.00002050  0.66575991  0.00066174  1
  Cs  Cs7  1  0.00092023  0.66567073  0.33261494  1
  Cs  Cs8  1  0.00243886  0.66627869  0.66664088  1
  Cs  Cs9  1  0.33240694  0.00376161  -0.00194578  1
  Cs  Cs10  1  0.33658808  0.00144063  0.33450130  1
  Cs  Cs11  1  0.33239272  0.00008784  0.66635509  1
  Cs  Cs12  1  0.33381711  0.33183474  0.00015449  1
  Cs  Cs13  1  0.33253517  0.32851827  0.32847950  1
  Cs  Cs14  1  0.33249335  0.33094741  0.66887224  1
  Cs  Cs15  1  0.33099119  0.66361165  -0.00380000  1
  Cs  Cs16  1  0.33746586  0.67106721  0.33736952  1
  Cs  Cs17  1  0.33341584  0.66927488  0.66690049  1
  Cs  Cs18  1  0.67051355  -0.00535995  -0.00002793  1
  Cs  Cs19  1  0.66513927  -0.00493630  0.32946093  1
  Cs  Cs20  1  0.67027853  0.00451107  0.66996754  1
  Cs  Cs21  1  0.66524772  0.33618150  0.00156190  1
  Cs  Cs22  1  0.66922038  0.33584848  0.33601175  1
  Cs  Cs23  1  0.66769279  0.33210816  0.66206111  1
  Cs  Cs24  1  0.66718589  0.66848067  0.00297221  1
  Cs  Cs25  1  0.65849186  0.66988377  0.33558730  1
  Cs  Cs26  1  0.66291652  0.66233696  0.66262558  1
  Sn  Sn27  1  0.16671456  0.16669304  0.83258626  1
  Sn  Sn28  1  0.83361083  0.83315518  0.50033677  1
  Sn  Sn29  1  0.16706872  0.83354696  0.83422060  1
  Sn  Sn30  1  0.83389926  0.49993799  0.83375795  1
  Sn  Sn31  1  0.83397120  0.49932316  0.16599664  1
  Sn  Sn32  1  0.49953583  0.16579121  0.83269546  1
  Sn  Sn33  1  0.83352213  0.16731763  0.16638104  1
  Sn  Sn34  1  0.49944318  0.83413231  0.83335131  1
  Sn  Sn35  1  0.49937961  0.16675415  0.50068309  1
  Sn  Sn36  1  0.16651034  0.50110873  0.16688111  1
  Sn  Sn37  1  0.16677559  0.49912856  0.49991141  1
  Sn  Sn38  1  0.16707700  0.16745280  0.50066200  1
  Sn  Sn39  1  0.16580619  0.49975418  0.83321429  1
  Sn  Sn40  1  0.16674268  0.83266043  0.16597197  1
  Pb  Pb41  1  0.83538594  0.50182612  0.49956370  1
  Pb  Pb42  1  0.16528099  0.16663573  0.16641670  1
  Pb  Pb43  1  0.49955949  0.50006884  0.16676643  1
  Pb  Pb44  1  0.16590283  0.83379194  0.50037675  1
  Pb  Pb45  1  0.49636832  0.49711090  0.50006470  1
  Pb  Pb46  1  0.83342736  0.83050946  0.83169545  1
  Pb  Pb47  1  0.49642721  0.83340086  0.16361448  1
  Pb  Pb48  1  0.50304322  0.16672649  0.16601458  1
  Pb  Pb49  1  0.83338968  0.16900633  0.83524864  1
  Pb  Pb50  1  0.49984012  0.49953139  0.83335541  1
  Pb  Pb51  1  0.50245989  0.83616319  0.50298013  1
  Pb  Pb52  1  0.83363037  0.16515853  0.49780697  1
  Pb  Pb53  1  0.83536426  0.83210247  0.16839478  1
  I  I54  1  0.16389608  -0.00211186  0.16352519  1
  I  I55  1  0.16832853  0.00293843  0.50255829  1
  I  I56  1  0.17133976  0.00019513  0.83331133  1
  I  I57  1  0.16421571  0.33608385  0.16482437  1
  I  I58  1  0.16879424  0.33307796  0.50313003  1
  I  I59  1  0.16694197  0.33340777  0.83309922  1
  I  I60  1  0.16022798  0.66547995  0.16325207  1
  I  I61  1  0.16221552  0.66430809  0.50196556  1
  I  I62  1  0.16667456  0.66631810  0.83394790  1
  I  I63  1  0.50101306  0.00009211  0.16923233  1
  I  I64  1  0.49171728  0.00368188  0.50111941  1
  I  I65  1  0.49138778  0.00073775  0.82976257  1
  I  I66  1  0.49514682  0.33313623  0.16368167  1
  I  I67  1  0.50105675  0.32927339  0.50825902  1
  I  I68  1  0.49619780  0.33001580  0.82990742  1
  I  I69  1  0.50547753  0.66689924  0.16560537  1
  I  I70  1  0.50076384  0.66689962  0.50044566  1
  I  I71  1  0.49600850  0.66913367  0.83457693  1
  I  I72  1  0.83506425  0.00141770  0.16897912  1
  I  I73  1  0.83685451  -0.00224547  0.49885927  1
  I  I74  1  0.83562797  -0.00000325  0.83428890  1
  I  I75  1  0.84006805  0.33480719  0.16402855  1
  I  I76  1  0.83151973  0.33346381  0.50089402  1
  I  I77  1  0.83856270  0.33674132  0.83389637  1
  I  I78  1  0.83747479  0.66325846  0.16276757  1
  I  I79  1  0.83715715  0.66916985  0.49973222  1
  I  I80  1  0.83856139  0.66289854  0.83935195  1
  I  I81  1  0.17003153  0.16874460  -0.00313984  1
  I  I82  1  0.16883030  0.16925821  0.33582985  1
  I  I83  1  0.16955884  0.16936756  0.66749785  1
  I  I84  1  0.16275088  0.50087837  -0.00065115  1
  I  I85  1  0.16164188  0.49957071  0.33279458  1
  I  I86  1  0.16253803  0.49982719  0.66779540  1
  I  I87  1  0.16883327  0.83058934  -0.00131604  1
  I  I88  1  0.16168777  0.83005188  0.33131372  1
  I  I89  1  0.16890316  0.83051899  0.66982548  1
  I  I90  1  0.49429299  0.16399789  -0.00366530  1
  I  I91  1  0.49467190  0.16789318  0.33609222  1
  I  I92  1  0.49563948  0.16288671  0.66768831  1
  I  I93  1  0.49611873  0.49715291  -0.00025353  1
  I  I94  1  0.50112503  0.49820569  0.33357990  1
  I  I95  1  0.50244794  0.50277191  0.66683732  1
  I  I96  1  0.50079342  0.84055802  -0.00430019  1
  I  I97  1  0.50042508  0.83433278  0.33355204  1
  I  I98  1  0.49154466  0.83366036  0.67047437  1
  I  I99  1  0.83493966  0.16748435  0.00283083  1
  I  I100  1  0.83525107  0.17302556  0.33030511  1
  I  I101  1  0.83325083  0.16710736  0.66683343  1
  I  I102  1  0.84205431  0.49661403  0.00023820  1
  I  I103  1  0.83940210  0.49647491  0.33032657  1
  I  I104  1  0.83824031  0.50223885  0.66903375  1
  I  I105  1  0.83140552  0.83509876  -0.00012637  1
  I  I106  1  0.83712698  0.83341039  0.33579650  1
  I  I107  1  0.83700124  0.83341817  0.66447808  1
  I  I108  1  -0.00225593  0.16849396  0.16700790  1
  I  I109  1  0.00320611  0.16907457  0.50393214  1
  I  I110  1  0.00339906  0.16413697  0.82959946  1
  I  I111  1  0.00125161  0.49940051  0.16507072  1
  I  I112  1  0.00371542  0.49380765  0.50086983  1
  I  I113  1  0.00223023  0.50000710  0.83423588  1
  I  I114  1  0.00330774  0.83230000  0.16002637  1
  I  I115  1  -0.00150121  0.83554974  0.50175442  1
  I  I116  1  0.00342313  0.83574762  0.83558456  1
  I  I117  1  0.33317673  0.16676387  0.16731536  1
  I  I118  1  0.33189877  0.17018673  0.50350418  1
  I  I119  1  0.33169649  0.16783908  0.83037367  1
  I  I120  1  0.32887728  0.50321532  0.16450064  1
  I  I121  1  0.32801527  0.50167265  0.50163907  1
  I  I122  1  0.32951243  0.50020402  0.83420812  1
  I  I123  1  0.32834597  0.82745195  0.16773202  1
  I  I124  1  0.33337458  0.83113476  0.49758304  1
  I  I125  1  0.33137477  0.83163182  0.83642041  1
  I  I126  1  0.67075347  0.17321402  0.16716696  1
  I  I127  1  0.66423619  0.16364725  0.50457984  1
  I  I128  1  0.66392304  0.16312685  0.83006954  1
  I  I129  1  0.67025877  0.49510823  0.16068550  1
  I  I130  1  0.66669885  0.50027343  0.50025705  1
  I  I131  1  0.66953121  0.50055558  0.83906188  1
  I  I132  1  0.66667342  0.83365587  0.16704454  1
  I  I133  1  0.66978581  0.83333982  0.49967997  1
  I  I134  1  0.66429731  0.83808508  0.83011163  1
