# generated using pymatgen
data_Cs27Sn14Pb13I81
_symmetry_space_group_name_H-M   'P 1'
_cell_length_a   18.98257065
_cell_length_b   18.97012301
_cell_length_c   18.97400770
_cell_angle_alpha   90.00152880
_cell_angle_beta   90.00124491
_cell_angle_gamma   89.99866768
_symmetry_Int_Tables_number   1
_chemical_formula_structural   Cs27Sn14Pb13I81
_chemical_formula_sum   'Cs27 Sn14 Pb13 I81'
_cell_volume   6832.57242973
_cell_formula_units_Z   1
loop_
 _symmetry_equiv_pos_site_id
 _symmetry_equiv_pos_as_xyz
  1  'x, y, z'
loop_
 _atom_site_type_symbol
 _atom_site_label
 _atom_site_symmetry_multiplicity
 _atom_site_fract_x
 _atom_site_fract_y
 _atom_site_fract_z
 _atom_site_occupancy
  Cs  Cs0  1  -0.00016477  -0.00115394  -0.00014841  1
  Cs  Cs1  1  -0.00126879  0.00279614  0.33098231  1
  Cs  Cs2  1  0.00585593  0.00116120  0.67062830  1
  Cs  Cs3  1  -0.00332874  0.33240386  0.00428512  1
  Cs  Cs4  1  -0.00171728  0.33183158  0.33161658  1
  Cs  Cs5  1  -0.00192454  0.33322408  0.66732147  1
  Cs  Cs6  1  0.00395018  0.66994237  -0.00086317  1
  Cs  Cs7  1  -0.00159335  0.66489674  0.33468068  1
  Cs  Cs8  1  0.00013319  0.66597882  0.66630686  1
  Cs  Cs9  1  0.33155507  -0.00030816  -0.00283626  1
  Cs  Cs10  1  0.33522024  0.00186451  0.33516731  1
  Cs  Cs11  1  0.33039483  -0.00035020  0.66743931  1
  Cs  Cs12  1  0.33869508  0.33859339  0.00112972  1
  Cs  Cs13  1  0.33384275  0.33392409  0.33397391  1
  Cs  Cs14  1  0.33422049  0.33104278  0.66392336  1
  Cs  Cs15  1  0.33199976  0.66382312  0.00054396  1
  Cs  Cs16  1  0.33454826  0.66394783  0.33290637  1
  Cs  Cs17  1  0.33121985  0.66903837  0.66616284  1
  Cs  Cs18  1  0.66804908  0.00031388  0.00165424  1
  Cs  Cs19  1  0.66621533  -0.00114897  0.33278632  1
  Cs  Cs20  1  0.66412252  -0.00086116  0.66637017  1
  Cs  Cs21  1  0.66638330  0.33451177  -0.00632384  1
  Cs  Cs22  1  0.66882895  0.33008294  0.33477677  1
  Cs  Cs23  1  0.66774743  0.33697807  0.67142748  1
  Cs  Cs24  1  0.66192489  0.66634973  0.00098618  1
  Cs  Cs25  1  0.66751855  0.67584816  0.33591160  1
  Cs  Cs26  1  0.67051338  0.66393763  0.66338749  1
  Sn  Sn27  1  0.16677071  0.83249646  0.83333877  1
  Sn  Sn28  1  0.16661320  0.83269958  0.49951557  1
  Sn  Sn29  1  0.50111426  0.16755713  0.49952323  1
  Sn  Sn30  1  0.49971046  0.49951962  0.49960644  1
  Sn  Sn31  1  0.16687684  0.83403094  0.16713701  1
  Sn  Sn32  1  0.49992370  0.83320188  0.83326482  1
  Sn  Sn33  1  0.83249209  0.16646555  0.49999181  1
  Sn  Sn34  1  0.83321517  0.83323213  0.83323311  1
  Sn  Sn35  1  0.16717073  0.16621857  0.16655692  1
  Sn  Sn36  1  0.50009700  0.16670931  0.16701324  1
  Sn  Sn37  1  0.16649433  0.50001412  0.83246711  1
  Sn  Sn38  1  0.16716415  0.50044719  0.50081425  1
  Sn  Sn39  1  0.83288813  0.50008399  0.16690842  1
  Sn  Sn40  1  0.83282441  0.16752493  0.16730443  1
  Pb  Pb41  1  0.83357842  0.49812850  0.49834893  1
  Pb  Pb42  1  0.50297735  0.49789377  0.16928248  1
  Pb  Pb43  1  0.49798678  0.83366251  0.50163852  1
  Pb  Pb44  1  0.49992229  0.16498342  0.83285809  1
  Pb  Pb45  1  0.83335091  0.16478877  0.83337969  1
  Pb  Pb46  1  0.83575342  0.50239471  0.83577177  1
  Pb  Pb47  1  0.83617297  0.83630345  0.50209817  1
  Pb  Pb48  1  0.49728903  0.83558469  0.16480565  1
  Pb  Pb49  1  0.16555713  0.49994072  0.16707761  1
  Pb  Pb50  1  0.49773557  0.50237040  0.83070235  1
  Pb  Pb51  1  0.16673535  0.16709585  0.49816347  1
  Pb  Pb52  1  0.83518550  0.83364956  0.16516387  1
  Pb  Pb53  1  0.16680598  0.16758929  0.83632121  1
  I  I54  1  0.16417906  -0.00018137  0.16636840  1
  I  I55  1  0.16643696  -0.00234832  0.50329970  1
  I  I56  1  0.16650507  -0.00333133  0.83068935  1
  I  I57  1  0.16696799  0.33062531  0.16731839  1
  I  I58  1  0.16757116  0.33597750  0.50317545  1
  I  I59  1  0.16647324  0.33656702  0.82848388  1
  I  I60  1  0.16348901  0.66924125  0.16519883  1
  I  I61  1  0.17192507  0.66666270  0.49918621  1
  I  I62  1  0.16658368  0.66840794  0.83526832  1
  I  I63  1  0.50497739  0.00383783  0.17327611  1
  I  I64  1  0.50227883  0.00298315  0.49706750  1
  I  I65  1  0.49533566  -0.00319021  0.83158856  1
  I  I66  1  0.49274129  0.32944018  0.16752124  1
  I  I67  1  0.49584151  0.33257933  0.49603688  1
  I  I68  1  0.49776780  0.33368406  0.83544791  1
  I  I69  1  0.50048683  0.66667387  0.16695009  1
  I  I70  1  0.49663964  0.66438407  0.50266936  1
  I  I71  1  0.50061237  0.67035911  0.83271445  1
  I  I72  1  0.83264941  0.00321446  0.16877626  1
  I  I73  1  0.82826653  0.00395630  0.49232796  1
  I  I74  1  0.83854151  -0.00328825  0.83544264  1
  I  I75  1  0.83820804  0.33129020  0.17016743  1
  I  I76  1  0.83545818  0.33002759  0.49743343  1
  I  I77  1  0.83556601  0.33357957  0.83252701  1
  I  I78  1  0.83774660  0.66472933  0.16473656  1
  I  I79  1  0.83084298  0.66683041  0.49834524  1
  I  I80  1  0.83320662  0.67031460  0.83475758  1
  I  I81  1  0.16500750  0.16148589  0.00458586  1
  I  I82  1  0.16580913  0.16247661  0.33013846  1
  I  I83  1  0.16662634  0.16339898  0.66646561  1
  I  I84  1  0.16406490  0.50420723  -0.00189927  1
  I  I85  1  0.16904923  0.50333536  0.33612439  1
  I  I86  1  0.16929243  0.50887255  0.66600584  1
  I  I87  1  0.16594876  0.83395987  -0.00077080  1
  I  I88  1  0.16639679  0.83372356  0.33336849  1
  I  I89  1  0.16666324  0.82929525  0.66725965  1
  I  I90  1  0.50031313  0.16366693  0.00308176  1
  I  I91  1  0.49987985  0.16906789  0.33344155  1
  I  I92  1  0.50438137  0.16906474  0.66304355  1
  I  I93  1  0.49901686  0.49921913  0.00002403  1
  I  I94  1  0.49092015  0.49929764  0.33696692  1
  I  I95  1  0.49906384  0.49239539  0.66290903  1
  I  I96  1  0.49739408  0.83531715  -0.00322034  1
  I  I97  1  0.49797889  0.83184980  0.33345718  1
  I  I98  1  0.49616723  0.83616600  0.66953336  1
  I  I99  1  0.83383186  0.16871344  0.00350114  1
  I  I100  1  0.83389734  0.16945582  0.33219175  1
  I  I101  1  0.82894877  0.16487674  0.66370598  1
  I  I102  1  0.83589436  0.49171434  0.00338545  1
  I  I103  1  0.83775049  0.49770436  0.33060281  1
  I  I104  1  0.83239025  0.49890178  0.66662076  1
  I  I105  1  0.83753867  0.83571897  -0.00278014  1
  I  I106  1  0.83567306  0.83186963  0.33342155  1
  I  I107  1  0.83626936  0.83447251  0.66994781  1
  I  I108  1  -0.00026570  0.16634768  0.17032511  1
  I  I109  1  -0.00184357  0.16568618  0.49506055  1
  I  I110  1  0.00020572  0.16300379  0.83245108  1
  I  I111  1  -0.00197875  0.49361082  0.16821337  1
  I  I112  1  0.00298897  0.50324327  0.50247592  1
  I  I113  1  0.00368481  0.50646779  0.82697608  1
  I  I114  1  0.00350561  0.83883042  0.16369917  1
  I  I115  1  0.00429812  0.82869182  0.50201238  1
  I  I116  1  0.00184825  0.83056936  0.83407720  1
  I  I117  1  0.33327807  0.16072948  0.17056587  1
  I  I118  1  0.33556937  0.16721791  0.49564130  1
  I  I119  1  0.33319006  0.16232471  0.83312596  1
  I  I120  1  0.33347677  0.49912490  0.16461881  1
  I  I121  1  0.33231421  0.49761055  0.50296409  1
  I  I122  1  0.32975129  0.50648326  0.83470248  1
  I  I123  1  0.32896995  0.83775903  0.16423473  1
  I  I124  1  0.32973063  0.83518187  0.50269885  1
  I  I125  1  0.33151449  0.83096625  0.83340108  1
  I  I126  1  0.66699704  0.17062382  0.17114055  1
  I  I127  1  0.66594407  0.17081902  0.49142549  1
  I  I128  1  0.66665065  0.16281652  0.83756825  1
  I  I129  1  0.67045480  0.49465241  0.16673765  1
  I  I130  1  0.66429062  0.49695220  0.49818119  1
  I  I131  1  0.66665470  0.50228521  0.83298006  1
  I  I132  1  0.66655977  0.83355017  0.16360689  1
  I  I133  1  0.66674735  0.83091022  0.50283208  1
  I  I134  1  0.66664899  0.83703184  0.83391306  1
