# generated using pymatgen
data_Cs27Sn13Pb14I81
_symmetry_space_group_name_H-M   'P 1'
_cell_length_a   18.97789199
_cell_length_b   18.97361747
_cell_length_c   18.97938492
_cell_angle_alpha   89.99837080
_cell_angle_beta   90.00093520
_cell_angle_gamma   89.99888021
_symmetry_Int_Tables_number   1
_chemical_formula_structural   Cs27Sn13Pb14I81
_chemical_formula_sum   'Cs27 Sn13 Pb14 I81'
_cell_volume   6834.08293126
_cell_formula_units_Z   1
loop_
 _symmetry_equiv_pos_site_id
 _symmetry_equiv_pos_as_xyz
  1  'x, y, z'
loop_
 _atom_site_type_symbol
 _atom_site_label
 _atom_site_symmetry_multiplicity
 _atom_site_fract_x
 _atom_site_fract_y
 _atom_site_fract_z
 _atom_site_occupancy
  Cs  Cs0  1  -0.00635212  0.00104210  0.00012070  1
  Cs  Cs1  1  -0.00068684  0.00178411  0.33207688  1
  Cs  Cs2  1  0.00113314  0.00288382  0.66950587  1
  Cs  Cs3  1  0.00062723  0.33179722  0.00276886  1
  Cs  Cs4  1  -0.00201172  0.33508400  0.33314415  1
  Cs  Cs5  1  -0.00579546  0.32872695  0.66619110  1
  Cs  Cs6  1  0.00189918  0.66697407  -0.00138576  1
  Cs  Cs7  1  0.00266785  0.66426146  0.33527392  1
  Cs  Cs8  1  -0.00026714  0.66671459  0.66514611  1
  Cs  Cs9  1  0.33240434  0.00015572  -0.00032560  1
  Cs  Cs10  1  0.33352677  -0.00032995  0.33418740  1
  Cs  Cs11  1  0.33412538  0.00159355  0.66628805  1
  Cs  Cs12  1  0.33539063  0.33417821  -0.00050053  1
  Cs  Cs13  1  0.33280038  0.33335734  0.33235499  1
  Cs  Cs14  1  0.33511377  0.32494885  0.66811021  1
  Cs  Cs15  1  0.33360636  0.66593220  0.00064276  1
  Cs  Cs16  1  0.33307594  0.66704894  0.33397576  1
  Cs  Cs17  1  0.33218541  0.66883880  0.66456298  1
  Cs  Cs18  1  0.67923662  -0.00230047  0.00350564  1
  Cs  Cs19  1  0.66869319  0.00131621  0.33012979  1
  Cs  Cs20  1  0.66304314  0.00313276  0.66812626  1
  Cs  Cs21  1  0.66338271  0.33546315  -0.00817819  1
  Cs  Cs22  1  0.67157256  0.33111690  0.33575971  1
  Cs  Cs23  1  0.67080877  0.32945771  0.67286660  1
  Cs  Cs24  1  0.66472449  0.66645395  -0.00132450  1
  Cs  Cs25  1  0.66246501  0.66791199  0.33375326  1
  Cs  Cs26  1  0.66881140  0.66541541  0.66629034  1
  Sn  Sn27  1  0.16775022  0.16669418  0.16693345  1
  Sn  Sn28  1  0.16771362  0.50021788  0.50081829  1
  Sn  Sn29  1  0.16757209  0.83240511  0.83315382  1
  Sn  Sn30  1  0.49948387  0.16661495  0.16658538  1
  Sn  Sn31  1  0.49984783  0.83256247  0.50077572  1
  Sn  Sn32  1  0.16687804  0.83347332  0.16660086  1
  Sn  Sn33  1  0.49917037  0.83321795  0.83306667  1
  Sn  Sn34  1  0.49919810  0.50001754  0.50016826  1
  Sn  Sn35  1  0.16695298  0.50039632  0.83261563  1
  Sn  Sn36  1  0.16619778  0.50003088  0.16661072  1
  Sn  Sn37  1  0.16664089  0.83283414  0.50020772  1
  Sn  Sn38  1  0.83345474  0.83333284  0.49991838  1
  Sn  Sn39  1  0.83345427  0.50069438  0.16650589  1
  Pb  Pb40  1  0.49739754  0.50210418  0.83028535  1
  Pb  Pb41  1  0.83622280  0.50048834  0.83574552  1
  Pb  Pb42  1  0.49965329  0.49828660  0.16862472  1
  Pb  Pb43  1  0.83333756  0.16353221  0.49983031  1
  Pb  Pb44  1  0.16659526  0.16692554  0.49782276  1
  Pb  Pb45  1  0.49982058  0.16664766  0.49818601  1
  Pb  Pb46  1  0.49976268  0.16311248  0.83640420  1
  Pb  Pb47  1  0.16670196  0.16645020  0.83605813  1
  Pb  Pb48  1  0.83616051  0.83068506  0.16886475  1
  Pb  Pb49  1  0.83335545  0.50160319  0.49860493  1
  Pb  Pb50  1  0.83369910  0.83302415  0.83075939  1
  Pb  Pb51  1  0.49821689  0.83490143  0.16661818  1
  Pb  Pb52  1  0.83340279  0.16669185  0.83344872  1
  Pb  Pb53  1  0.83335663  0.16953366  0.16670263  1
  I  I54  1  0.17194632  -0.00090003  0.16795246  1
  I  I55  1  0.16759766  -0.00383042  0.49981093  1
  I  I56  1  0.16997462  -0.00384278  0.83189512  1
  I  I57  1  0.16622469  0.33451807  0.16714057  1
  I  I58  1  0.17151626  0.33712740  0.49905422  1
  I  I59  1  0.16600131  0.33659931  0.83376051  1
  I  I60  1  0.16250226  0.66654802  0.16731141  1
  I  I61  1  0.16729655  0.66743127  0.49547406  1
  I  I62  1  0.16961639  0.66753731  0.83782855  1
  I  I63  1  0.49275267  0.00255293  0.16885918  1
  I  I64  1  0.49816180  -0.00387071  0.50265124  1
  I  I65  1  0.49129483  -0.00474199  0.82451574  1
  I  I66  1  0.49293489  0.33069316  0.16950322  1
  I  I67  1  0.49308629  0.33654048  0.49596213  1
  I  I68  1  0.49913036  0.33332201  0.83267328  1
  I  I69  1  0.49970468  0.66676420  0.16577645  1
  I  I70  1  0.49806920  0.66794149  0.50089302  1
  I  I71  1  0.49715825  0.67025514  0.83376230  1
  I  I72  1  0.83429255  -0.00021661  0.16771671  1
  I  I73  1  0.83467766  -0.00498988  0.49817223  1
  I  I74  1  0.83594483  -0.00072032  0.83444317  1
  I  I75  1  0.84141266  0.33692589  0.16950674  1
  I  I76  1  0.83381759  0.33373806  0.49780093  1
  I  I77  1  0.83458162  0.33391107  0.83308387  1
  I  I78  1  0.83982415  0.66330607  0.16763463  1
  I  I79  1  0.83480789  0.66966065  0.49859197  1
  I  I80  1  0.83204754  0.66684235  0.83480611  1
  I  I81  1  0.17018408  0.16693597  0.00436733  1
  I  I82  1  0.16985450  0.16576792  0.32952372  1
  I  I83  1  0.16607097  0.16637310  0.66678100  1
  I  I84  1  0.16195492  0.50304071  0.00078706  1
  I  I85  1  0.16643452  0.50288506  0.33325846  1
  I  I86  1  0.17128150  0.50983969  0.66580485  1
  I  I87  1  0.17191860  0.83016366  0.00004359  1
  I  I88  1  0.16699374  0.83104126  0.33374461  1
  I  I89  1  0.16689992  0.82618255  0.66594992  1
  I  I90  1  0.49298411  0.16808749  0.00395060  1
  I  I91  1  0.49449050  0.16409822  0.33048292  1
  I  I92  1  0.50081912  0.16774833  0.66687758  1
  I  I93  1  0.50000512  0.50019716  -0.00014106  1
  I  I94  1  0.49370895  0.50733426  0.33647244  1
  I  I95  1  0.49516252  0.50260636  0.66219888  1
  I  I96  1  0.49351260  0.83501301  -0.00243148  1
  I  I97  1  0.49835951  0.83120992  0.33650402  1
  I  I98  1  0.49482532  0.83005439  0.66534532  1
  I  I99  1  0.83435239  0.16438647  0.00074500  1
  I  I100  1  0.83356415  0.16624854  0.33291997  1
  I  I101  1  0.83359891  0.16812366  0.66644642  1
  I  I102  1  0.83917064  0.49997784  0.00387470  1
  I  I103  1  0.84100985  0.50062963  0.33080357  1
  I  I104  1  0.83429354  0.50094327  0.66654793  1
  I  I105  1  0.83290079  0.83395704  0.00017828  1
  I  I106  1  0.83240077  0.83236891  0.33659732  1
  I  I107  1  0.83862765  0.83083150  0.66289769  1
  I  I108  1  0.00336587  0.16465986  0.16668266  1
  I  I109  1  0.00028738  0.16707177  0.49686042  1
  I  I110  1  0.00068141  0.16399052  0.83566168  1
  I  I111  1  0.00321098  0.49861597  0.16917387  1
  I  I112  1  0.00367282  0.50487103  0.49998184  1
  I  I113  1  0.00502722  0.50742253  0.82913140  1
  I  I114  1  0.00492091  0.83777908  0.16589068  1
  I  I115  1  0.00208971  0.82900399  0.49873327  1
  I  I116  1  0.00395170  0.82992526  0.83341312  1
  I  I117  1  0.33145366  0.16832297  0.16788305  1
  I  I118  1  0.33313827  0.16276856  0.49942430  1
  I  I119  1  0.33317676  0.16784180  0.83285858  1
  I  I120  1  0.32950492  0.50178363  0.16582105  1
  I  I121  1  0.33167065  0.50881993  0.49615204  1
  I  I122  1  0.32919453  0.50262929  0.84034296  1
  I  I123  1  0.32939891  0.82851683  0.17070254  1
  I  I124  1  0.33237836  0.82959046  0.49979841  1
  I  I125  1  0.33167901  0.83009363  0.82917565  1
  I  I126  1  0.66409980  0.16609501  0.16826979  1
  I  I127  1  0.66640998  0.16713066  0.49507859  1
  I  I128  1  0.66613101  0.16529527  0.83642780  1
  I  I129  1  0.66863009  0.49809414  0.17074376  1
  I  I130  1  0.66395076  0.50581395  0.49524078  1
  I  I131  1  0.66630102  0.50098264  0.83466864  1
  I  I132  1  0.66675885  0.83470635  0.16692025  1
  I  I133  1  0.66536883  0.82880725  0.50389638  1
  I  I134  1  0.66361310  0.83478143  0.82897194  1
