# generated using pymatgen
data_Cs27Sn13Pb14I81
_symmetry_space_group_name_H-M   'P 1'
_cell_length_a   18.97378276
_cell_length_b   18.97274258
_cell_length_c   18.99053736
_cell_angle_alpha   90.00000002
_cell_angle_beta   89.99999998
_cell_angle_gamma   89.99874853
_symmetry_Int_Tables_number   1
_chemical_formula_structural   Cs27Sn13Pb14I81
_chemical_formula_sum   'Cs27 Sn13 Pb14 I81'
_cell_volume   6836.30281763
_cell_formula_units_Z   1
loop_
 _symmetry_equiv_pos_site_id
 _symmetry_equiv_pos_as_xyz
  1  'x, y, z'
loop_
 _atom_site_type_symbol
 _atom_site_label
 _atom_site_symmetry_multiplicity
 _atom_site_fract_x
 _atom_site_fract_y
 _atom_site_fract_z
 _atom_site_occupancy
  Cs  Cs0  1  0.00306971  0.00291775  -0.00162344  1
  Cs  Cs1  1  0.00306973  0.00291782  0.33495674  1
  Cs  Cs2  1  -0.00036269  0.00045496  0.66666671  1
  Cs  Cs3  1  -0.00129450  0.33239519  0.00158070  1
  Cs  Cs4  1  -0.00129456  0.33239522  0.33175270  1
  Cs  Cs5  1  0.00224183  0.33200767  0.66666676  1
  Cs  Cs6  1  -0.00094991  0.66578294  0.00228391  1
  Cs  Cs7  1  -0.00095007  0.66578287  0.33104942  1
  Cs  Cs8  1  -0.00054450  0.66732447  0.66666660  1
  Cs  Cs9  1  0.33304162  -0.00106769  -0.00224123  1
  Cs  Cs10  1  0.33304154  -0.00106780  0.33557459  1
  Cs  Cs11  1  0.33373009  0.00020583  0.66666664  1
  Cs  Cs12  1  0.33489709  0.33775420  0.00353467  1
  Cs  Cs13  1  0.33489716  0.33775424  0.32979866  1
  Cs  Cs14  1  0.33195985  0.33296351  0.66666659  1
  Cs  Cs15  1  0.33114468  0.66502184  -0.00156138  1
  Cs  Cs16  1  0.33114473  0.66502185  0.33489467  1
  Cs  Cs17  1  0.33355612  0.66451841  0.66666669  1
  Cs  Cs18  1  0.66539977  0.00045083  -0.00250305  1
  Cs  Cs19  1  0.66539982  0.00045088  0.33583647  1
  Cs  Cs20  1  0.66700108  -0.00077391  0.66666660  1
  Cs  Cs21  1  0.66652443  0.33302081  0.00407249  1
  Cs  Cs22  1  0.66652437  0.33302075  0.32926092  1
  Cs  Cs23  1  0.66548155  0.33269952  0.66666667  1
  Cs  Cs24  1  0.66804609  0.66687283  0.00083690  1
  Cs  Cs25  1  0.66804619  0.66687289  0.33249632  1
  Cs  Cs26  1  0.66697948  0.66853860  0.66666667  1
  Sn  Sn27  1  0.50066747  0.83344343  0.16666667  1
  Sn  Sn28  1  0.49901688  0.16607238  0.50077714  1
  Sn  Sn29  1  0.83309562  0.50103533  0.16666666  1
  Sn  Sn30  1  0.49933611  0.83378929  0.50016297  1
  Sn  Sn31  1  0.83314331  0.50006743  0.83310043  1
  Sn  Sn32  1  0.16733511  0.83386263  0.50104866  1
  Sn  Sn33  1  0.16733514  0.83386263  0.83228465  1
  Sn  Sn34  1  0.49933613  0.83378932  0.83317036  1
  Sn  Sn35  1  0.83281411  0.83370973  0.16666670  1
  Sn  Sn36  1  0.16797157  0.16592852  0.50074067  1
  Sn  Sn37  1  0.49901688  0.16607242  0.83255618  1
  Sn  Sn38  1  0.83314326  0.50006744  0.50023293  1
  Sn  Sn39  1  0.16797152  0.16592851  0.83259268  1
  Pb  Pb40  1  0.50190555  0.49980257  0.50020134  1
  Pb  Pb41  1  0.16696520  0.83344223  0.16666667  1
  Pb  Pb42  1  0.83362680  0.83204102  0.49819025  1
  Pb  Pb43  1  0.16429956  0.50008142  0.16666666  1
  Pb  Pb44  1  0.16719579  0.16645583  0.16666669  1
  Pb  Pb45  1  0.50186743  0.50304273  0.16666665  1
  Pb  Pb46  1  0.83362679  0.83204101  0.83514312  1
  Pb  Pb47  1  0.16471644  0.49986456  0.83319543  1
  Pb  Pb48  1  0.50190553  0.49980252  0.83313203  1
  Pb  Pb49  1  0.49977603  0.16406437  0.16666667  1
  Pb  Pb50  1  0.83312014  0.16876376  0.50014335  1
  Pb  Pb51  1  0.83321745  0.16571892  0.16666667  1
  Pb  Pb52  1  0.83312013  0.16876376  0.83318999  1
  Pb  Pb53  1  0.16471644  0.49986457  0.50013791  1
  I  I54  1  0.16084170  -0.00040554  0.16666664  1
  I  I55  1  0.16909140  -0.00058965  0.50331698  1
  I  I56  1  0.16909130  -0.00058963  0.83001629  1
  I  I57  1  0.16330388  0.33317173  0.16666662  1
  I  I58  1  0.16904793  0.32971786  0.50505307  1
  I  I59  1  0.16904824  0.32971784  0.82828030  1
  I  I60  1  0.16811075  0.66726042  0.16666655  1
  I  I61  1  0.17026157  0.67019585  0.50356773  1
  I  I62  1  0.17026131  0.67019584  0.82976561  1
  I  I63  1  0.50777389  -0.00417628  0.16666679  1
  I  I64  1  0.49774173  -0.00101668  0.49988081  1
  I  I65  1  0.49774158  -0.00101674  0.83345240  1
  I  I66  1  0.50245837  0.33320355  0.16666654  1
  I  I67  1  0.49731740  0.32969545  0.50585360  1
  I  I68  1  0.49731734  0.32969546  0.82747991  1
  I  I69  1  0.50207860  0.67147370  0.16666670  1
  I  I70  1  0.49721697  0.67044854  0.50044190  1
  I  I71  1  0.49721720  0.67044855  0.83289154  1
  I  I72  1  0.82929485  -0.00368202  0.16666650  1
  I  I73  1  0.83342984  -0.00008738  0.49762613  1
  I  I74  1  0.83343005  -0.00008738  0.83570731  1
  I  I75  1  0.83484647  0.33663449  0.16666662  1
  I  I76  1  0.83352061  0.33694145  0.49695225  1
  I  I77  1  0.83352041  0.33694146  0.83638107  1
  I  I78  1  0.82886063  0.66660231  0.16666690  1
  I  I79  1  0.83315574  0.66393003  0.50104635  1
  I  I80  1  0.83315583  0.66393002  0.83228680  1
  I  I81  1  0.16891627  0.16171250  -0.00393666  1
  I  I82  1  0.16891650  0.16171250  0.33726999  1
  I  I83  1  0.16969720  0.16283878  0.66666666  1
  I  I84  1  0.16342975  0.50055137  -0.00034470  1
  I  I85  1  0.16342952  0.50055143  0.33367797  1
  I  I86  1  0.16025925  0.50121960  0.66666665  1
  I  I87  1  0.16873609  0.83706516  -0.00328787  1
  I  I88  1  0.16873630  0.83706514  0.33662122  1
  I  I89  1  0.17261344  0.83617111  0.66666667  1
  I  I90  1  0.49722622  0.16306029  -0.00348229  1
  I  I91  1  0.49722616  0.16306062  0.33681567  1
  I  I92  1  0.49763045  0.15916239  0.66666666  1
  I  I93  1  0.50353576  0.49902869  -0.00014401  1
  I  I94  1  0.50353581  0.49902850  0.33347734  1
  I  I95  1  0.50658344  0.50508872  0.66666665  1
  I  I96  1  0.50108430  0.83661140  -0.00102625  1
  I  I97  1  0.50108427  0.83661121  0.33435961  1
  I  I98  1  0.49668751  0.83654943  0.66666668  1
  I  I99  1  0.83383309  0.16988446  -0.00024596  1
  I  I100  1  0.83383284  0.16988437  0.33357929  1
  I  I101  1  0.83299335  0.17022922  0.66666670  1
  I  I102  1  0.83348685  0.50461604  0.00058750  1
  I  I103  1  0.83348703  0.50461583  0.33274586  1
  I  I104  1  0.83342706  0.49937994  0.66666666  1
  I  I105  1  0.82939419  0.82645347  0.00298677  1
  I  I106  1  0.82939395  0.82645377  0.33034660  1
  I  I107  1  0.83108213  0.82932464  0.66666663  1
  I  I108  1  0.00015386  0.16588610  0.16666685  1
  I  I109  1  0.00340860  0.16305139  0.50417478  1
  I  I110  1  0.00340859  0.16305168  0.82915838  1
  I  I111  1  -0.00467203  0.50800224  0.16666657  1
  I  I112  1  -0.00347078  0.50085413  0.49890967  1
  I  I113  1  -0.00347077  0.50085375  0.83442380  1
  I  I114  1  -0.00261190  0.82683890  0.16666681  1
  I  I115  1  0.00314025  0.83610548  0.50338070  1
  I  I116  1  0.00314025  0.83610556  0.82995254  1
  I  I117  1  0.33361314  0.16503551  0.16666649  1
  I  I118  1  0.33357294  0.16183706  0.50452859  1
  I  I119  1  0.33357291  0.16183692  0.82880487  1
  I  I120  1  0.33366714  0.50015513  0.16666677  1
  I  I121  1  0.33335260  0.50075632  0.50025850  1
  I  I122  1  0.33335259  0.50075664  0.83307473  1
  I  I123  1  0.33655912  0.83575171  0.16666664  1
  I  I124  1  0.33397021  0.83646610  0.49793357  1
  I  I125  1  0.33397017  0.83646586  0.83539985  1
  I  I126  1  0.66632973  0.16904966  0.16666658  1
  I  I127  1  0.66306501  0.16257102  0.50415876  1
  I  I128  1  0.66306500  0.16257092  0.82917461  1
  I  I129  1  0.67041560  0.50151956  0.16666666  1
  I  I130  1  0.67009447  0.50089128  0.49920852  1
  I  I131  1  0.67009447  0.50089134  0.83412473  1
  I  I132  1  0.66590041  0.82862285  0.16666654  1
  I  I133  1  0.66347051  0.83598705  0.50224390  1
  I  I134  1  0.66347048  0.83598714  0.83108954  1
