# generated using pymatgen
data_Cs27Sn14Pb13I81
_symmetry_space_group_name_H-M   'P 1'
_cell_length_a   18.98925800
_cell_length_b   18.96692965
_cell_length_c   18.97059332
_cell_angle_alpha   90.00255497
_cell_angle_beta   90.00036952
_cell_angle_gamma   89.99979032
_symmetry_Int_Tables_number   1
_chemical_formula_structural   Cs27Sn14Pb13I81
_chemical_formula_sum   'Cs27 Sn14 Pb13 I81'
_cell_volume   6832.59914306
_cell_formula_units_Z   1
loop_
 _symmetry_equiv_pos_site_id
 _symmetry_equiv_pos_as_xyz
  1  'x, y, z'
loop_
 _atom_site_type_symbol
 _atom_site_label
 _atom_site_symmetry_multiplicity
 _atom_site_fract_x
 _atom_site_fract_y
 _atom_site_fract_z
 _atom_site_occupancy
  Cs  Cs0  1  -0.00440652  -0.00175001  0.00116452  1
  Cs  Cs1  1  -0.00048531  -0.00007551  0.33090622  1
  Cs  Cs2  1  -0.00181289  -0.00138689  0.66807684  1
  Cs  Cs3  1  0.00016318  0.33258834  -0.00067078  1
  Cs  Cs4  1  0.00858629  0.33450632  0.33189950  1
  Cs  Cs5  1  -0.00242657  0.33343076  0.66717989  1
  Cs  Cs6  1  -0.00011943  0.66848755  -0.00075398  1
  Cs  Cs7  1  0.00439159  0.66468771  0.33699647  1
  Cs  Cs8  1  -0.00101372  0.66784505  0.66421936  1
  Cs  Cs9  1  0.33648804  -0.00478312  0.00024484  1
  Cs  Cs10  1  0.33380380  0.00592660  0.33406217  1
  Cs  Cs11  1  0.33260898  0.00043423  0.66593174  1
  Cs  Cs12  1  0.33166331  0.33552063  -0.00262834  1
  Cs  Cs13  1  0.32647612  0.32569553  0.33205758  1
  Cs  Cs14  1  0.33446507  0.33068222  0.66899159  1
  Cs  Cs15  1  0.33459858  0.66660178  -0.00028650  1
  Cs  Cs16  1  0.33072637  0.66667980  0.33342337  1
  Cs  Cs17  1  0.33569941  0.66868177  0.66737815  1
  Cs  Cs18  1  0.66828482  -0.00682669  0.01000781  1
  Cs  Cs19  1  0.66599517  0.00169169  0.32731669  1
  Cs  Cs20  1  0.66864920  0.00192704  0.66596565  1
  Cs  Cs21  1  0.66743271  0.33512566  -0.00284982  1
  Cs  Cs22  1  0.66584287  0.33315503  0.33176093  1
  Cs  Cs23  1  0.66739381  0.33333103  0.66828874  1
  Cs  Cs24  1  0.66592838  0.66718604  0.00173593  1
  Cs  Cs25  1  0.66667763  0.66590067  0.33525241  1
  Cs  Cs26  1  0.66582297  0.66550051  0.66430737  1
  Sn  Sn27  1  0.50004593  0.83321757  0.50015081  1
  Sn  Sn28  1  0.83324847  0.49966233  0.83399698  1
  Sn  Sn29  1  0.16641120  0.16701535  0.83319897  1
  Sn  Sn30  1  0.83279275  0.16706026  0.83291618  1
  Sn  Sn31  1  0.16646372  0.49968312  0.83279457  1
  Sn  Sn32  1  0.83299749  0.83440348  0.50011867  1
  Sn  Sn33  1  0.50023776  0.49954612  0.83322229  1
  Sn  Sn34  1  0.50030312  0.49980845  0.16694585  1
  Sn  Sn35  1  0.83306641  0.49983793  0.16620797  1
  Sn  Sn36  1  0.16690320  0.83347229  0.49920266  1
  Sn  Sn37  1  0.50075853  0.16678640  0.83351311  1
  Sn  Sn38  1  0.83326887  0.16629836  0.50017835  1
  Sn  Sn39  1  0.49967055  0.49976229  0.49963084  1
  Sn  Sn40  1  0.16673728  0.83324814  0.16730979  1
  Pb  Pb41  1  0.49814775  0.83088368  0.16974565  1
  Pb  Pb42  1  0.50000066  0.16958704  0.16337922  1
  Pb  Pb43  1  0.16682588  0.50138562  0.16434865  1
  Pb  Pb44  1  0.83338945  0.16940438  0.16646518  1
  Pb  Pb45  1  0.50202552  0.16691646  0.50172923  1
  Pb  Pb46  1  0.83508502  0.83025495  0.16984845  1
  Pb  Pb47  1  0.83296997  0.83316992  0.83164773  1
  Pb  Pb48  1  0.16665252  0.16386859  0.16331430  1
  Pb  Pb49  1  0.50040635  0.83332835  0.83145921  1
  Pb  Pb50  1  0.16407139  0.16427918  0.50235355  1
  Pb  Pb51  1  0.16663767  0.83355525  0.83314329  1
  Pb  Pb52  1  0.83180072  0.49944812  0.49993539  1
  Pb  Pb53  1  0.16965326  0.50153460  0.50274954  1
  I  I54  1  0.16625852  -0.00386768  0.17020172  1
  I  I55  1  0.17236912  -0.00390366  0.49917938  1
  I  I56  1  0.16629405  0.00301427  0.83218376  1
  I  I57  1  0.16663135  0.33346190  0.16787686  1
  I  I58  1  0.16626185  0.33320673  0.49865223  1
  I  I59  1  0.16725749  0.33396071  0.83360774  1
  I  I60  1  0.16645895  0.66913806  0.16911481  1
  I  I61  1  0.16113303  0.66976394  0.49954913  1
  I  I62  1  0.16754515  0.66376409  0.83314837  1
  I  I63  1  0.49885446  -0.00016840  0.16552417  1
  I  I64  1  0.49781841  -0.00259876  0.50357684  1
  I  I65  1  0.49813549  0.00315682  0.82953749  1
  I  I66  1  0.50326640  0.33801026  0.17224009  1
  I  I67  1  0.50368268  0.33631541  0.50035866  1
  I  I68  1  0.49976000  0.33488795  0.83067510  1
  I  I69  1  0.50331107  0.66284225  0.15987317  1
  I  I70  1  0.50235533  0.66622460  0.50337575  1
  I  I71  1  0.49917080  0.66286819  0.83449945  1
  I  I72  1  0.83492895  -0.00024446  0.16352709  1
  I  I73  1  0.83266592  -0.00023400  0.50779772  1
  I  I74  1  0.83519772  0.00330491  0.82958614  1
  I  I75  1  0.82953197  0.33737533  0.16668948  1
  I  I76  1  0.82997970  0.33099343  0.50336009  1
  I  I77  1  0.83327350  0.33383718  0.83041617  1
  I  I78  1  0.82915342  0.66269129  0.16005916  1
  I  I79  1  0.83473078  0.66884305  0.50019314  1
  I  I80  1  0.83334916  0.66301050  0.83538215  1
  I  I81  1  0.16372381  0.16991343  -0.00489497  1
  I  I82  1  0.16520578  0.16798541  0.33348145  1
  I  I83  1  0.16893256  0.16891014  0.67047595  1
  I  I84  1  0.17075805  0.49936301  -0.00383180  1
  I  I85  1  0.16580623  0.50052320  0.33350962  1
  I  I86  1  0.16478403  0.49881433  0.67093030  1
  I  I87  1  0.16675138  0.83239163  0.00201352  1
  I  I88  1  0.16598817  0.83034359  0.33466926  1
  I  I89  1  0.16674007  0.83281925  0.66376836  1
  I  I90  1  0.50215714  0.17206819  -0.00514651  1
  I  I91  1  0.50160974  0.16735560  0.33336490  1
  I  I92  1  0.49834920  0.17261243  0.67004457  1
  I  I93  1  0.50037570  0.49507514  -0.00124002  1
  I  I94  1  0.50721562  0.50762599  0.33351958  1
  I  I95  1  0.50036293  0.50121396  0.66766475  1
  I  I96  1  0.49699972  0.83327517  0.00038416  1
  I  I97  1  0.50309224  0.82741600  0.33780704  1
  I  I98  1  0.49682814  0.82673358  0.66320344  1
  I  I99  1  0.83415631  0.16989266  -0.00375987  1
  I  I100  1  0.83196596  0.16256102  0.33617220  1
  I  I101  1  0.83348393  0.16854146  0.66815994  1
  I  I102  1  0.82921598  0.49500801  -0.00189278  1
  I  I103  1  0.82749588  0.50179217  0.33126130  1
  I  I104  1  0.83262326  0.49945316  0.66955550  1
  I  I105  1  0.83618277  0.83577390  0.00046325  1
  I  I106  1  0.83031049  0.83799508  0.33785535  1
  I  I107  1  0.83679354  0.83145759  0.66323599  1
  I  I108  1  -0.00003343  0.16922030  0.16506853  1
  I  I109  1  -0.00369369  0.16290861  0.50657421  1
  I  I110  1  -0.00073182  0.17295420  0.82910637  1
  I  I111  1  -0.00238256  0.50154867  0.16184241  1
  I  I112  1  0.00010271  0.50182666  0.50017477  1
  I  I113  1  -0.00075947  0.49506520  0.83788762  1
  I  I114  1  0.00267875  0.83071898  0.17112803  1
  I  I115  1  -0.00015995  0.83738138  0.49740976  1
  I  I116  1  -0.00000741  0.83175603  0.83029984  1
  I  I117  1  0.33331838  0.16862682  0.16633711  1
  I  I118  1  0.33329150  0.16568167  0.50224093  1
  I  I119  1  0.33364337  0.17342297  0.83373119  1
  I  I120  1  0.33606949  0.50296650  0.16470743  1
  I  I121  1  0.33775592  0.50605208  0.50029507  1
  I  I122  1  0.33418872  0.49509978  0.83286808  1
  I  I123  1  0.33053750  0.83047675  0.17041509  1
  I  I124  1  0.33357156  0.82650057  0.49782239  1
  I  I125  1  0.33334252  0.83309545  0.83066112  1
  I  I126  1  0.66672570  0.16310076  0.16541585  1
  I  I127  1  0.66969538  0.16165664  0.50762727  1
  I  I128  1  0.66720794  0.17520966  0.82699397  1
  I  I129  1  0.66618407  0.50077518  0.16110397  1
  I  I130  1  0.66387365  0.50606913  0.50511366  1
  I  I131  1  0.66641084  0.49468185  0.83318521  1
  I  I132  1  0.66665253  0.83416452  0.16693640  1
  I  I133  1  0.66654568  0.83149612  0.50404244  1
  I  I134  1  0.66668290  0.83279251  0.83056619  1
