# generated using pymatgen
data_Cs27Sn14Pb13I81
_symmetry_space_group_name_H-M   'P 1'
_cell_length_a   18.96534393
_cell_length_b   18.96176770
_cell_length_c   18.95675462
_cell_angle_alpha   90.00124340
_cell_angle_beta   89.99896624
_cell_angle_gamma   89.99864205
_symmetry_Int_Tables_number   1
_chemical_formula_structural   Cs27Sn14Pb13I81
_chemical_formula_sum   'Cs27 Sn14 Pb13 I81'
_cell_volume   6817.16071621
_cell_formula_units_Z   1
loop_
 _symmetry_equiv_pos_site_id
 _symmetry_equiv_pos_as_xyz
  1  'x, y, z'
loop_
 _atom_site_type_symbol
 _atom_site_label
 _atom_site_symmetry_multiplicity
 _atom_site_fract_x
 _atom_site_fract_y
 _atom_site_fract_z
 _atom_site_occupancy
  Cs  Cs0  1  -0.00265064  0.00569992  -0.00003850  1
  Cs  Cs1  1  -0.00261294  -0.00221966  0.33282564  1
  Cs  Cs2  1  0.00042871  -0.00239887  0.66581891  1
  Cs  Cs3  1  0.00089164  0.32465800  -0.00674595  1
  Cs  Cs4  1  0.00160487  0.33383005  0.33260093  1
  Cs  Cs5  1  -0.00248949  0.33374300  0.67254456  1
  Cs  Cs6  1  0.00233824  0.66779724  0.00068864  1
  Cs  Cs7  1  -0.00021249  0.66781592  0.33571133  1
  Cs  Cs8  1  -0.00269607  0.66721552  0.66338677  1
  Cs  Cs9  1  0.33294316  -0.00143794  -0.00020535  1
  Cs  Cs10  1  0.33397662  0.00046726  0.33499379  1
  Cs  Cs11  1  0.33559203  -0.00154162  0.66331441  1
  Cs  Cs12  1  0.32949221  0.33426419  0.00010432  1
  Cs  Cs13  1  0.33462595  0.33395309  0.33313151  1
  Cs  Cs14  1  0.33192522  0.33311213  0.66448528  1
  Cs  Cs15  1  0.33459067  0.66703382  0.00020144  1
  Cs  Cs16  1  0.33198716  0.66518811  0.33158268  1
  Cs  Cs17  1  0.33300012  0.66811982  0.66998964  1
  Cs  Cs18  1  0.66889845  -0.00116739  -0.00022260  1
  Cs  Cs19  1  0.66635003  0.00055325  0.33250140  1
  Cs  Cs20  1  0.66238354  0.00267578  0.66788275  1
  Cs  Cs21  1  0.66873874  0.33320941  -0.00121684  1
  Cs  Cs22  1  0.66323038  0.33545562  0.33513938  1
  Cs  Cs23  1  0.67095130  0.33328397  0.66558694  1
  Cs  Cs24  1  0.66302191  0.66804345  0.00042652  1
  Cs  Cs25  1  0.66905818  0.66506358  0.33181154  1
  Cs  Cs26  1  0.66857975  0.66424188  0.67060015  1
  Sn  Sn27  1  0.49922550  0.83346907  0.16771716  1
  Sn  Sn28  1  0.83479383  0.16660582  0.49939214  1
  Sn  Sn29  1  0.49942770  0.16722807  0.83456170  1
  Sn  Sn30  1  0.49978087  0.16678948  0.16537897  1
  Sn  Sn31  1  0.16717713  0.83299733  0.16596557  1
  Sn  Sn32  1  0.49988786  0.49988874  0.16728490  1
  Sn  Sn33  1  0.50010866  0.83161577  0.49906595  1
  Sn  Sn34  1  0.16739596  0.49916612  0.49941211  1
  Sn  Sn35  1  0.16520365  0.16757183  0.49958252  1
  Sn  Sn36  1  0.16633327  0.50043617  0.16715474  1
  Sn  Sn37  1  0.83399109  0.49973150  0.16637358  1
  Sn  Sn38  1  0.16557839  0.83325080  0.83435617  1
  Sn  Sn39  1  0.49917696  0.50140960  0.49956204  1
  Sn  Sn40  1  0.83440630  0.83308179  0.83358353  1
  Pb  Pb41  1  0.49963958  0.83461704  0.83379984  1
  Pb  Pb42  1  0.16823503  0.83268532  0.49934025  1
  Pb  Pb43  1  0.49964402  0.16732857  0.49944780  1
  Pb  Pb44  1  0.83359130  0.49845148  0.49835116  1
  Pb  Pb45  1  0.83134000  0.16463890  0.83123997  1
  Pb  Pb46  1  0.16669786  0.50214762  0.83329844  1
  Pb  Pb47  1  0.83351366  0.83167627  0.16523611  1
  Pb  Pb48  1  0.83350802  0.50224045  0.83639449  1
  Pb  Pb49  1  0.16872952  0.16404547  0.83065279  1
  Pb  Pb50  1  0.83082805  0.16909024  0.16855172  1
  Pb  Pb51  1  0.16848074  0.16650434  0.16848909  1
  Pb  Pb52  1  0.83002035  0.83513257  0.50183357  1
  Pb  Pb53  1  0.49982175  0.49737126  0.83329536  1
  I  I54  1  0.17229898  -0.00285392  0.16502112  1
  I  I55  1  0.16680036  0.00168351  0.50067100  1
  I  I56  1  0.16458168  -0.00383281  0.83841331  1
  I  I57  1  0.16911912  0.33639410  0.17034983  1
  I  I58  1  0.17082384  0.33457359  0.49402597  1
  I  I59  1  0.16789381  0.33308386  0.83529253  1
  I  I60  1  0.17141521  0.66621329  0.16805114  1
  I  I61  1  0.16983833  0.66381723  0.49863553  1
  I  I62  1  0.16587814  0.67033380  0.83290651  1
  I  I63  1  0.49553771  -0.00108166  0.16786365  1
  I  I64  1  0.49952151  -0.00169117  0.49772201  1
  I  I65  1  0.49997312  0.00238572  0.83500037  1
  I  I66  1  0.50005049  0.33457683  0.16833323  1
  I  I67  1  0.49897123  0.33605366  0.49636664  1
  I  I68  1  0.50069276  0.32958695  0.83591680  1
  I  I69  1  0.49947471  0.66649297  0.17105591  1
  I  I70  1  0.49496996  0.66591236  0.49325033  1
  I  I71  1  0.50044622  0.66673378  0.83416663  1
  I  I72  1  0.83227764  0.00009234  0.16655008  1
  I  I73  1  0.83694118  0.00301463  0.49981495  1
  I  I74  1  0.83598041  -0.00309027  0.83454924  1
  I  I75  1  0.83294805  0.33713837  0.16814040  1
  I  I76  1  0.83016263  0.33060420  0.49927133  1
  I  I77  1  0.83137151  0.33309112  0.83304410  1
  I  I78  1  0.82837448  0.66367793  0.16718148  1
  I  I79  1  0.83463976  0.66659796  0.50073843  1
  I  I80  1  0.83472555  0.67017413  0.83136291  1
  I  I81  1  0.16709145  0.16883920  0.00013369  1
  I  I82  1  0.16736620  0.16580961  0.33656372  1
  I  I83  1  0.16722238  0.17104792  0.66266284  1
  I  I84  1  0.16964506  0.50305411  0.00378263  1
  I  I85  1  0.16870270  0.50201160  0.33253379  1
  I  I86  1  0.17223217  0.49757359  0.66316620  1
  I  I87  1  0.17040715  0.82753539  0.00163968  1
  I  I88  1  0.17031132  0.83218651  0.33040664  1
  I  I89  1  0.16606902  0.83450410  0.66835429  1
  I  I90  1  0.50018276  0.16536679  0.00158616  1
  I  I91  1  0.49989007  0.16656697  0.33070009  1
  I  I92  1  0.50008970  0.16408588  0.66788475  1
  I  I93  1  0.49904784  0.50340578  0.00392342  1
  I  I94  1  0.49924845  0.49830146  0.33238899  1
  I  I95  1  0.49550292  0.50293509  0.66309465  1
  I  I96  1  0.49913120  0.83087903  0.00330275  1
  I  I97  1  0.49476878  0.83565594  0.33198725  1
  I  I98  1  0.49937454  0.83282849  0.66437882  1
  I  I99  1  0.83279880  0.16729250  0.00012902  1
  I  I100  1  0.83396703  0.16534450  0.33637922  1
  I  I101  1  0.83280812  0.16756298  0.66337780  1
  I  I102  1  0.83064775  0.50008719  0.00463343  1
  I  I103  1  0.83139932  0.50082971  0.33027630  1
  I  I104  1  0.83217525  0.49936149  0.66652154  1
  I  I105  1  0.83157308  0.83276774  -0.00259374  1
  I  I106  1  0.83469672  0.83384272  0.33327154  1
  I  I107  1  0.83805308  0.83392730  0.66964817  1
  I  I108  1  0.00009416  0.16667985  0.16706315  1
  I  I109  1  0.00104949  0.17130037  0.49983394  1
  I  I110  1  0.00018613  0.16665594  0.83325715  1
  I  I111  1  0.00165242  0.50678948  0.17210278  1
  I  I112  1  0.00309680  0.49832969  0.49511151  1
  I  I113  1  0.00019166  0.49846115  0.83299141  1
  I  I114  1  0.00308760  0.82841693  0.16515666  1
  I  I115  1  0.00004265  0.83237257  0.49877086  1
  I  I116  1  0.00108293  0.83332140  0.83816243  1
  I  I117  1  0.33693001  0.16977779  0.16677037  1
  I  I118  1  0.33149040  0.16741171  0.50002865  1
  I  I119  1  0.33645647  0.16393417  0.83484784  1
  I  I120  1  0.33378035  0.50095440  0.17106517  1
  I  I121  1  0.33361561  0.49731623  0.49234550  1
  I  I122  1  0.33335672  0.50257442  0.83618948  1
  I  I123  1  0.33400438  0.82915472  0.16451146  1
  I  I124  1  0.33632216  0.83586967  0.50104998  1
  I  I125  1  0.33115958  0.83477486  0.83439002  1
  I  I126  1  0.66232656  0.16529412  0.16648188  1
  I  I127  1  0.66779490  0.16583350  0.50040663  1
  I  I128  1  0.66347314  0.16318127  0.83418862  1
  I  I129  1  0.66473555  0.50004544  0.17060358  1
  I  I130  1  0.66365360  0.50104007  0.49544856  1
  I  I131  1  0.66648914  0.50258843  0.83278790  1
  I  I132  1  0.66336859  0.83250956  0.16835989  1
  I  I133  1  0.66189661  0.83056320  0.49539639  1
  I  I134  1  0.66806689  0.83573184  0.83262827  1
