# generated using pymatgen
data_Cs27Sn14Pb13I81
_symmetry_space_group_name_H-M   'P 1'
_cell_length_a   18.95749279
_cell_length_b   18.96313555
_cell_length_c   18.96306549
_cell_angle_alpha   89.99981658
_cell_angle_beta   90.00029550
_cell_angle_gamma   90.00059810
_symmetry_Int_Tables_number   1
_chemical_formula_structural   Cs27Sn14Pb13I81
_chemical_formula_sum   'Cs27 Sn14 Pb13 I81'
_cell_volume   6817.09888667
_cell_formula_units_Z   1
loop_
 _symmetry_equiv_pos_site_id
 _symmetry_equiv_pos_as_xyz
  1  'x, y, z'
loop_
 _atom_site_type_symbol
 _atom_site_label
 _atom_site_symmetry_multiplicity
 _atom_site_fract_x
 _atom_site_fract_y
 _atom_site_fract_z
 _atom_site_occupancy
  Cs  Cs0  1  -0.00126871  0.00136024  -0.00143535  1
  Cs  Cs1  1  -0.00055571  -0.00082213  0.33529841  1
  Cs  Cs2  1  0.00110832  0.00033977  0.66559852  1
  Cs  Cs3  1  0.00274465  0.33287488  0.00100922  1
  Cs  Cs4  1  -0.00059982  0.33217804  0.33185985  1
  Cs  Cs5  1  -0.00106380  0.33052469  0.66657719  1
  Cs  Cs6  1  0.00022246  0.66501558  -0.00158464  1
  Cs  Cs7  1  -0.00001485  0.66897885  0.33404207  1
  Cs  Cs8  1  -0.00057057  0.66663351  0.66744851  1
  Cs  Cs9  1  0.34003797  0.00075670  0.00140128  1
  Cs  Cs10  1  0.33439510  -0.00089461  0.33303357  1
  Cs  Cs11  1  0.32953192  0.00029933  0.66479447  1
  Cs  Cs12  1  0.33180118  0.33488757  0.00180746  1
  Cs  Cs13  1  0.33427232  0.33127328  0.33087550  1
  Cs  Cs14  1  0.34021636  0.33405556  0.66737151  1
  Cs  Cs15  1  0.33434672  0.66429903  -0.00140246  1
  Cs  Cs16  1  0.33177608  0.66979970  0.33376394  1
  Cs  Cs17  1  0.33155248  0.66532768  0.66638257  1
  Cs  Cs18  1  0.66218835  -0.00239078  -0.00147693  1
  Cs  Cs19  1  0.66843323  -0.00015941  0.33241123  1
  Cs  Cs20  1  0.66663408  0.00090366  0.66958082  1
  Cs  Cs21  1  0.66566622  0.33286443  0.00021058  1
  Cs  Cs22  1  0.66682818  0.33674600  0.33534636  1
  Cs  Cs23  1  0.65883629  0.33949816  0.66522697  1
  Cs  Cs24  1  0.66540589  0.66904754  -0.00292656  1
  Cs  Cs25  1  0.66716124  0.66478544  0.33232367  1
  Cs  Cs26  1  0.66690597  0.66012158  0.67284397  1
  Sn  Sn27  1  0.16627606  0.49942712  0.49984904  1
  Sn  Sn28  1  0.83383362  0.16666134  0.83280663  1
  Sn  Sn29  1  0.16600354  0.16565028  0.83266430  1
  Sn  Sn30  1  0.16628585  0.83430056  0.83355314  1
  Sn  Sn31  1  0.16601356  0.16686769  0.50054787  1
  Sn  Sn32  1  0.83293336  0.83367533  0.49991015  1
  Sn  Sn33  1  0.83365624  0.16634683  0.16664398  1
  Sn  Sn34  1  0.83273630  0.50040149  0.16673816  1
  Sn  Sn35  1  0.83377541  0.16615533  0.50049188  1
  Sn  Sn36  1  0.50050299  0.50022544  0.16694076  1
  Sn  Sn37  1  0.16628559  0.83355180  0.49999646  1
  Sn  Sn38  1  0.50091900  0.83340551  0.50025123  1
  Sn  Sn39  1  0.16593892  0.83367365  0.16621880  1
  Sn  Sn40  1  0.83419900  0.83332582  0.16702047  1
  Pb  Pb41  1  0.49740505  0.50261222  0.49810036  1
  Pb  Pb42  1  0.50050178  0.83184560  0.16836291  1
  Pb  Pb43  1  0.83510422  0.83498906  0.83309709  1
  Pb  Pb44  1  0.50323593  0.16890043  0.16701357  1
  Pb  Pb45  1  0.49942605  0.16651090  0.83319628  1
  Pb  Pb46  1  0.49984070  0.50013368  0.83626759  1
  Pb  Pb47  1  0.16503085  0.16420574  0.16676912  1
  Pb  Pb48  1  0.49682163  0.83345964  0.83020073  1
  Pb  Pb49  1  0.83503748  0.50000673  0.49845696  1
  Pb  Pb50  1  0.16611846  0.50236028  0.16858165  1
  Pb  Pb51  1  0.16640664  0.49926045  0.83067948  1
  Pb  Pb52  1  0.83368080  0.49672461  0.83626116  1
  Pb  Pb53  1  0.50025163  0.16453424  0.49988616  1
  I  I54  1  0.16191041  -0.00402633  0.17168523  1
  I  I55  1  0.16597636  -0.00083907  0.50083790  1
  I  I56  1  0.16237764  -0.00001640  0.82775199  1
  I  I57  1  0.16614803  0.33318437  0.16728007  1
  I  I58  1  0.16110826  0.33181123  0.50328958  1
  I  I59  1  0.16240527  0.32944045  0.82981830  1
  I  I60  1  0.16178953  0.67063659  0.16819247  1
  I  I61  1  0.16689817  0.66876559  0.49893050  1
  I  I62  1  0.16733122  0.66978056  0.83219076  1
  I  I63  1  0.49985498  -0.00026721  0.16710221  1
  I  I64  1  0.49480759  -0.00347165  0.49788437  1
  I  I65  1  0.50191265  -0.00015514  0.83561395  1
  I  I66  1  0.50333409  0.33690375  0.16777334  1
  I  I67  1  0.49942280  0.33359735  0.49928759  1
  I  I68  1  0.49837611  0.33321905  0.83266994  1
  I  I69  1  0.50513451  0.66417634  0.16918324  1
  I  I70  1  0.49915698  0.67054042  0.49786294  1
  I  I71  1  0.49860827  0.66702922  0.83262672  1
  I  I72  1  0.83910689  -0.00051957  0.16878351  1
  I  I73  1  0.83805502  -0.00031973  0.49492753  1
  I  I74  1  0.83601569  0.00327830  0.83696745  1
  I  I75  1  0.82904744  0.33263671  0.16706673  1
  I  I76  1  0.83903615  0.33019578  0.49828603  1
  I  I77  1  0.84073098  0.32828646  0.83236743  1
  I  I78  1  0.83391771  0.66799810  0.17284653  1
  I  I79  1  0.83571264  0.67001998  0.49436207  1
  I  I80  1  0.83461510  0.66679423  0.83329879  1
  I  I81  1  0.16197254  0.16253069  -0.00253455  1
  I  I82  1  0.16296971  0.16571225  0.33652561  1
  I  I83  1  0.15843166  0.16111227  0.66547026  1
  I  I84  1  0.16760483  0.50056378  0.00032566  1
  I  I85  1  0.16590440  0.50037648  0.33650218  1
  I  I86  1  0.16610579  0.50588292  0.66260893  1
  I  I87  1  0.16108295  0.83668707  0.00036408  1
  I  I88  1  0.16609198  0.83272960  0.33462811  1
  I  I89  1  0.16712594  0.83392285  0.66516143  1
  I  I90  1  0.49915856  0.16681698  0.00015751  1
  I  I91  1  0.49798875  0.16653238  0.33349466  1
  I  I92  1  0.50420210  0.16700094  0.66642244  1
  I  I93  1  0.50342792  0.50163689  0.00431065  1
  I  I94  1  0.50506196  0.50049702  0.33053303  1
  I  I95  1  0.49872130  0.50041275  0.66630031  1
  I  I96  1  0.49945594  0.83163896  0.00003661  1
  I  I97  1  0.49452717  0.83283795  0.33622985  1
  I  I98  1  0.50062546  0.83370583  0.66207199  1
  I  I99  1  0.83787014  0.16762795  0.00034345  1
  I  I100  1  0.83736153  0.16556989  0.33378783  1
  I  I101  1  0.83917690  0.16012543  0.66542312  1
  I  I102  1  0.83092854  0.50232107  0.00479544  1
  I  I103  1  0.83138364  0.49648750  0.33015443  1
  I  I104  1  0.83481523  0.50089860  0.66653250  1
  I  I105  1  0.83788897  0.83367015  0.00302653  1
  I  I106  1  0.83796852  0.83712934  0.33360058  1
  I  I107  1  0.83509725  0.83784379  0.66325848  1
  I  I108  1  -0.00354545  0.17125465  0.16707217  1
  I  I109  1  0.00005305  0.16227250  0.49988088  1
  I  I110  1  0.00031063  0.16279228  0.83234447  1
  I  I111  1  -0.00299649  0.49843269  0.16809066  1
  I  I112  1  0.00303818  0.50479025  0.49697350  1
  I  I113  1  0.00012536  0.50223097  0.83670683  1
  I  I114  1  -0.00077561  0.83153513  0.17206500  1
  I  I115  1  0.00064642  0.83420693  0.49821041  1
  I  I116  1  0.00349975  0.83508491  0.82933204  1
  I  I117  1  0.33309651  0.16732107  0.16644935  1
  I  I118  1  0.32957423  0.16561195  0.50474421  1
  I  I119  1  0.32918002  0.16276057  0.82744348  1
  I  I120  1  0.33505273  0.50287703  0.16895264  1
  I  I121  1  0.32937063  0.50034436  0.49754345  1
  I  I122  1  0.33284914  0.49866767  0.83572710  1
  I  I123  1  0.33051639  0.83118897  0.16863975  1
  I  I124  1  0.33112066  0.83299409  0.49945239  1
  I  I125  1  0.32818383  0.83930778  0.83439994  1
  I  I126  1  0.67210526  0.16057828  0.16706082  1
  I  I127  1  0.67064429  0.16207157  0.49921504  1
  I  I128  1  0.67022514  0.16655819  0.83378736  1
  I  I129  1  0.66837763  0.50104511  0.16870389  1
  I  I130  1  0.66674858  0.49997783  0.49993760  1
  I  I131  1  0.66697826  0.49866065  0.82983607  1
  I  I132  1  0.67037046  0.83521410  0.17160411  1
  I  I133  1  0.66844993  0.83883826  0.49279970  1
  I  I134  1  0.66684806  0.83491545  0.83372120  1
