# generated using pymatgen
data_Cs27Sn14Pb13I81
_symmetry_space_group_name_H-M   'P 1'
_cell_length_a   18.97010155
_cell_length_b   18.97675359
_cell_length_c   18.98158821
_cell_angle_alpha   89.99998627
_cell_angle_beta   89.99991194
_cell_angle_gamma   89.99979522
_symmetry_Int_Tables_number   1
_chemical_formula_structural   Cs27Sn14Pb13I81
_chemical_formula_sum   'Cs27 Sn14 Pb13 I81'
_cell_volume   6833.19983480
_cell_formula_units_Z   1
loop_
 _symmetry_equiv_pos_site_id
 _symmetry_equiv_pos_as_xyz
  1  'x, y, z'
loop_
 _atom_site_type_symbol
 _atom_site_label
 _atom_site_symmetry_multiplicity
 _atom_site_fract_x
 _atom_site_fract_y
 _atom_site_fract_z
 _atom_site_occupancy
  Cs  Cs0  1  -0.00439732  0.00293533  0.00231900  1
  Cs  Cs1  1  -0.00691803  0.00697185  0.33357100  1
  Cs  Cs2  1  -0.00013675  0.00704618  0.66522763  1
  Cs  Cs3  1  -0.00214037  0.32888106  -0.00722517  1
  Cs  Cs4  1  0.00128611  0.32557394  0.33391482  1
  Cs  Cs5  1  -0.00812930  0.32785224  0.67370147  1
  Cs  Cs6  1  0.00109484  0.66634173  -0.00002364  1
  Cs  Cs7  1  0.00366295  0.66816440  0.33179979  1
  Cs  Cs8  1  0.00211326  0.66375471  0.66859721  1
  Cs  Cs9  1  0.33544261  -0.00210970  -0.00025508  1
  Cs  Cs10  1  0.33285137  0.00012660  0.33347719  1
  Cs  Cs11  1  0.33423082  -0.00167030  0.66648769  1
  Cs  Cs12  1  0.33515743  0.33440337  0.00080365  1
  Cs  Cs13  1  0.33362293  0.33428618  0.33204093  1
  Cs  Cs14  1  0.33249193  0.33172382  0.66781903  1
  Cs  Cs15  1  0.33276626  0.66697954  0.00076060  1
  Cs  Cs16  1  0.33172389  0.66605676  0.33318665  1
  Cs  Cs17  1  0.33198861  0.66831218  0.66468246  1
  Cs  Cs18  1  0.66471791  -0.00110892  0.00006531  1
  Cs  Cs19  1  0.67322361  -0.00268212  0.33439914  1
  Cs  Cs20  1  0.66565499  -0.00207036  0.66599145  1
  Cs  Cs21  1  0.66296852  0.33403090  -0.00010902  1
  Cs  Cs22  1  0.66603225  0.33716598  0.33516867  1
  Cs  Cs23  1  0.67196235  0.33643769  0.66458160  1
  Cs  Cs24  1  0.66590329  0.66751162  0.00111641  1
  Cs  Cs25  1  0.66965079  0.66648572  0.33892214  1
  Cs  Cs26  1  0.66831982  0.66576915  0.65902975  1
  Sn  Sn27  1  0.16680085  0.83300262  0.49941457  1
  Sn  Sn28  1  0.49962946  0.16622931  0.16724074  1
  Sn  Sn29  1  0.50006676  0.83251208  0.83365917  1
  Sn  Sn30  1  0.16667354  0.49981229  0.49973048  1
  Sn  Sn31  1  0.49957805  0.83298654  0.16656580  1
  Sn  Sn32  1  0.49966062  0.16663221  0.49981553  1
  Sn  Sn33  1  0.49965469  0.50086549  0.83352450  1
  Sn  Sn34  1  0.16710673  0.83311790  0.16696482  1
  Sn  Sn35  1  0.50005581  0.50077802  0.16625755  1
  Sn  Sn36  1  0.83394908  0.50006243  0.16656391  1
  Sn  Sn37  1  0.83317812  0.83287449  0.83334524  1
  Sn  Sn38  1  0.49969312  0.16672194  0.83294350  1
  Sn  Sn39  1  0.16622741  0.50023424  0.16712191  1
  Sn  Sn40  1  0.16643598  0.83335226  0.83372562  1
  Pb  Pb41  1  0.83000587  0.16398952  0.83364309  1
  Pb  Pb42  1  0.83721322  0.83301149  0.50285901  1
  Pb  Pb43  1  0.16900350  0.16368644  0.83360342  1
  Pb  Pb44  1  0.83004272  0.16678723  0.49998601  1
  Pb  Pb45  1  0.16860026  0.16665028  0.16643756  1
  Pb  Pb46  1  0.83734908  0.50016866  0.49725409  1
  Pb  Pb47  1  0.49798165  0.49824271  0.49980851  1
  Pb  Pb48  1  0.83350353  0.83151779  0.16519069  1
  Pb  Pb49  1  0.16839539  0.16713204  0.50003843  1
  Pb  Pb50  1  0.16850067  0.50148263  0.83375520  1
  Pb  Pb51  1  0.82998744  0.16984012  0.16636661  1
  Pb  Pb52  1  0.49831857  0.83485338  0.49950359  1
  Pb  Pb53  1  0.83052814  0.50232319  0.83550308  1
  I  I54  1  0.17250264  -0.00375109  0.16617089  1
  I  I55  1  0.16954815  -0.00312548  0.50084837  1
  I  I56  1  0.16971641  -0.00526396  0.83324254  1
  I  I57  1  0.16898922  0.33697299  0.17308267  1
  I  I58  1  0.17048419  0.33648900  0.49193826  1
  I  I59  1  0.16909004  0.33344161  0.83270327  1
  I  I60  1  0.17213558  0.66705627  0.16702848  1
  I  I61  1  0.16935587  0.66743613  0.49894371  1
  I  I62  1  0.17061962  0.67021693  0.83341246  1
  I  I63  1  0.49435182  -0.00101299  0.16294797  1
  I  I64  1  0.49622229  0.00271881  0.50060046  1
  I  I65  1  0.49939033  -0.00107039  0.83624590  1
  I  I66  1  0.49984165  0.33414330  0.16349098  1
  I  I67  1  0.49652364  0.33039787  0.49962466  1
  I  I68  1  0.49891798  0.33355233  0.83772148  1
  I  I69  1  0.49832803  0.66664516  0.15865455  1
  I  I70  1  0.50069343  0.66664898  0.50104717  1
  I  I71  1  0.49903215  0.66779648  0.84147874  1
  I  I72  1  0.83334569  -0.00002333  0.16588417  1
  I  I73  1  0.83548471  -0.00024128  0.49898294  1
  I  I74  1  0.83252331  -0.00394789  0.83516150  1
  I  I75  1  0.83422393  0.33775362  0.16649096  1
  I  I76  1  0.83500775  0.33360106  0.50043752  1
  I  I77  1  0.83247193  0.33348236  0.83361981  1
  I  I78  1  0.82781104  0.66383666  0.16469230  1
  I  I79  1  0.82718491  0.66662040  0.50073958  1
  I  I80  1  0.83106478  0.67007006  0.83491586  1
  I  I81  1  0.16943657  0.16802998  0.00006294  1
  I  I82  1  0.17117009  0.16234652  0.33317756  1
  I  I83  1  0.17178849  0.16611790  0.66678021  1
  I  I84  1  0.16727446  0.50463913  0.00343975  1
  I  I85  1  0.17027699  0.50901920  0.33163389  1
  I  I86  1  0.17166592  0.50606223  0.66468302  1
  I  I87  1  0.16965485  0.82896584  0.00048171  1
  I  I88  1  0.17417869  0.82789380  0.33203438  1
  I  I89  1  0.16874458  0.82933771  0.66713204  1
  I  I90  1  0.49981647  0.16636991  0.00014927  1
  I  I91  1  0.49807665  0.16765126  0.33215841  1
  I  I92  1  0.49827012  0.16493298  0.66773480  1
  I  I93  1  0.49781718  0.49650958  0.00126696  1
  I  I94  1  0.50124470  0.49956657  0.32976050  1
  I  I95  1  0.49755349  0.50052218  0.66939514  1
  I  I96  1  0.49607534  0.83661990  -0.00014773  1
  I  I97  1  0.49529389  0.83296023  0.32987803  1
  I  I98  1  0.49878189  0.83429712  0.66980416  1
  I  I99  1  0.83242516  0.16641354  0.00001231  1
  I  I100  1  0.83107040  0.16498000  0.33297057  1
  I  I101  1  0.83155773  0.16702085  0.66699492  1
  I  I102  1  0.83737457  0.50130672  0.00327549  1
  I  I103  1  0.82426102  0.50212122  0.32935646  1
  I  I104  1  0.83239445  0.50036820  0.66685345  1
  I  I105  1  0.83540834  0.83223743  -0.00273844  1
  I  I106  1  0.83181301  0.83278432  0.33329348  1
  I  I107  1  0.82813811  0.83276672  0.67084224  1
  I  I108  1  -0.00019908  0.16573466  0.16807104  1
  I  I109  1  0.00011205  0.16600400  0.49976589  1
  I  I110  1  -0.00027709  0.16613117  0.83198615  1
  I  I111  1  0.00147466  0.50826592  0.17192135  1
  I  I112  1  0.00526675  0.50635238  0.49538847  1
  I  I113  1  0.00005489  0.50262215  0.83420156  1
  I  I114  1  0.00337723  0.82752885  0.16490276  1
  I  I115  1  0.00536895  0.82908319  0.49763501  1
  I  I116  1  0.00108084  0.83076210  0.83382913  1
  I  I117  1  0.33755146  0.17043670  0.16546138  1
  I  I118  1  0.33663316  0.16605355  0.50013985  1
  I  I119  1  0.33787878  0.16462391  0.83441543  1
  I  I120  1  0.33406369  0.50058730  0.16679945  1
  I  I121  1  0.33041057  0.50428455  0.49409675  1
  I  I122  1  0.33705581  0.50154627  0.83897748  1
  I  I123  1  0.33396252  0.82973207  0.16227864  1
  I  I124  1  0.33031846  0.83047052  0.50407264  1
  I  I125  1  0.33429617  0.83409384  0.83421573  1
  I  I126  1  0.66118674  0.16436328  0.16514065  1
  I  I127  1  0.66165690  0.16641302  0.50006124  1
  I  I128  1  0.66146043  0.16455680  0.83487588  1
  I  I129  1  0.66461555  0.49887710  0.16057430  1
  I  I130  1  0.66659170  0.49755431  0.49983115  1
  I  I131  1  0.66199118  0.50091866  0.83908074  1
  I  I132  1  0.66317996  0.83379279  0.16117364  1
  I  I133  1  0.66671925  0.83588779  0.50014876  1
  I  I134  1  0.66445921  0.83500167  0.83968885  1
