# generated using pymatgen
data_Cs27Sn14Pb13I81
_symmetry_space_group_name_H-M   'P 1'
_cell_length_a   18.96159927
_cell_length_b   18.96529604
_cell_length_c   18.95613290
_cell_angle_alpha   90.00196114
_cell_angle_beta   90.00161993
_cell_angle_gamma   89.99965967
_symmetry_Int_Tables_number   1
_chemical_formula_structural   Cs27Sn14Pb13I81
_chemical_formula_sum   'Cs27 Sn14 Pb13 I81'
_cell_volume   6816.85936882
_cell_formula_units_Z   1
loop_
 _symmetry_equiv_pos_site_id
 _symmetry_equiv_pos_as_xyz
  1  'x, y, z'
loop_
 _atom_site_type_symbol
 _atom_site_label
 _atom_site_symmetry_multiplicity
 _atom_site_fract_x
 _atom_site_fract_y
 _atom_site_fract_z
 _atom_site_occupancy
  Cs  Cs0  1  0.00002213  -0.00060990  0.00112537  1
  Cs  Cs1  1  0.00308476  0.00062054  0.33224543  1
  Cs  Cs2  1  -0.00612667  -0.00038726  0.66899541  1
  Cs  Cs3  1  0.00333477  0.33566282  -0.00074701  1
  Cs  Cs4  1  -0.00039223  0.33244242  0.33322231  1
  Cs  Cs5  1  -0.00065208  0.33002556  0.66785285  1
  Cs  Cs6  1  -0.00037410  0.66514968  0.00131873  1
  Cs  Cs7  1  0.00079308  0.66676900  0.33354001  1
  Cs  Cs8  1  -0.00398287  0.66993265  0.66291927  1
  Cs  Cs9  1  0.33327612  0.00003928  -0.00049593  1
  Cs  Cs10  1  0.33221838  0.00015372  0.33446676  1
  Cs  Cs11  1  0.33243382  -0.00101502  0.66466635  1
  Cs  Cs12  1  0.33726045  0.33984754  -0.00814250  1
  Cs  Cs13  1  0.33348325  0.33282076  0.33314905  1
  Cs  Cs14  1  0.33230418  0.33360175  0.66966000  1
  Cs  Cs15  1  0.33245302  0.66390916  -0.00095369  1
  Cs  Cs16  1  0.33255522  0.66672060  0.33461051  1
  Cs  Cs17  1  0.33428514  0.66738594  0.66520548  1
  Cs  Cs18  1  0.66671618  -0.00003058  0.00027265  1
  Cs  Cs19  1  0.66471495  0.00215869  0.33074900  1
  Cs  Cs20  1  0.67262497  0.00083280  0.66966156  1
  Cs  Cs21  1  0.65964678  0.33430776  -0.00052831  1
  Cs  Cs22  1  0.66644695  0.33252499  0.33440391  1
  Cs  Cs23  1  0.66924234  0.33180110  0.66525704  1
  Cs  Cs24  1  0.66825683  0.66755195  -0.00051977  1
  Cs  Cs25  1  0.66664811  0.66566613  0.33323337  1
  Cs  Cs26  1  0.66814927  0.66650523  0.66679840  1
  Sn  Sn27  1  0.16713693  0.83342886  0.83404246  1
  Sn  Sn28  1  0.16722026  0.49903661  0.49975644  1
  Sn  Sn29  1  0.16740750  0.16743178  0.49939742  1
  Sn  Sn30  1  0.49950504  0.83316947  0.16643123  1
  Sn  Sn31  1  0.49918910  0.83338655  0.83338485  1
  Sn  Sn32  1  0.16673292  0.16656659  0.16671450  1
  Sn  Sn33  1  0.49912482  0.16648634  0.49990390  1
  Sn  Sn34  1  0.16694501  0.83384882  0.16583914  1
  Sn  Sn35  1  0.50007862  0.83369682  0.50019050  1
  Sn  Sn36  1  0.49905622  0.49983512  0.49974434  1
  Sn  Sn37  1  0.83345737  0.49980386  0.83409654  1
  Sn  Sn38  1  0.83397840  0.16698166  0.16669196  1
  Sn  Sn39  1  0.83357860  0.83343605  0.16687254  1
  Sn  Sn40  1  0.83324319  0.49963762  0.16577070  1
  Pb  Pb41  1  0.83344547  0.83202011  0.83570947  1
  Pb  Pb42  1  0.83391156  0.16646730  0.49790814  1
  Pb  Pb43  1  0.49985274  0.16407808  0.83027265  1
  Pb  Pb44  1  0.16517838  0.49975433  0.16823153  1
  Pb  Pb45  1  0.50186183  0.50232905  0.83060628  1
  Pb  Pb46  1  0.16467271  0.50278315  0.83027574  1
  Pb  Pb47  1  0.49899008  0.16506093  0.16796054  1
  Pb  Pb48  1  0.83343296  0.16950116  0.83705005  1
  Pb  Pb49  1  0.16675900  0.16441623  0.83357134  1
  Pb  Pb50  1  0.83362676  0.49989509  0.49973759  1
  Pb  Pb51  1  0.16803735  0.83385656  0.49992005  1
  Pb  Pb52  1  0.50208052  0.50232769  0.16858728  1
  Pb  Pb53  1  0.83020263  0.83363017  0.49712533  1
  I  I54  1  0.16218213  -0.00082991  0.16946781  1
  I  I55  1  0.17128747  0.00256812  0.49754925  1
  I  I56  1  0.16973575  -0.00393975  0.83277335  1
  I  I57  1  0.16025581  0.33049847  0.17153779  1
  I  I58  1  0.17374835  0.33256875  0.49398663  1
  I  I59  1  0.16502968  0.33365369  0.83511796  1
  I  I60  1  0.16595405  0.66973084  0.16562191  1
  I  I61  1  0.17017124  0.66501243  0.49976959  1
  I  I62  1  0.17039321  0.67064807  0.83864905  1
  I  I63  1  0.50443371  -0.00376743  0.16931661  1
  I  I64  1  0.49566503  -0.00043559  0.49844739  1
  I  I65  1  0.49789325  -0.00457582  0.83248115  1
  I  I66  1  0.50193288  0.33340678  0.16972201  1
  I  I67  1  0.49703733  0.33324278  0.49822961  1
  I  I68  1  0.50163035  0.33364523  0.83265111  1
  I  I69  1  0.49959721  0.67107696  0.16953712  1
  I  I70  1  0.49661255  0.66721635  0.49923074  1
  I  I71  1  0.49738328  0.67065426  0.83197616  1
  I  I72  1  0.83351381  -0.00066409  0.16917765  1
  I  I73  1  0.83368369  -0.00001464  0.49979037  1
  I  I74  1  0.83298363  -0.00013938  0.83292135  1
  I  I75  1  0.83877390  0.33308587  0.16476567  1
  I  I76  1  0.82820461  0.33336970  0.49732976  1
  I  I77  1  0.83342205  0.33722446  0.83668345  1
  I  I78  1  0.83246421  0.66733432  0.16354118  1
  I  I79  1  0.83418381  0.66663836  0.49727486  1
  I  I80  1  0.83294904  0.66437394  0.83878427  1
  I  I81  1  0.16071257  0.16252268  0.00359689  1
  I  I82  1  0.16606631  0.16361530  0.33306691  1
  I  I83  1  0.17169514  0.16922937  0.66331603  1
  I  I84  1  0.16638717  0.49841818  -0.00006819  1
  I  I85  1  0.16805699  0.50205718  0.33636654  1
  I  I86  1  0.16884874  0.49610583  0.66235803  1
  I  I87  1  0.17051859  0.83800333  0.00178280  1
  I  I88  1  0.16647109  0.83394070  0.33039806  1
  I  I89  1  0.17194449  0.83181888  0.66867423  1
  I  I90  1  0.50089091  0.16454501  0.00007532  1
  I  I91  1  0.49969855  0.16370630  0.33647486  1
  I  I92  1  0.49415328  0.16521168  0.66166984  1
  I  I93  1  0.49999259  0.50138926  -0.00007007  1
  I  I94  1  0.49928435  0.50324393  0.33695793  1
  I  I95  1  0.49901112  0.50288933  0.66240935  1
  I  I96  1  0.50057093  0.83351936  0.00083105  1
  I  I97  1  0.50090638  0.83312948  0.33326567  1
  I  I98  1  0.49397382  0.83245440  0.66623353  1
  I  I99  1  0.83898264  0.16182614  0.00518733  1
  I  I100  1  0.83386889  0.16813112  0.32953789  1
  I  I101  1  0.83312563  0.16834975  0.66680009  1
  I  I102  1  0.83416442  0.50201264  0.00162053  1
  I  I103  1  0.83270321  0.50131169  0.33023256  1
  I  I104  1  0.83250099  0.50260607  0.66874561  1
  I  I105  1  0.82892179  0.83505353  0.00409707  1
  I  I106  1  0.83515214  0.82984901  0.32855040  1
  I  I107  1  0.83378995  0.83039997  0.66692765  1
  I  I108  1  0.00052171  0.16121839  0.17297642  1
  I  I109  1  0.00347490  0.17191526  0.49738138  1
  I  I110  1  0.00007671  0.16335405  0.82727089  1
  I  I111  1  -0.00314452  0.50520026  0.16677287  1
  I  I112  1  0.00278362  0.49590608  0.49925319  1
  I  I113  1  -0.00297887  0.50306240  0.83637756  1
  I  I114  1  0.00051763  0.83381710  0.16212892  1
  I  I115  1  0.00015047  0.83207223  0.50077602  1
  I  I116  1  0.00253955  0.83195911  0.83724926  1
  I  I117  1  0.33006772  0.15954129  0.17119794  1
  I  I118  1  0.33307449  0.16643095  0.49339418  1
  I  I119  1  0.33329089  0.16862130  0.83817827  1
  I  I120  1  0.33339623  0.50078088  0.16732302  1
  I  I121  1  0.33382611  0.50075477  0.49901547  1
  I  I122  1  0.33332930  0.50000768  0.83375935  1
  I  I123  1  0.33303443  0.83823704  0.16731455  1
  I  I124  1  0.33641281  0.83280124  0.49554400  1
  I  I125  1  0.33386039  0.83311858  0.83778244  1
  I  I126  1  0.66891387  0.16504490  0.16867725  1
  I  I127  1  0.66368843  0.16663885  0.49836107  1
  I  I128  1  0.66667998  0.16383050  0.83246100  1
  I  I129  1  0.67044626  0.50034872  0.16603528  1
  I  I130  1  0.66379349  0.50128091  0.49923417  1
  I  I131  1  0.66958221  0.50338769  0.83644050  1
  I  I132  1  0.66652815  0.83284215  0.16825256  1
  I  I133  1  0.66157729  0.83213430  0.50103389  1
  I  I134  1  0.66391332  0.83151719  0.83267802  1
