# generated using pymatgen
data_Cs27Sn13Pb14I81
_symmetry_space_group_name_H-M   'P 1'
_cell_length_a   18.97362741
_cell_length_b   18.97832999
_cell_length_c   18.97827678
_cell_angle_alpha   89.99830889
_cell_angle_beta   89.99863451
_cell_angle_gamma   90.00196764
_symmetry_Int_Tables_number   1
_chemical_formula_structural   Cs27Sn13Pb14I81
_chemical_formula_sum   'Cs27 Sn13 Pb14 I81'
_cell_volume   6833.84520640
_cell_formula_units_Z   1
loop_
 _symmetry_equiv_pos_site_id
 _symmetry_equiv_pos_as_xyz
  1  'x, y, z'
loop_
 _atom_site_type_symbol
 _atom_site_label
 _atom_site_symmetry_multiplicity
 _atom_site_fract_x
 _atom_site_fract_y
 _atom_site_fract_z
 _atom_site_occupancy
  Cs  Cs0  1  0.00214133  0.00181054  0.00026178  1
  Cs  Cs1  1  -0.00197511  -0.00321249  0.33438655  1
  Cs  Cs2  1  0.00209105  0.00093804  0.66329217  1
  Cs  Cs3  1  0.00024437  0.33357692  0.00097787  1
  Cs  Cs4  1  -0.00340925  0.33537556  0.32950390  1
  Cs  Cs5  1  -0.00073601  0.33006569  0.66707833  1
  Cs  Cs6  1  0.00185414  0.66513331  0.00050677  1
  Cs  Cs7  1  0.00037403  0.66750425  0.33410749  1
  Cs  Cs8  1  -0.00085827  0.67030307  0.66513979  1
  Cs  Cs9  1  0.33353190  -0.00099440  -0.00004787  1
  Cs  Cs10  1  0.33914974  0.00108255  0.33561864  1
  Cs  Cs11  1  0.33005549  0.00404017  0.66417773  1
  Cs  Cs12  1  0.32984304  0.33327040  0.00176971  1
  Cs  Cs13  1  0.33783034  0.33426856  0.33753202  1
  Cs  Cs14  1  0.33487004  0.33162938  0.65875216  1
  Cs  Cs15  1  0.33176271  0.66759772  -0.00013677  1
  Cs  Cs16  1  0.33097927  0.66347773  0.33600227  1
  Cs  Cs17  1  0.33644840  0.66434400  0.66353371  1
  Cs  Cs18  1  0.66237239  -0.00445596  0.00018789  1
  Cs  Cs19  1  0.66416311  -0.00185311  0.33168300  1
  Cs  Cs20  1  0.66756974  -0.00225853  0.66856412  1
  Cs  Cs21  1  0.66802478  0.33339617  -0.00087598  1
  Cs  Cs22  1  0.66825415  0.33176655  0.33375658  1
  Cs  Cs23  1  0.66664269  0.33529413  0.66723720  1
  Cs  Cs24  1  0.66403784  0.67220463  -0.00782642  1
  Cs  Cs25  1  0.66863543  0.66966211  0.33175770  1
  Cs  Cs26  1  0.66399632  0.66803554  0.67663106  1
  Sn  Sn27  1  0.16652444  0.83341187  0.16628734  1
  Sn  Sn28  1  0.83273217  0.49978557  0.16685892  1
  Sn  Sn29  1  0.16640351  0.16676151  0.16694131  1
  Sn  Sn30  1  0.83239802  0.16668117  0.83393965  1
  Sn  Sn31  1  0.16659284  0.50045623  0.83340505  1
  Sn  Sn32  1  0.50055625  0.50003871  0.16615076  1
  Sn  Sn33  1  0.83328768  0.16732237  0.49953027  1
  Sn  Sn34  1  0.50024097  0.83302685  0.49999775  1
  Sn  Sn35  1  0.16681710  0.49973402  0.16613787  1
  Sn  Sn36  1  0.50043105  0.16723571  0.83372538  1
  Sn  Sn37  1  0.83378760  0.16694684  0.16652892  1
  Sn  Sn38  1  0.83335226  0.49976439  0.49974933  1
  Sn  Sn39  1  0.16648012  0.83231005  0.83372631  1
  Pb  Pb40  1  0.49692911  0.83547203  0.83152332  1
  Pb  Pb41  1  0.83529933  0.83303209  0.16637359  1
  Pb  Pb42  1  0.50045422  0.16844672  0.16519120  1
  Pb  Pb43  1  0.16421248  0.49979734  0.49978040  1
  Pb  Pb44  1  0.16647062  0.16703825  0.83491965  1
  Pb  Pb45  1  0.83538779  0.49835593  0.83377754  1
  Pb  Pb46  1  0.49715625  0.83060042  0.16794126  1
  Pb  Pb47  1  0.16849434  0.83325641  0.49986936  1
  Pb  Pb48  1  0.83618157  0.83633276  0.83354362  1
  Pb  Pb49  1  0.49719303  0.49785441  0.83540952  1
  Pb  Pb50  1  0.83123121  0.83286567  0.50002637  1
  Pb  Pb51  1  0.16414871  0.16693607  0.49617005  1
  Pb  Pb52  1  0.50301287  0.16536698  0.50220922  1
  Pb  Pb53  1  0.50337502  0.50171750  0.49791091  1
  I  I54  1  0.16127035  0.00038245  0.16213540  1
  I  I55  1  0.16439086  0.00013516  0.50106891  1
  I  I56  1  0.16662509  -0.00182582  0.83829936  1
  I  I57  1  0.16446395  0.33411404  0.16153123  1
  I  I58  1  0.17055859  0.33330219  0.50306049  1
  I  I59  1  0.16544422  0.33564305  0.83948785  1
  I  I60  1  0.16655142  0.66564790  0.16270500  1
  I  I61  1  0.16377414  0.66652257  0.49584019  1
  I  I62  1  0.16634559  0.66627183  0.84255610  1
  I  I63  1  0.49947642  -0.00005234  0.16692804  1
  I  I64  1  0.50037585  -0.00227109  0.49896268  1
  I  I65  1  0.50309477  0.00320275  0.83470417  1
  I  I66  1  0.49499736  0.33633467  0.16642451  1
  I  I67  1  0.49847266  0.33344010  0.50040526  1
  I  I68  1  0.50255881  0.33022188  0.83356745  1
  I  I69  1  0.50114057  0.66266179  0.16728610  1
  I  I70  1  0.49997333  0.66915561  0.49930951  1
  I  I71  1  0.50085451  0.66655966  0.83287704  1
  I  I72  1  0.83846177  0.00352051  0.16784449  1
  I  I73  1  0.83310135  0.00321598  0.49910903  1
  I  I74  1  0.83188435  0.00477741  0.83345252  1
  I  I75  1  0.83858885  0.33323046  0.16731650  1
  I  I76  1  0.83353926  0.33273764  0.49798254  1
  I  I77  1  0.83344503  0.33007211  0.83387536  1
  I  I78  1  0.83536579  0.66295779  0.17300408  1
  I  I79  1  0.83423579  0.66346045  0.49265305  1
  I  I80  1  0.83274288  0.66651249  0.83257321  1
  I  I81  1  0.16105070  0.16752867  0.00310981  1
  I  I82  1  0.16283589  0.16734198  0.32791136  1
  I  I83  1  0.16584469  0.16537156  0.66670631  1
  I  I84  1  0.16416959  0.50045415  0.00198436  1
  I  I85  1  0.16784606  0.50073700  0.32942317  1
  I  I86  1  0.16469660  0.50516510  0.66955356  1
  I  I87  1  0.16667819  0.83253780  0.00103956  1
  I  I88  1  0.16674861  0.83212934  0.32997363  1
  I  I89  1  0.16732581  0.82936141  0.66964776  1
  I  I90  1  0.50517099  0.16666832  -0.00249849  1
  I  I91  1  0.49921160  0.16608099  0.33330063  1
  I  I92  1  0.50284114  0.16627433  0.67005870  1
  I  I93  1  0.50450319  0.49968406  0.00353698  1
  I  I94  1  0.49346419  0.49892346  0.32978931  1
  I  I95  1  0.49937039  0.50035598  0.66675120  1
  I  I96  1  0.50079926  0.83354026  -0.00011015  1
  I  I97  1  0.49875767  0.83497767  0.33550898  1
  I  I98  1  0.49925568  0.83317131  0.66410570  1
  I  I99  1  0.83513592  0.17135967  0.00118026  1
  I  I100  1  0.83904771  0.17124927  0.33231092  1
  I  I101  1  0.82889870  0.17055424  0.66664529  1
  I  I102  1  0.83403940  0.49470517  0.00342469  1
  I  I103  1  0.83569002  0.49195420  0.33157515  1
  I  I104  1  0.83580517  0.49502803  0.66452622  1
  I  I105  1  0.83039212  0.83327653  0.00003298  1
  I  I106  1  0.83555761  0.83723401  0.33315732  1
  I  I107  1  0.83601867  0.83338416  0.66674330  1
  I  I108  1  -0.00058761  0.17109543  0.16419035  1
  I  I109  1  -0.00408171  0.16888525  0.50618803  1
  I  I110  1  -0.00267672  0.16670173  0.83221198  1
  I  I111  1  0.00019900  0.49859624  0.16678320  1
  I  I112  1  -0.00364083  0.49637138  0.49385849  1
  I  I113  1  0.00326751  0.50072472  0.83994766  1
  I  I114  1  0.00373572  0.83005819  0.16408027  1
  I  I115  1  -0.00006921  0.83409291  0.50021103  1
  I  I116  1  0.00408000  0.83125450  0.83712921  1
  I  I117  1  0.33061313  0.16748291  0.16238317  1
  I  I118  1  0.33362204  0.16485517  0.50134484  1
  I  I119  1  0.33490600  0.16567103  0.83655329  1
  I  I120  1  0.33180771  0.50015556  0.16162328  1
  I  I121  1  0.33356992  0.50159176  0.49890105  1
  I  I122  1  0.32929092  0.50139922  0.84029899  1
  I  I123  1  0.32893191  0.83480309  0.16287098  1
  I  I124  1  0.33599630  0.83359300  0.49929038  1
  I  I125  1  0.32933743  0.83233611  0.83868737  1
  I  I126  1  0.67017849  0.17206872  0.16840097  1
  I  I127  1  0.67100842  0.16999014  0.49408947  1
  I  I128  1  0.66807647  0.16769147  0.83518832  1
  I  I129  1  0.66804968  0.49312884  0.17259567  1
  I  I130  1  0.67108252  0.49501477  0.49410428  1
  I  I131  1  0.66675702  0.50023381  0.83423897  1
  I  I132  1  0.66635081  0.83365241  0.16868624  1
  I  I133  1  0.66386004  0.83431781  0.49887830  1
  I  I134  1  0.66640172  0.83270351  0.83171949  1
