# generated using pymatgen
data_Cs27Sn14Pb13I81
_symmetry_space_group_name_H-M   'P 1'
_cell_length_a   18.97638603
_cell_length_b   18.97019360
_cell_length_c   18.98080474
_cell_angle_alpha   90.00023522
_cell_angle_beta   89.99953826
_cell_angle_gamma   89.99817664
_symmetry_Int_Tables_number   1
_chemical_formula_structural   Cs27Sn14Pb13I81
_chemical_formula_sum   'Cs27 Sn14 Pb13 I81'
_cell_volume   6832.81859743
_cell_formula_units_Z   1
loop_
 _symmetry_equiv_pos_site_id
 _symmetry_equiv_pos_as_xyz
  1  'x, y, z'
loop_
 _atom_site_type_symbol
 _atom_site_label
 _atom_site_symmetry_multiplicity
 _atom_site_fract_x
 _atom_site_fract_y
 _atom_site_fract_z
 _atom_site_occupancy
  Cs  Cs0  1  -0.00048633  0.00121781  0.00071412  1
  Cs  Cs1  1  -0.00378670  0.00044742  0.33276805  1
  Cs  Cs2  1  0.00014900  -0.00013111  0.66682138  1
  Cs  Cs3  1  -0.00042991  0.33094819  -0.00238550  1
  Cs  Cs4  1  -0.00152672  0.33312033  0.33241022  1
  Cs  Cs5  1  -0.00136145  0.33184238  0.66904139  1
  Cs  Cs6  1  0.00337006  0.66720070  0.00114847  1
  Cs  Cs7  1  0.00559125  0.66417744  0.33357018  1
  Cs  Cs8  1  -0.00090150  0.66978155  0.66499166  1
  Cs  Cs9  1  0.33421851  0.00123529  -0.00276229  1
  Cs  Cs10  1  0.33596072  0.00091396  0.33341072  1
  Cs  Cs11  1  0.33489550  0.00024471  0.66878358  1
  Cs  Cs12  1  0.33178080  0.33132546  -0.00049226  1
  Cs  Cs13  1  0.33465217  0.33794804  0.33576127  1
  Cs  Cs14  1  0.33595705  0.33253662  0.66513530  1
  Cs  Cs15  1  0.33350195  0.66596611  0.01098993  1
  Cs  Cs16  1  0.32566644  0.65759362  0.32441310  1
  Cs  Cs17  1  0.32980270  0.66905059  0.66290549  1
  Cs  Cs18  1  0.66617163  0.00016718  0.00159261  1
  Cs  Cs19  1  0.66831618  -0.00146484  0.33366519  1
  Cs  Cs20  1  0.66587316  -0.00087726  0.66603385  1
  Cs  Cs21  1  0.66747399  0.33506103  -0.00314732  1
  Cs  Cs22  1  0.66798541  0.33271739  0.33698417  1
  Cs  Cs23  1  0.66589734  0.33570594  0.66675247  1
  Cs  Cs24  1  0.66286212  0.66467036  -0.00042106  1
  Cs  Cs25  1  0.66638179  0.67024691  0.33040780  1
  Cs  Cs26  1  0.66940202  0.66871774  0.66887307  1
  Sn  Sn27  1  0.83254601  0.83437646  0.83296067  1
  Sn  Sn28  1  0.16671320  0.16749932  0.83302012  1
  Sn  Sn29  1  0.83293247  0.16580025  0.83238007  1
  Sn  Sn30  1  0.16696709  0.49964167  0.83288011  1
  Sn  Sn31  1  0.49964296  0.16676775  0.16607667  1
  Sn  Sn32  1  0.50007584  0.83293985  0.50040175  1
  Sn  Sn33  1  0.83263897  0.83326900  0.50075279  1
  Sn  Sn34  1  0.83315150  0.50020572  0.49923890  1
  Sn  Sn35  1  0.50038561  0.16624743  0.83397629  1
  Sn  Sn36  1  0.16755254  0.16665181  0.16696340  1
  Sn  Sn37  1  0.83392862  0.16659895  0.50101988  1
  Sn  Sn38  1  0.83304651  0.49983335  0.16724096  1
  Sn  Sn39  1  0.50062357  0.83379498  0.83245213  1
  Sn  Sn40  1  0.16606790  0.16646510  0.50004458  1
  Pb  Pb41  1  0.50241777  0.50395741  0.50031063  1
  Pb  Pb42  1  0.83337195  0.83077274  0.16631311  1
  Pb  Pb43  1  0.16433540  0.49726368  0.50225074  1
  Pb  Pb44  1  0.49715455  0.50080598  0.83306758  1
  Pb  Pb45  1  0.83308492  0.16793377  0.16647112  1
  Pb  Pb46  1  0.50036977  0.16537172  0.50034625  1
  Pb  Pb47  1  0.50008126  0.83551746  0.16661663  1
  Pb  Pb48  1  0.50245266  0.49666186  0.16667529  1
  Pb  Pb49  1  0.16668315  0.83563971  0.49978736  1
  Pb  Pb50  1  0.16702180  0.83363568  0.83345289  1
  Pb  Pb51  1  0.16655783  0.83646905  0.16681004  1
  Pb  Pb52  1  0.83477815  0.50057447  0.83291890  1
  Pb  Pb53  1  0.16447029  0.49695013  0.16446594  1
  I  I54  1  0.16796052  0.00521560  0.16209304  1
  I  I55  1  0.16051237  0.00424136  0.50381222  1
  I  I56  1  0.16625216  0.00383567  0.83342846  1
  I  I57  1  0.16979326  0.32893791  0.16794495  1
  I  I58  1  0.16175769  0.32885773  0.49842954  1
  I  I59  1  0.16462247  0.33021732  0.83395534  1
  I  I60  1  0.16587359  0.66589566  0.16437420  1
  I  I61  1  0.16567936  0.66644772  0.50260485  1
  I  I62  1  0.16358623  0.66441626  0.83275242  1
  I  I63  1  0.49731951  0.00366682  0.16435696  1
  I  I64  1  0.50593592  -0.00238144  0.50121391  1
  I  I65  1  0.49875919  0.00139232  0.83338166  1
  I  I66  1  0.49564440  0.32863388  0.16000706  1
  I  I67  1  0.50078086  0.33319307  0.49967437  1
  I  I68  1  0.50285502  0.32983800  0.83757383  1
  I  I69  1  0.50104914  0.66661392  0.16566074  1
  I  I70  1  0.50619859  0.67194756  0.50881564  1
  I  I71  1  0.50595283  0.67043017  0.82833277  1
  I  I72  1  0.83401454  0.00026045  0.16889380  1
  I  I73  1  0.83394426  0.00054338  0.50457498  1
  I  I74  1  0.83518886  0.00134483  0.82667953  1
  I  I75  1  0.83379722  0.33551482  0.17053599  1
  I  I76  1  0.83862578  0.33207071  0.50003426  1
  I  I77  1  0.83201278  0.33020389  0.83100373  1
  I  I78  1  0.83384959  0.66303433  0.16958916  1
  I  I79  1  0.82780237  0.66761814  0.50151644  1
  I  I80  1  0.83063053  0.66968002  0.83045253  1
  I  I81  1  0.16652566  0.17042565  -0.00122798  1
  I  I82  1  0.16545137  0.16416929  0.33365563  1
  I  I83  1  0.16508141  0.17013878  0.66753685  1
  I  I84  1  0.16292314  0.49394838  -0.00307937  1
  I  I85  1  0.16694108  0.49911264  0.33338809  1
  I  I86  1  0.16404579  0.49287229  0.66976575  1
  I  I87  1  0.16521817  0.83432001  -0.00041705  1
  I  I88  1  0.16582833  0.83530901  0.33364395  1
  I  I89  1  0.16639795  0.83518076  0.66674801  1
  I  I90  1  0.49739533  0.16130347  -0.00187092  1
  I  I91  1  0.49714433  0.16502495  0.33145954  1
  I  I92  1  0.49752015  0.16458566  0.66972756  1
  I  I93  1  0.50374938  0.50437095  -0.00016088  1
  I  I94  1  0.49783113  0.49881074  0.33348097  1
  I  I95  1  0.50194943  0.49285663  0.66674633  1
  I  I96  1  0.50478564  0.83615925  -0.00347870  1
  I  I97  1  0.50707117  0.83718398  0.33632861  1
  I  I98  1  0.50517030  0.84107071  0.66769877  1
  I  I99  1  0.83584536  0.16452912  -0.00317363  1
  I  I100  1  0.83609983  0.16475395  0.33624391  1
  I  I101  1  0.83664558  0.16818892  0.66691075  1
  I  I102  1  0.83568056  0.49766897  0.00137860  1
  I  I103  1  0.83360265  0.49769307  0.33478710  1
  I  I104  1  0.83540343  0.49925223  0.66402904  1
  I  I105  1  0.82992524  0.83796367  -0.00368910  1
  I  I106  1  0.82912010  0.83777091  0.33691215  1
  I  I107  1  0.82971026  0.83263985  0.66658132  1
  I  I108  1  0.00223433  0.16894388  0.16392911  1
  I  I109  1  -0.00128653  0.16500462  0.50281615  1
  I  I110  1  -0.00029294  0.16705315  0.83324106  1
  I  I111  1  -0.00300886  0.49739241  0.17073664  1
  I  I112  1  -0.00391529  0.50479514  0.49681916  1
  I  I113  1  0.00227099  0.49320134  0.83368865  1
  I  I114  1  -0.00038742  0.83593627  0.16549382  1
  I  I115  1  -0.00368275  0.83232587  0.50517983  1
  I  I116  1  -0.00311547  0.83644666  0.82856054  1
  I  I117  1  0.33290122  0.16550608  0.16241660  1
  I  I118  1  0.33106077  0.16401297  0.50250951  1
  I  I119  1  0.33325028  0.16639420  0.83419561  1
  I  I120  1  0.33303169  0.50210846  0.16528854  1
  I  I121  1  0.33299552  0.49955067  0.50088505  1
  I  I122  1  0.32951412  0.49297760  0.83370505  1
  I  I123  1  0.33357372  0.83074149  0.16638151  1
  I  I124  1  0.33635150  0.83862975  0.50684797  1
  I  I125  1  0.33658034  0.83855056  0.82830021  1
  I  I126  1  0.66438009  0.16800442  0.16283288  1
  I  I127  1  0.66998124  0.16840264  0.50203245  1
  I  I128  1  0.66708880  0.16267194  0.83402492  1
  I  I129  1  0.67026018  0.49766564  0.16906160  1
  I  I130  1  0.67108400  0.49172778  0.49858733  1
  I  I131  1  0.66683876  0.49666260  0.83372607  1
  I  I132  1  0.66680932  0.83643787  0.16700457  1
  I  I133  1  0.66824457  0.83639132  0.50422966  1
  I  I134  1  0.66730653  0.84148186  0.82902742  1
