# generated using pymatgen
data_Cs27Sn14Pb13I81
_symmetry_space_group_name_H-M   'P 1'
_cell_length_a   18.95763883
_cell_length_b   18.96239047
_cell_length_c   18.96240120
_cell_angle_alpha   90.00124303
_cell_angle_beta   89.99999601
_cell_angle_gamma   89.99929152
_symmetry_Int_Tables_number   1
_chemical_formula_structural   Cs27Sn14Pb13I81
_chemical_formula_sum   'Cs27 Sn14 Pb13 I81'
_cell_volume   6816.64474896
_cell_formula_units_Z   1
loop_
 _symmetry_equiv_pos_site_id
 _symmetry_equiv_pos_as_xyz
  1  'x, y, z'
loop_
 _atom_site_type_symbol
 _atom_site_label
 _atom_site_symmetry_multiplicity
 _atom_site_fract_x
 _atom_site_fract_y
 _atom_site_fract_z
 _atom_site_occupancy
  Cs  Cs0  1  0.00142497  0.00007339  0.00129962  1
  Cs  Cs1  1  0.00132328  0.00274217  0.33893914  1
  Cs  Cs2  1  -0.00120634  -0.00108766  0.65903294  1
  Cs  Cs3  1  0.00159349  0.33449836  -0.00053299  1
  Cs  Cs4  1  0.00270990  0.32881537  0.33382976  1
  Cs  Cs5  1  0.00163014  0.33471447  0.66672803  1
  Cs  Cs6  1  -0.00143909  0.66593050  -0.00387329  1
  Cs  Cs7  1  -0.00082210  0.66876628  0.33587798  1
  Cs  Cs8  1  -0.00086431  0.66667009  0.66904455  1
  Cs  Cs9  1  0.33401552  -0.00019959  -0.00118029  1
  Cs  Cs10  1  0.33250551  -0.00091979  0.33253707  1
  Cs  Cs11  1  0.33600135  -0.00043084  0.67014846  1
  Cs  Cs12  1  0.32935747  0.33366505  0.00060439  1
  Cs  Cs13  1  0.32754053  0.34051856  0.33343959  1
  Cs  Cs14  1  0.33436478  0.33734140  0.66744897  1
  Cs  Cs15  1  0.33350570  0.66887130  0.00035431  1
  Cs  Cs16  1  0.33523885  0.66189994  0.33596715  1
  Cs  Cs17  1  0.33238200  0.66553558  0.66493939  1
  Cs  Cs18  1  0.66543977  0.00060047  0.00055497  1
  Cs  Cs19  1  0.66698438  0.00033321  0.33216008  1
  Cs  Cs20  1  0.66577105  0.00102992  0.66537677  1
  Cs  Cs21  1  0.66725299  0.32947737  0.00015438  1
  Cs  Cs22  1  0.66726661  0.33600967  0.33333006  1
  Cs  Cs23  1  0.66539191  0.33082449  0.66644500  1
  Cs  Cs24  1  0.66790768  0.66714019  0.00074567  1
  Cs  Cs25  1  0.66452115  0.66329121  0.33127007  1
  Cs  Cs26  1  0.66875504  0.66687317  0.66852150  1
  Sn  Sn27  1  0.50022830  0.83408679  0.49970560  1
  Sn  Sn28  1  0.49957116  0.83217625  0.83342137  1
  Sn  Sn29  1  0.16712292  0.83447543  0.83401868  1
  Sn  Sn30  1  0.83330417  0.49972869  0.16744474  1
  Sn  Sn31  1  0.16682506  0.83347632  0.16612949  1
  Sn  Sn32  1  0.83363489  0.83364407  0.16649785  1
  Sn  Sn33  1  0.50017088  0.16632587  0.16800847  1
  Sn  Sn34  1  0.50024196  0.50112999  0.83391166  1
  Sn  Sn35  1  0.83282279  0.16652398  0.16597972  1
  Sn  Sn36  1  0.16526820  0.16546389  0.83330000  1
  Sn  Sn37  1  0.83326558  0.49998109  0.49948656  1
  Sn  Sn38  1  0.49982854  0.16631689  0.49817533  1
  Sn  Sn39  1  0.83475147  0.16606194  0.83375928  1
  Sn  Sn40  1  0.49980811  0.83401998  0.16691722  1
  Pb  Pb41  1  0.16328114  0.50011280  0.50001005  1
  Pb  Pb42  1  0.83074062  0.83147134  0.49718547  1
  Pb  Pb43  1  0.50151207  0.49967548  0.16475296  1
  Pb  Pb44  1  0.49981787  0.16607286  0.83394137  1
  Pb  Pb45  1  0.17015660  0.16652099  0.50311564  1
  Pb  Pb46  1  0.16327387  0.50332450  0.16657028  1
  Pb  Pb47  1  0.83150144  0.16819687  0.49945512  1
  Pb  Pb48  1  0.16900567  0.50062904  0.83352632  1
  Pb  Pb49  1  0.50149682  0.50003727  0.50191874  1
  Pb  Pb50  1  0.83333859  0.83563137  0.83497301  1
  Pb  Pb51  1  0.83154177  0.49759269  0.83377878  1
  Pb  Pb52  1  0.16920651  0.83337664  0.50021069  1
  Pb  Pb53  1  0.16690692  0.16476884  0.16523379  1
  I  I54  1  0.16423409  -0.00356357  0.16366171  1
  I  I55  1  0.16272798  -0.00010748  0.49856675  1
  I  I56  1  0.17063009  -0.00109973  0.83811573  1
  I  I57  1  0.16747178  0.33316997  0.16467609  1
  I  I58  1  0.17037785  0.33307219  0.50184412  1
  I  I59  1  0.16509241  0.33049628  0.83326151  1
  I  I60  1  0.16925812  0.67173233  0.15997823  1
  I  I61  1  0.16942972  0.66706170  0.50167330  1
  I  I62  1  0.16924888  0.67041652  0.83732880  1
  I  I63  1  0.50471967  -0.00103229  0.16475304  1
  I  I64  1  0.50145313  -0.00064430  0.50200889  1
  I  I65  1  0.49895772  -0.00288176  0.83384210  1
  I  I66  1  0.50583141  0.33021794  0.16800549  1
  I  I67  1  0.50269353  0.33072726  0.49886785  1
  I  I68  1  0.50163701  0.33451661  0.83265277  1
  I  I69  1  0.50104660  0.67005894  0.16807147  1
  I  I70  1  0.50117169  0.66969890  0.49758234  1
  I  I71  1  0.49598448  0.66910153  0.83344551  1
  I  I72  1  0.83060899  0.00015034  0.16076970  1
  I  I73  1  0.83349654  -0.00002358  0.50017799  1
  I  I74  1  0.83067231  0.00357685  0.83891702  1
  I  I75  1  0.82684085  0.33213965  0.16598788  1
  I  I76  1  0.82897939  0.33585427  0.49539469  1
  I  I77  1  0.83510375  0.32965077  0.83878280  1
  I  I78  1  0.83210459  0.66753864  0.17077665  1
  I  I79  1  0.83021285  0.66373670  0.49555423  1
  I  I80  1  0.83456945  0.66687503  0.83421529  1
  I  I81  1  0.16833876  0.16417875  -0.00291940  1
  I  I82  1  0.16422222  0.16514914  0.33326067  1
  I  I83  1  0.16187652  0.16007497  0.67129324  1
  I  I84  1  0.16485545  0.49803748  -0.00001511  1
  I  I85  1  0.17115314  0.50149655  0.33299563  1
  I  I86  1  0.16510359  0.50140360  0.66710350  1
  I  I87  1  0.17196195  0.83696383  -0.00019930  1
  I  I88  1  0.16634616  0.83304860  0.33002244  1
  I  I89  1  0.17188192  0.83659782  0.67019950  1
  I  I90  1  0.50230694  0.16345270  0.00267635  1
  I  I91  1  0.50718060  0.15823299  0.33192872  1
  I  I92  1  0.50058619  0.16391411  0.66523458  1
  I  I93  1  0.50282945  0.50358984  -0.00295967  1
  I  I94  1  0.50053587  0.50223249  0.33312245  1
  I  I95  1  0.50285340  0.50240155  0.66977123  1
  I  I96  1  0.49974710  0.83377777  0.00067297  1
  I  I97  1  0.50113505  0.83803913  0.33201040  1
  I  I98  1  0.49560766  0.83396934  0.66746533  1
  I  I99  1  0.82977630  0.16834852  0.00145744  1
  I  I100  1  0.83028326  0.16485983  0.32980944  1
  I  I101  1  0.83379524  0.16905578  0.66898524  1
  I  I102  1  0.83136140  0.50186199  0.00302272  1
  I  I103  1  0.83011202  0.49935147  0.33176783  1
  I  I104  1  0.83013058  0.49802891  0.66483244  1
  I  I105  1  0.82858770  0.82930240  0.00357928  1
  I  I106  1  0.83413660  0.83836519  0.32854487  1
  I  I107  1  0.83276337  0.83243995  0.66662046  1
  I  I108  1  -0.00306970  0.16629765  0.16364635  1
  I  I109  1  -0.00004609  0.16890259  0.49869742  1
  I  I110  1  -0.00046725  0.16326557  0.83971429  1
  I  I111  1  -0.00503582  0.49804328  0.16884382  1
  I  I112  1  -0.00473525  0.49949867  0.49647608  1
  I  I113  1  -0.00025932  0.50173670  0.83266846  1
  I  I114  1  -0.00039855  0.83207561  0.16050254  1
  I  I115  1  -0.00029536  0.83091653  0.50031320  1
  I  I116  1  0.00259354  0.83507449  0.83888336  1
  I  I117  1  0.33644874  0.16126561  0.16714064  1
  I  I118  1  0.33828372  0.16243733  0.49574499  1
  I  I119  1  0.33148053  0.16517700  0.83312162  1
  I  I120  1  0.33335393  0.49918329  0.16489023  1
  I  I121  1  0.33370490  0.49984962  0.50214474  1
  I  I122  1  0.33709008  0.49862503  0.83259456  1
  I  I123  1  0.33476262  0.83891808  0.16471534  1
  I  I124  1  0.33770977  0.83634592  0.49655746  1
  I  I125  1  0.33435137  0.83572955  0.83803525  1
  I  I126  1  0.66691174  0.16227855  0.16368721  1
  I  I127  1  0.66345837  0.16302960  0.50215708  1
  I  I128  1  0.66839315  0.16752333  0.83501591  1
  I  I129  1  0.66976484  0.50409178  0.16858140  1
  I  I130  1  0.66909212  0.50009985  0.49576579  1
  I  I131  1  0.66374303  0.50499450  0.83361562  1
  I  I132  1  0.66596941  0.83381848  0.16620427  1
  I  I133  1  0.66243151  0.83688232  0.50200695  1
  I  I134  1  0.66356448  0.83151844  0.83448875  1
