# generated using pymatgen
data_Cs27Sn13Pb14I81
_symmetry_space_group_name_H-M   'P 1'
_cell_length_a   18.97384662
_cell_length_b   18.97331686
_cell_length_c   18.98299893
_cell_angle_alpha   89.99839279
_cell_angle_beta   89.99994024
_cell_angle_gamma   90.00022266
_symmetry_Int_Tables_number   1
_chemical_formula_structural   Cs27Sn13Pb14I81
_chemical_formula_sum   'Cs27 Sn13 Pb14 I81'
_cell_volume   6833.81894306
_cell_formula_units_Z   1
loop_
 _symmetry_equiv_pos_site_id
 _symmetry_equiv_pos_as_xyz
  1  'x, y, z'
loop_
 _atom_site_type_symbol
 _atom_site_label
 _atom_site_symmetry_multiplicity
 _atom_site_fract_x
 _atom_site_fract_y
 _atom_site_fract_z
 _atom_site_occupancy
  Cs  Cs0  1  0.00107639  0.00048603  0.00129659  1
  Cs  Cs1  1  -0.00292027  -0.00196671  0.33199299  1
  Cs  Cs2  1  -0.00155184  0.00721717  0.66681081  1
  Cs  Cs3  1  -0.00054742  0.33563894  0.00019483  1
  Cs  Cs4  1  0.00157168  0.33591590  0.33145851  1
  Cs  Cs5  1  0.00084088  0.32870003  0.66649522  1
  Cs  Cs6  1  0.00040805  0.66520192  0.00002905  1
  Cs  Cs7  1  -0.00095829  0.66680977  0.33272929  1
  Cs  Cs8  1  0.00080939  0.66490628  0.66951833  1
  Cs  Cs9  1  0.33304728  -0.00126402  -0.00040340  1
  Cs  Cs10  1  0.33353427  -0.00288126  0.33191175  1
  Cs  Cs11  1  0.33296799  0.00108373  0.66888283  1
  Cs  Cs12  1  0.33877038  0.33148779  0.00204826  1
  Cs  Cs13  1  0.34041378  0.33328182  0.33851276  1
  Cs  Cs14  1  0.33759077  0.32684271  0.65522701  1
  Cs  Cs15  1  0.33175717  0.66809654  -0.00114221  1
  Cs  Cs16  1  0.33234808  0.66775256  0.33480794  1
  Cs  Cs17  1  0.33455773  0.66772260  0.66573893  1
  Cs  Cs18  1  0.66385919  0.00091889  -0.00190115  1
  Cs  Cs19  1  0.66936182  -0.00188303  0.33596210  1
  Cs  Cs20  1  0.66868729  0.00741559  0.66732710  1
  Cs  Cs21  1  0.66205973  0.33327252  0.00166128  1
  Cs  Cs22  1  0.65888399  0.33290267  0.33143893  1
  Cs  Cs23  1  0.66358882  0.32636178  0.66526929  1
  Cs  Cs24  1  0.66780455  0.66554199  -0.00327088  1
  Cs  Cs25  1  0.66976349  0.66847024  0.33342374  1
  Cs  Cs26  1  0.66669062  0.66605245  0.67126418  1
  Sn  Sn27  1  0.83398705  0.49909967  0.16668601  1
  Sn  Sn28  1  0.49981850  0.83278752  0.49945696  1
  Sn  Sn29  1  0.83454180  0.83305174  0.83344945  1
  Sn  Sn30  1  0.49944235  0.83257588  0.16729784  1
  Sn  Sn31  1  0.16527524  0.83260433  0.83316678  1
  Sn  Sn32  1  0.16600369  0.16720666  0.16663424  1
  Sn  Sn33  1  0.16675179  0.50011028  0.83361855  1
  Sn  Sn34  1  0.16665951  0.83313921  0.50024763  1
  Sn  Sn35  1  0.83345697  0.50004453  0.50030135  1
  Sn  Sn36  1  0.83414914  0.16782185  0.16647687  1
  Sn  Sn37  1  0.83420961  0.50048673  0.83303194  1
  Sn  Sn38  1  0.16714697  0.83307242  0.16665365  1
  Sn  Sn39  1  0.16637227  0.49961442  0.16607302  1
  Pb  Pb40  1  0.49890629  0.49991240  0.83322136  1
  Pb  Pb41  1  0.49953704  0.50279648  0.16654226  1
  Pb  Pb42  1  0.83359039  0.83181158  0.50299406  1
  Pb  Pb43  1  0.83367393  0.17002606  0.49673410  1
  Pb  Pb44  1  0.49987031  0.16366504  0.16665577  1
  Pb  Pb45  1  0.49957331  0.16686591  0.83355112  1
  Pb  Pb46  1  0.83357802  0.16776106  0.83601624  1
  Pb  Pb47  1  0.16518734  0.50179935  0.50026777  1
  Pb  Pb48  1  0.49960465  0.83324871  0.83299602  1
  Pb  Pb49  1  0.50291986  0.50283217  0.50005371  1
  Pb  Pb50  1  0.16681116  0.16762799  0.83559520  1
  Pb  Pb51  1  0.50004544  0.16303255  0.49956463  1
  Pb  Pb52  1  0.83353803  0.83289903  0.16472995  1
  Pb  Pb53  1  0.16632006  0.16365090  0.49674636  1
  I  I54  1  0.16642838  -0.00124352  0.16688154  1
  I  I55  1  0.16984617  -0.00500786  0.50114333  1
  I  I56  1  0.16368126  -0.00342665  0.83431382  1
  I  I57  1  0.15964797  0.33458077  0.16080590  1
  I  I58  1  0.16507264  0.33347948  0.50059019  1
  I  I59  1  0.15970767  0.33740070  0.83923064  1
  I  I60  1  0.16612782  0.66704053  0.16613964  1
  I  I61  1  0.16919340  0.67019985  0.49498914  1
  I  I62  1  0.16233674  0.66765187  0.83883457  1
  I  I63  1  0.49637682  -0.00428413  0.16961302  1
  I  I64  1  0.49692875  -0.00495800  0.49483376  1
  I  I65  1  0.50120339  -0.00083570  0.83434238  1
  I  I66  1  0.49825581  0.33340905  0.16636591  1
  I  I67  1  0.50061490  0.33334011  0.50058029  1
  I  I68  1  0.50146548  0.33366715  0.83480084  1
  I  I69  1  0.49609170  0.67069232  0.16980625  1
  I  I70  1  0.49487674  0.67062150  0.49557381  1
  I  I71  1  0.50194012  0.66693930  0.83414848  1
  I  I72  1  0.83631990  0.00153273  0.16463343  1
  I  I73  1  0.83203220  -0.00011151  0.49980435  1
  I  I74  1  0.83657261  -0.00262900  0.83484734  1
  I  I75  1  0.84159890  0.33485079  0.16516370  1
  I  I76  1  0.83560821  0.33800071  0.50630218  1
  I  I77  1  0.83877613  0.33745166  0.83182680  1
  I  I78  1  0.83586936  0.66362359  0.16789009  1
  I  I79  1  0.83374592  0.66404778  0.49355973  1
  I  I80  1  0.83655536  0.66591784  0.83640731  1
  I  I81  1  0.16235727  0.16094270  0.00396544  1
  I  I82  1  0.16225090  0.16724772  0.32836913  1
  I  I83  1  0.16784829  0.16620040  0.66655169  1
  I  I84  1  0.15814447  0.50637684  0.00099506  1
  I  I85  1  0.16150403  0.50209127  0.33011560  1
  I  I86  1  0.16106235  0.50775711  0.66980742  1
  I  I87  1  0.16699967  0.83307574  0.00073940  1
  I  I88  1  0.17149578  0.83340633  0.33209953  1
  I  I89  1  0.16757039  0.82701013  0.66748713  1
  I  I90  1  0.50072181  0.16350333  0.00082766  1
  I  I91  1  0.50030557  0.16787047  0.33286584  1
  I  I92  1  0.50074000  0.16462642  0.66627424  1
  I  I93  1  0.50473744  0.50287534  0.00014438  1
  I  I94  1  0.50061107  0.50007511  0.33312074  1
  I  I95  1  0.49995824  0.50396429  0.66662362  1
  I  I96  1  0.49655664  0.83394348  0.00259743  1
  I  I97  1  0.49193484  0.83286594  0.33262977  1
  I  I98  1  0.49631079  0.83214837  0.66390289  1
  I  I99  1  0.83804264  0.17023861  0.00381596  1
  I  I100  1  0.83804647  0.16847837  0.32874289  1
  I  I101  1  0.83130733  0.16596288  0.66670853  1
  I  I102  1  0.83766817  0.50095661  0.00032768  1
  I  I103  1  0.83756590  0.49719361  0.33179818  1
  I  I104  1  0.83708110  0.50838812  0.66797815  1
  I  I105  1  0.83668385  0.82861345  -0.00294138  1
  I  I106  1  0.83467915  0.83243783  0.33319332  1
  I  I107  1  0.83636224  0.82689977  0.67071780  1
  I  I108  1  0.00076905  0.16429401  0.16628304  1
  I  I109  1  -0.00004323  0.16218619  0.50141913  1
  I  I110  1  0.00008639  0.16369922  0.83208463  1
  I  I111  1  0.00023208  0.50217287  0.16619845  1
  I  I112  1  -0.00278719  0.50462323  0.49834467  1
  I  I113  1  -0.00028045  0.50618899  0.83569924  1
  I  I114  1  0.00318780  0.83360836  0.16920773  1
  I  I115  1  0.00295701  0.83153456  0.49524788  1
  I  I116  1  0.00127970  0.82877023  0.83490277  1
  I  I117  1  0.32991296  0.16811171  0.16546464  1
  I  I118  1  0.33310568  0.17070700  0.49791181  1
  I  I119  1  0.33267462  0.16443625  0.83747995  1
  I  I120  1  0.32935993  0.49853680  0.16146173  1
  I  I121  1  0.33319843  0.49937478  0.49961836  1
  I  I122  1  0.32868107  0.50754757  0.84106705  1
  I  I123  1  0.33096228  0.83377648  0.16526162  1
  I  I124  1  0.33207733  0.83212056  0.49970389  1
  I  I125  1  0.32951494  0.82924131  0.83441427  1
  I  I126  1  0.66965027  0.17098943  0.16591724  1
  I  I127  1  0.66696522  0.16431790  0.49793044  1
  I  I128  1  0.66721855  0.16430606  0.83640950  1
  I  I129  1  0.67011392  0.49692897  0.16567884  1
  I  I130  1  0.67109933  0.50302430  0.49874755  1
  I  I131  1  0.67047966  0.50588523  0.83533590  1
  I  I132  1  0.66477414  0.83347290  0.16981925  1
  I  I133  1  0.66446512  0.83090452  0.49446270  1
  I  I134  1  0.66953841  0.82850966  0.83499427  1
