# generated using pymatgen
data_Cs27Sn13Pb14I81
_symmetry_space_group_name_H-M   'P 1'
_cell_length_a   18.97265226
_cell_length_b   18.97945787
_cell_length_c   18.97898026
_cell_angle_alpha   89.99958429
_cell_angle_beta   89.99829032
_cell_angle_gamma   89.99957489
_symmetry_Int_Tables_number   1
_chemical_formula_structural   Cs27Sn13Pb14I81
_chemical_formula_sum   'Cs27 Sn13 Pb14 I81'
_cell_volume   6834.15341553
_cell_formula_units_Z   1
loop_
 _symmetry_equiv_pos_site_id
 _symmetry_equiv_pos_as_xyz
  1  'x, y, z'
loop_
 _atom_site_type_symbol
 _atom_site_label
 _atom_site_symmetry_multiplicity
 _atom_site_fract_x
 _atom_site_fract_y
 _atom_site_fract_z
 _atom_site_occupancy
  Cs  Cs0  1  0.00242979  0.00179521  -0.00239139  1
  Cs  Cs1  1  -0.00124031  -0.00094946  0.33792433  1
  Cs  Cs2  1  0.00124467  -0.00110916  0.66507410  1
  Cs  Cs3  1  -0.00344472  0.33566432  0.00199152  1
  Cs  Cs4  1  0.00102486  0.33493892  0.33444264  1
  Cs  Cs5  1  0.00014274  0.33287393  0.66462206  1
  Cs  Cs6  1  0.00060719  0.66265291  0.00074275  1
  Cs  Cs7  1  -0.00351805  0.66547261  0.33536345  1
  Cs  Cs8  1  0.00028766  0.66879208  0.66470601  1
  Cs  Cs9  1  0.33249454  -0.00164320  0.00050794  1
  Cs  Cs10  1  0.33402159  0.00044257  0.33140578  1
  Cs  Cs11  1  0.33155063  -0.00147739  0.66732528  1
  Cs  Cs12  1  0.33148088  0.33452356  -0.00007830  1
  Cs  Cs13  1  0.33401999  0.33495216  0.33527293  1
  Cs  Cs14  1  0.33711004  0.33434415  0.66496504  1
  Cs  Cs15  1  0.33245682  0.66784824  0.00116498  1
  Cs  Cs16  1  0.33361427  0.66493587  0.33147499  1
  Cs  Cs17  1  0.33418807  0.66771943  0.66668964  1
  Cs  Cs18  1  0.66718688  0.00522862  0.00804272  1
  Cs  Cs19  1  0.66542524  -0.00124352  0.32319632  1
  Cs  Cs20  1  0.66562296  0.00021007  0.66814359  1
  Cs  Cs21  1  0.67495872  0.32794998  -0.00668900  1
  Cs  Cs22  1  0.66341082  0.32964643  0.33646357  1
  Cs  Cs23  1  0.66103149  0.33486023  0.66992499  1
  Cs  Cs24  1  0.66885358  0.66593916  0.00165393  1
  Cs  Cs25  1  0.66682095  0.67063273  0.33023117  1
  Cs  Cs26  1  0.66423972  0.66472337  0.66787817  1
  Sn  Sn27  1  0.83358972  0.49926373  0.50030437  1
  Sn  Sn28  1  0.50046621  0.49922563  0.16603005  1
  Sn  Sn29  1  0.16626911  0.16748805  0.50003957  1
  Sn  Sn30  1  0.16671180  0.16707565  0.83317223  1
  Sn  Sn31  1  0.16631271  0.83373122  0.16628026  1
  Sn  Sn32  1  0.49991755  0.83366393  0.50027402  1
  Sn  Sn33  1  0.83370894  0.16726110  0.50036614  1
  Sn  Sn34  1  0.16662132  0.16592966  0.16699936  1
  Sn  Sn35  1  0.83329887  0.83350629  0.83350893  1
  Sn  Sn36  1  0.16676898  0.50001479  0.83221591  1
  Sn  Sn37  1  0.16659490  0.83309950  0.83407769  1
  Sn  Sn38  1  0.50030472  0.83351636  0.83290595  1
  Sn  Sn39  1  0.16617901  0.49950300  0.50088735  1
  Pb  Pb40  1  0.49797218  0.50194369  0.83564049  1
  Pb  Pb41  1  0.83019806  0.49968057  0.16937592  1
  Pb  Pb42  1  0.83564726  0.50178267  0.83101111  1
  Pb  Pb43  1  0.83626616  0.16682641  0.16940030  1
  Pb  Pb44  1  0.49795585  0.83210905  0.16586092  1
  Pb  Pb45  1  0.16733688  0.49978701  0.16701729  1
  Pb  Pb46  1  0.49763384  0.16973703  0.16640709  1
  Pb  Pb47  1  0.49998631  0.50192053  0.49880714  1
  Pb  Pb48  1  0.49991298  0.16408929  0.50004629  1
  Pb  Pb49  1  0.83665182  0.83328887  0.16371217  1
  Pb  Pb50  1  0.49774982  0.16419693  0.83342880  1
  Pb  Pb51  1  0.83059155  0.83369180  0.50177541  1
  Pb  Pb52  1  0.83567295  0.16466064  0.83089399  1
  Pb  Pb53  1  0.16788570  0.83323886  0.49995867  1
  I  I54  1  0.16805082  0.00001446  0.16344265  1
  I  I55  1  0.16391912  0.00265981  0.50192190  1
  I  I56  1  0.16693446  -0.00058145  0.83361138  1
  I  I57  1  0.16904602  0.33063980  0.16480603  1
  I  I58  1  0.16392398  0.33322579  0.50208719  1
  I  I59  1  0.16694440  0.33320018  0.83313132  1
  I  I60  1  0.16955583  0.66883993  0.16264740  1
  I  I61  1  0.16448241  0.66412967  0.50265579  1
  I  I62  1  0.16717297  0.66758578  0.83348276  1
  I  I63  1  0.49984594  0.00002201  0.16738689  1
  I  I64  1  0.49750128  -0.00365430  0.50425608  1
  I  I65  1  0.49605220  -0.00442975  0.82926240  1
  I  I66  1  0.49478126  0.33690458  0.17082012  1
  I  I67  1  0.49913788  0.33335806  0.49760484  1
  I  I68  1  0.49770022  0.33349245  0.83380396  1
  I  I69  1  0.49446878  0.66485196  0.16793561  1
  I  I70  1  0.49804872  0.66954138  0.50365754  1
  I  I71  1  0.49555746  0.67031158  0.82946031  1
  I  I72  1  0.83044338  -0.00007749  0.17008915  1
  I  I73  1  0.83982217  0.00263037  0.50252627  1
  I  I74  1  0.83697259  -0.00335460  0.82951591  1
  I  I75  1  0.83603487  0.33325248  0.16328067  1
  I  I76  1  0.83980942  0.33338662  0.49919869  1
  I  I77  1  0.83489137  0.33325453  0.83467819  1
  I  I78  1  0.83642152  0.66668393  0.16998017  1
  I  I79  1  0.83834794  0.66424110  0.50153212  1
  I  I80  1  0.83686116  0.66987774  0.83013567  1
  I  I81  1  0.16938104  0.16443342  -0.00063624  1
  I  I82  1  0.16351974  0.16642707  0.33408191  1
  I  I83  1  0.16294941  0.16544011  0.66656109  1
  I  I84  1  0.16989005  0.49967661  -0.00257880  1
  I  I85  1  0.16540420  0.49772202  0.33625426  1
  I  I86  1  0.16429349  0.49889618  0.66642747  1
  I  I87  1  0.16925672  0.83583061  -0.00176170  1
  I  I88  1  0.17065376  0.83593092  0.33126504  1
  I  I89  1  0.16599644  0.83509891  0.66969456  1
  I  I90  1  0.49749075  0.16408376  -0.00002677  1
  I  I91  1  0.49685691  0.16314953  0.33342032  1
  I  I92  1  0.49647669  0.16807937  0.66657594  1
  I  I93  1  0.49400902  0.50403439  0.00278758  1
  I  I94  1  0.49548579  0.50416499  0.33148101  1
  I  I95  1  0.50011215  0.50084780  0.66682831  1
  I  I96  1  0.49839293  0.83113964  -0.00312230  1
  I  I97  1  0.49743128  0.83153747  0.33512628  1
  I  I98  1  0.49560773  0.83216258  0.66779446  1
  I  I99  1  0.83398413  0.16485261  -0.00024133  1
  I  I100  1  0.83969030  0.16889196  0.33750014  1
  I  I101  1  0.84106264  0.16887531  0.66309996  1
  I  I102  1  0.83449018  0.50234377  -0.00037059  1
  I  I103  1  0.84227834  0.49879439  0.33761050  1
  I  I104  1  0.83524977  0.49719287  0.66300309  1
  I  I105  1  0.82918859  0.83286773  -0.00441111  1
  I  I106  1  0.83277406  0.83309729  0.33349909  1
  I  I107  1  0.84069712  0.83350639  0.66949661  1
  I  I108  1  0.00485345  0.16383947  0.16353052  1
  I  I109  1  0.00206997  0.16942343  0.50001436  1
  I  I110  1  0.00456312  0.16342497  0.83497383  1
  I  I111  1  0.00011276  0.50060342  0.16532952  1
  I  I112  1  0.00167952  0.49758895  0.50294688  1
  I  I113  1  0.00443846  0.50279490  0.83335035  1
  I  I114  1  0.00486589  0.83554947  0.16303905  1
  I  I115  1  0.00001453  0.83287098  0.50036272  1
  I  I116  1  0.00194532  0.83375340  0.83709975  1
  I  I117  1  0.32878034  0.16213266  0.16932916  1
  I  I118  1  0.32948867  0.16988542  0.50030276  1
  I  I119  1  0.32840715  0.16426354  0.83006494  1
  I  I120  1  0.33453322  0.50159503  0.16909919  1
  I  I121  1  0.33019050  0.49704421  0.50217413  1
  I  I122  1  0.32903981  0.50208977  0.82745817  1
  I  I123  1  0.32992325  0.83609162  0.16149345  1
  I  I124  1  0.33536970  0.83255536  0.50534809  1
  I  I125  1  0.33167920  0.83350108  0.83307097  1
  I  I126  1  0.66686048  0.16632903  0.16903489  1
  I  I127  1  0.66967334  0.17072108  0.50109749  1
  I  I128  1  0.66703794  0.16477964  0.83125679  1
  I  I129  1  0.66275000  0.50505586  0.16906553  1
  I  I130  1  0.66934873  0.49723217  0.49741272  1
  I  I131  1  0.66679651  0.50317589  0.83246916  1
  I  I132  1  0.66661616  0.83151052  0.16690580  1
  I  I133  1  0.66317760  0.83174637  0.50591767  1
  I  I134  1  0.66620674  0.83140136  0.82513569  1
