# generated using pymatgen
data_Cs27Sn13Pb14I81
_symmetry_space_group_name_H-M   'P 1'
_cell_length_a   18.97864900
_cell_length_b   18.97156215
_cell_length_c   18.98230474
_cell_angle_alpha   89.99949462
_cell_angle_beta   89.99892478
_cell_angle_gamma   90.00059794
_symmetry_Int_Tables_number   1
_chemical_formula_structural   Cs27Sn13Pb14I81
_chemical_formula_sum   'Cs27 Sn13 Pb14 I81'
_cell_volume   6834.66649977
_cell_formula_units_Z   1
loop_
 _symmetry_equiv_pos_site_id
 _symmetry_equiv_pos_as_xyz
  1  'x, y, z'
loop_
 _atom_site_type_symbol
 _atom_site_label
 _atom_site_symmetry_multiplicity
 _atom_site_fract_x
 _atom_site_fract_y
 _atom_site_fract_z
 _atom_site_occupancy
  Cs  Cs0  1  0.00090360  0.00408559  -0.00158676  1
  Cs  Cs1  1  -0.00019072  -0.00140221  0.33493244  1
  Cs  Cs2  1  0.00711018  0.00000500  0.66687295  1
  Cs  Cs3  1  -0.00029307  0.33274623  0.00131841  1
  Cs  Cs4  1  -0.00180430  0.33331628  0.33117377  1
  Cs  Cs5  1  -0.00112499  0.33144771  0.66868917  1
  Cs  Cs6  1  -0.00037800  0.66621521  0.00113706  1
  Cs  Cs7  1  -0.00600658  0.66965924  0.33411974  1
  Cs  Cs8  1  -0.00148742  0.66932993  0.66480485  1
  Cs  Cs9  1  0.34039123  -0.00491745  -0.00344497  1
  Cs  Cs10  1  0.33470252  0.00417441  0.33452965  1
  Cs  Cs11  1  0.32717482  0.00197303  0.66876665  1
  Cs  Cs12  1  0.33179254  0.33726860  0.00316130  1
  Cs  Cs13  1  0.33374520  0.33311163  0.33341785  1
  Cs  Cs14  1  0.33365849  0.33373556  0.66260456  1
  Cs  Cs15  1  0.33300168  0.66539096  -0.00078113  1
  Cs  Cs16  1  0.33328838  0.66495093  0.33436213  1
  Cs  Cs17  1  0.33439672  0.66616815  0.66640999  1
  Cs  Cs18  1  0.65887287  -0.00158823  -0.00109650  1
  Cs  Cs19  1  0.66513211  -0.00067768  0.33071516  1
  Cs  Cs20  1  0.66513841  0.00503549  0.67096498  1
  Cs  Cs21  1  0.66786455  0.33239489  -0.00198208  1
  Cs  Cs22  1  0.66850105  0.33254326  0.33427464  1
  Cs  Cs23  1  0.66763738  0.33214458  0.66756420  1
  Cs  Cs24  1  0.66765791  0.66915871  0.00058834  1
  Cs  Cs25  1  0.67277056  0.66919741  0.33487085  1
  Cs  Cs26  1  0.66713686  0.66584753  0.66498869  1
  Sn  Sn27  1  0.49970487  0.50098324  0.49960658  1
  Sn  Sn28  1  0.16684123  0.83321663  0.16678007  1
  Sn  Sn29  1  0.83370845  0.16658150  0.16739914  1
  Sn  Sn30  1  0.83348215  0.50104576  0.83342074  1
  Sn  Sn31  1  0.83354591  0.83291422  0.83336900  1
  Sn  Sn32  1  0.83351806  0.16653338  0.49935296  1
  Sn  Sn33  1  0.16668462  0.50019502  0.49956134  1
  Sn  Sn34  1  0.16621592  0.16632142  0.16646162  1
  Sn  Sn35  1  0.49978338  0.83295968  0.50015177  1
  Sn  Sn36  1  0.16688089  0.50034606  0.16730326  1
  Sn  Sn37  1  0.49999247  0.50021294  0.16714592  1
  Sn  Sn38  1  0.16642403  0.50012907  0.83303828  1
  Sn  Sn39  1  0.50005966  0.50021608  0.83327568  1
  Pb  Pb40  1  0.50172430  0.16703056  0.49999181  1
  Pb  Pb41  1  0.83344840  0.16636535  0.83379836  1
  Pb  Pb42  1  0.16477254  0.16909957  0.49774193  1
  Pb  Pb43  1  0.83528270  0.83630333  0.16462725  1
  Pb  Pb44  1  0.49964797  0.16896256  0.16664573  1
  Pb  Pb45  1  0.16857272  0.83108013  0.49790794  1
  Pb  Pb46  1  0.83340082  0.49874969  0.16461234  1
  Pb  Pb47  1  0.49782520  0.83042310  0.16874030  1
  Pb  Pb48  1  0.49938771  0.16927731  0.83325485  1
  Pb  Pb49  1  0.83327493  0.49876645  0.50226982  1
  Pb  Pb50  1  0.83121802  0.83621488  0.50223223  1
  Pb  Pb51  1  0.16702765  0.16899502  0.83609157  1
  Pb  Pb52  1  0.50155989  0.83084250  0.83103319  1
  Pb  Pb53  1  0.16505118  0.83090365  0.83531170  1
  I  I54  1  0.15944596  0.00049107  0.16767637  1
  I  I55  1  0.16783849  0.00003271  0.49845241  1
  I  I56  1  0.16302786  -0.00028512  0.83442829  1
  I  I57  1  0.16648025  0.33495931  0.16584598  1
  I  I58  1  0.17314124  0.33766887  0.49887505  1
  I  I59  1  0.16371008  0.33823556  0.83550714  1
  I  I60  1  0.17192099  0.66471466  0.16523175  1
  I  I61  1  0.16739660  0.66234074  0.49823384  1
  I  I62  1  0.16915538  0.66206525  0.83645976  1
  I  I63  1  0.49917680  -0.00028200  0.16867819  1
  I  I64  1  0.50331929  -0.00264449  0.49854975  1
  I  I65  1  0.50378879  -0.00070082  0.83239151  1
  I  I66  1  0.49433016  0.33767460  0.16845490  1
  I  I67  1  0.49683287  0.33734157  0.50047267  1
  I  I68  1  0.50364632  0.33882926  0.83096615  1
  I  I69  1  0.49426570  0.66207566  0.16343007  1
  I  I70  1  0.49670445  0.66393762  0.50053248  1
  I  I71  1  0.49734484  0.66208836  0.83577459  1
  I  I72  1  0.83918409  0.00411404  0.16878811  1
  I  I73  1  0.83167191  0.00366627  0.49689071  1
  I  I74  1  0.83319067  -0.00257080  0.83346927  1
  I  I75  1  0.83855539  0.33094493  0.16749129  1
  I  I76  1  0.83201594  0.33109916  0.49801981  1
  I  I77  1  0.83289330  0.33639846  0.83354506  1
  I  I78  1  0.83422056  0.66670388  0.16671254  1
  I  I79  1  0.83469952  0.66664919  0.49985927  1
  I  I80  1  0.83333463  0.66467172  0.83343578  1
  I  I81  1  0.15831195  0.17088798  0.00443237  1
  I  I82  1  0.16498846  0.17068906  0.32964833  1
  I  I83  1  0.16419002  0.16864513  0.66646736  1
  I  I84  1  0.16915222  0.49918174  0.00069014  1
  I  I85  1  0.17444353  0.49859380  0.33240733  1
  I  I86  1  0.16954006  0.49988294  0.66678092  1
  I  I87  1  0.16616841  0.83052391  0.00338374  1
  I  I88  1  0.16606510  0.83003647  0.32990519  1
  I  I89  1  0.16603560  0.83173416  0.66659391  1
  I  I90  1  0.50376984  0.16796294  0.00028376  1
  I  I91  1  0.49940482  0.17034282  0.33322513  1
  I  I92  1  0.50477908  0.16996745  0.66640197  1
  I  I93  1  0.49656953  0.49774232  0.00000516  1
  I  I94  1  0.49158366  0.50198351  0.33356107  1
  I  I95  1  0.49734879  0.50322058  0.66648058  1
  I  I96  1  0.50054615  0.83287741  0.00000286  1
  I  I97  1  0.50075373  0.82599825  0.33627704  1
  I  I98  1  0.50097764  0.82565106  0.66351112  1
  I  I99  1  0.83882485  0.16917056  0.00279441  1
  I  I100  1  0.83705639  0.16927118  0.33250033  1
  I  I101  1  0.83059682  0.16909298  0.66470521  1
  I  I102  1  0.83340825  0.50006423  -0.00341887  1
  I  I103  1  0.83319869  0.49926993  0.33331751  1
  I  I104  1  0.83347131  0.49989119  0.67026269  1
  I  I105  1  0.83335755  0.82844457  -0.00297793  1
  I  I106  1  0.83328476  0.83267248  0.33332656  1
  I  I107  1  0.83324305  0.82863381  0.66978744  1
  I  I108  1  0.00072634  0.17093195  0.16975955  1
  I  I109  1  -0.00298373  0.16913163  0.49866471  1
  I  I110  1  -0.00000892  0.17075912  0.83205447  1
  I  I111  1  0.00334340  0.50030727  0.16617643  1
  I  I112  1  0.00276628  0.49718154  0.49902725  1
  I  I113  1  0.00048802  0.50260580  0.83449136  1
  I  I114  1  0.00326194  0.82574154  0.16703569  1
  I  I115  1  0.00003753  0.83243809  0.50011078  1
  I  I116  1  -0.00282505  0.82656066  0.83316932  1
  I  I117  1  0.33001931  0.16801320  0.16635128  1
  I  I118  1  0.33313239  0.16652657  0.49858601  1
  I  I119  1  0.33304466  0.16702364  0.83426633  1
  I  I120  1  0.33207219  0.49785546  0.16285307  1
  I  I121  1  0.33350078  0.50228044  0.50347547  1
  I  I122  1  0.33318537  0.49823005  0.83457123  1
  I  I123  1  0.32978818  0.83684287  0.16579308  1
  I  I124  1  0.33641179  0.82983001  0.49986125  1
  I  I125  1  0.33333130  0.83278896  0.83415338  1
  I  I126  1  0.66935175  0.16993569  0.16973815  1
  I  I127  1  0.66965979  0.16998703  0.49417547  1
  I  I128  1  0.66695777  0.16996256  0.83530150  1
  I  I129  1  0.66401791  0.49730544  0.16655414  1
  I  I130  1  0.66364796  0.50146270  0.50004386  1
  I  I131  1  0.66638318  0.50275140  0.83318556  1
  I  I132  1  0.66653442  0.83343173  0.16621432  1
  I  I133  1  0.66364942  0.82406512  0.49923189  1
  I  I134  1  0.66951603  0.82741354  0.83412504  1
