# generated using pymatgen
data_Cs27Sn14Pb13I81
_symmetry_space_group_name_H-M   'P 1'
_cell_length_a   18.97359331
_cell_length_b   18.97346825
_cell_length_c   18.98173063
_cell_angle_alpha   89.99912618
_cell_angle_beta   89.99988984
_cell_angle_gamma   89.99979614
_symmetry_Int_Tables_number   1
_chemical_formula_structural   Cs27Sn14Pb13I81
_chemical_formula_sum   'Cs27 Sn14 Pb13 I81'
_cell_volume   6833.32565469
_cell_formula_units_Z   1
loop_
 _symmetry_equiv_pos_site_id
 _symmetry_equiv_pos_as_xyz
  1  'x, y, z'
loop_
 _atom_site_type_symbol
 _atom_site_label
 _atom_site_symmetry_multiplicity
 _atom_site_fract_x
 _atom_site_fract_y
 _atom_site_fract_z
 _atom_site_occupancy
  Cs  Cs0  1  0.00066794  -0.00245389  0.00522292  1
  Cs  Cs1  1  0.00158299  -0.00016684  0.32080928  1
  Cs  Cs2  1  -0.00288904  -0.00000124  0.66836986  1
  Cs  Cs3  1  -0.00083705  0.33422590  -0.00277442  1
  Cs  Cs4  1  -0.00170079  0.33331028  0.33671088  1
  Cs  Cs5  1  0.00061417  0.33266537  0.66618587  1
  Cs  Cs6  1  0.00191694  0.66839072  -0.00014505  1
  Cs  Cs7  1  -0.00881185  0.66544036  0.33434254  1
  Cs  Cs8  1  -0.00076964  0.66703072  0.66526126  1
  Cs  Cs9  1  0.33217722  -0.00043363  0.00108593  1
  Cs  Cs10  1  0.33003390  0.00329521  0.33340320  1
  Cs  Cs11  1  0.33439871  -0.00178836  0.66612100  1
  Cs  Cs12  1  0.33498213  0.33825234  -0.00257219  1
  Cs  Cs13  1  0.33035552  0.32836500  0.33704265  1
  Cs  Cs14  1  0.33128706  0.33188461  0.66601919  1
  Cs  Cs15  1  0.33401168  0.66583951  -0.00047869  1
  Cs  Cs16  1  0.33606322  0.66778752  0.33297352  1
  Cs  Cs17  1  0.33414245  0.66706098  0.66684944  1
  Cs  Cs18  1  0.66745074  0.00285360  0.00077587  1
  Cs  Cs19  1  0.66791235  0.00357355  0.33231930  1
  Cs  Cs20  1  0.66843318  0.00057011  0.66688407  1
  Cs  Cs21  1  0.66666371  0.33235924  0.00046034  1
  Cs  Cs22  1  0.66964339  0.33222123  0.32848475  1
  Cs  Cs23  1  0.66701368  0.32980106  0.66895011  1
  Cs  Cs24  1  0.66376242  0.66544800  -0.00090830  1
  Cs  Cs25  1  0.66637115  0.66536728  0.33504424  1
  Cs  Cs26  1  0.66515424  0.66925636  0.66574451  1
  Sn  Sn27  1  0.16737031  0.50032297  0.16664740  1
  Sn  Sn28  1  0.49975929  0.49999501  0.50021627  1
  Sn  Sn29  1  0.49872202  0.50065191  0.16688888  1
  Sn  Sn30  1  0.83370914  0.16631407  0.50071493  1
  Sn  Sn31  1  0.16686512  0.83298041  0.50042367  1
  Sn  Sn32  1  0.49908812  0.83280293  0.49999011  1
  Sn  Sn33  1  0.49974741  0.83274994  0.16665700  1
  Sn  Sn34  1  0.83447133  0.16738093  0.83254907  1
  Sn  Sn35  1  0.49919185  0.83273738  0.83340516  1
  Sn  Sn36  1  0.16607604  0.16639144  0.83322396  1
  Sn  Sn37  1  0.83330161  0.49969255  0.83300980  1
  Sn  Sn38  1  0.16658357  0.50025855  0.83360902  1
  Sn  Sn39  1  0.50010274  0.50071842  0.83284143  1
  Sn  Sn40  1  0.16751236  0.83337333  0.83235778  1
  Pb  Pb41  1  0.16862223  0.83073088  0.16670910  1
  Pb  Pb42  1  0.49954114  0.16728876  0.16662107  1
  Pb  Pb43  1  0.83048631  0.49828294  0.50274343  1
  Pb  Pb44  1  0.16447987  0.16358279  0.50224825  1
  Pb  Pb45  1  0.83337946  0.83563203  0.50005284  1
  Pb  Pb46  1  0.83324255  0.50016393  0.16403525  1
  Pb  Pb47  1  0.83356843  0.16696370  0.16569672  1
  Pb  Pb48  1  0.49972477  0.16641393  0.83334142  1
  Pb  Pb49  1  0.50170323  0.16635255  0.50013544  1
  Pb  Pb50  1  0.16843015  0.50202136  0.50007536  1
  Pb  Pb51  1  0.82979933  0.83279895  0.16657326  1
  Pb  Pb52  1  0.83340784  0.83332260  0.83343228  1
  Pb  Pb53  1  0.16697619  0.17021120  0.16361888  1
  I  I54  1  0.16750273  -0.00030695  0.16606912  1
  I  I55  1  0.17510007  -0.00424064  0.50596109  1
  I  I56  1  0.16713635  -0.00087997  0.82796526  1
  I  I57  1  0.17414181  0.33813785  0.16137621  1
  I  I58  1  0.16803169  0.33338466  0.50025024  1
  I  I59  1  0.16660974  0.33445920  0.83819032  1
  I  I60  1  0.16949651  0.66312603  0.15839995  1
  I  I61  1  0.16875728  0.66993812  0.50731054  1
  I  I62  1  0.16758787  0.66622836  0.83388257  1
  I  I63  1  0.50122646  -0.00347234  0.16576893  1
  I  I64  1  0.49784597  -0.00381197  0.50123172  1
  I  I65  1  0.49765259  -0.00357286  0.83279614  1
  I  I66  1  0.49801186  0.33765289  0.16482371  1
  I  I67  1  0.50145604  0.33654185  0.50104131  1
  I  I68  1  0.49815878  0.33684745  0.83398715  1
  I  I69  1  0.49644952  0.66582673  0.16530333  1
  I  I70  1  0.49749052  0.66705146  0.50101213  1
  I  I71  1  0.49815710  0.66598923  0.83353727  1
  I  I72  1  0.83171044  0.00004495  0.16433096  1
  I  I73  1  0.83010356  0.00321573  0.51011089  1
  I  I74  1  0.83504142  0.00287334  0.82945916  1
  I  I75  1  0.82933413  0.33366732  0.16816382  1
  I  I76  1  0.83204457  0.33049117  0.50320431  1
  I  I77  1  0.83545045  0.33387520  0.82998070  1
  I  I78  1  0.83614036  0.66618999  0.16539850  1
  I  I79  1  0.83424542  0.66667177  0.50071332  1
  I  I80  1  0.83437361  0.66364105  0.83477430  1
  I  I81  1  0.15994257  0.16059944  -0.00482418  1
  I  I82  1  0.16494091  0.16626256  0.33343274  1
  I  I83  1  0.16563181  0.17270841  0.67058949  1
  I  I84  1  0.17119485  0.50093787  -0.00237655  1
  I  I85  1  0.17272047  0.50211614  0.33095973  1
  I  I86  1  0.16746208  0.49807806  0.67029892  1
  I  I87  1  0.16979534  0.83522020  -0.00337113  1
  I  I88  1  0.17142792  0.83264927  0.33576142  1
  I  I89  1  0.17493627  0.83160338  0.66852211  1
  I  I90  1  0.50343140  0.16574999  -0.00035792  1
  I  I91  1  0.50388977  0.16706059  0.33346399  1
  I  I92  1  0.49933613  0.16762301  0.66697425  1
  I  I93  1  0.49971256  0.50501136  -0.00118417  1
  I  I94  1  0.49588004  0.50679018  0.33302417  1
  I  I95  1  0.50055186  0.50569478  0.66795339  1
  I  I96  1  0.49696287  0.82734580  -0.00109385  1
  I  I97  1  0.49715235  0.82630331  0.33389923  1
  I  I98  1  0.49633286  0.82710183  0.66724487  1
  I  I99  1  0.83602023  0.17099327  -0.00400783  1
  I  I100  1  0.82976231  0.16498278  0.33590457  1
  I  I101  1  0.83584707  0.17069819  0.66858801  1
  I  I102  1  0.82866040  0.49322274  -0.00439054  1
  I  I103  1  0.83354964  0.49778037  0.33355586  1
  I  I104  1  0.83455179  0.49845659  0.67096544  1
  I  I105  1  0.83391213  0.83649852  -0.00041840  1
  I  I106  1  0.83507340  0.83640420  0.33352525  1
  I  I107  1  0.82821897  0.83178606  0.66692407  1
  I  I108  1  0.00034430  0.16708311  0.16882356  1
  I  I109  1  -0.00314481  0.16731624  0.50458307  1
  I  I110  1  0.00027257  0.17106096  0.82886471  1
  I  I111  1  0.00305677  0.49924721  0.16061479  1
  I  I112  1  -0.00003668  0.50120876  0.49933877  1
  I  I113  1  0.00116193  0.49944025  0.83834686  1
  I  I114  1  0.00052778  0.83297923  0.16673542  1
  I  I115  1  0.00312248  0.83384667  0.50789409  1
  I  I116  1  0.00346647  0.83039465  0.82817767  1
  I  I117  1  0.33304391  0.16473643  0.16554661  1
  I  I118  1  0.33302550  0.16807784  0.50109241  1
  I  I119  1  0.33030751  0.16921962  0.83428530  1
  I  I120  1  0.33458327  0.50370386  0.15923451  1
  I  I121  1  0.33686609  0.50128396  0.50501163  1
  I  I122  1  0.33359901  0.50010269  0.83468736  1
  I  I123  1  0.33685448  0.83030941  0.16547630  1
  I  I124  1  0.33470221  0.82995654  0.50252237  1
  I  I125  1  0.33369548  0.83072160  0.83275809  1
  I  I126  1  0.66664680  0.16722705  0.16403640  1
  I  I127  1  0.66946364  0.16540320  0.50866676  1
  I  I128  1  0.66931201  0.16990906  0.83035231  1
  I  I129  1  0.66292704  0.50388228  0.16594424  1
  I  I130  1  0.66218607  0.50704345  0.49941465  1
  I  I131  1  0.66528283  0.49973657  0.83343010  1
  I  I132  1  0.66107769  0.82632851  0.16551290  1
  I  I133  1  0.66286769  0.83019983  0.50125176  1
  I  I134  1  0.66314025  0.83004201  0.83279163  1
