# generated using pymatgen
data_Cs27Sn13Pb14I81
_symmetry_space_group_name_H-M   'P 1'
_cell_length_a   18.98031323
_cell_length_b   18.98016054
_cell_length_c   18.97041229
_cell_angle_alpha   89.99892443
_cell_angle_beta   89.99936505
_cell_angle_gamma   90.00010299
_symmetry_Int_Tables_number   1
_chemical_formula_structural   Cs27Sn13Pb14I81
_chemical_formula_sum   'Cs27 Sn13 Pb14 I81'
_cell_volume   6834.07949493
_cell_formula_units_Z   1
loop_
 _symmetry_equiv_pos_site_id
 _symmetry_equiv_pos_as_xyz
  1  'x, y, z'
loop_
 _atom_site_type_symbol
 _atom_site_label
 _atom_site_symmetry_multiplicity
 _atom_site_fract_x
 _atom_site_fract_y
 _atom_site_fract_z
 _atom_site_occupancy
  Cs  Cs0  1  0.00334177  0.00126006  0.00076724  1
  Cs  Cs1  1  -0.00039510  -0.00257627  0.33126548  1
  Cs  Cs2  1  -0.00007725  0.00014485  0.66810667  1
  Cs  Cs3  1  0.00004634  0.33188714  -0.00182573  1
  Cs  Cs4  1  -0.00390773  0.33839135  0.33431877  1
  Cs  Cs5  1  -0.00733771  0.33376121  0.66890808  1
  Cs  Cs6  1  0.00063304  0.66717042  0.00146477  1
  Cs  Cs7  1  0.00040468  0.66536164  0.33201315  1
  Cs  Cs8  1  0.00193176  0.66591206  0.66646778  1
  Cs  Cs9  1  0.33224170  0.00374767  0.00640644  1
  Cs  Cs10  1  0.33250866  0.00237245  0.33314964  1
  Cs  Cs11  1  0.33405944  -0.00003218  0.66607304  1
  Cs  Cs12  1  0.33303199  0.33114573  0.00331506  1
  Cs  Cs13  1  0.33527277  0.33277586  0.33393736  1
  Cs  Cs14  1  0.33236842  0.32996102  0.66425450  1
  Cs  Cs15  1  0.33851625  0.66596931  -0.00199932  1
  Cs  Cs16  1  0.33126839  0.66475547  0.33563099  1
  Cs  Cs17  1  0.33159203  0.66765777  0.66648267  1
  Cs  Cs18  1  0.66372479  -0.00483918  0.00379876  1
  Cs  Cs19  1  0.66803307  0.00023929  0.33378725  1
  Cs  Cs20  1  0.66582271  0.00022058  0.66481926  1
  Cs  Cs21  1  0.66671942  0.33786211  0.00052637  1
  Cs  Cs22  1  0.66773117  0.33195023  0.33214592  1
  Cs  Cs23  1  0.67294763  0.33214275  0.66879658  1
  Cs  Cs24  1  0.65875737  0.66581068  -0.00208205  1
  Cs  Cs25  1  0.66662704  0.66874860  0.33108399  1
  Cs  Cs26  1  0.66603902  0.66746263  0.67069662  1
  Sn  Sn27  1  0.16643162  0.83430315  0.50075363  1
  Sn  Sn28  1  0.16624336  0.50016999  0.16555435  1
  Sn  Sn29  1  0.49957221  0.16689989  0.50111028  1
  Sn  Sn30  1  0.49996409  0.16664866  0.83279198  1
  Sn  Sn31  1  0.83407510  0.83337862  0.83280908  1
  Sn  Sn32  1  0.16636534  0.16626199  0.50026947  1
  Sn  Sn33  1  0.16611108  0.83280215  0.83277623  1
  Sn  Sn34  1  0.83362629  0.16715109  0.16646302  1
  Sn  Sn35  1  0.16669879  0.50022981  0.83388217  1
  Sn  Sn36  1  0.49974200  0.83320979  0.50030361  1
  Sn  Sn37  1  0.83370198  0.83316208  0.50095223  1
  Sn  Sn38  1  0.83389017  0.49948512  0.16633931  1
  Sn  Sn39  1  0.50041829  0.49973446  0.50056726  1
  Pb  Pb40  1  0.50209068  0.16677700  0.16719006  1
  Pb  Pb41  1  0.83534114  0.50244882  0.83560317  1
  Pb  Pb42  1  0.16801735  0.16635601  0.83139914  1
  Pb  Pb43  1  0.49738074  0.49755244  0.83070616  1
  Pb  Pb44  1  0.83097898  0.16393690  0.83583509  1
  Pb  Pb45  1  0.83070336  0.50285945  0.49843647  1
  Pb  Pb46  1  0.16685110  0.83114144  0.16642315  1
  Pb  Pb47  1  0.49911965  0.83523144  0.83140740  1
  Pb  Pb48  1  0.83350240  0.83276749  0.16595646  1
  Pb  Pb49  1  0.83341357  0.16461035  0.49877536  1
  Pb  Pb50  1  0.16445418  0.16929202  0.16970835  1
  Pb  Pb51  1  0.16774358  0.49982447  0.50043727  1
  Pb  Pb52  1  0.49978197  0.49995411  0.16872565  1
  Pb  Pb53  1  0.49947113  0.83341825  0.16972097  1
  I  I54  1  0.16525026  0.00026025  0.16506682  1
  I  I55  1  0.17132821  -0.00136095  0.50467665  1
  I  I56  1  0.16387375  -0.00308221  0.82931276  1
  I  I57  1  0.16548842  0.33700370  0.16239366  1
  I  I58  1  0.17350076  0.33106986  0.49852387  1
  I  I59  1  0.16990757  0.33567876  0.83578386  1
  I  I60  1  0.15945418  0.66328214  0.16958013  1
  I  I61  1  0.16810067  0.66952965  0.50017120  1
  I  I62  1  0.16324407  0.66770578  0.83045961  1
  I  I63  1  0.50304824  0.00031508  0.16781544  1
  I  I64  1  0.49927927  -0.00005594  0.50366080  1
  I  I65  1  0.49929435  0.00276127  0.82643371  1
  I  I66  1  0.49871858  0.33336673  0.17048699  1
  I  I67  1  0.49312490  0.33216009  0.50185184  1
  I  I68  1  0.49866587  0.33003066  0.82648579  1
  I  I69  1  0.50359730  0.66643905  0.16813464  1
  I  I70  1  0.49906450  0.66776552  0.49768866  1
  I  I71  1  0.50199307  0.66678050  0.83239774  1
  I  I72  1  0.83092982  0.00178866  0.16839730  1
  I  I73  1  0.82946001  -0.00352626  0.50004981  1
  I  I74  1  0.83974704  -0.00379665  0.83066351  1
  I  I75  1  0.83674291  0.33398290  0.16889146  1
  I  I76  1  0.83336959  0.33345136  0.49923783  1
  I  I77  1  0.83395366  0.33335343  0.83267197  1
  I  I78  1  0.83804800  0.66397067  0.16907203  1
  I  I79  1  0.83491839  0.67100448  0.50061598  1
  I  I80  1  0.83356316  0.67037650  0.83011307  1
  I  I81  1  0.16885151  0.16397976  0.00005676  1
  I  I82  1  0.17403323  0.16088721  0.33758466  1
  I  I83  1  0.16899790  0.16688155  0.66315327  1
  I  I84  1  0.16275832  0.50560021  -0.00031407  1
  I  I85  1  0.16451620  0.49993702  0.33153342  1
  I  I86  1  0.17015239  0.50264844  0.66891553  1
  I  I87  1  0.16022525  0.83167422  -0.00349343  1
  I  I88  1  0.16676189  0.83549271  0.33697482  1
  I  I89  1  0.16630348  0.83042353  0.66566333  1
  I  I90  1  0.50069689  0.16590934  -0.00254461  1
  I  I91  1  0.49709832  0.16575722  0.33718142  1
  I  I92  1  0.49630018  0.16565048  0.66432607  1
  I  I93  1  0.50155497  0.49828273  -0.00035403  1
  I  I94  1  0.49721307  0.49877272  0.33699197  1
  I  I95  1  0.49732931  0.50349676  0.66273895  1
  I  I96  1  0.50159343  0.83523912  -0.00063168  1
  I  I97  1  0.50096796  0.83609281  0.33891493  1
  I  I98  1  0.49999443  0.83194183  0.66279487  1
  I  I99  1  0.83228588  0.16903983  0.00335905  1
  I  I100  1  0.83163367  0.16816412  0.33097353  1
  I  I101  1  0.83428302  0.16724993  0.66672154  1
  I  I102  1  0.83438854  0.49784163  0.00357454  1
  I  I103  1  0.83973016  0.49880269  0.33051484  1
  I  I104  1  0.83425895  0.49902194  0.66679119  1
  I  I105  1  0.83931247  0.83438828  -0.00308680  1
  I  I106  1  0.83251024  0.83356191  0.33625630  1
  I  I107  1  0.83370071  0.83399891  0.66566522  1
  I  I108  1  -0.00302025  0.16727755  0.16824901  1
  I  I109  1  0.00255237  0.16196112  0.49777748  1
  I  I110  1  -0.00001002  0.16801670  0.83238864  1
  I  I111  1  0.00022785  0.49662819  0.16540776  1
  I  I112  1  -0.00013333  0.49977406  0.50014062  1
  I  I113  1  0.00343317  0.50064061  0.83242820  1
  I  I114  1  0.00002535  0.83460408  0.17271589  1
  I  I115  1  0.00085573  0.83809403  0.50314217  1
  I  I116  1  0.00081682  0.83027136  0.82462191  1
  I  I117  1  0.33312387  0.16751348  0.16603625  1
  I  I118  1  0.33407417  0.16211398  0.50259061  1
  I  I119  1  0.33595958  0.16483359  0.83001418  1
  I  I120  1  0.33036763  0.50174037  0.16476290  1
  I  I121  1  0.33573384  0.50378496  0.49791033  1
  I  I122  1  0.32960476  0.50785790  0.83914535  1
  I  I123  1  0.33294919  0.83165028  0.16614408  1
  I  I124  1  0.33291797  0.83370524  0.50336264  1
  I  I125  1  0.33007910  0.82963446  0.82827020  1
  I  I126  1  0.66975673  0.17223513  0.16934469  1
  I  I127  1  0.66372190  0.16518012  0.50125475  1
  I  I128  1  0.66338698  0.16540684  0.82493610  1
  I  I129  1  0.66938092  0.49670600  0.17011013  1
  I  I130  1  0.66281086  0.49869122  0.49766139  1
  I  I131  1  0.66656553  0.50133260  0.83457326  1
  I  I132  1  0.66690310  0.83131794  0.16659958  1
  I  I133  1  0.66650803  0.83351123  0.50253529  1
  I  I134  1  0.66869741  0.83565474  0.82977125  1
