# generated using pymatgen
data_Cs27Sn14Pb13I81
_symmetry_space_group_name_H-M   'P 1'
_cell_length_a   18.96680291
_cell_length_b   18.97889484
_cell_length_c   18.98308075
_cell_angle_alpha   90.00148129
_cell_angle_beta   90.00080522
_cell_angle_gamma   89.99853095
_symmetry_Int_Tables_number   1
_chemical_formula_structural   Cs27Sn14Pb13I81
_chemical_formula_sum   'Cs27 Sn14 Pb13 I81'
_cell_volume   6833.31978934
_cell_formula_units_Z   1
loop_
 _symmetry_equiv_pos_site_id
 _symmetry_equiv_pos_as_xyz
  1  'x, y, z'
loop_
 _atom_site_type_symbol
 _atom_site_label
 _atom_site_symmetry_multiplicity
 _atom_site_fract_x
 _atom_site_fract_y
 _atom_site_fract_z
 _atom_site_occupancy
  Cs  Cs0  1  -0.00265636  -0.00190609  0.00493519  1
  Cs  Cs1  1  -0.00661811  -0.00354860  0.32998824  1
  Cs  Cs2  1  -0.00097147  0.00072666  0.66516346  1
  Cs  Cs3  1  -0.00114636  0.33358943  -0.00090087  1
  Cs  Cs4  1  0.00472694  0.33262829  0.32888698  1
  Cs  Cs5  1  -0.00018076  0.33580595  0.67059320  1
  Cs  Cs6  1  0.00087580  0.66738794  0.00186318  1
  Cs  Cs7  1  -0.00108568  0.67007445  0.33183105  1
  Cs  Cs8  1  -0.00265379  0.66454199  0.66601862  1
  Cs  Cs9  1  0.33400063  -0.00090605  -0.00146945  1
  Cs  Cs10  1  0.33333816  0.00120014  0.33378502  1
  Cs  Cs11  1  0.33402656  -0.00048479  0.66822206  1
  Cs  Cs12  1  0.33301260  0.33270052  0.00093179  1
  Cs  Cs13  1  0.33387455  0.33343383  0.33268884  1
  Cs  Cs14  1  0.33150240  0.33121467  0.66654130  1
  Cs  Cs15  1  0.33452129  0.66875915  -0.00178802  1
  Cs  Cs16  1  0.33409337  0.66527923  0.33250747  1
  Cs  Cs17  1  0.33246877  0.67018240  0.66966802  1
  Cs  Cs18  1  0.66584946  0.00103023  0.00045392  1
  Cs  Cs19  1  0.67309767  -0.00010597  0.33439688  1
  Cs  Cs20  1  0.66787345  0.00070031  0.66386024  1
  Cs  Cs21  1  0.66809358  0.33322782  -0.00078934  1
  Cs  Cs22  1  0.66230297  0.33413217  0.34125132  1
  Cs  Cs23  1  0.67365550  0.33351641  0.66216777  1
  Cs  Cs24  1  0.66249644  0.66481250  -0.00281813  1
  Cs  Cs25  1  0.66527991  0.66499158  0.33581956  1
  Cs  Cs26  1  0.67331171  0.66691971  0.66735678  1
  Sn  Sn27  1  0.49913530  0.83332032  0.49896094  1
  Sn  Sn28  1  0.49925612  0.16591454  0.16620539  1
  Sn  Sn29  1  0.49937467  0.16803381  0.83376178  1
  Sn  Sn30  1  0.16710377  0.16640945  0.49984275  1
  Sn  Sn31  1  0.49944517  0.83434301  0.16774417  1
  Sn  Sn32  1  0.16753586  0.83340006  0.49979138  1
  Sn  Sn33  1  0.83364939  0.83365376  0.83390666  1
  Sn  Sn34  1  0.49934040  0.49853773  0.83286415  1
  Sn  Sn35  1  0.16772617  0.49948701  0.83359400  1
  Sn  Sn36  1  0.16606254  0.49959093  0.16636842  1
  Sn  Sn37  1  0.16757584  0.16700776  0.16628564  1
  Sn  Sn38  1  0.16715099  0.50019967  0.49996699  1
  Sn  Sn39  1  0.16740514  0.16712133  0.83378490  1
  Sn  Sn40  1  0.83357425  0.49956634  0.16678981  1
  Pb  Pb41  1  0.83273621  0.16910022  0.16661491  1
  Pb  Pb42  1  0.49813114  0.16494438  0.50016152  1
  Pb  Pb43  1  0.16848600  0.83347985  0.16872401  1
  Pb  Pb44  1  0.49747396  0.50223967  0.50332748  1
  Pb  Pb45  1  0.50141504  0.83395516  0.83294601  1
  Pb  Pb46  1  0.83343706  0.16476598  0.83355455  1
  Pb  Pb47  1  0.83378669  0.50123363  0.83507107  1
  Pb  Pb48  1  0.16484439  0.83369773  0.83134551  1
  Pb  Pb49  1  0.83689700  0.16701486  0.49983762  1
  Pb  Pb50  1  0.83332155  0.83326818  0.50164340  1
  Pb  Pb51  1  0.82997426  0.83089014  0.16480335  1
  Pb  Pb52  1  0.49929533  0.49922240  0.16519536  1
  Pb  Pb53  1  0.83638019  0.49987368  0.49698368  1
  I  I54  1  0.16936529  0.00314695  0.16547118  1
  I  I55  1  0.17154041  0.00042646  0.50173790  1
  I  I56  1  0.17058630  0.00334505  0.83321140  1
  I  I57  1  0.16829996  0.33317710  0.17067432  1
  I  I58  1  0.16545690  0.33326168  0.49986368  1
  I  I59  1  0.16953817  0.33347773  0.82938076  1
  I  I60  1  0.16465256  0.66378663  0.16644763  1
  I  I61  1  0.17058062  0.66625200  0.50048377  1
  I  I62  1  0.16974265  0.66361597  0.83357527  1
  I  I63  1  0.49348373  0.00114951  0.16313407  1
  I  I64  1  0.49268845  -0.00292078  0.50204406  1
  I  I65  1  0.49570694  0.00296104  0.83456006  1
  I  I66  1  0.49812306  0.33039550  0.16355064  1
  I  I67  1  0.49953214  0.33335330  0.49667332  1
  I  I68  1  0.49515261  0.33265280  0.84052282  1
  I  I69  1  0.50000614  0.66836052  0.16809677  1
  I  I70  1  0.49359406  0.67005239  0.49481357  1
  I  I71  1  0.49642697  0.66460884  0.83437109  1
  I  I72  1  0.83627457  -0.00005240  0.16595311  1
  I  I73  1  0.83621639  -0.00021687  0.50057457  1
  I  I74  1  0.83294174  -0.00280188  0.83289383  1
  I  I75  1  0.83574919  0.33667509  0.16345463  1
  I  I76  1  0.83110878  0.33368894  0.50196735  1
  I  I77  1  0.83329990  0.33334650  0.83422221  1
  I  I78  1  0.84102619  0.66351169  0.16546011  1
  I  I79  1  0.83599286  0.66661133  0.50097614  1
  I  I80  1  0.83203224  0.66885188  0.83363343  1
  I  I81  1  0.17065041  0.17426483  0.00009079  1
  I  I82  1  0.17075707  0.17075262  0.33264773  1
  I  I83  1  0.17028447  0.16863179  0.66719124  1
  I  I84  1  0.16608682  0.49368781  -0.00010419  1
  I  I85  1  0.16171594  0.49746907  0.33296460  1
  I  I86  1  0.17184538  0.49779605  0.66716986  1
  I  I87  1  0.16705915  0.83239803  0.00007017  1
  I  I88  1  0.16796457  0.83277541  0.33685285  1
  I  I89  1  0.17277386  0.83348734  0.66327156  1
  I  I90  1  0.49186415  0.16393422  0.00005398  1
  I  I91  1  0.49526431  0.16482962  0.33052977  1
  I  I92  1  0.49486874  0.16767325  0.66959301  1
  I  I93  1  0.49454331  0.50277092  -0.00267108  1
  I  I94  1  0.50050921  0.49903655  0.33352367  1
  I  I95  1  0.49444103  0.49600405  0.67124164  1
  I  I96  1  0.50215954  0.83372441  0.00191594  1
  I  I97  1  0.49527480  0.83761936  0.33301795  1
  I  I98  1  0.49651846  0.83275384  0.66446428  1
  I  I99  1  0.83818431  0.16537560  0.00008260  1
  I  I100  1  0.83272854  0.16556488  0.33301751  1
  I  I101  1  0.83238286  0.16575102  0.66688832  1
  I  I102  1  0.84020822  0.50147222  0.00251982  1
  I  I103  1  0.83762252  0.50114918  0.32923601  1
  I  I104  1  0.83360000  0.50223974  0.66672770  1
  I  I105  1  0.83316603  0.83295603  -0.00245338  1
  I  I106  1  0.83490662  0.83250641  0.33314144  1
  I  I107  1  0.83104197  0.83141487  0.66921519  1
  I  I108  1  0.00366162  0.16889581  0.16636662  1
  I  I109  1  0.00610050  0.16359141  0.50051924  1
  I  I110  1  0.00395981  0.17069112  0.83278290  1
  I  I111  1  0.00298775  0.49510115  0.16477179  1
  I  I112  1  0.00523098  0.50218230  0.50675002  1
  I  I113  1  0.00381236  0.49686951  0.83096163  1
  I  I114  1  0.00010944  0.83557145  0.16746406  1
  I  I115  1  0.00344281  0.83343787  0.50220928  1
  I  I116  1  -0.00241477  0.83220820  0.83134443  1
  I  I117  1  0.33219520  0.16899370  0.16597479  1
  I  I118  1  0.32944750  0.16910016  0.49999863  1
  I  I119  1  0.33236043  0.16965618  0.83413119  1
  I  I120  1  0.32995279  0.49888017  0.16880458  1
  I  I121  1  0.32906727  0.49735979  0.49364651  1
  I  I122  1  0.33184761  0.49804125  0.83589550  1
  I  I123  1  0.33637862  0.83198304  0.16607603  1
  I  I124  1  0.33236812  0.83299819  0.49796253  1
  I  I125  1  0.33326221  0.83223460  0.83397524  1
  I  I126  1  0.66296764  0.16356559  0.16028226  1
  I  I127  1  0.66622255  0.16353796  0.50036332  1
  I  I128  1  0.66306430  0.16906547  0.83920851  1
  I  I129  1  0.66805327  0.50214159  0.16167091  1
  I  I130  1  0.66635148  0.50302725  0.49993150  1
  I  I131  1  0.66400276  0.49859839  0.83729831  1
  I  I132  1  0.66215093  0.83806217  0.17227331  1
  I  I133  1  0.66356828  0.83382246  0.49767113  1
  I  I134  1  0.66870371  0.83145164  0.83247858  1
