# generated using pymatgen
data_Cs27Sn13Pb14I81
_symmetry_space_group_name_H-M   'P 1'
_cell_length_a   18.97282932
_cell_length_b   18.97347388
_cell_length_c   18.98350180
_cell_angle_alpha   89.99958317
_cell_angle_beta   89.99951683
_cell_angle_gamma   89.99958414
_symmetry_Int_Tables_number   1
_chemical_formula_structural   Cs27Sn13Pb14I81
_chemical_formula_sum   'Cs27 Sn13 Pb14 I81'
_cell_volume   6833.69012146
_cell_formula_units_Z   1
loop_
 _symmetry_equiv_pos_site_id
 _symmetry_equiv_pos_as_xyz
  1  'x, y, z'
loop_
 _atom_site_type_symbol
 _atom_site_label
 _atom_site_symmetry_multiplicity
 _atom_site_fract_x
 _atom_site_fract_y
 _atom_site_fract_z
 _atom_site_occupancy
  Cs  Cs0  1  0.00009743  0.00290660  0.00340866  1
  Cs  Cs1  1  0.00414818  0.00206103  0.33233839  1
  Cs  Cs2  1  -0.00137738  0.00197447  0.66505539  1
  Cs  Cs3  1  -0.00040521  0.33476911  -0.00215600  1
  Cs  Cs4  1  -0.00051914  0.33407963  0.33285859  1
  Cs  Cs5  1  -0.00094601  0.33504366  0.66918770  1
  Cs  Cs6  1  0.00183134  0.66323129  -0.00072397  1
  Cs  Cs7  1  -0.00052018  0.66632080  0.33340629  1
  Cs  Cs8  1  0.00034780  0.66346099  0.66752042  1
  Cs  Cs9  1  0.33298751  -0.00092042  -0.00343139  1
  Cs  Cs10  1  0.32056477  0.00401883  0.33510627  1
  Cs  Cs11  1  0.33301134  0.00201846  0.66860378  1
  Cs  Cs12  1  0.33959034  0.33269339  0.00134861  1
  Cs  Cs13  1  0.34024474  0.33153043  0.33458607  1
  Cs  Cs14  1  0.33754736  0.33009877  0.66363805  1
  Cs  Cs15  1  0.33123624  0.66868093  -0.00335923  1
  Cs  Cs16  1  0.33443050  0.66443222  0.33225754  1
  Cs  Cs17  1  0.33129066  0.66863513  0.67124123  1
  Cs  Cs18  1  0.66586731  0.00025590  -0.00087373  1
  Cs  Cs19  1  0.67001189  -0.00561898  0.33272964  1
  Cs  Cs20  1  0.66696521  -0.00141803  0.66794929  1
  Cs  Cs21  1  0.66385925  0.33203145  0.00277055  1
  Cs  Cs22  1  0.66115850  0.33425067  0.33121671  1
  Cs  Cs23  1  0.66606789  0.33339080  0.66606006  1
  Cs  Cs24  1  0.66758495  0.66741598  0.00148332  1
  Cs  Cs25  1  0.66670979  0.66713290  0.33317870  1
  Cs  Cs26  1  0.66869527  0.66762732  0.66490067  1
  Sn  Sn27  1  0.83397431  0.50068522  0.16754769  1
  Sn  Sn28  1  0.83307501  0.83338535  0.49988865  1
  Sn  Sn29  1  0.83297214  0.83237980  0.16669630  1
  Sn  Sn30  1  0.16620724  0.50012981  0.49924250  1
  Sn  Sn31  1  0.50023118  0.83344484  0.16792257  1
  Sn  Sn32  1  0.83411537  0.16592659  0.83271099  1
  Sn  Sn33  1  0.16611136  0.49988962  0.16754218  1
  Sn  Sn34  1  0.16585861  0.16679688  0.83341881  1
  Sn  Sn35  1  0.83384117  0.49970811  0.49900061  1
  Sn  Sn36  1  0.83307447  0.16682471  0.50034627  1
  Sn  Sn37  1  0.83361707  0.83387116  0.83347878  1
  Sn  Sn38  1  0.50045434  0.50032790  0.83306435  1
  Sn  Sn39  1  0.50009569  0.83336798  0.49893506  1
  Pb  Pb40  1  0.16629108  0.83125277  0.16669817  1
  Pb  Pb41  1  0.16903027  0.49785472  0.83319581  1
  Pb  Pb42  1  0.50285546  0.16304142  0.49968482  1
  Pb  Pb43  1  0.50004985  0.16240184  0.16713716  1
  Pb  Pb44  1  0.16618662  0.83118248  0.50007861  1
  Pb  Pb45  1  0.50029427  0.50207717  0.16510144  1
  Pb  Pb46  1  0.50222865  0.83193156  0.83319741  1
  Pb  Pb47  1  0.83313510  0.16676946  0.16689267  1
  Pb  Pb48  1  0.16655630  0.17005227  0.16438139  1
  Pb  Pb49  1  0.50098908  0.16850412  0.83322209  1
  Pb  Pb50  1  0.16340383  0.83586888  0.83323542  1
  Pb  Pb51  1  0.50036177  0.50220177  0.50155718  1
  Pb  Pb52  1  0.83199019  0.49968109  0.83351998  1
  Pb  Pb53  1  0.16419943  0.16958546  0.50168025  1
  I  I54  1  0.16701628  0.00006546  0.16524566  1
  I  I55  1  0.16675040  0.00027115  0.50150378  1
  I  I56  1  0.16622038  0.00369037  0.83275473  1
  I  I57  1  0.15870476  0.33809738  0.16961159  1
  I  I58  1  0.16106837  0.33752339  0.49733876  1
  I  I59  1  0.15769118  0.33055578  0.83330342  1
  I  I60  1  0.16406326  0.66316690  0.16887453  1
  I  I61  1  0.16010232  0.66309048  0.49786908  1
  I  I62  1  0.16692068  0.66626647  0.83354762  1
  I  I63  1  0.50990911  -0.00561924  0.16753468  1
  I  I64  1  0.50665237  -0.00496887  0.49841752  1
  I  I65  1  0.49840202  -0.00020919  0.83388609  1
  I  I66  1  0.50063684  0.33373383  0.16360160  1
  I  I67  1  0.50065285  0.33348325  0.50271701  1
  I  I68  1  0.50225383  0.33630942  0.83365329  1
  I  I69  1  0.50368398  0.66979788  0.16960231  1
  I  I70  1  0.50751241  0.66983813  0.49759050  1
  I  I71  1  0.50138467  0.66434248  0.83327917  1
  I  I72  1  0.82852580  -0.00339018  0.16783164  1
  I  I73  1  0.82783275  -0.00087471  0.50178127  1
  I  I74  1  0.83574145  -0.00043203  0.83011653  1
  I  I75  1  0.83774426  0.33667858  0.16839681  1
  I  I76  1  0.83902517  0.33412012  0.50186271  1
  I  I77  1  0.83541551  0.33082237  0.82995366  1
  I  I78  1  0.83308015  0.66692343  0.16882836  1
  I  I79  1  0.83299604  0.66689171  0.50018358  1
  I  I80  1  0.82983511  0.66904658  0.83117198  1
  I  I81  1  0.15823477  0.16808385  -0.00350458  1
  I  I82  1  0.16525126  0.16483349  0.33354174  1
  I  I83  1  0.16350513  0.16919041  0.66949789  1
  I  I84  1  0.16216422  0.49958096  0.00256795  1
  I  I85  1  0.16118174  0.50146570  0.33348808  1
  I  I86  1  0.16155152  0.49978655  0.66398690  1
  I  I87  1  0.16742820  0.82992912  -0.00004866  1
  I  I88  1  0.16324299  0.83591238  0.33339367  1
  I  I89  1  0.16780223  0.82901146  0.66666588  1
  I  I90  1  0.50226867  0.16666015  -0.00017666  1
  I  I91  1  0.50158049  0.17307213  0.33362522  1
  I  I92  1  0.49835107  0.16554145  0.66653843  1
  I  I93  1  0.50097149  0.50193213  -0.00232783  1
  I  I94  1  0.49949390  0.49955865  0.33335506  1
  I  I95  1  0.50105191  0.50238608  0.66896478  1
  I  I96  1  0.50527603  0.83062770  0.00243158  1
  I  I97  1  0.51138158  0.83059183  0.33343372  1
  I  I98  1  0.50578819  0.83088500  0.66411772  1
  I  I99  1  0.83655744  0.16381147  -0.00293525  1
  I  I100  1  0.83281886  0.16432744  0.33651051  1
  I  I101  1  0.83683950  0.16388107  0.66659799  1
  I  I102  1  0.83572221  0.50365632  0.00262341  1
  I  I103  1  0.83673985  0.50316726  0.33382946  1
  I  I104  1  0.83583296  0.50280572  0.66386919  1
  I  I105  1  0.82933528  0.83277842  0.00056934  1
  I  I106  1  0.82867281  0.83177055  0.33366444  1
  I  I107  1  0.82943321  0.83329039  0.66574644  1
  I  I108  1  -0.00037949  0.16171298  0.16766630  1
  I  I109  1  -0.00422301  0.16113772  0.50189521  1
  I  I110  1  -0.00198073  0.16413606  0.82937172  1
  I  I111  1  -0.00164873  0.50595509  0.16915884  1
  I  I112  1  -0.00205283  0.50237310  0.49764194  1
  I  I113  1  -0.00022864  0.50151772  0.83357426  1
  I  I114  1  -0.00387668  0.83161878  0.16751999  1
  I  I115  1  -0.00416140  0.83489547  0.49938645  1
  I  I116  1  -0.00512624  0.83182901  0.83246649  1
  I  I117  1  0.33318626  0.16769047  0.16357921  1
  I  I118  1  0.33313319  0.16685964  0.50242578  1
  I  I119  1  0.33099244  0.17029622  0.83447337  1
  I  I120  1  0.33089702  0.50099592  0.16872308  1
  I  I121  1  0.33089286  0.50210039  0.49786671  1
  I  I122  1  0.33624392  0.49973968  0.83364453  1
  I  I123  1  0.33622539  0.83100991  0.17057931  1
  I  I124  1  0.33615200  0.82980871  0.49557451  1
  I  I125  1  0.33350683  0.83330020  0.83370414  1
  I  I126  1  0.66712444  0.17317910  0.16317549  1
  I  I127  1  0.67145613  0.17241188  0.50740092  1
  I  I128  1  0.67043231  0.16333336  0.82952349  1
  I  I129  1  0.66987177  0.50193905  0.16950451  1
  I  I130  1  0.67033921  0.49894004  0.49762298  1
  I  I131  1  0.66472064  0.49947669  0.83320083  1
  I  I132  1  0.66883715  0.82727273  0.16742733  1
  I  I133  1  0.66904888  0.83114766  0.49972684  1
  I  I134  1  0.67063763  0.83831752  0.83300264  1
