# generated using pymatgen
data_Cs27Sn13Pb14I81
_symmetry_space_group_name_H-M   'P 1'
_cell_length_a   18.97379685
_cell_length_b   18.98221967
_cell_length_c   18.97356518
_cell_angle_alpha   90.00130500
_cell_angle_beta   89.99997544
_cell_angle_gamma   89.99969432
_symmetry_Int_Tables_number   1
_chemical_formula_structural   Cs27Sn13Pb14I81
_chemical_formula_sum   'Cs27 Sn13 Pb14 I81'
_cell_volume   6833.60992329
_cell_formula_units_Z   1
loop_
 _symmetry_equiv_pos_site_id
 _symmetry_equiv_pos_as_xyz
  1  'x, y, z'
loop_
 _atom_site_type_symbol
 _atom_site_label
 _atom_site_symmetry_multiplicity
 _atom_site_fract_x
 _atom_site_fract_y
 _atom_site_fract_z
 _atom_site_occupancy
  Cs  Cs0  1  0.00029585  -0.00158346  -0.00293518  1
  Cs  Cs1  1  0.00308196  0.00162374  0.33391463  1
  Cs  Cs2  1  -0.00047770  -0.00072436  0.66959888  1
  Cs  Cs3  1  -0.00180517  0.33158362  -0.00034236  1
  Cs  Cs4  1  -0.00105138  0.33399765  0.33503027  1
  Cs  Cs5  1  0.00064644  0.33407877  0.66526281  1
  Cs  Cs6  1  -0.00442327  0.67220190  0.00115930  1
  Cs  Cs7  1  -0.00303497  0.66272688  0.33056860  1
  Cs  Cs8  1  0.00224598  0.66710996  0.67014945  1
  Cs  Cs9  1  0.33400715  0.00057200  0.00139214  1
  Cs  Cs10  1  0.33337725  -0.00011993  0.33194113  1
  Cs  Cs11  1  0.33310455  0.00049211  0.66568483  1
  Cs  Cs12  1  0.33463289  0.33370315  0.00079172  1
  Cs  Cs13  1  0.33193908  0.33116083  0.33014418  1
  Cs  Cs14  1  0.33229829  0.34004516  0.66881414  1
  Cs  Cs15  1  0.33428263  0.66632166  0.00047098  1
  Cs  Cs16  1  0.33272912  0.66922194  0.33369751  1
  Cs  Cs17  1  0.33597025  0.65639152  0.66529520  1
  Cs  Cs18  1  0.66445757  0.00147057  -0.00018403  1
  Cs  Cs19  1  0.66606062  0.00039706  0.33892039  1
  Cs  Cs20  1  0.66713596  -0.00026423  0.66451211  1
  Cs  Cs21  1  0.66621612  0.33221316  -0.00088192  1
  Cs  Cs22  1  0.67250472  0.33113813  0.33325220  1
  Cs  Cs23  1  0.66700653  0.33329431  0.66873688  1
  Cs  Cs24  1  0.66915286  0.66642811  0.00063129  1
  Cs  Cs25  1  0.67250752  0.66722422  0.33869164  1
  Cs  Cs26  1  0.66141204  0.66857695  0.65929883  1
  Sn  Sn27  1  0.49970621  0.83214544  0.16617691  1
  Sn  Sn28  1  0.16698310  0.83395236  0.49938707  1
  Sn  Sn29  1  0.16560243  0.16659609  0.16702449  1
  Sn  Sn30  1  0.49874068  0.16704525  0.50127096  1
  Sn  Sn31  1  0.16725734  0.50009008  0.16636210  1
  Sn  Sn32  1  0.16790687  0.16586507  0.49949876  1
  Sn  Sn33  1  0.83303296  0.49955573  0.83332608  1
  Sn  Sn34  1  0.50030498  0.16599466  0.83226691  1
  Sn  Sn35  1  0.83445780  0.16606378  0.16584753  1
  Sn  Sn36  1  0.49953330  0.83390649  0.83384834  1
  Sn  Sn37  1  0.83253594  0.16738424  0.83424905  1
  Sn  Sn38  1  0.49993569  0.50132692  0.16690351  1
  Sn  Sn39  1  0.16745854  0.83333339  0.16730106  1
  Pb  Pb40  1  0.16400564  0.50013503  0.83655382  1
  Pb  Pb41  1  0.83721324  0.83347723  0.49995506  1
  Pb  Pb42  1  0.16696723  0.16670316  0.83308058  1
  Pb  Pb43  1  0.49784082  0.83508995  0.49960898  1
  Pb  Pb44  1  0.50173806  0.49994656  0.83540988  1
  Pb  Pb45  1  0.16666806  0.49989575  0.49749484  1
  Pb  Pb46  1  0.83322788  0.49785016  0.16531203  1
  Pb  Pb47  1  0.83400741  0.16658132  0.50067850  1
  Pb  Pb48  1  0.49987397  0.16633656  0.16664131  1
  Pb  Pb49  1  0.49997856  0.49672007  0.49644339  1
  Pb  Pb50  1  0.16967848  0.83324646  0.83323779  1
  Pb  Pb51  1  0.83026089  0.83373321  0.83327219  1
  Pb  Pb52  1  0.83344324  0.49994943  0.50343742  1
  Pb  Pb53  1  0.83308307  0.83624471  0.16682344  1
  I  I54  1  0.16747382  0.00019534  0.17060037  1
  I  I55  1  0.17052892  0.00118534  0.49065868  1
  I  I56  1  0.16270848  0.00013134  0.83789249  1
  I  I57  1  0.16742042  0.33244626  0.16974532  1
  I  I58  1  0.16924599  0.32988356  0.49569165  1
  I  I59  1  0.17110217  0.33314729  0.83400624  1
  I  I60  1  0.17199367  0.66738316  0.16982984  1
  I  I61  1  0.16645540  0.66972655  0.49603642  1
  I  I62  1  0.16584333  0.66677037  0.83209687  1
  I  I63  1  0.49665865  -0.00219435  0.16505443  1
  I  I64  1  0.49829457  0.00323041  0.49858890  1
  I  I65  1  0.50481784  0.00114282  0.83652908  1
  I  I66  1  0.49658152  0.33476521  0.16635930  1
  I  I67  1  0.49368414  0.32861552  0.50508233  1
  I  I68  1  0.50231487  0.33032875  0.83192173  1
  I  I69  1  0.49118331  0.66767077  0.15977361  1
  I  I70  1  0.49846672  0.66676311  0.50360038  1
  I  I71  1  0.50043311  0.66920261  0.83679139  1
  I  I72  1  0.83677272  0.00436737  0.16014118  1
  I  I73  1  0.83055199  0.00050343  0.50145557  1
  I  I74  1  0.83171216  0.00348836  0.83701805  1
  I  I75  1  0.83598795  0.32976012  0.16482218  1
  I  I76  1  0.83523440  0.33274721  0.49661948  1
  I  I77  1  0.82741570  0.33124453  0.83830611  1
  I  I78  1  0.83591139  0.66661021  0.16408737  1
  I  I79  1  0.83344058  0.66670906  0.50065339  1
  I  I80  1  0.83428126  0.66418881  0.83531362  1
  I  I81  1  0.16612301  0.16583386  0.00333965  1
  I  I82  1  0.16728743  0.16608254  0.33205260  1
  I  I83  1  0.16693764  0.16086258  0.66354472  1
  I  I84  1  0.17136995  0.49839220  0.00486945  1
  I  I85  1  0.16976358  0.49878189  0.32905077  1
  I  I86  1  0.16500525  0.49988196  0.66666913  1
  I  I87  1  0.16821328  0.83471969  0.00366392  1
  I  I88  1  0.17316413  0.83564545  0.33144529  1
  I  I89  1  0.16581336  0.84107030  0.66361267  1
  I  I90  1  0.50132234  0.16592297  -0.00201687  1
  I  I91  1  0.49897710  0.16675372  0.33508508  1
  I  I92  1  0.50127160  0.16053442  0.66771941  1
  I  I93  1  0.49593341  0.49797838  0.00331653  1
  I  I94  1  0.49552211  0.50457724  0.32847153  1
  I  I95  1  0.50191986  0.50244599  0.66673073  1
  I  I96  1  0.49458111  0.83666859  0.00103858  1
  I  I97  1  0.49697771  0.83215450  0.33018059  1
  I  I98  1  0.50049332  0.83707237  0.66903069  1
  I  I99  1  0.83286943  0.17009508  -0.00027976  1
  I  I100  1  0.83346061  0.16670610  0.33075042  1
  I  I101  1  0.83182513  0.17043283  0.66997065  1
  I  I102  1  0.83341336  0.49566540  -0.00239271  1
  I  I103  1  0.83343122  0.49812365  0.33293892  1
  I  I104  1  0.83265059  0.49094284  0.67136977  1
  I  I105  1  0.83832501  0.83303104  0.00006869  1
  I  I106  1  0.82688197  0.83536191  0.33302361  1
  I  I107  1  0.83349394  0.83543898  0.66689334  1
  I  I108  1  0.00143540  0.16732459  0.16688769  1
  I  I109  1  0.00345137  0.16304585  0.49783453  1
  I  I110  1  -0.00269147  0.17069661  0.83506395  1
  I  I111  1  0.00297944  0.50189878  0.16571188  1
  I  I112  1  0.00034413  0.49753423  0.49724121  1
  I  I113  1  -0.00369297  0.49181992  0.83462823  1
  I  I114  1  0.00352968  0.83080807  0.17068225  1
  I  I115  1  0.00543644  0.84153292  0.49323427  1
  I  I116  1  0.00008173  0.83374651  0.83345676  1
  I  I117  1  0.33072287  0.16667674  0.16743474  1
  I  I118  1  0.33253959  0.16252035  0.49796516  1
  I  I119  1  0.33645992  0.16222373  0.83390027  1
  I  I120  1  0.33276821  0.49734955  0.16569291  1
  I  I121  1  0.33335261  0.50030815  0.50426485  1
  I  I122  1  0.33362035  0.49937208  0.83261595  1
  I  I123  1  0.33276003  0.83555139  0.16616507  1
  I  I124  1  0.33002022  0.83767366  0.49680692  1
  I  I125  1  0.33744504  0.84109299  0.83677595  1
  I  I126  1  0.66837869  0.16779026  0.16545132  1
  I  I127  1  0.66409508  0.16668146  0.49931929  1
  I  I128  1  0.66624217  0.16673389  0.83498005  1
  I  I129  1  0.66408457  0.50189439  0.16421316  1
  I  I130  1  0.66639429  0.49837741  0.49583058  1
  I  I131  1  0.66927339  0.49615587  0.83834154  1
  I  I132  1  0.66321598  0.83058709  0.16120495  1
  I  I133  1  0.66612690  0.83495927  0.49974072  1
  I  I134  1  0.66236853  0.83600409  0.84070483  1
