# generated using pymatgen
data_Cs27Sn14Pb13I81
_symmetry_space_group_name_H-M   'P 1'
_cell_length_a   18.95611011
_cell_length_b   18.95995151
_cell_length_c   18.96347509
_cell_angle_alpha   89.99715833
_cell_angle_beta   90.00089834
_cell_angle_gamma   89.99861495
_symmetry_Int_Tables_number   1
_chemical_formula_structural   Cs27Sn14Pb13I81
_chemical_formula_sum   'Cs27 Sn14 Pb13 I81'
_cell_volume   6815.60432301
_cell_formula_units_Z   1
loop_
 _symmetry_equiv_pos_site_id
 _symmetry_equiv_pos_as_xyz
  1  'x, y, z'
loop_
 _atom_site_type_symbol
 _atom_site_label
 _atom_site_symmetry_multiplicity
 _atom_site_fract_x
 _atom_site_fract_y
 _atom_site_fract_z
 _atom_site_occupancy
  Cs  Cs0  1  -0.00353888  0.00226760  -0.00231915  1
  Cs  Cs1  1  0.00318903  0.00270305  0.33554399  1
  Cs  Cs2  1  -0.00033351  -0.00182754  0.66708798  1
  Cs  Cs3  1  -0.00039338  0.33441424  0.00025435  1
  Cs  Cs4  1  0.00013801  0.33099175  0.33515858  1
  Cs  Cs5  1  0.00250376  0.33348937  0.66219248  1
  Cs  Cs6  1  0.00084655  0.66291892  0.00067101  1
  Cs  Cs7  1  0.00152495  0.66836123  0.33575945  1
  Cs  Cs8  1  -0.00517002  0.66864951  0.66354613  1
  Cs  Cs9  1  0.33393685  -0.00153379  0.00034154  1
  Cs  Cs10  1  0.33315609  -0.00076776  0.33354404  1
  Cs  Cs11  1  0.33323006  0.00130259  0.66693250  1
  Cs  Cs12  1  0.33149539  0.33683707  -0.00240773  1
  Cs  Cs13  1  0.33261749  0.33091869  0.33432653  1
  Cs  Cs14  1  0.33686774  0.33417651  0.66753115  1
  Cs  Cs15  1  0.33183547  0.66530210  0.00021651  1
  Cs  Cs16  1  0.33172739  0.67164135  0.32950803  1
  Cs  Cs17  1  0.33424097  0.66589355  0.67078200  1
  Cs  Cs18  1  0.66935367  -0.00011126  0.00022241  1
  Cs  Cs19  1  0.66301988  0.00024194  0.32905490  1
  Cs  Cs20  1  0.66663555  -0.00009042  0.67206064  1
  Cs  Cs21  1  0.66929897  0.33220968  0.00024485  1
  Cs  Cs22  1  0.66735727  0.33560742  0.33369492  1
  Cs  Cs23  1  0.65764810  0.33527061  0.66472599  1
  Cs  Cs24  1  0.66676460  0.66785468  0.00185144  1
  Cs  Cs25  1  0.66698195  0.66479912  0.33250875  1
  Cs  Cs26  1  0.67114082  0.66523691  0.66330550  1
  Sn  Sn27  1  0.16695836  0.83386840  0.83360582  1
  Sn  Sn28  1  0.16741469  0.16661971  0.16623489  1
  Sn  Sn29  1  0.83290728  0.50085930  0.16607394  1
  Sn  Sn30  1  0.16708480  0.49996583  0.49983967  1
  Sn  Sn31  1  0.50035080  0.49998489  0.16652553  1
  Sn  Sn32  1  0.83317863  0.49956248  0.83347656  1
  Sn  Sn33  1  0.83325855  0.83269353  0.16691909  1
  Sn  Sn34  1  0.49951958  0.83330225  0.83344479  1
  Sn  Sn35  1  0.50060550  0.83318245  0.16639908  1
  Sn  Sn36  1  0.83297242  0.16643671  0.50025291  1
  Sn  Sn37  1  0.16666204  0.16616436  0.83332673  1
  Sn  Sn38  1  0.50019428  0.83332514  0.50016963  1
  Sn  Sn39  1  0.16613451  0.16740810  0.50037379  1
  Sn  Sn40  1  0.49901619  0.16690632  0.16643437  1
  Pb  Pb41  1  0.83332005  0.16693070  0.16796382  1
  Pb  Pb42  1  0.49798655  0.16488738  0.83602194  1
  Pb  Pb43  1  0.16491791  0.50009727  0.83117677  1
  Pb  Pb44  1  0.83096106  0.83586632  0.49729552  1
  Pb  Pb45  1  0.83538124  0.16919429  0.83053912  1
  Pb  Pb46  1  0.16844499  0.83384193  0.50236897  1
  Pb  Pb47  1  0.49746061  0.50243792  0.49750172  1
  Pb  Pb48  1  0.16637086  0.83551357  0.16460834  1
  Pb  Pb49  1  0.49956031  0.16496171  0.49826406  1
  Pb  Pb50  1  0.50228466  0.50248071  0.83558738  1
  Pb  Pb51  1  0.83469900  0.49820391  0.49928893  1
  Pb  Pb52  1  0.16636313  0.49777584  0.16846764  1
  Pb  Pb53  1  0.83337360  0.83173425  0.83537698  1
  I  I54  1  0.17025828  0.00368922  0.17178059  1
  I  I55  1  0.16473589  0.00312769  0.49792688  1
  I  I56  1  0.17008521  0.00053789  0.83184924  1
  I  I57  1  0.16998114  0.32948570  0.16324953  1
  I  I58  1  0.16296994  0.33142723  0.50048054  1
  I  I59  1  0.16414768  0.33047059  0.83498399  1
  I  I60  1  0.16867046  0.66671596  0.16720518  1
  I  I61  1  0.16792998  0.66483681  0.50058879  1
  I  I62  1  0.17016318  0.66921220  0.83255758  1
  I  I63  1  0.50003318  -0.00097565  0.16735133  1
  I  I64  1  0.49777243  -0.00302358  0.49617345  1
  I  I65  1  0.49926330  -0.00356516  0.83563735  1
  I  I66  1  0.50029081  0.33325788  0.16799824  1
  I  I67  1  0.50124073  0.33332548  0.49757874  1
  I  I68  1  0.49929696  0.33350376  0.83466781  1
  I  I69  1  0.50485072  0.66761400  0.16698859  1
  I  I70  1  0.49855051  0.67032599  0.49769677  1
  I  I71  1  0.49270639  0.67073210  0.83602742  1
  I  I72  1  0.82937654  -0.00204701  0.16807416  1
  I  I73  1  0.84144107  0.00336185  0.49811277  1
  I  I74  1  0.83250919  0.00003209  0.83434680  1
  I  I75  1  0.83038238  0.33592184  0.16488306  1
  I  I76  1  0.83650297  0.33036146  0.49692516  1
  I  I77  1  0.83553958  0.33669143  0.84180327  1
  I  I78  1  0.82543192  0.66637356  0.16382542  1
  I  I79  1  0.83505139  0.66676429  0.50098689  1
  I  I80  1  0.83547492  0.66393161  0.83499443  1
  I  I81  1  0.17136512  0.16198375  0.00017686  1
  I  I82  1  0.16641169  0.17074763  0.33350334  1
  I  I83  1  0.16119897  0.16605039  0.66626941  1
  I  I84  1  0.16752392  0.49875747  0.00013200  1
  I  I85  1  0.16534743  0.49454806  0.33612174  1
  I  I86  1  0.16469415  0.49482551  0.66358395  1
  I  I87  1  0.17180733  0.83770453  -0.00320505  1
  I  I88  1  0.16786386  0.83433126  0.33321522  1
  I  I89  1  0.17164765  0.83789550  0.67017789  1
  I  I90  1  0.49620834  0.16437694  0.00441326  1
  I  I91  1  0.49514656  0.16323427  0.32981429  1
  I  I92  1  0.49993281  0.16429591  0.66684558  1
  I  I93  1  0.49965225  0.50172219  0.00404445  1
  I  I94  1  0.50612423  0.50160581  0.32920561  1
  I  I95  1  0.50124859  0.50155394  0.66664675  1
  I  I96  1  0.49957143  0.83376889  0.00121563  1
  I  I97  1  0.50360376  0.83385102  0.33162368  1
  I  I98  1  0.49399268  0.83466811  0.66729435  1
  I  I99  1  0.83455164  0.16551149  0.00002573  1
  I  I100  1  0.83952398  0.16773657  0.33554344  1
  I  I101  1  0.83921444  0.16705797  0.66299113  1
  I  I102  1  0.83119456  0.50313665  0.00175551  1
  I  I103  1  0.82996904  0.50219696  0.33014638  1
  I  I104  1  0.83714433  0.49955160  0.66840990  1
  I  I105  1  0.82779779  0.83355019  0.00346916  1
  I  I106  1  0.82842050  0.82759043  0.32924207  1
  I  I107  1  0.83214057  0.83188100  0.66665302  1
  I  I108  1  0.00262534  0.16641048  0.16631026  1
  I  I109  1  0.00196556  0.16972649  0.49658499  1
  I  I110  1  0.00395572  0.16032916  0.83856465  1
  I  I111  1  -0.00284312  0.50312860  0.16445401  1
  I  I112  1  0.00278728  0.49791709  0.49813958  1
  I  I113  1  -0.00272956  0.50157412  0.84059882  1
  I  I114  1  -0.00248790  0.82995183  0.16480333  1
  I  I115  1  0.00003252  0.83204450  0.49984601  1
  I  I116  1  0.00245547  0.83651900  0.83465160  1
  I  I117  1  0.33343836  0.16555762  0.16929431  1
  I  I118  1  0.33019319  0.16860894  0.50052937  1
  I  I119  1  0.32948007  0.16596588  0.82858596  1
  I  I120  1  0.33595384  0.50310644  0.16884650  1
  I  I121  1  0.32987564  0.49203283  0.49994644  1
  I  I122  1  0.33340750  0.49928212  0.83390661  1
  I  I123  1  0.33642554  0.83165762  0.16794175  1
  I  I124  1  0.33638208  0.83513981  0.49350099  1
  I  I125  1  0.33381908  0.83679663  0.83556435  1
  I  I126  1  0.66407155  0.16548093  0.16954570  1
  I  I127  1  0.66846256  0.16523534  0.49602128  1
  I  I128  1  0.66659796  0.16538140  0.83326313  1
  I  I129  1  0.66651835  0.49935081  0.16392087  1
  I  I130  1  0.66644939  0.49866363  0.50137704  1
  I  I131  1  0.67000513  0.50134541  0.83433826  1
  I  I132  1  0.66492871  0.83538933  0.16496192  1
  I  I133  1  0.66295670  0.83455247  0.50344363  1
  I  I134  1  0.66386230  0.83166590  0.83317256  1
