# generated using pymatgen
data_Cs27Sn14Pb13I81
_symmetry_space_group_name_H-M   'P 1'
_cell_length_a   18.97661217
_cell_length_b   18.97218706
_cell_length_c   18.97815609
_cell_angle_alpha   90.00056778
_cell_angle_beta   90.00096265
_cell_angle_gamma   89.99999214
_symmetry_Int_Tables_number   1
_chemical_formula_structural   Cs27Sn14Pb13I81
_chemical_formula_sum   'Cs27 Sn14 Pb13 I81'
_cell_volume   6832.66446482
_cell_formula_units_Z   1
loop_
 _symmetry_equiv_pos_site_id
 _symmetry_equiv_pos_as_xyz
  1  'x, y, z'
loop_
 _atom_site_type_symbol
 _atom_site_label
 _atom_site_symmetry_multiplicity
 _atom_site_fract_x
 _atom_site_fract_y
 _atom_site_fract_z
 _atom_site_occupancy
  Cs  Cs0  1  0.00052542  -0.00098320  -0.00103545  1
  Cs  Cs1  1  0.00364163  0.00047881  0.33506089  1
  Cs  Cs2  1  -0.00258405  0.00111984  0.66539455  1
  Cs  Cs3  1  -0.00037974  0.33423105  0.00225802  1
  Cs  Cs4  1  -0.00097145  0.33096265  0.33048903  1
  Cs  Cs5  1  -0.00019815  0.33249378  0.66735206  1
  Cs  Cs6  1  -0.00094840  0.66796416  0.00052439  1
  Cs  Cs7  1  0.00486770  0.66953715  0.33462229  1
  Cs  Cs8  1  -0.00205142  0.66529987  0.66470253  1
  Cs  Cs9  1  0.33394219  -0.00080206  -0.00125424  1
  Cs  Cs10  1  0.33111786  -0.00058587  0.33295454  1
  Cs  Cs11  1  0.33726003  0.00274765  0.66873838  1
  Cs  Cs12  1  0.33722609  0.33343371  -0.00666374  1
  Cs  Cs13  1  0.33294120  0.33516214  0.33451948  1
  Cs  Cs14  1  0.33199904  0.34037337  0.67196321  1
  Cs  Cs15  1  0.33291469  0.66972809  -0.00030335  1
  Cs  Cs16  1  0.32908070  0.66428682  0.33548092  1
  Cs  Cs17  1  0.33299426  0.65717563  0.66564710  1
  Cs  Cs18  1  0.66579944  -0.00121564  0.00060485  1
  Cs  Cs19  1  0.66592931  0.00080468  0.33571816  1
  Cs  Cs20  1  0.66795612  -0.00095053  0.66535248  1
  Cs  Cs21  1  0.66255221  0.33375851  0.00994262  1
  Cs  Cs22  1  0.66639511  0.33454107  0.32674466  1
  Cs  Cs23  1  0.66896293  0.33396887  0.66600572  1
  Cs  Cs24  1  0.66789159  0.66828474  0.00046767  1
  Cs  Cs25  1  0.66555521  0.66558762  0.33239687  1
  Cs  Cs26  1  0.66888472  0.66801176  0.66714576  1
  Sn  Sn27  1  0.50079181  0.83362785  0.16713297  1
  Sn  Sn28  1  0.83297178  0.83382239  0.16652475  1
  Sn  Sn29  1  0.49989539  0.16654463  0.50019078  1
  Sn  Sn30  1  0.83311739  0.49958068  0.83325455  1
  Sn  Sn31  1  0.83351297  0.83352914  0.83391645  1
  Sn  Sn32  1  0.83302708  0.16768037  0.50047860  1
  Sn  Sn33  1  0.16706889  0.16664887  0.49992849  1
  Sn  Sn34  1  0.49985081  0.83364912  0.50013054  1
  Sn  Sn35  1  0.49997390  0.83338704  0.83280574  1
  Sn  Sn36  1  0.83327346  0.49895652  0.50014384  1
  Sn  Sn37  1  0.83298065  0.16698509  0.83338426  1
  Sn  Sn38  1  0.16670714  0.49876215  0.16626185  1
  Sn  Sn39  1  0.16684287  0.16773563  0.16659048  1
  Sn  Sn40  1  0.16638182  0.83343050  0.83239223  1
  Pb  Pb41  1  0.50313265  0.50234475  0.83349150  1
  Pb  Pb42  1  0.49727286  0.16449390  0.16894714  1
  Pb  Pb43  1  0.16475290  0.16517544  0.83312254  1
  Pb  Pb44  1  0.50251760  0.49942621  0.49998576  1
  Pb  Pb45  1  0.16410041  0.50226051  0.83533326  1
  Pb  Pb46  1  0.50294959  0.16505117  0.83118057  1
  Pb  Pb47  1  0.16680719  0.83387875  0.16527204  1
  Pb  Pb48  1  0.49706495  0.50264956  0.16668942  1
  Pb  Pb49  1  0.16970638  0.83548837  0.50307139  1
  Pb  Pb50  1  0.83480334  0.16428420  0.16695945  1
  Pb  Pb51  1  0.83192661  0.83359544  0.49995168  1
  Pb  Pb52  1  0.83479594  0.50248411  0.16690940  1
  Pb  Pb53  1  0.16393767  0.49713895  0.49843734  1
  I  I54  1  0.16609891  0.00217643  0.17030939  1
  I  I55  1  0.15952987  0.00338377  0.49276809  1
  I  I56  1  0.16380433  -0.00299459  0.83620083  1
  I  I57  1  0.16288001  0.33241277  0.17173892  1
  I  I58  1  0.17139524  0.32898585  0.49953115  1
  I  I59  1  0.16464815  0.33332770  0.83225090  1
  I  I60  1  0.16582233  0.66539036  0.16379682  1
  I  I61  1  0.16623897  0.66664050  0.49816323  1
  I  I62  1  0.16527992  0.67046362  0.83654699  1
  I  I63  1  0.50184313  -0.00383373  0.16372619  1
  I  I64  1  0.50330608  -0.00024396  0.50040142  1
  I  I65  1  0.50255052  -0.00379748  0.83527170  1
  I  I66  1  0.50180641  0.33306814  0.16886024  1
  I  I67  1  0.49857576  0.32979880  0.49954869  1
  I  I68  1  0.49988332  0.33321013  0.83132277  1
  I  I69  1  0.50252554  0.67133498  0.16838421  1
  I  I70  1  0.50271308  0.66977024  0.50051368  1
  I  I71  1  0.50177047  0.67146944  0.83074951  1
  I  I72  1  0.83222516  -0.00367313  0.16213450  1
  I  I73  1  0.83467013  0.00286199  0.50282987  1
  I  I74  1  0.83346517  -0.00097926  0.83245484  1
  I  I75  1  0.83387100  0.33319376  0.16387535  1
  I  I76  1  0.83261984  0.33194551  0.50851760  1
  I  I77  1  0.83604547  0.33295035  0.82611299  1
  I  I78  1  0.83236817  0.67042142  0.16238169  1
  I  I79  1  0.83121322  0.66495963  0.50302824  1
  I  I80  1  0.83294650  0.66790574  0.83304426  1
  I  I81  1  0.16316376  0.16721475  0.00226890  1
  I  I82  1  0.16349649  0.16825713  0.33409082  1
  I  I83  1  0.16686848  0.16231919  0.66380626  1
  I  I84  1  0.16345391  0.49441839  0.00297338  1
  I  I85  1  0.16374180  0.50209973  0.33064113  1
  I  I86  1  0.16772922  0.50051569  0.66675802  1
  I  I87  1  0.16908243  0.83540123  -0.00261941  1
  I  I88  1  0.16597192  0.83171354  0.33362072  1
  I  I89  1  0.16190313  0.83539206  0.67072108  1
  I  I90  1  0.49961272  0.16472627  0.00000420  1
  I  I91  1  0.50627790  0.15952515  0.33708427  1
  I  I92  1  0.49591400  0.15893060  0.66298239  1
  I  I93  1  0.50245610  0.50140659  0.00007391  1
  I  I94  1  0.50339724  0.50405800  0.33340477  1
  I  I95  1  0.49681025  0.50328605  0.66666098  1
  I  I96  1  0.50113503  0.83178944  -0.00051927  1
  I  I97  1  0.50587629  0.83773588  0.33344566  1
  I  I98  1  0.50193274  0.83866194  0.66694983  1
  I  I99  1  0.83671489  0.16672557  -0.00257423  1
  I  I100  1  0.83187604  0.16942555  0.33657150  1
  I  I101  1  0.83551278  0.16387370  0.66608959  1
  I  I102  1  0.83568391  0.49997871  -0.00273283  1
  I  I103  1  0.83405073  0.49604277  0.33586869  1
  I  I104  1  0.83380418  0.50272319  0.66718341  1
  I  I105  1  0.82940504  0.83313960  -0.00175752  1
  I  I106  1  0.82919115  0.83308740  0.33115110  1
  I  I107  1  0.83256861  0.83344493  0.66959801  1
  I  I108  1  0.00256380  0.16596229  0.17232664  1
  I  I109  1  -0.00079028  0.17066221  0.50004129  1
  I  I110  1  -0.00351423  0.16229649  0.82780434  1
  I  I111  1  0.00239721  0.49952523  0.16660360  1
  I  I112  1  -0.00388519  0.49693933  0.50427442  1
  I  I113  1  -0.00394642  0.50380269  0.82954859  1
  I  I114  1  -0.00214788  0.83308861  0.16086029  1
  I  I115  1  0.00008276  0.83384027  0.49923029  1
  I  I116  1  -0.00182876  0.83361785  0.83979145  1
  I  I117  1  0.32939715  0.16682205  0.17190672  1
  I  I118  1  0.33342025  0.15818759  0.49353762  1
  I  I119  1  0.33349898  0.16282343  0.83280656  1
  I  I120  1  0.32935665  0.49843376  0.16806113  1
  I  I121  1  0.33311047  0.50093565  0.49819507  1
  I  I122  1  0.33319736  0.50223985  0.83422695  1
  I  I123  1  0.33590814  0.83373519  0.16517333  1
  I  I124  1  0.33771431  0.83892999  0.49757890  1
  I  I125  1  0.33413194  0.83553364  0.83534375  1
  I  I126  1  0.66658818  0.16660765  0.16698552  1
  I  I127  1  0.66735279  0.16452789  0.50606660  1
  I  I128  1  0.67124665  0.16321436  0.82763208  1
  I  I129  1  0.66684713  0.50018203  0.16654779  1
  I  I130  1  0.67053394  0.49604915  0.50378025  1
  I  I131  1  0.67140540  0.50292500  0.82927566  1
  I  I132  1  0.66674913  0.83333488  0.16132343  1
  I  I133  1  0.66395379  0.83846486  0.50352083  1
  I  I134  1  0.66746101  0.83324999  0.83403106  1
