# generated using pymatgen
data_Cs27Sn14Pb13I81
_symmetry_space_group_name_H-M   'P 1'
_cell_length_a   18.97828054
_cell_length_b   18.97693525
_cell_length_c   18.97197466
_cell_angle_alpha   90.00319988
_cell_angle_beta   90.00257624
_cell_angle_gamma   90.00094818
_symmetry_Int_Tables_number   1
_chemical_formula_structural   Cs27Sn14Pb13I81
_chemical_formula_sum   'Cs27 Sn14 Pb13 I81'
_cell_volume   6832.74908736
_cell_formula_units_Z   1
loop_
 _symmetry_equiv_pos_site_id
 _symmetry_equiv_pos_as_xyz
  1  'x, y, z'
loop_
 _atom_site_type_symbol
 _atom_site_label
 _atom_site_symmetry_multiplicity
 _atom_site_fract_x
 _atom_site_fract_y
 _atom_site_fract_z
 _atom_site_occupancy
  Cs  Cs0  1  0.00129357  -0.00245533  0.00040485  1
  Cs  Cs1  1  -0.00103003  0.00186118  0.33259463  1
  Cs  Cs2  1  0.00410223  -0.00029311  0.66696610  1
  Cs  Cs3  1  -0.00054807  0.33315584  0.00209267  1
  Cs  Cs4  1  0.00352494  0.33161545  0.33199709  1
  Cs  Cs5  1  -0.00815555  0.33190907  0.66657097  1
  Cs  Cs6  1  -0.00134012  0.66767554  0.00285922  1
  Cs  Cs7  1  -0.00079150  0.66795326  0.32969838  1
  Cs  Cs8  1  -0.00099306  0.66897651  0.66541947  1
  Cs  Cs9  1  0.33541357  0.00297752  -0.00208192  1
  Cs  Cs10  1  0.33658115  0.00073767  0.33433508  1
  Cs  Cs11  1  0.32668385  -0.00021662  0.66818624  1
  Cs  Cs12  1  0.33509646  0.33441303  -0.00149010  1
  Cs  Cs13  1  0.33095977  0.33423875  0.33572532  1
  Cs  Cs14  1  0.33409168  0.33482386  0.66300318  1
  Cs  Cs15  1  0.33356587  0.66367046  -0.00151688  1
  Cs  Cs16  1  0.33488813  0.66438702  0.33560249  1
  Cs  Cs17  1  0.33356447  0.66666159  0.66760410  1
  Cs  Cs18  1  0.66344485  -0.00120889  0.00226017  1
  Cs  Cs19  1  0.66484923  -0.00345987  0.33202909  1
  Cs  Cs20  1  0.67108482  0.00122745  0.66506846  1
  Cs  Cs21  1  0.66559035  0.33184654  -0.00220555  1
  Cs  Cs22  1  0.66581328  0.33334585  0.33450906  1
  Cs  Cs23  1  0.67256666  0.33362365  0.66680555  1
  Cs  Cs24  1  0.66729827  0.66743851  -0.00100421  1
  Cs  Cs25  1  0.66536327  0.66894317  0.33440490  1
  Cs  Cs26  1  0.66690521  0.66452738  0.66855600  1
  Sn  Sn27  1  0.16676495  0.49964233  0.83197680  1
  Sn  Sn28  1  0.16687640  0.83447201  0.16682158  1
  Sn  Sn29  1  0.83199254  0.49992239  0.16678612  1
  Sn  Sn30  1  0.16649446  0.16548287  0.16700989  1
  Sn  Sn31  1  0.83262501  0.83334291  0.83398384  1
  Sn  Sn32  1  0.16685221  0.49941852  0.50138829  1
  Sn  Sn33  1  0.49933305  0.16729332  0.50020738  1
  Sn  Sn34  1  0.16744486  0.16769253  0.49921895  1
  Sn  Sn35  1  0.83363947  0.16646183  0.16667075  1
  Sn  Sn36  1  0.49940638  0.50040687  0.83301075  1
  Sn  Sn37  1  0.83388267  0.83356312  0.16599103  1
  Sn  Sn38  1  0.50104344  0.49995016  0.16668816  1
  Sn  Sn39  1  0.49949893  0.49921562  0.50032906  1
  Sn  Sn40  1  0.50061042  0.83304327  0.83318911  1
  Pb  Pb41  1  0.83357787  0.50013028  0.49735381  1
  Pb  Pb42  1  0.83338305  0.83332730  0.49982147  1
  Pb  Pb43  1  0.83332445  0.50154357  0.83559904  1
  Pb  Pb44  1  0.49991775  0.16705521  0.83015337  1
  Pb  Pb45  1  0.49987504  0.83318302  0.50312279  1
  Pb  Pb46  1  0.83338643  0.16341168  0.83640720  1
  Pb  Pb47  1  0.16670649  0.16967251  0.83325867  1
  Pb  Pb48  1  0.16687636  0.49970587  0.16690891  1
  Pb  Pb49  1  0.49975478  0.83112652  0.16489712  1
  Pb  Pb50  1  0.16678093  0.83316391  0.49727212  1
  Pb  Pb51  1  0.49953670  0.16906034  0.16847832  1
  Pb  Pb52  1  0.16673410  0.83099695  0.83568084  1
  Pb  Pb53  1  0.83369103  0.16665503  0.49763270  1
  I  I54  1  0.15817641  0.00077887  0.17130750  1
  I  I55  1  0.17066356  0.00329614  0.49729442  1
  I  I56  1  0.16648459  -0.00015967  0.83114814  1
  I  I57  1  0.16311324  0.33111398  0.16801132  1
  I  I58  1  0.17188065  0.33360577  0.49599244  1
  I  I59  1  0.17433750  0.33766134  0.83617966  1
  I  I60  1  0.16270314  0.66818566  0.16567780  1
  I  I61  1  0.17183034  0.66322078  0.50189465  1
  I  I62  1  0.16895282  0.66309174  0.82987812  1
  I  I63  1  0.50216879  0.00006330  0.16699258  1
  I  I64  1  0.49599987  0.00296323  0.49944044  1
  I  I65  1  0.50485882  -0.00279676  0.83405460  1
  I  I66  1  0.50341396  0.33733375  0.16172706  1
  I  I67  1  0.49516873  0.33492275  0.50010631  1
  I  I68  1  0.49524333  0.33706481  0.83640720  1
  I  I69  1  0.50255042  0.66281692  0.17113881  1
  I  I70  1  0.49558963  0.66296722  0.49750637  1
  I  I71  1  0.50020725  0.66506633  0.83229525  1
  I  I72  1  0.83921180  -0.00037770  0.16326659  1
  I  I73  1  0.83218162  0.00022394  0.49826095  1
  I  I74  1  0.82704914  -0.00462064  0.83869831  1
  I  I75  1  0.83469023  0.33338815  0.16842625  1
  I  I76  1  0.83278715  0.33344600  0.49854333  1
  I  I77  1  0.83273946  0.33342674  0.83515547  1
  I  I78  1  0.83486631  0.66713015  0.16312166  1
  I  I79  1  0.83357459  0.66642808  0.49559165  1
  I  I80  1  0.83223027  0.66933751  0.84119186  1
  I  I81  1  0.16138461  0.16441705  0.00330789  1
  I  I82  1  0.16593716  0.16985253  0.33302949  1
  I  I83  1  0.17230817  0.16808282  0.66330527  1
  I  I84  1  0.17018362  0.50124604  -0.00157818  1
  I  I85  1  0.16986316  0.49907475  0.33556026  1
  I  I86  1  0.17560617  0.49634458  0.66585657  1
  I  I87  1  0.16433483  0.83662114  0.00365605  1
  I  I88  1  0.15940639  0.83123072  0.32918367  1
  I  I89  1  0.16574324  0.83563724  0.66689992  1
  I  I90  1  0.50031023  0.16815978  0.00007037  1
  I  I91  1  0.49875820  0.17279133  0.33629066  1
  I  I92  1  0.49270227  0.17176495  0.66226072  1
  I  I93  1  0.49893415  0.50479774  -0.00038401  1
  I  I94  1  0.49928479  0.49599023  0.33374048  1
  I  I95  1  0.49402846  0.50098697  0.66663323  1
  I  I96  1  0.50114129  0.82691914  -0.00293537  1
  I  I97  1  0.50108903  0.83158564  0.33329064  1
  I  I98  1  0.50578551  0.82680120  0.67093976  1
  I  I99  1  0.83949553  0.17037739  0.00479456  1
  I  I100  1  0.83494050  0.16446542  0.32929090  1
  I  I101  1  0.83360438  0.16518682  0.66660314  1
  I  I102  1  0.83082893  0.49862078  0.00390238  1
  I  I103  1  0.83029583  0.50303642  0.32887163  1
  I  I104  1  0.83176476  0.50246984  0.66681989  1
  I  I105  1  0.83342638  0.83257579  0.00152977  1
  I  I106  1  0.83761386  0.83314599  0.32917587  1
  I  I107  1  0.82839640  0.83101412  0.67007503  1
  I  I108  1  0.00040006  0.16843925  0.17235587  1
  I  I109  1  0.00346508  0.17162987  0.49713384  1
  I  I110  1  0.00008889  0.16789059  0.82844368  1
  I  I111  1  -0.00197121  0.50082482  0.16616587  1
  I  I112  1  0.00348914  0.49549184  0.50314936  1
  I  I113  1  0.00250064  0.50097415  0.83099337  1
  I  I114  1  -0.00106110  0.83081900  0.16146149  1
  I  I115  1  0.00029881  0.83238598  0.50473581  1
  I  I116  1  -0.00237531  0.83160189  0.83719238  1
  I  I117  1  0.33033322  0.16340202  0.16891519  1
  I  I118  1  0.33239790  0.17163163  0.49294753  1
  I  I119  1  0.33332777  0.16107390  0.84008324  1
  I  I120  1  0.33567366  0.50055629  0.16627655  1
  I  I121  1  0.33384889  0.49628053  0.49768232  1
  I  I122  1  0.33465853  0.50583844  0.83582015  1
  I  I123  1  0.33084699  0.83609099  0.16580024  1
  I  I124  1  0.33335133  0.83321923  0.49865383  1
  I  I125  1  0.33575423  0.82972541  0.83444309  1
  I  I126  1  0.66915192  0.16414259  0.16792794  1
  I  I127  1  0.66382565  0.17190344  0.49991919  1
  I  I128  1  0.66658913  0.17129113  0.83267560  1
  I  I129  1  0.66647468  0.50043327  0.16666133  1
  I  I130  1  0.66323331  0.49584372  0.50237409  1
  I  I131  1  0.66363562  0.50240372  0.83128623  1
  I  I132  1  0.66943020  0.83557568  0.16449943  1
  I  I133  1  0.66636536  0.83379757  0.49474757  1
  I  I134  1  0.66659206  0.82664285  0.83990301  1
