# generated using pymatgen
data_Cs27Sn13Pb14I81
_symmetry_space_group_name_H-M   'P 1'
_cell_length_a   18.97335870
_cell_length_b   18.97892987
_cell_length_c   18.97808502
_cell_angle_alpha   90.00052096
_cell_angle_beta   90.00010131
_cell_angle_gamma   89.99888982
_symmetry_Int_Tables_number   1
_chemical_formula_structural   Cs27Sn13Pb14I81
_chemical_formula_sum   'Cs27 Sn13 Pb14 I81'
_cell_volume   6833.89538184
_cell_formula_units_Z   1
loop_
 _symmetry_equiv_pos_site_id
 _symmetry_equiv_pos_as_xyz
  1  'x, y, z'
loop_
 _atom_site_type_symbol
 _atom_site_label
 _atom_site_symmetry_multiplicity
 _atom_site_fract_x
 _atom_site_fract_y
 _atom_site_fract_z
 _atom_site_occupancy
  Cs  Cs0  1  -0.00001197  -0.00177443  -0.00052138  1
  Cs  Cs1  1  0.00266277  0.00128242  0.33245367  1
  Cs  Cs2  1  -0.00540774  -0.00143188  0.66786121  1
  Cs  Cs3  1  0.00159348  0.33254166  0.00218774  1
  Cs  Cs4  1  0.00159768  0.33180216  0.33216178  1
  Cs  Cs5  1  -0.00091498  0.33717731  0.66568847  1
  Cs  Cs6  1  -0.00229877  0.66937562  -0.00301612  1
  Cs  Cs7  1  -0.00261149  0.66761009  0.33159212  1
  Cs  Cs8  1  0.00125655  0.66320164  0.67196327  1
  Cs  Cs9  1  0.33356103  -0.00021100  0.00192370  1
  Cs  Cs10  1  0.33055981  -0.00069016  0.33047299  1
  Cs  Cs11  1  0.33590460  0.00063102  0.66539375  1
  Cs  Cs12  1  0.33333296  0.33084268  0.00096294  1
  Cs  Cs13  1  0.33264394  0.33531466  0.33326630  1
  Cs  Cs14  1  0.33426500  0.33544647  0.66474296  1
  Cs  Cs15  1  0.33450028  0.66917081  -0.00270115  1
  Cs  Cs16  1  0.33511779  0.66715614  0.33526943  1
  Cs  Cs17  1  0.33216738  0.66423996  0.66709956  1
  Cs  Cs18  1  0.66489136  0.00056514  -0.00271071  1
  Cs  Cs19  1  0.66794004  -0.00310484  0.34120509  1
  Cs  Cs20  1  0.67201518  0.00606427  0.65964620  1
  Cs  Cs21  1  0.66591538  0.33567211  -0.00137285  1
  Cs  Cs22  1  0.66524489  0.33767841  0.33358952  1
  Cs  Cs23  1  0.66871468  0.32686639  0.66844609  1
  Cs  Cs24  1  0.66656148  0.66432988  0.00156204  1
  Cs  Cs25  1  0.66734479  0.66557502  0.33430136  1
  Cs  Cs26  1  0.66637354  0.66764319  0.66517645  1
  Sn  Sn27  1  0.50020806  0.83321014  0.83360297  1
  Sn  Sn28  1  0.50046880  0.16581277  0.16676870  1
  Sn  Sn29  1  0.16660080  0.83381320  0.49964001  1
  Sn  Sn30  1  0.16689078  0.16648204  0.16664139  1
  Sn  Sn31  1  0.16664488  0.16656944  0.83295838  1
  Sn  Sn32  1  0.83270034  0.16632244  0.16657862  1
  Sn  Sn33  1  0.50056421  0.50048180  0.83350430  1
  Sn  Sn34  1  0.83341717  0.50007022  0.50047410  1
  Sn  Sn35  1  0.16679597  0.50075936  0.16633785  1
  Sn  Sn36  1  0.16668873  0.16590254  0.50031607  1
  Sn  Sn37  1  0.16736236  0.83305283  0.16717336  1
  Sn  Sn38  1  0.49945738  0.83411801  0.16597113  1
  Sn  Sn39  1  0.83245645  0.49991118  0.83285489  1
  Pb  Pb40  1  0.83583348  0.16850260  0.49760828  1
  Pb  Pb41  1  0.83658673  0.83097533  0.49999528  1
  Pb  Pb42  1  0.16693359  0.49815985  0.83545930  1
  Pb  Pb43  1  0.49790941  0.50046273  0.16507439  1
  Pb  Pb44  1  0.82998608  0.83133157  0.83344224  1
  Pb  Pb45  1  0.16523244  0.50035353  0.49776599  1
  Pb  Pb46  1  0.49839262  0.16635457  0.83489566  1
  Pb  Pb47  1  0.49782862  0.83336147  0.49986110  1
  Pb  Pb48  1  0.49753366  0.16664754  0.49679392  1
  Pb  Pb49  1  0.83527718  0.49827582  0.16629076  1
  Pb  Pb50  1  0.83562985  0.16860534  0.83540310  1
  Pb  Pb51  1  0.50250756  0.49993092  0.50302653  1
  Pb  Pb52  1  0.16844433  0.83559753  0.83328251  1
  Pb  Pb53  1  0.83283817  0.83592331  0.16662114  1
  I  I54  1  0.16753226  0.00084727  0.16763059  1
  I  I55  1  0.16733944  0.00064253  0.49330830  1
  I  I56  1  0.16899043  0.00339262  0.83919288  1
  I  I57  1  0.16642724  0.33144240  0.16650261  1
  I  I58  1  0.16508697  0.33059373  0.49741036  1
  I  I59  1  0.16824280  0.33024779  0.83550211  1
  I  I60  1  0.17094714  0.66796125  0.17135120  1
  I  I61  1  0.16570533  0.66942202  0.49417390  1
  I  I62  1  0.16508831  0.66670585  0.83415673  1
  I  I63  1  0.49311285  -0.00016414  0.16000950  1
  I  I64  1  0.50305548  0.00001751  0.50553047  1
  I  I65  1  0.49485204  -0.00253304  0.83795630  1
  I  I66  1  0.49727645  0.33069775  0.16518488  1
  I  I67  1  0.49611537  0.33328038  0.49891355  1
  I  I68  1  0.50212948  0.33561255  0.83553032  1
  I  I69  1  0.49399037  0.66966523  0.16432015  1
  I  I70  1  0.49718219  0.66665045  0.49519579  1
  I  I71  1  0.50226713  0.66677929  0.84045612  1
  I  I72  1  0.84008999  0.00389525  0.16652303  1
  I  I73  1  0.83230429  0.00022197  0.49895919  1
  I  I74  1  0.83349693  0.00032267  0.83464639  1
  I  I75  1  0.83565432  0.33027611  0.16633589  1
  I  I76  1  0.83673207  0.33612877  0.50355202  1
  I  I77  1  0.82726236  0.33659064  0.83056602  1
  I  I78  1  0.83517673  0.66655409  0.16665753  1
  I  I79  1  0.83573421  0.66310168  0.50231491  1
  I  I80  1  0.83540825  0.66290964  0.83158694  1
  I  I81  1  0.16686928  0.16781687  0.00210004  1
  I  I82  1  0.16627983  0.16619345  0.33158114  1
  I  I83  1  0.16723608  0.16317930  0.66622371  1
  I  I84  1  0.16492004  0.49840024  0.00343320  1
  I  I85  1  0.16468018  0.49478262  0.32982536  1
  I  I86  1  0.16766383  0.49889686  0.66681749  1
  I  I87  1  0.16867668  0.83472090  0.00321155  1
  I  I88  1  0.17148258  0.83793399  0.33140212  1
  I  I89  1  0.16796467  0.83785031  0.66417265  1
  I  I90  1  0.49544626  0.16628023  0.00340405  1
  I  I91  1  0.49736790  0.16128783  0.32823473  1
  I  I92  1  0.49691705  0.16712256  0.66669659  1
  I  I93  1  0.50558912  0.50069331  -0.00272602  1
  I  I94  1  0.50086404  0.49990147  0.33306159  1
  I  I95  1  0.49769828  0.50598699  0.67122168  1
  I  I96  1  0.49320444  0.83336116  0.00132038  1
  I  I97  1  0.49679866  0.83817518  0.32978975  1
  I  I98  1  0.49687182  0.82705696  0.66957994  1
  I  I99  1  0.83761713  0.16953539  0.00342961  1
  I  I100  1  0.83663256  0.16968257  0.32968133  1
  I  I101  1  0.83541058  0.16668172  0.66659959  1
  I  I102  1  0.83074219  0.49794003  -0.00256688  1
  I  I103  1  0.83764146  0.49787774  0.33502583  1
  I  I104  1  0.83179836  0.49944900  0.66745933  1
  I  I105  1  0.83936963  0.83082823  0.00014267  1
  I  I106  1  0.82934780  0.82952878  0.33319025  1
  I  I107  1  0.83416949  0.83557677  0.66673114  1
  I  I108  1  0.00221740  0.16819098  0.16704770  1
  I  I109  1  0.00410790  0.16386976  0.49603687  1
  I  I110  1  0.00382870  0.16824178  0.83714720  1
  I  I111  1  0.00348572  0.49840102  0.16509001  1
  I  I112  1  -0.00238611  0.49943138  0.50642240  1
  I  I113  1  -0.00204844  0.49680649  0.83105317  1
  I  I114  1  0.00349149  0.83432989  0.17060112  1
  I  I115  1  0.00465666  0.83819263  0.49234346  1
  I  I116  1  0.00025579  0.83241406  0.83402516  1
  I  I117  1  0.33174403  0.16607573  0.16620145  1
  I  I118  1  0.32891564  0.16465762  0.49768659  1
  I  I119  1  0.33019154  0.16922868  0.83703890  1
  I  I120  1  0.32988363  0.49434946  0.16545458  1
  I  I121  1  0.33303688  0.49951846  0.50042827  1
  I  I122  1  0.33571760  0.50240954  0.83689352  1
  I  I123  1  0.33222420  0.83811721  0.16623047  1
  I  I124  1  0.32958778  0.83661272  0.49698687  1
  I  I125  1  0.33617540  0.82657370  0.83608466  1
  I  I126  1  0.66581631  0.16382023  0.16426514  1
  I  I127  1  0.66693705  0.16795826  0.49861953  1
  I  I128  1  0.66662903  0.16635442  0.83662053  1
  I  I129  1  0.66656285  0.49861797  0.16803879  1
  I  I130  1  0.67040888  0.49970420  0.49796561  1
  I  I131  1  0.66643535  0.50335599  0.83165043  1
  I  I132  1  0.66294564  0.83709084  0.16179148  1
  I  I133  1  0.66671111  0.83164355  0.49882717  1
  I  I134  1  0.66189828  0.83206791  0.84195196  1
