# generated using pymatgen
data_Cs27Sn13Pb14I81
_symmetry_space_group_name_H-M   'P 1'
_cell_length_a   18.97647230
_cell_length_b   18.97617867
_cell_length_c   18.97976297
_cell_angle_alpha   90.00029717
_cell_angle_beta   89.99957523
_cell_angle_gamma   90.00361580
_symmetry_Int_Tables_number   1
_chemical_formula_structural   Cs27Sn13Pb14I81
_chemical_formula_sum   'Cs27 Sn13 Pb14 I81'
_cell_volume   6834.63026307
_cell_formula_units_Z   1
loop_
 _symmetry_equiv_pos_site_id
 _symmetry_equiv_pos_as_xyz
  1  'x, y, z'
loop_
 _atom_site_type_symbol
 _atom_site_label
 _atom_site_symmetry_multiplicity
 _atom_site_fract_x
 _atom_site_fract_y
 _atom_site_fract_z
 _atom_site_occupancy
  Cs  Cs0  1  0.00415215  -0.00017268  0.00155744  1
  Cs  Cs1  1  0.00661183  -0.01014666  0.34022980  1
  Cs  Cs2  1  -0.00019902  -0.00032725  0.65939167  1
  Cs  Cs3  1  -0.00148667  0.33451273  -0.00113426  1
  Cs  Cs4  1  -0.00265909  0.33475386  0.33382457  1
  Cs  Cs5  1  -0.00025782  0.33275953  0.66873090  1
  Cs  Cs6  1  -0.00079165  0.66554195  -0.00036957  1
  Cs  Cs7  1  0.00218484  0.67084281  0.33455337  1
  Cs  Cs8  1  0.00089600  0.66728775  0.66689958  1
  Cs  Cs9  1  0.33172592  0.00375443  0.00084178  1
  Cs  Cs10  1  0.33043003  -0.00214156  0.33338572  1
  Cs  Cs11  1  0.33111511  0.00437778  0.66668991  1
  Cs  Cs12  1  0.33249366  0.33145363  0.00009525  1
  Cs  Cs13  1  0.33381207  0.33342544  0.33880018  1
  Cs  Cs14  1  0.33394287  0.33369148  0.65833931  1
  Cs  Cs15  1  0.33471892  0.66564484  -0.00215743  1
  Cs  Cs16  1  0.33258459  0.66746305  0.33565269  1
  Cs  Cs17  1  0.33511326  0.66435475  0.66749494  1
  Cs  Cs18  1  0.66592420  0.00099365  -0.00055275  1
  Cs  Cs19  1  0.66615421  0.00085672  0.33547213  1
  Cs  Cs20  1  0.66892806  -0.00073092  0.66558072  1
  Cs  Cs21  1  0.66826313  0.33295858  0.00126858  1
  Cs  Cs22  1  0.66745268  0.33181153  0.33133852  1
  Cs  Cs23  1  0.66630999  0.33279070  0.66498176  1
  Cs  Cs24  1  0.66633012  0.66786213  -0.00154068  1
  Cs  Cs25  1  0.66664200  0.66714557  0.33020396  1
  Cs  Cs26  1  0.66380942  0.66788600  0.67269838  1
  Sn  Sn27  1  0.50025658  0.83350675  0.16704061  1
  Sn  Sn28  1  0.83286530  0.50026931  0.50007935  1
  Sn  Sn29  1  0.83377027  0.49937038  0.83344027  1
  Sn  Sn30  1  0.50084515  0.16724384  0.83397170  1
  Sn  Sn31  1  0.83331055  0.16668149  0.16618519  1
  Sn  Sn32  1  0.50044628  0.83317237  0.49971444  1
  Sn  Sn33  1  0.83252530  0.16729214  0.83441894  1
  Sn  Sn34  1  0.49977281  0.49977249  0.16632074  1
  Sn  Sn35  1  0.16623039  0.50061910  0.83423878  1
  Sn  Sn36  1  0.83351356  0.49961214  0.16660842  1
  Sn  Sn37  1  0.16656793  0.49976388  0.16595131  1
  Sn  Sn38  1  0.50063407  0.16675011  0.16589477  1
  Sn  Sn39  1  0.16655598  0.83268998  0.83380852  1
  Pb  Pb40  1  0.16940504  0.83064238  0.16471085  1
  Pb  Pb41  1  0.16429800  0.50002408  0.50015281  1
  Pb  Pb42  1  0.16939754  0.83276550  0.50294484  1
  Pb  Pb43  1  0.83091707  0.83041731  0.50003123  1
  Pb  Pb44  1  0.49811640  0.83602878  0.83385608  1
  Pb  Pb45  1  0.83153030  0.83394997  0.16648649  1
  Pb  Pb46  1  0.83328922  0.16843916  0.49938646  1
  Pb  Pb47  1  0.83548759  0.83402152  0.83361709  1
  Pb  Pb48  1  0.16633903  0.16688498  0.49954231  1
  Pb  Pb49  1  0.16597404  0.16766071  0.83336261  1
  Pb  Pb50  1  0.49993846  0.49767420  0.83512975  1
  Pb  Pb51  1  0.50249138  0.50183655  0.49720498  1
  Pb  Pb52  1  0.16601533  0.16905831  0.16695753  1
  Pb  Pb53  1  0.50025159  0.16464186  0.49929264  1
  I  I54  1  0.16698017  -0.00024488  0.16499777  1
  I  I55  1  0.16592782  -0.00063059  0.50215883  1
  I  I56  1  0.16904647  -0.00191670  0.83245885  1
  I  I57  1  0.17015682  0.33753095  0.15911671  1
  I  I58  1  0.16919170  0.33409705  0.50273495  1
  I  I59  1  0.16431250  0.33683031  0.83832484  1
  I  I60  1  0.16478882  0.66236910  0.16484490  1
  I  I61  1  0.16635482  0.66638455  0.49818080  1
  I  I62  1  0.16219112  0.66467243  0.83730776  1
  I  I63  1  0.50523465  0.00094483  0.16626772  1
  I  I64  1  0.49990179  -0.00305996  0.49456978  1
  I  I65  1  0.50399992  0.00371851  0.83866498  1
  I  I66  1  0.50132553  0.33344191  0.16124226  1
  I  I67  1  0.49978851  0.33347652  0.50002892  1
  I  I68  1  0.49973200  0.32988642  0.83920106  1
  I  I69  1  0.50017268  0.66581564  0.17113424  1
  I  I70  1  0.50084053  0.66955005  0.49494126  1
  I  I71  1  0.50188650  0.66649431  0.83424605  1
  I  I72  1  0.82700950  0.00381842  0.16006582  1
  I  I73  1  0.83325604  -0.00007109  0.50082821  1
  I  I74  1  0.82996716  0.00378518  0.83871591  1
  I  I75  1  0.82856736  0.33472299  0.16587451  1
  I  I76  1  0.83228819  0.33669221  0.49934974  1
  I  I77  1  0.83539942  0.33456443  0.83442820  1
  I  I78  1  0.83216276  0.66299282  0.16564284  1
  I  I79  1  0.83352262  0.66226606  0.49872473  1
  I  I80  1  0.83496568  0.66316668  0.83454117  1
  I  I81  1  0.16854629  0.16394829  0.00001014  1
  I  I82  1  0.16764664  0.16873010  0.33262715  1
  I  I83  1  0.16814321  0.16830178  0.66734280  1
  I  I84  1  0.16224094  0.50369099  -0.00000841  1
  I  I85  1  0.16682792  0.49849863  0.32991503  1
  I  I86  1  0.16219307  0.50304142  0.67020463  1
  I  I87  1  0.16868288  0.83116348  -0.00288739  1
  I  I88  1  0.16572531  0.83274405  0.33319488  1
  I  I89  1  0.16844283  0.82641443  0.67055433  1
  I  I90  1  0.50373984  0.16472519  0.00129858  1
  I  I91  1  0.50465223  0.16939208  0.32930177  1
  I  I92  1  0.50329067  0.16482504  0.66952148  1
  I  I93  1  0.50362872  0.50511793  0.00362321  1
  I  I94  1  0.49938794  0.49508102  0.32855575  1
  I  I95  1  0.49998421  0.50068072  0.66676637  1
  I  I96  1  0.49892633  0.83120358  0.00304058  1
  I  I97  1  0.50079440  0.83392219  0.33146628  1
  I  I98  1  0.49848801  0.83417255  0.66485459  1
  I  I99  1  0.82778953  0.17600530  0.00016368  1
  I  I100  1  0.82661392  0.17349346  0.32944309  1
  I  I101  1  0.82964335  0.17107056  0.66999538  1
  I  I102  1  0.83441846  0.49622259  0.00035103  1
  I  I103  1  0.83218768  0.49599870  0.33137927  1
  I  I104  1  0.83848601  0.49638538  0.66831843  1
  I  I105  1  0.83041814  0.82803729  0.00001905  1
  I  I106  1  0.83515388  0.83296393  0.33314026  1
  I  I107  1  0.83047689  0.83304329  0.66690767  1
  I  I108  1  -0.00389513  0.17358053  0.16027122  1
  I  I109  1  -0.00068278  0.16655158  0.50130453  1
  I  I110  1  -0.00360618  0.16908352  0.83838416  1
  I  I111  1  -0.00120145  0.49483073  0.16555671  1
  I  I112  1  -0.00366279  0.49938118  0.49550009  1
  I  I113  1  -0.00112645  0.49865657  0.83781690  1
  I  I114  1  0.00037545  0.83366351  0.16595239  1
  I  I115  1  0.00017716  0.83398165  0.50061092  1
  I  I116  1  0.00324031  0.83202410  0.83414387  1
  I  I117  1  0.33669177  0.16705845  0.16190117  1
  I  I118  1  0.33392936  0.16783495  0.50183399  1
  I  I119  1  0.33591601  0.16513397  0.83824891  1
  I  I120  1  0.33370648  0.50079863  0.16100392  1
  I  I121  1  0.33363228  0.50075964  0.50036757  1
  I  I122  1  0.33085442  0.50275044  0.83869212  1
  I  I123  1  0.33758388  0.83441966  0.16981449  1
  I  I124  1  0.33692630  0.83234959  0.49372320  1
  I  I125  1  0.33058356  0.82668069  0.83378117  1
  I  I126  1  0.66627311  0.17204763  0.16266318  1
  I  I127  1  0.66668413  0.16636708  0.50113739  1
  I  I128  1  0.66741573  0.17149231  0.83746661  1
  I  I129  1  0.66704487  0.49976277  0.16699771  1
  I  I130  1  0.67030666  0.50026971  0.50121233  1
  I  I131  1  0.66976640  0.49836488  0.83404151  1
  I  I132  1  0.66301922  0.82812978  0.16832794  1
  I  I133  1  0.66320539  0.83376218  0.49612550  1
  I  I134  1  0.66639594  0.83065301  0.83280289  1
