# generated using pymatgen
data_Cs27Sn14Pb13I81
_symmetry_space_group_name_H-M   'P 1'
_cell_length_a   18.95998154
_cell_length_b   18.96689629
_cell_length_c   18.95524067
_cell_angle_alpha   89.99967141
_cell_angle_beta   89.99918741
_cell_angle_gamma   89.99953258
_symmetry_Int_Tables_number   1
_chemical_formula_structural   Cs27Sn14Pb13I81
_chemical_formula_sum   'Cs27 Sn14 Pb13 I81'
_cell_volume   6816.53207370
_cell_formula_units_Z   1
loop_
 _symmetry_equiv_pos_site_id
 _symmetry_equiv_pos_as_xyz
  1  'x, y, z'
loop_
 _atom_site_type_symbol
 _atom_site_label
 _atom_site_symmetry_multiplicity
 _atom_site_fract_x
 _atom_site_fract_y
 _atom_site_fract_z
 _atom_site_occupancy
  Cs  Cs0  1  0.00132866  0.00142897  0.00016783  1
  Cs  Cs1  1  -0.00019890  0.00033173  0.33381549  1
  Cs  Cs2  1  0.00016422  0.00097153  0.66604644  1
  Cs  Cs3  1  -0.00279440  0.33317656  0.00118724  1
  Cs  Cs4  1  0.00298416  0.33110987  0.33127872  1
  Cs  Cs5  1  -0.00136169  0.33911884  0.66606331  1
  Cs  Cs6  1  0.00412512  0.66470898  0.00011678  1
  Cs  Cs7  1  -0.00509463  0.66842528  0.33194375  1
  Cs  Cs8  1  -0.00123012  0.65975846  0.66816727  1
  Cs  Cs9  1  0.33368516  0.00034138  -0.00068660  1
  Cs  Cs10  1  0.33228948  0.00114436  0.33519262  1
  Cs  Cs11  1  0.33435124  -0.00059080  0.66657127  1
  Cs  Cs12  1  0.33513979  0.33084287  0.00234100  1
  Cs  Cs13  1  0.33311681  0.33504127  0.33478391  1
  Cs  Cs14  1  0.33312705  0.33269203  0.66233296  1
  Cs  Cs15  1  0.33144345  0.66746609  -0.00206807  1
  Cs  Cs16  1  0.33617847  0.66502433  0.33327048  1
  Cs  Cs17  1  0.33291793  0.66800172  0.66966970  1
  Cs  Cs18  1  0.66547452  -0.00021212  -0.00083625  1
  Cs  Cs19  1  0.66807175  -0.00203621  0.33309156  1
  Cs  Cs20  1  0.66535058  0.00069716  0.66783307  1
  Cs  Cs21  1  0.66839145  0.33164275  -0.00127439  1
  Cs  Cs22  1  0.66382599  0.33439964  0.33238800  1
  Cs  Cs23  1  0.66821942  0.33333726  0.66933950  1
  Cs  Cs24  1  0.66401858  0.67105491  0.00188885  1
  Cs  Cs25  1  0.66907354  0.66748191  0.33498318  1
  Cs  Cs26  1  0.66695486  0.66686928  0.66348751  1
  Sn  Sn27  1  0.16699059  0.83354011  0.16776464  1
  Sn  Sn28  1  0.16711311  0.83324151  0.49943492  1
  Sn  Sn29  1  0.83381239  0.16715953  0.16757880  1
  Sn  Sn30  1  0.16618321  0.49977030  0.16668905  1
  Sn  Sn31  1  0.16713836  0.16681183  0.83363806  1
  Sn  Sn32  1  0.83354662  0.49930873  0.16653808  1
  Sn  Sn33  1  0.50105112  0.16582989  0.50071413  1
  Sn  Sn34  1  0.49991538  0.49981507  0.83337204  1
  Sn  Sn35  1  0.83253634  0.16660788  0.49931683  1
  Sn  Sn36  1  0.49918276  0.83428117  0.50060586  1
  Sn  Sn37  1  0.49901673  0.16684006  0.83249661  1
  Sn  Sn38  1  0.16608975  0.16669928  0.16588856  1
  Sn  Sn39  1  0.83312202  0.83337881  0.83323645  1
  Sn  Sn40  1  0.50097257  0.83335029  0.83247416  1
  Pb  Pb41  1  0.83114579  0.50274074  0.83585558  1
  Pb  Pb42  1  0.49753959  0.83342945  0.16711737  1
  Pb  Pb43  1  0.83333014  0.16558236  0.83348408  1
  Pb  Pb44  1  0.83323957  0.49685980  0.49737758  1
  Pb  Pb45  1  0.50002508  0.50007869  0.50235136  1
  Pb  Pb46  1  0.16680208  0.16540137  0.49995218  1
  Pb  Pb47  1  0.50029556  0.50004921  0.16459015  1
  Pb  Pb48  1  0.16862712  0.49676720  0.83538087  1
  Pb  Pb49  1  0.83560712  0.83379323  0.16469687  1
  Pb  Pb50  1  0.50018428  0.16651157  0.16716901  1
  Pb  Pb51  1  0.83332075  0.83515379  0.50208063  1
  Pb  Pb52  1  0.16667850  0.50345440  0.49734118  1
  Pb  Pb53  1  0.16690370  0.83486442  0.83302655  1
  I  I54  1  0.16338872  0.00087608  0.16607667  1
  I  I55  1  0.16832614  -0.00246471  0.49481271  1
  I  I56  1  0.17150895  0.00278029  0.83931521  1
  I  I57  1  0.16257509  0.33226070  0.16109861  1
  I  I58  1  0.16744538  0.33316873  0.49970060  1
  I  I59  1  0.17070440  0.32863028  0.83774392  1
  I  I60  1  0.16339558  0.66680716  0.17049393  1
  I  I61  1  0.17315152  0.67167156  0.49694785  1
  I  I62  1  0.16777802  0.66664576  0.83492477  1
  I  I63  1  0.50011648  0.00008477  0.16163587  1
  I  I64  1  0.49948055  0.00014177  0.50779362  1
  I  I65  1  0.49973010  0.00018776  0.82960005  1
  I  I66  1  0.49586927  0.33305932  0.16627802  1
  I  I67  1  0.50321607  0.32988067  0.50349383  1
  I  I68  1  0.49530371  0.33169815  0.83109898  1
  I  I69  1  0.49971691  0.66683146  0.16552811  1
  I  I70  1  0.49549797  0.67015924  0.50367183  1
  I  I71  1  0.50427106  0.66813955  0.83115401  1
  I  I72  1  0.83757584  0.00299715  0.16873717  1
  I  I73  1  0.83209220  0.00314568  0.49369527  1
  I  I74  1  0.82815078  -0.00211744  0.83553015  1
  I  I75  1  0.84121673  0.33208435  0.16921622  1
  I  I76  1  0.82815150  0.32854374  0.50073629  1
  I  I77  1  0.83234892  0.33332440  0.83229754  1
  I  I78  1  0.83761280  0.66460665  0.16314795  1
  I  I79  1  0.83265758  0.66686933  0.49932040  1
  I  I80  1  0.82939682  0.67046343  0.83433771  1
  I  I81  1  0.16702892  0.16381657  0.00108604  1
  I  I82  1  0.16579414  0.16751112  0.33041987  1
  I  I83  1  0.16833202  0.16236683  0.66890345  1
  I  I84  1  0.16388647  0.50522917  0.00372473  1
  I  I85  1  0.16477451  0.49321356  0.32880168  1
  I  I86  1  0.16767249  0.49996307  0.66692504  1
  I  I87  1  0.16622286  0.83271350  0.00245835  1
  I  I88  1  0.17152574  0.83631854  0.33283666  1
  I  I89  1  0.16874356  0.83798480  0.66441558  1
  I  I90  1  0.49881635  0.16539699  -0.00308448  1
  I  I91  1  0.50050011  0.16137380  0.33652495  1
  I  I92  1  0.49964553  0.16531169  0.66739601  1
  I  I93  1  0.49938000  0.49981285  -0.00356292  1
  I  I94  1  0.49962218  0.49993993  0.33328176  1
  I  I95  1  0.49989127  0.49981258  0.67049054  1
  I  I96  1  0.50229004  0.83470703  -0.00333601  1
  I  I97  1  0.49754066  0.83886654  0.33675220  1
  I  I98  1  0.49749070  0.83489990  0.66716780  1
  I  I99  1  0.83485610  0.16880667  0.00268195  1
  I  I100  1  0.83406124  0.16858828  0.33246382  1
  I  I101  1  0.83222979  0.16231049  0.66456503  1
  I  I102  1  0.83762165  0.49233846  0.00366904  1
  I  I103  1  0.83671957  0.50081994  0.32908713  1
  I  I104  1  0.83253688  0.49952509  0.66696293  1
  I  I105  1  0.82757999  0.83615169  -0.00302616  1
  I  I106  1  0.83117841  0.83193804  0.33326609  1
  I  I107  1  0.83316837  0.83689920  0.66982026  1
  I  I108  1  0.00071478  0.16683829  0.16630349  1
  I  I109  1  -0.00200121  0.16393372  0.49857478  1
  I  I110  1  0.00219572  0.16237299  0.83517111  1
  I  I111  1  0.00070833  0.49885339  0.16568067  1
  I  I112  1  -0.00001969  0.50016977  0.50407379  1
  I  I113  1  0.00002635  0.50086173  0.83268207  1
  I  I114  1  0.00381488  0.83432726  0.17012030  1
  I  I115  1  0.00240660  0.83633889  0.49671721  1
  I  I116  1  -0.00159742  0.83734726  0.83466013  1
  I  I117  1  0.33021129  0.16690865  0.16495626  1
  I  I118  1  0.33601201  0.16387331  0.50154206  1
  I  I119  1  0.33439052  0.16389609  0.83452830  1
  I  I120  1  0.33017684  0.49896101  0.16518536  1
  I  I121  1  0.33340793  0.49505880  0.49659031  1
  I  I122  1  0.33658817  0.50557855  0.83591848  1
  I  I123  1  0.32914240  0.83442061  0.16501725  1
  I  I124  1  0.33438608  0.83976323  0.50155905  1
  I  I125  1  0.33626657  0.83282684  0.83284209  1
  I  I126  1  0.66964571  0.17148969  0.16675724  1
  I  I127  1  0.66559296  0.16096723  0.50033044  1
  I  I128  1  0.66367812  0.16697940  0.83289187  1
  I  I129  1  0.66969324  0.49410899  0.16476813  1
  I  I130  1  0.66656962  0.50436365  0.49649858  1
  I  I131  1  0.66317858  0.49437870  0.83582986  1
  I  I132  1  0.66683965  0.83277615  0.16749866  1
  I  I133  1  0.66368312  0.83589170  0.50334673  1
  I  I134  1  0.66457752  0.83607317  0.82961035  1
