# generated using pymatgen
data_Cs27Sn13Pb14I81
_symmetry_space_group_name_H-M   'P 1'
_cell_length_a   18.97637435
_cell_length_b   18.97208913
_cell_length_c   18.98135570
_cell_angle_alpha   90.00048950
_cell_angle_beta   90.00059113
_cell_angle_gamma   89.99926271
_symmetry_Int_Tables_number   1
_chemical_formula_structural   Cs27Sn13Pb14I81
_chemical_formula_sum   'Cs27 Sn13 Pb14 I81'
_cell_volume   6833.69549748
_cell_formula_units_Z   1
loop_
 _symmetry_equiv_pos_site_id
 _symmetry_equiv_pos_as_xyz
  1  'x, y, z'
loop_
 _atom_site_type_symbol
 _atom_site_label
 _atom_site_symmetry_multiplicity
 _atom_site_fract_x
 _atom_site_fract_y
 _atom_site_fract_z
 _atom_site_occupancy
  Cs  Cs0  1  -0.00509552  0.00180144  -0.00293378  1
  Cs  Cs1  1  0.00005423  -0.00019516  0.33524233  1
  Cs  Cs2  1  -0.00116056  -0.00308212  0.66672652  1
  Cs  Cs3  1  0.00162430  0.33289592  -0.00216197  1
  Cs  Cs4  1  0.00066494  0.33346548  0.33359744  1
  Cs  Cs5  1  0.00100644  0.33172026  0.66911216  1
  Cs  Cs6  1  -0.00015740  0.66395402  0.00328301  1
  Cs  Cs7  1  -0.00630511  0.66754100  0.33401138  1
  Cs  Cs8  1  0.00284417  0.67196209  0.66213535  1
  Cs  Cs9  1  0.33365609  -0.00021187  0.00346894  1
  Cs  Cs10  1  0.33607354  0.00037194  0.33087373  1
  Cs  Cs11  1  0.33162642  -0.00332584  0.66647344  1
  Cs  Cs12  1  0.33128687  0.33345404  0.00139665  1
  Cs  Cs13  1  0.33335654  0.33018525  0.33308434  1
  Cs  Cs14  1  0.33347515  0.33412370  0.66637777  1
  Cs  Cs15  1  0.33472836  0.66650342  0.00050335  1
  Cs  Cs16  1  0.33286790  0.66919052  0.33043420  1
  Cs  Cs17  1  0.33399730  0.66836311  0.67012809  1
  Cs  Cs18  1  0.67181305  -0.00008585  -0.00448697  1
  Cs  Cs19  1  0.66249187  0.00075531  0.33295176  1
  Cs  Cs20  1  0.66981539  0.00138592  0.67237733  1
  Cs  Cs21  1  0.66984254  0.33277896  -0.00196968  1
  Cs  Cs22  1  0.66614791  0.33351283  0.33787094  1
  Cs  Cs23  1  0.66390590  0.33458371  0.66478895  1
  Cs  Cs24  1  0.66366237  0.66891760  0.00232004  1
  Cs  Cs25  1  0.67345948  0.66635711  0.33279569  1
  Cs  Cs26  1  0.66139297  0.66395644  0.66419758  1
  Sn  Sn27  1  0.16785373  0.16707110  0.83250300  1
  Sn  Sn28  1  0.49930979  0.83245178  0.16766044  1
  Sn  Sn29  1  0.49990241  0.83322868  0.49944202  1
  Sn  Sn30  1  0.83408013  0.16684652  0.49900712  1
  Sn  Sn31  1  0.16689576  0.49958877  0.49988078  1
  Sn  Sn32  1  0.49957769  0.50011823  0.16697869  1
  Sn  Sn33  1  0.16567627  0.49947751  0.83302411  1
  Sn  Sn34  1  0.16733318  0.50079559  0.16708393  1
  Sn  Sn35  1  0.83418119  0.50038062  0.83316206  1
  Sn  Sn36  1  0.83344091  0.16701081  0.16793205  1
  Sn  Sn37  1  0.16680106  0.83268825  0.16656715  1
  Sn  Sn38  1  0.49844362  0.16687930  0.83340339  1
  Sn  Sn39  1  0.16616200  0.16716703  0.50072137  1
  Pb  Pb40  1  0.83315106  0.83569650  0.16668018  1
  Pb  Pb41  1  0.83359451  0.49805764  0.16541190  1
  Pb  Pb42  1  0.49734463  0.50206132  0.49734307  1
  Pb  Pb43  1  0.83579370  0.49797212  0.50246234  1
  Pb  Pb44  1  0.16813818  0.83356692  0.49766239  1
  Pb  Pb45  1  0.49936264  0.16497701  0.50211386  1
  Pb  Pb46  1  0.49926127  0.49834073  0.83543487  1
  Pb  Pb47  1  0.50230020  0.16669287  0.16475774  1
  Pb  Pb48  1  0.16518366  0.16678095  0.16663985  1
  Pb  Pb49  1  0.83415623  0.16807942  0.83250430  1
  Pb  Pb50  1  0.83043004  0.83592512  0.50001291  1
  Pb  Pb51  1  0.16647248  0.83315523  0.83614874  1
  Pb  Pb52  1  0.83355892  0.82904923  0.83319592  1
  Pb  Pb53  1  0.49979557  0.83561975  0.83403498  1
  I  I54  1  0.17055202  -0.00207896  0.16726000  1
  I  I55  1  0.16391182  0.00312347  0.50349070  1
  I  I56  1  0.17018237  0.00329725  0.83009471  1
  I  I57  1  0.16959674  0.33630632  0.16588598  1
  I  I58  1  0.16382625  0.33312092  0.49863266  1
  I  I59  1  0.16656880  0.33364241  0.83547574  1
  I  I60  1  0.17075172  0.66522423  0.16551688  1
  I  I61  1  0.16927658  0.66375631  0.50333001  1
  I  I62  1  0.16275436  0.66295074  0.83076969  1
  I  I63  1  0.49581199  -0.00275636  0.16914309  1
  I  I64  1  0.49770779  -0.00261306  0.49252187  1
  I  I65  1  0.49552229  0.00372153  0.83509540  1
  I  I66  1  0.49515813  0.33585700  0.16369286  1
  I  I67  1  0.50172453  0.33334754  0.49926737  1
  I  I68  1  0.49869161  0.33047479  0.83473174  1
  I  I69  1  0.49542292  0.66668819  0.16823099  1
  I  I70  1  0.49782972  0.66980110  0.49968763  1
  I  I71  1  0.50068881  0.66653103  0.83220774  1
  I  I72  1  0.83399300  0.00364233  0.16814048  1
  I  I73  1  0.84095228  0.00422734  0.49775609  1
  I  I74  1  0.83252532  0.00037698  0.83433758  1
  I  I75  1  0.83378216  0.33033909  0.16867706  1
  I  I76  1  0.83353412  0.32986146  0.49627251  1
  I  I77  1  0.83581982  0.33561058  0.83505163  1
  I  I78  1  0.83322484  0.66643510  0.16403862  1
  I  I79  1  0.83425390  0.66638112  0.50152445  1
  I  I80  1  0.84024575  0.66133457  0.83601639  1
  I  I81  1  0.16805674  0.16984293  -0.00243406  1
  I  I82  1  0.16382418  0.16973279  0.33578571  1
  I  I83  1  0.16529974  0.17418370  0.66662836  1
  I  I84  1  0.16651672  0.49906466  0.00003165  1
  I  I85  1  0.17189154  0.49846509  0.33289611  1
  I  I86  1  0.16190767  0.49384415  0.66703285  1
  I  I87  1  0.17370555  0.83031340  0.00409271  1
  I  I88  1  0.16933840  0.83046315  0.32978236  1
  I  I89  1  0.16884742  0.83131543  0.66645223  1
  I  I90  1  0.49536799  0.16610414  -0.00289158  1
  I  I91  1  0.49886159  0.16743187  0.33327619  1
  I  I92  1  0.50095662  0.16587824  0.66984035  1
  I  I93  1  0.49474104  0.50521110  0.00330246  1
  I  I94  1  0.49506664  0.49938955  0.32933238  1
  I  I95  1  0.50042334  0.50116439  0.66657562  1
  I  I96  1  0.49599747  0.83003102  0.00358942  1
  I  I97  1  0.49490239  0.83212952  0.33177992  1
  I  I98  1  0.50007451  0.83589780  0.66433629  1
  I  I99  1  0.83310583  0.16753096  0.00125967  1
  I  I100  1  0.83888875  0.16740647  0.33401744  1
  I  I101  1  0.83426205  0.16793056  0.66418400  1
  I  I102  1  0.83932128  0.49474405  -0.00233615  1
  I  I103  1  0.83388468  0.49953796  0.33357967  1
  I  I104  1  0.83736296  0.49584272  0.67022700  1
  I  I105  1  0.83125958  0.83918989  0.00024513  1
  I  I106  1  0.83539038  0.83137269  0.33324755  1
  I  I107  1  0.83201910  0.83777835  0.66648256  1
  I  I108  1  -0.00238425  0.16724678  0.16518292  1
  I  I109  1  0.00136246  0.17026706  0.50153851  1
  I  I110  1  0.00308555  0.16971381  0.83345451  1
  I  I111  1  0.00354296  0.50270858  0.16725649  1
  I  I112  1  0.00423472  0.49910611  0.49451819  1
  I  I113  1  0.00245110  0.49225042  0.83683628  1
  I  I114  1  0.00293134  0.82899450  0.16594160  1
  I  I115  1  0.00025455  0.83215764  0.49853523  1
  I  I116  1  0.00035949  0.84017774  0.83522521  1
  I  I117  1  0.33324759  0.16637863  0.16773984  1
  I  I118  1  0.33004416  0.16966236  0.50225738  1
  I  I119  1  0.33141159  0.17232748  0.82927394  1
  I  I120  1  0.33187669  0.50310125  0.16383325  1
  I  I121  1  0.32908301  0.49276589  0.50507524  1
  I  I122  1  0.32975897  0.49731110  0.83246019  1
  I  I123  1  0.33358713  0.83047976  0.16961790  1
  I  I124  1  0.33582275  0.83606133  0.49693942  1
  I  I125  1  0.33316233  0.83068122  0.83188936  1
  I  I126  1  0.66982527  0.16716280  0.16954956  1
  I  I127  1  0.66882736  0.16422398  0.49797905  1
  I  I128  1  0.66525560  0.16745170  0.83466985  1
  I  I129  1  0.66415970  0.50319467  0.16314074  1
  I  I130  1  0.66655055  0.49908697  0.50080247  1
  I  I131  1  0.66836011  0.49640770  0.83628102  1
  I  I132  1  0.66326757  0.82943971  0.16999447  1
  I  I133  1  0.66262991  0.83423143  0.49256013  1
  I  I134  1  0.66643204  0.83645158  0.83591380  1
