# generated using pymatgen
data_Cs27Sn13Pb14I81
_symmetry_space_group_name_H-M   'P 1'
_cell_length_a   18.97473756
_cell_length_b   18.97604774
_cell_length_c   18.98061973
_cell_angle_alpha   89.99719538
_cell_angle_beta   90.00049330
_cell_angle_gamma   90.00146945
_symmetry_Int_Tables_number   1
_chemical_formula_structural   Cs27Sn13Pb14I81
_chemical_formula_sum   'Cs27 Sn13 Pb14 I81'
_cell_volume   6834.26681308
_cell_formula_units_Z   1
loop_
 _symmetry_equiv_pos_site_id
 _symmetry_equiv_pos_as_xyz
  1  'x, y, z'
loop_
 _atom_site_type_symbol
 _atom_site_label
 _atom_site_symmetry_multiplicity
 _atom_site_fract_x
 _atom_site_fract_y
 _atom_site_fract_z
 _atom_site_occupancy
  Cs  Cs0  1  -0.00303188  0.00158606  0.00195324  1
  Cs  Cs1  1  -0.00159402  -0.00267522  0.33343895  1
  Cs  Cs2  1  -0.00609777  -0.00601821  0.66346508  1
  Cs  Cs3  1  0.00170600  0.33272441  -0.00213351  1
  Cs  Cs4  1  0.00510500  0.33329664  0.33449661  1
  Cs  Cs5  1  -0.00028844  0.33446028  0.66718692  1
  Cs  Cs6  1  -0.00779422  0.66586842  0.00061532  1
  Cs  Cs7  1  -0.00139625  0.66862862  0.33476262  1
  Cs  Cs8  1  0.00193456  0.66976246  0.66367804  1
  Cs  Cs9  1  0.33467021  0.00133803  0.00108180  1
  Cs  Cs10  1  0.33392173  -0.00020982  0.33041106  1
  Cs  Cs11  1  0.33358463  -0.00385706  0.66912029  1
  Cs  Cs12  1  0.33182742  0.33164791  -0.00058589  1
  Cs  Cs13  1  0.33329450  0.33422385  0.33465587  1
  Cs  Cs14  1  0.33344324  0.33393164  0.66699147  1
  Cs  Cs15  1  0.33420911  0.66746232  -0.00180521  1
  Cs  Cs16  1  0.33470442  0.66625797  0.33308427  1
  Cs  Cs17  1  0.33155283  0.66880878  0.66919644  1
  Cs  Cs18  1  0.66471145  -0.00082463  -0.00050698  1
  Cs  Cs19  1  0.66719985  0.00068734  0.33497976  1
  Cs  Cs20  1  0.67331858  0.00292357  0.66537467  1
  Cs  Cs21  1  0.66870907  0.33488881  -0.00046026  1
  Cs  Cs22  1  0.66231219  0.33475443  0.33597648  1
  Cs  Cs23  1  0.66808356  0.32945563  0.66438059  1
  Cs  Cs24  1  0.67491829  0.66605557  0.00206552  1
  Cs  Cs25  1  0.66493887  0.66445109  0.32879629  1
  Cs  Cs26  1  0.66643987  0.66864821  0.67197889  1
  Sn  Sn27  1  0.50090006  0.16646105  0.16622390  1
  Sn  Sn28  1  0.16615452  0.49940874  0.50023381  1
  Sn  Sn29  1  0.49903347  0.83383021  0.16744028  1
  Sn  Sn30  1  0.83361424  0.49983935  0.49991830  1
  Sn  Sn31  1  0.16710447  0.16663932  0.50149879  1
  Sn  Sn32  1  0.49935557  0.49901993  0.83359828  1
  Sn  Sn33  1  0.49973971  0.83344834  0.49943108  1
  Sn  Sn34  1  0.16731095  0.16690277  0.83177363  1
  Sn  Sn35  1  0.16744966  0.49943046  0.83336944  1
  Sn  Sn36  1  0.16744740  0.83210697  0.16631876  1
  Sn  Sn37  1  0.16710359  0.50137647  0.16639983  1
  Sn  Sn38  1  0.49910207  0.16764063  0.83398539  1
  Sn  Sn39  1  0.83192240  0.16731487  0.16688142  1
  Pb  Pb40  1  0.49929684  0.50193952  0.50258079  1
  Pb  Pb41  1  0.16823301  0.83317566  0.49791870  1
  Pb  Pb42  1  0.83622868  0.16858493  0.49765424  1
  Pb  Pb43  1  0.49815959  0.49986365  0.16442230  1
  Pb  Pb44  1  0.83281674  0.83543788  0.16685158  1
  Pb  Pb45  1  0.16640551  0.83354349  0.83620970  1
  Pb  Pb46  1  0.49783646  0.16495087  0.50038899  1
  Pb  Pb47  1  0.83618674  0.49742651  0.16886534  1
  Pb  Pb48  1  0.83010084  0.83044651  0.49956760  1
  Pb  Pb49  1  0.83353563  0.83344182  0.83328856  1
  Pb  Pb50  1  0.83363292  0.16685197  0.83505710  1
  Pb  Pb51  1  0.16737160  0.16673688  0.16644276  1
  Pb  Pb52  1  0.83391428  0.49970216  0.83097990  1
  Pb  Pb53  1  0.50003721  0.83375146  0.83411289  1
  I  I54  1  0.16784765  -0.00173234  0.16727875  1
  I  I55  1  0.16961211  0.00253698  0.50203664  1
  I  I56  1  0.17215544  0.00360585  0.83123258  1
  I  I57  1  0.16641841  0.33569349  0.16714911  1
  I  I58  1  0.16447766  0.33432700  0.49754235  1
  I  I59  1  0.17081924  0.33379564  0.83529926  1
  I  I60  1  0.17268921  0.66605357  0.16755919  1
  I  I61  1  0.16420889  0.66342389  0.50230095  1
  I  I62  1  0.17172941  0.66307294  0.83024604  1
  I  I63  1  0.49674345  0.00046153  0.16475738  1
  I  I64  1  0.49650508  -0.00271270  0.49913711  1
  I  I65  1  0.49452710  0.00340986  0.83564994  1
  I  I66  1  0.50137204  0.33045156  0.16445764  1
  I  I67  1  0.50108065  0.33341553  0.49731070  1
  I  I68  1  0.49492073  0.33244151  0.83853204  1
  I  I69  1  0.49634201  0.66909392  0.16950440  1
  I  I70  1  0.49823198  0.66951043  0.49418025  1
  I  I71  1  0.49450746  0.66390953  0.83136541  1
  I  I72  1  0.83611960  0.00327721  0.16676367  1
  I  I73  1  0.83474794  0.00012501  0.49971200  1
  I  I74  1  0.83338619  0.00065524  0.83311645  1
  I  I75  1  0.82838858  0.32992156  0.16632940  1
  I  I76  1  0.83485303  0.33634189  0.49959430  1
  I  I77  1  0.83286558  0.33333823  0.83448654  1
  I  I78  1  0.83140518  0.66630751  0.16693207  1
  I  I79  1  0.84267894  0.66291608  0.49994665  1
  I  I80  1  0.83153495  0.66599240  0.83474639  1
  I  I81  1  0.16774719  0.16996024  -0.00229820  1
  I  I82  1  0.16661374  0.17044103  0.33500159  1
  I  I83  1  0.17265801  0.17550301  0.66743801  1
  I  I84  1  0.17228794  0.49843160  -0.00048543  1
  I  I85  1  0.16265508  0.49867427  0.33365090  1
  I  I86  1  0.16673716  0.49462162  0.66676765  1
  I  I87  1  0.17423979  0.83137891  0.00422627  1
  I  I88  1  0.16938364  0.83097076  0.32996120  1
  I  I89  1  0.16874372  0.83141563  0.66657291  1
  I  I90  1  0.49696753  0.16433558  0.00022249  1
  I  I91  1  0.50116973  0.16386026  0.33065415  1
  I  I92  1  0.49671372  0.16928983  0.66966897  1
  I  I93  1  0.49349182  0.50000470  -0.00335810  1
  I  I94  1  0.49882236  0.49844812  0.33329172  1
  I  I95  1  0.49475068  0.49587081  0.67028036  1
  I  I96  1  0.49499127  0.83588510  0.00333435  1
  I  I97  1  0.49555503  0.83805603  0.33164195  1
  I  I98  1  0.49931188  0.83161214  0.66466727  1
  I  I99  1  0.83525108  0.16653035  0.00305830  1
  I  I100  1  0.82907064  0.16690643  0.32999110  1
  I  I101  1  0.83073302  0.16719886  0.66635395  1
  I  I102  1  0.83401676  0.50035701  0.00016938  1
  I  I103  1  0.83893295  0.49929120  0.33644687  1
  I  I104  1  0.83908879  0.49912881  0.66342891  1
  I  I105  1  0.83205195  0.83222828  0.00066136  1
  I  I106  1  0.83579741  0.83395186  0.33319236  1
  I  I107  1  0.83149233  0.83425502  0.66599807  1
  I  I108  1  -0.00105402  0.16736730  0.16714181  1
  I  I109  1  0.00440200  0.16811142  0.50315357  1
  I  I110  1  0.00368402  0.17219408  0.83294846  1
  I  I111  1  0.00463302  0.50324867  0.16179665  1
  I  I112  1  0.00256237  0.49594845  0.50102217  1
  I  I113  1  0.00395929  0.49505685  0.83602343  1
  I  I114  1  0.00288060  0.83133711  0.16603459  1
  I  I115  1  0.00014904  0.83537699  0.49856355  1
  I  I116  1  0.00067152  0.83353692  0.83512274  1
  I  I117  1  0.33583885  0.16480756  0.16510498  1
  I  I118  1  0.32991584  0.17383947  0.49781834  1
  I  I119  1  0.33327218  0.17105136  0.83646774  1
  I  I120  1  0.32979547  0.49854485  0.17168169  1
  I  I121  1  0.32986595  0.49738780  0.49811765  1
  I  I122  1  0.33199128  0.49586327  0.83152158  1
  I  I123  1  0.33400311  0.83616088  0.17033976  1
  I  I124  1  0.33591599  0.83132383  0.49702006  1
  I  I125  1  0.33332582  0.83264166  0.83179523  1
  I  I126  1  0.66453884  0.16071979  0.16140144  1
  I  I127  1  0.66655482  0.16712207  0.50182906  1
  I  I128  1  0.66316974  0.17004883  0.83597655  1
  I  I129  1  0.66657953  0.50238022  0.16669695  1
  I  I130  1  0.66839145  0.50225704  0.50106450  1
  I  I131  1  0.66372122  0.49691407  0.83181598  1
  I  I132  1  0.66306774  0.83588399  0.16957728  1
  I  I133  1  0.66240248  0.83324437  0.49372939  1
  I  I134  1  0.66594119  0.83184090  0.83491755  1
