# generated using pymatgen
data_Cs27Sn14Pb13I81
_symmetry_space_group_name_H-M   'P 1'
_cell_length_a   18.97221123
_cell_length_b   18.99253097
_cell_length_c   18.96683085
_cell_angle_alpha   89.99997951
_cell_angle_beta   89.99974905
_cell_angle_gamma   89.99977948
_symmetry_Int_Tables_number   1
_chemical_formula_structural   Cs27Sn14Pb13I81
_chemical_formula_sum   'Cs27 Sn14 Pb13 I81'
_cell_volume   6834.32402810
_cell_formula_units_Z   1
loop_
 _symmetry_equiv_pos_site_id
 _symmetry_equiv_pos_as_xyz
  1  'x, y, z'
loop_
 _atom_site_type_symbol
 _atom_site_label
 _atom_site_symmetry_multiplicity
 _atom_site_fract_x
 _atom_site_fract_y
 _atom_site_fract_z
 _atom_site_occupancy
  Cs  Cs0  1  0.00111995  -0.00013411  -0.00061713  1
  Cs  Cs1  1  -0.00061170  0.00099361  0.33341804  1
  Cs  Cs2  1  -0.00071029  -0.00209254  0.66737421  1
  Cs  Cs3  1  0.00404406  0.33349609  -0.00075635  1
  Cs  Cs4  1  -0.00313752  0.33283482  0.33568583  1
  Cs  Cs5  1  0.00011416  0.33260129  0.66604157  1
  Cs  Cs6  1  0.00070059  0.66691963  -0.00029904  1
  Cs  Cs7  1  0.00090402  0.66571238  0.33250157  1
  Cs  Cs8  1  -0.00070530  0.66843792  0.66687912  1
  Cs  Cs9  1  0.33114172  0.00197674  -0.00187422  1
  Cs  Cs10  1  0.33798938  -0.00193023  0.33764491  1
  Cs  Cs11  1  0.33293724  -0.00160311  0.66594008  1
  Cs  Cs12  1  0.32991347  0.33337061  -0.00116135  1
  Cs  Cs13  1  0.33544592  0.33292533  0.33300194  1
  Cs  Cs14  1  0.33184058  0.33310314  0.66836062  1
  Cs  Cs15  1  0.33159563  0.66502985  -0.00141542  1
  Cs  Cs16  1  0.33604579  0.66915466  0.33738239  1
  Cs  Cs17  1  0.33311201  0.66797633  0.66603879  1
  Cs  Cs18  1  0.66727364  -0.00120188  0.00290522  1
  Cs  Cs19  1  0.66026047  0.00809607  0.32473095  1
  Cs  Cs20  1  0.66896456  0.00114273  0.66731330  1
  Cs  Cs21  1  0.66523208  0.33286882  0.00235102  1
  Cs  Cs22  1  0.66530648  0.33105927  0.33640268  1
  Cs  Cs23  1  0.66825859  0.33288758  0.66238512  1
  Cs  Cs24  1  0.66729248  0.66831488  0.00060718  1
  Cs  Cs25  1  0.66033737  0.65939737  0.32432643  1
  Cs  Cs26  1  0.66885438  0.66570326  0.66860008  1
  Sn  Sn27  1  0.16651099  0.16724691  0.49899910  1
  Sn  Sn28  1  0.83344125  0.49976819  0.83334149  1
  Sn  Sn29  1  0.16658123  0.50014086  0.16711450  1
  Sn  Sn30  1  0.83328126  0.83338423  0.83259577  1
  Sn  Sn31  1  0.83231260  0.16675791  0.83339779  1
  Sn  Sn32  1  0.50135836  0.16673912  0.83319535  1
  Sn  Sn33  1  0.50011688  0.49985435  0.83315756  1
  Sn  Sn34  1  0.16647981  0.49921203  0.50017652  1
  Sn  Sn35  1  0.50002217  0.83344424  0.83310905  1
  Sn  Sn36  1  0.83242038  0.83318829  0.49936982  1
  Sn  Sn37  1  0.16647645  0.50121591  0.83311044  1
  Sn  Sn38  1  0.16672678  0.83231068  0.83387102  1
  Sn  Sn39  1  0.16647515  0.83338883  0.16608476  1
  Sn  Sn40  1  0.16653525  0.16651471  0.16840733  1
  Pb  Pb41  1  0.83550208  0.16685241  0.16439818  1
  Pb  Pb42  1  0.49757192  0.49980433  0.16436613  1
  Pb  Pb43  1  0.49776853  0.16660489  0.50251914  1
  Pb  Pb44  1  0.49799499  0.50015993  0.50229069  1
  Pb  Pb45  1  0.83526294  0.49983628  0.16466673  1
  Pb  Pb46  1  0.49737915  0.16691777  0.16411265  1
  Pb  Pb47  1  0.83520519  0.16458371  0.50185408  1
  Pb  Pb48  1  0.83510215  0.83332636  0.16689960  1
  Pb  Pb49  1  0.50413873  0.83327149  0.50198250  1
  Pb  Pb50  1  0.49712871  0.83327293  0.16416645  1
  Pb  Pb51  1  0.16541877  0.83315906  0.49997688  1
  Pb  Pb52  1  0.16651148  0.16645928  0.83310005  1
  Pb  Pb53  1  0.83509229  0.50217771  0.50163345  1
  I  I54  1  0.16562927  -0.00027415  0.16333222  1
  I  I55  1  0.16483822  0.00195800  0.49895711  1
  I  I56  1  0.16644428  -0.00248939  0.83572227  1
  I  I57  1  0.16670955  0.33381573  0.16331620  1
  I  I58  1  0.16609662  0.33399937  0.50029322  1
  I  I59  1  0.16675912  0.33590595  0.83536946  1
  I  I60  1  0.16569271  0.66651911  0.16306961  1
  I  I61  1  0.16510706  0.66417606  0.50011443  1
  I  I62  1  0.16655386  0.66617451  0.83559556  1
  I  I63  1  0.49649151  0.00005489  0.16281053  1
  I  I64  1  0.49435301  -0.00010839  0.50506395  1
  I  I65  1  0.50027430  -0.00040059  0.83344331  1
  I  I66  1  0.49509835  0.33333186  0.16059724  1
  I  I67  1  0.50055468  0.33335113  0.50491143  1
  I  I68  1  0.49934437  0.33373751  0.83375189  1
  I  I69  1  0.49785482  0.66661906  0.16400093  1
  I  I70  1  0.49464012  0.66680767  0.50379405  1
  I  I71  1  0.49994781  0.66669750  0.83332556  1
  I  I72  1  0.83898362  -0.00004440  0.16208036  1
  I  I73  1  0.83971881  -0.00303553  0.51088906  1
  I  I74  1  0.83318930  -0.00077904  0.82987203  1
  I  I75  1  0.83878561  0.33333220  0.16221943  1
  I  I76  1  0.83532464  0.33338854  0.50374685  1
  I  I77  1  0.83382529  0.33372020  0.83484496  1
  I  I78  1  0.83752029  0.66671541  0.16324384  1
  I  I79  1  0.83929020  0.66980799  0.51053394  1
  I  I80  1  0.83348569  0.66697801  0.82992389  1
  I  I81  1  0.16688879  0.16848315  0.00152249  1
  I  I82  1  0.16536233  0.16937156  0.33293217  1
  I  I83  1  0.16677328  0.16988354  0.66502880  1
  I  I84  1  0.16680109  0.49998579  -0.00156404  1
  I  I85  1  0.16549009  0.50016668  0.33310721  1
  I  I86  1  0.16695668  0.49957284  0.66839532  1
  I  I87  1  0.16507857  0.83117993  -0.00200533  1
  I  I88  1  0.16278833  0.83084006  0.33078019  1
  I  I89  1  0.16813493  0.83101844  0.67008104  1
  I  I90  1  0.50044360  0.16628357  -0.00465194  1
  I  I91  1  0.50017878  0.16586747  0.33325614  1
  I  I92  1  0.49972169  0.16661986  0.67134408  1
  I  I93  1  0.49688447  0.50074471  -0.00500730  1
  I  I94  1  0.49801913  0.50059319  0.33327529  1
  I  I95  1  0.49610621  0.50061442  0.67166845  1
  I  I96  1  0.50473993  0.83271027  -0.00507557  1
  I  I97  1  0.49878247  0.83384920  0.33321674  1
  I  I98  1  0.49170688  0.83301902  0.67161099  1
  I  I99  1  0.83288338  0.16317140  -0.00479500  1
  I  I100  1  0.83470725  0.16358307  0.33350536  1
  I  I101  1  0.83377382  0.16828225  0.67090251  1
  I  I102  1  0.83634947  0.50387630  -0.00514537  1
  I  I103  1  0.83736876  0.50318085  0.33354224  1
  I  I104  1  0.83702905  0.49869152  0.67125498  1
  I  I105  1  0.83235982  0.83291188  -0.00417752  1
  I  I106  1  0.84170080  0.83359762  0.33614025  1
  I  I107  1  0.83772741  0.83329768  0.67031614  1
  I  I108  1  0.00448048  0.16660619  0.16563946  1
  I  I109  1  0.00358851  0.17029185  0.50029273  1
  I  I110  1  -0.00194112  0.16605695  0.83359523  1
  I  I111  1  0.00469810  0.50077943  0.16194982  1
  I  I112  1  0.00403876  0.49701554  0.50389031  1
  I  I113  1  0.00132159  0.50235197  0.83388377  1
  I  I114  1  0.00401994  0.83276984  0.15821926  1
  I  I115  1  -0.00178297  0.83350097  0.50951846  1
  I  I116  1  0.00047168  0.83150866  0.83356761  1
  I  I117  1  0.32864427  0.16705764  0.16593343  1
  I  I118  1  0.32914013  0.16908566  0.49942797  1
  I  I119  1  0.33504899  0.16654952  0.83390113  1
  I  I120  1  0.32842318  0.49997246  0.16213880  1
  I  I121  1  0.32874568  0.49798741  0.50320813  1
  I  I122  1  0.33181831  0.50189964  0.83393508  1
  I  I123  1  0.32841593  0.83274216  0.16087413  1
  I  I124  1  0.33332068  0.83359165  0.50096522  1
  I  I125  1  0.33235579  0.83140341  0.83828920  1
  I  I126  1  0.66646005  0.16550787  0.16667556  1
  I  I127  1  0.66681483  0.16533117  0.50066591  1
  I  I128  1  0.66692877  0.16607139  0.83255174  1
  I  I129  1  0.66645489  0.50096607  0.16420310  1
  I  I130  1  0.66686212  0.50133483  0.50320815  1
  I  I131  1  0.66689507  0.50326181  0.83285084  1
  I  I132  1  0.66653843  0.83404177  0.16527403  1
  I  I133  1  0.67145228  0.83344329  0.51161176  1
  I  I134  1  0.66718023  0.83088243  0.82778297  1
