# generated using pymatgen
data_Cs27Sn14Pb13I81
_symmetry_space_group_name_H-M   'P 1'
_cell_length_a   18.98510953
_cell_length_b   18.96873679
_cell_length_c   18.97192770
_cell_angle_alpha   90.00154018
_cell_angle_beta   89.99940552
_cell_angle_gamma   89.99954897
_symmetry_Int_Tables_number   1
_chemical_formula_structural   Cs27Sn14Pb13I81
_chemical_formula_sum   'Cs27 Sn14 Pb13 I81'
_cell_volume   6832.23786703
_cell_formula_units_Z   1
loop_
 _symmetry_equiv_pos_site_id
 _symmetry_equiv_pos_as_xyz
  1  'x, y, z'
loop_
 _atom_site_type_symbol
 _atom_site_label
 _atom_site_symmetry_multiplicity
 _atom_site_fract_x
 _atom_site_fract_y
 _atom_site_fract_z
 _atom_site_occupancy
  Cs  Cs0  1  -0.00084002  -0.00084017  0.00119782  1
  Cs  Cs1  1  -0.00222122  -0.00123865  0.33440172  1
  Cs  Cs2  1  0.00026707  0.00220730  0.66446227  1
  Cs  Cs3  1  -0.00138885  0.33742008  -0.00189267  1
  Cs  Cs4  1  0.00297638  0.33746103  0.32900353  1
  Cs  Cs5  1  -0.00194771  0.32968180  0.67133673  1
  Cs  Cs6  1  -0.00043463  0.66913115  0.00082967  1
  Cs  Cs7  1  0.00031043  0.66335590  0.34215501  1
  Cs  Cs8  1  0.00051898  0.66664881  0.65887243  1
  Cs  Cs9  1  0.33330621  -0.00142677  0.00052155  1
  Cs  Cs10  1  0.33446161  0.00169310  0.33240118  1
  Cs  Cs11  1  0.33465407  0.00057428  0.66678420  1
  Cs  Cs12  1  0.33237828  0.33276405  0.00359927  1
  Cs  Cs13  1  0.33468109  0.33798949  0.32569167  1
  Cs  Cs14  1  0.33399942  0.33171843  0.66682422  1
  Cs  Cs15  1  0.33260103  0.67049338  -0.00471792  1
  Cs  Cs16  1  0.33254317  0.65960493  0.33693554  1
  Cs  Cs17  1  0.33329284  0.66479141  0.66926812  1
  Cs  Cs18  1  0.66788000  -0.00256150  0.00144381  1
  Cs  Cs19  1  0.66754443  0.00015479  0.33337013  1
  Cs  Cs20  1  0.66376129  0.00197968  0.66558867  1
  Cs  Cs21  1  0.67020284  0.33677063  0.00007645  1
  Cs  Cs22  1  0.66260356  0.33857055  0.33199938  1
  Cs  Cs23  1  0.66828418  0.33169145  0.66794614  1
  Cs  Cs24  1  0.66833537  0.67127942  0.00076878  1
  Cs  Cs25  1  0.66708526  0.66034454  0.33520121  1
  Cs  Cs26  1  0.66574707  0.66449188  0.66369312  1
  Sn  Sn27  1  0.16726293  0.16637894  0.49997905  1
  Sn  Sn28  1  0.83309573  0.16631755  0.49836730  1
  Sn  Sn29  1  0.49953602  0.49855750  0.83354516  1
  Sn  Sn30  1  0.49974262  0.83398975  0.49875989  1
  Sn  Sn31  1  0.16759142  0.16657527  0.83308934  1
  Sn  Sn32  1  0.83377362  0.83389483  0.16662036  1
  Sn  Sn33  1  0.16639265  0.83363806  0.16685224  1
  Sn  Sn34  1  0.49956361  0.16601925  0.50015091  1
  Sn  Sn35  1  0.49932796  0.16748798  0.83336303  1
  Sn  Sn36  1  0.49985796  0.83366318  0.16846310  1
  Sn  Sn37  1  0.83329200  0.16615098  0.16754352  1
  Sn  Sn38  1  0.16732706  0.49992345  0.83326391  1
  Sn  Sn39  1  0.16523094  0.83354741  0.83352533  1
  Sn  Sn40  1  0.83453926  0.83382771  0.83308322  1
  Pb  Pb41  1  0.83336291  0.49584332  0.50021997  1
  Pb  Pb42  1  0.83320151  0.16469832  0.83362987  1
  Pb  Pb43  1  0.83107711  0.83493192  0.49973573  1
  Pb  Pb44  1  0.16664243  0.50351506  0.16389710  1
  Pb  Pb45  1  0.50197829  0.16512290  0.16625155  1
  Pb  Pb46  1  0.83353908  0.50350011  0.83322974  1
  Pb  Pb47  1  0.49986957  0.83384893  0.83312346  1
  Pb  Pb48  1  0.83345957  0.50076684  0.16657979  1
  Pb  Pb49  1  0.16456685  0.16477441  0.16621658  1
  Pb  Pb50  1  0.16906875  0.83528062  0.50017462  1
  Pb  Pb51  1  0.49987532  0.50350969  0.16325936  1
  Pb  Pb52  1  0.49984467  0.49909070  0.50243777  1
  Pb  Pb53  1  0.16683108  0.49619147  0.50290766  1
  I  I54  1  0.16850957  -0.00339018  0.15953657  1
  I  I55  1  0.16519102  0.00333918  0.50685830  1
  I  I56  1  0.16746922  0.00009772  0.83334745  1
  I  I57  1  0.16453526  0.33319643  0.16668789  1
  I  I58  1  0.16851055  0.32790549  0.50501231  1
  I  I59  1  0.17104034  0.33215953  0.82734785  1
  I  I60  1  0.16479797  0.67196855  0.16080380  1
  I  I61  1  0.16795013  0.66674640  0.50021259  1
  I  I62  1  0.16822989  0.66759741  0.83970397  1
  I  I63  1  0.49874369  -0.00327262  0.16408575  1
  I  I64  1  0.50036266  0.00130916  0.50367587  1
  I  I65  1  0.49710580  0.00253079  0.83160264  1
  I  I66  1  0.50224446  0.33335226  0.16891178  1
  I  I67  1  0.50113601  0.32931663  0.50360292  1
  I  I68  1  0.49318368  0.33170948  0.82698295  1
  I  I69  1  0.50323936  0.67194798  0.17074598  1
  I  I70  1  0.50085064  0.66933518  0.49775055  1
  I  I71  1  0.49700177  0.66530021  0.83421611  1
  I  I72  1  0.83308390  -0.00128468  0.16587177  1
  I  I73  1  0.83476244  0.00316868  0.49975166  1
  I  I74  1  0.83639764  -0.00313443  0.83542313  1
  I  I75  1  0.83290903  0.33015806  0.17083829  1
  I  I76  1  0.82992839  0.32737645  0.49632040  1
  I  I77  1  0.83516468  0.33306635  0.83324019  1
  I  I78  1  0.83231776  0.67095017  0.15957842  1
  I  I79  1  0.83131888  0.66687562  0.50047158  1
  I  I80  1  0.83477966  0.67160390  0.84098183  1
  I  I81  1  0.17043291  0.16733499  -0.00354528  1
  I  I82  1  0.16866472  0.16260300  0.33587690  1
  I  I83  1  0.16502932  0.16421904  0.66788855  1
  I  I84  1  0.17074432  0.49392071  -0.00437972  1
  I  I85  1  0.16564940  0.50018971  0.33341560  1
  I  I86  1  0.17104144  0.50707784  0.67108038  1
  I  I87  1  0.16847431  0.83537504  -0.00121637  1
  I  I88  1  0.16392211  0.83736636  0.33079400  1
  I  I89  1  0.16379350  0.83206775  0.67005948  1
  I  I90  1  0.49594039  0.16773880  -0.00316214  1
  I  I91  1  0.49805139  0.16263280  0.33619054  1
  I  I92  1  0.50161265  0.16350784  0.66667509  1
  I  I93  1  0.49566387  0.49435073  -0.00451426  1
  I  I94  1  0.50097741  0.49827777  0.33321631  1
  I  I95  1  0.49556965  0.50256645  0.67033433  1
  I  I96  1  0.50064859  0.83310062  0.00188080  1
  I  I97  1  0.50049557  0.84132912  0.33316159  1
  I  I98  1  0.50039728  0.83511466  0.66478042  1
  I  I99  1  0.83293672  0.16284545  0.00219240  1
  I  I100  1  0.83350131  0.15847835  0.33363208  1
  I  I101  1  0.83315972  0.16458312  0.66460562  1
  I  I102  1  0.83265266  0.49419900  -0.00033615  1
  I  I103  1  0.83315686  0.50522517  0.33337718  1
  I  I104  1  0.83273396  0.50141823  0.66706784  1
  I  I105  1  0.83134020  0.83908501  0.00066350  1
  I  I106  1  0.83562037  0.83682512  0.33030053  1
  I  I107  1  0.83657552  0.83485152  0.66899484  1
  I  I108  1  -0.00323109  0.15947079  0.16967766  1
  I  I109  1  0.00028119  0.16581445  0.50252339  1
  I  I110  1  0.00275909  0.16807085  0.83030628  1
  I  I111  1  0.00013901  0.50006660  0.16302718  1
  I  I112  1  0.00026027  0.50168834  0.50252287  1
  I  I113  1  0.00333651  0.49579976  0.83403624  1
  I  I114  1  -0.00025869  0.83844289  0.15858528  1
  I  I115  1  0.00011220  0.83505950  0.49882653  1
  I  I116  1  0.00123004  0.83431217  0.84155864  1
  I  I117  1  0.33327683  0.16407046  0.16846391  1
  I  I118  1  0.33390756  0.16112209  0.50759104  1
  I  I119  1  0.33288278  0.16434406  0.82591066  1
  I  I120  1  0.33332149  0.49973646  0.16848026  1
  I  I121  1  0.33332413  0.50008706  0.49897473  1
  I  I122  1  0.33278673  0.50278787  0.83280869  1
  I  I123  1  0.33314494  0.83414699  0.16333770  1
  I  I124  1  0.33680164  0.84029586  0.49798408  1
  I  I125  1  0.33079281  0.83371359  0.83636698  1
  I  I126  1  0.66981380  0.15904600  0.16885568  1
  I  I127  1  0.66583025  0.16143684  0.50188642  1
  I  I128  1  0.66407423  0.16853065  0.82993133  1
  I  I129  1  0.66651098  0.50170319  0.16358897  1
  I  I130  1  0.66636898  0.50001615  0.50351817  1
  I  I131  1  0.66379850  0.49588430  0.83266432  1
  I  I132  1  0.66716042  0.83793185  0.16385719  1
  I  I133  1  0.66328474  0.83991642  0.49920692  1
  I  I134  1  0.66828699  0.83449377  0.83688072  1
