# generated using pymatgen
data_Cs27Sn13Pb14I81
_symmetry_space_group_name_H-M   'P 1'
_cell_length_a   18.97489819
_cell_length_b   18.98097695
_cell_length_c   18.97619559
_cell_angle_alpha   90.00185915
_cell_angle_beta   89.99938714
_cell_angle_gamma   89.99776297
_symmetry_Int_Tables_number   1
_chemical_formula_structural   Cs27Sn13Pb14I81
_chemical_formula_sum   'Cs27 Sn13 Pb14 I81'
_cell_volume   6834.50654337
_cell_formula_units_Z   1
loop_
 _symmetry_equiv_pos_site_id
 _symmetry_equiv_pos_as_xyz
  1  'x, y, z'
loop_
 _atom_site_type_symbol
 _atom_site_label
 _atom_site_symmetry_multiplicity
 _atom_site_fract_x
 _atom_site_fract_y
 _atom_site_fract_z
 _atom_site_occupancy
  Cs  Cs0  1  -0.00757660  0.00233627  0.00044506  1
  Cs  Cs1  1  -0.00066947  -0.00108636  0.33327202  1
  Cs  Cs2  1  -0.00128584  0.00019496  0.66699212  1
  Cs  Cs3  1  -0.00090262  0.33471090  -0.00268029  1
  Cs  Cs4  1  0.00348607  0.33194006  0.33267578  1
  Cs  Cs5  1  -0.00330096  0.33333548  0.66819423  1
  Cs  Cs6  1  0.00386234  0.66189318  -0.00832088  1
  Cs  Cs7  1  0.00145939  0.66842708  0.33430741  1
  Cs  Cs8  1  -0.00516782  0.66429261  0.67120649  1
  Cs  Cs9  1  0.33464468  0.00018890  0.00010149  1
  Cs  Cs10  1  0.33240897  -0.00028235  0.33397926  1
  Cs  Cs11  1  0.33258655  0.00038430  0.66635501  1
  Cs  Cs12  1  0.33357862  0.33357939  0.00161124  1
  Cs  Cs13  1  0.33350760  0.33208298  0.33455026  1
  Cs  Cs14  1  0.33580256  0.32874244  0.66236678  1
  Cs  Cs15  1  0.33264033  0.66628297  -0.00082253  1
  Cs  Cs16  1  0.33266396  0.66799485  0.33192224  1
  Cs  Cs17  1  0.33252855  0.67077234  0.66829815  1
  Cs  Cs18  1  0.67033002  0.00159789  0.00039187  1
  Cs  Cs19  1  0.66916211  -0.00210503  0.33069478  1
  Cs  Cs20  1  0.66939453  -0.00305667  0.67005643  1
  Cs  Cs21  1  0.66544899  0.33150963  0.00107870  1
  Cs  Cs22  1  0.66457470  0.33579496  0.33430961  1
  Cs  Cs23  1  0.66721355  0.33715028  0.66416513  1
  Cs  Cs24  1  0.66308798  0.66810380  0.00116131  1
  Cs  Cs25  1  0.66851882  0.66609105  0.33521846  1
  Cs  Cs26  1  0.67439256  0.66544480  0.66454985  1
  Sn  Sn27  1  0.16754204  0.83215644  0.49946221  1
  Sn  Sn28  1  0.16735234  0.16574036  0.16572256  1
  Sn  Sn29  1  0.83297530  0.50013584  0.16674900  1
  Sn  Sn30  1  0.50073894  0.49995711  0.16627417  1
  Sn  Sn31  1  0.49907105  0.83356699  0.16761525  1
  Sn  Sn32  1  0.49938981  0.83338742  0.49934156  1
  Sn  Sn33  1  0.16759094  0.16641418  0.83452500  1
  Sn  Sn34  1  0.16713029  0.50103657  0.50011318  1
  Sn  Sn35  1  0.49903110  0.16762717  0.83406772  1
  Sn  Sn36  1  0.83287786  0.16671991  0.49941536  1
  Sn  Sn37  1  0.49946382  0.49931257  0.83355720  1
  Sn  Sn38  1  0.49920483  0.16648728  0.16626090  1
  Sn  Sn39  1  0.16725640  0.83416445  0.16692976  1
  Pb  Pb40  1  0.50002478  0.83354946  0.83376288  1
  Pb  Pb41  1  0.83401731  0.83060233  0.16649056  1
  Pb  Pb42  1  0.83347333  0.83313184  0.83377247  1
  Pb  Pb43  1  0.16669500  0.83590214  0.83384261  1
  Pb  Pb44  1  0.83019205  0.49964046  0.83609518  1
  Pb  Pb45  1  0.50195990  0.16420775  0.49988001  1
  Pb  Pb46  1  0.16737230  0.50006809  0.16759917  1
  Pb  Pb47  1  0.16950125  0.49727727  0.83047515  1
  Pb  Pb48  1  0.83328217  0.16853608  0.16814596  1
  Pb  Pb49  1  0.83593798  0.49820496  0.49773600  1
  Pb  Pb50  1  0.16542198  0.16586279  0.49979612  1
  Pb  Pb51  1  0.49834654  0.50243427  0.49998392  1
  Pb  Pb52  1  0.83386634  0.83499331  0.49969774  1
  Pb  Pb53  1  0.83251884  0.16686518  0.83123753  1
  I  I54  1  0.17427078  0.00023692  0.16966556  1
  I  I55  1  0.16914442  -0.00282424  0.49862965  1
  I  I56  1  0.17434363  0.00390134  0.83150051  1
  I  I57  1  0.16943335  0.33065359  0.16611363  1
  I  I58  1  0.16458303  0.33459555  0.49891343  1
  I  I59  1  0.16826260  0.32951858  0.83862737  1
  I  I60  1  0.16988354  0.66933734  0.17113445  1
  I  I61  1  0.17074561  0.66800090  0.49255898  1
  I  I62  1  0.16723014  0.66648772  0.83529420  1
  I  I63  1  0.49524640  0.00029246  0.16695958  1
  I  I64  1  0.49356797  -0.00344036  0.49618840  1
  I  I65  1  0.49639477  0.00331641  0.83557551  1
  I  I66  1  0.49995363  0.33290041  0.16226574  1
  I  I67  1  0.49909503  0.33326733  0.49782871  1
  I  I68  1  0.49648178  0.33250771  0.84127239  1
  I  I69  1  0.50011323  0.66679203  0.16640980  1
  I  I70  1  0.49809256  0.67021764  0.49557256  1
  I  I71  1  0.50069452  0.66404068  0.83763664  1
  I  I72  1  0.83127419  0.00009506  0.16785281  1
  I  I73  1  0.83536859  0.00261276  0.49891822  1
  I  I74  1  0.83107794  0.00063433  0.83286518  1
  I  I75  1  0.82901632  0.33610304  0.16865246  1
  I  I76  1  0.83481969  0.33069283  0.49944925  1
  I  I77  1  0.83613724  0.33322934  0.83197764  1
  I  I78  1  0.82774301  0.66304743  0.16860003  1
  I  I79  1  0.83187137  0.66658207  0.49963502  1
  I  I80  1  0.83237402  0.66594158  0.83215737  1
  I  I81  1  0.17067510  0.16215436  0.00145047  1
  I  I82  1  0.16988795  0.16657711  0.33040292  1
  I  I83  1  0.16990283  0.16770282  0.66882876  1
  I  I84  1  0.16393623  0.50244630  -0.00010594  1
  I  I85  1  0.16858645  0.49840714  0.33542835  1
  I  I86  1  0.16785930  0.50461291  0.66294161  1
  I  I87  1  0.17252066  0.83428250  0.00373893  1
  I  I88  1  0.17115128  0.83574578  0.33273350  1
  I  I89  1  0.17135799  0.83206967  0.66353312  1
  I  I90  1  0.49662557  0.16582180  0.00132813  1
  I  I91  1  0.49627408  0.16959265  0.32990164  1
  I  I92  1  0.49673740  0.17000839  0.66945391  1
  I  I93  1  0.50330591  0.50089615  0.00162418  1
  I  I94  1  0.50210162  0.49708963  0.33009130  1
  I  I95  1  0.49640266  0.49490168  0.66905227  1
  I  I96  1  0.49556049  0.83234115  0.00380003  1
  I  I97  1  0.49599658  0.83371051  0.33174855  1
  I  I98  1  0.49549615  0.83457926  0.66394430  1
  I  I99  1  0.83399514  0.16748713  0.00013612  1
  I  I100  1  0.83459192  0.16726151  0.33553713  1
  I  I101  1  0.83502825  0.16627760  0.66366863  1
  I  I102  1  0.83410173  0.49832370  0.00391631  1
  I  I103  1  0.82496925  0.49881575  0.33030354  1
  I  I104  1  0.83276245  0.49924405  0.66664281  1
  I  I105  1  0.83205372  0.83550938  0.00076556  1
  I  I106  1  0.83251073  0.83410029  0.33309928  1
  I  I107  1  0.83192948  0.83429744  0.66616109  1
  I  I108  1  0.00320621  0.16386220  0.16497376  1
  I  I109  1  -0.00192900  0.16605281  0.49908449  1
  I  I110  1  0.00289502  0.16486691  0.83650349  1
  I  I111  1  -0.00133018  0.49879940  0.17131423  1
  I  I112  1  0.00371598  0.50523268  0.49704175  1
  I  I113  1  0.00025136  0.49916513  0.83392847  1
  I  I114  1  0.00384450  0.83802062  0.17233300  1
  I  I115  1  0.00368678  0.83204847  0.49462870  1
  I  I116  1  0.00067480  0.83548744  0.83296452  1
  I  I117  1  0.33399499  0.16814315  0.16415830  1
  I  I118  1  0.33347560  0.16810094  0.50048268  1
  I  I119  1  0.33419101  0.17013312  0.83649278  1
  I  I120  1  0.33663861  0.49992177  0.16433749  1
  I  I121  1  0.33062471  0.49928039  0.49686121  1
  I  I122  1  0.33706955  0.49880089  0.84198306  1
  I  I123  1  0.33411260  0.83265209  0.17135847  1
  I  I124  1  0.33280129  0.83105829  0.49516106  1
  I  I125  1  0.33348925  0.83160120  0.83180431  1
  I  I126  1  0.66314406  0.16407618  0.16369157  1
  I  I127  1  0.66911191  0.16581628  0.49914632  1
  I  I128  1  0.66280670  0.16917359  0.83746241  1
  I  I129  1  0.66415937  0.49898739  0.16403904  1
  I  I130  1  0.66640713  0.50063252  0.50188598  1
  I  I131  1  0.66213226  0.49309363  0.83316221  1
  I  I132  1  0.66304822  0.83589676  0.17011705  1
  I  I133  1  0.66372795  0.83550694  0.49572302  1
  I  I134  1  0.66588496  0.83628914  0.83234992  1
