# generated using pymatgen
data_Cs27Sn14Pb13I81
_symmetry_space_group_name_H-M   'P 1'
_cell_length_a   18.98401324
_cell_length_b   18.96577218
_cell_length_c   18.98063475
_cell_angle_alpha   90.00000931
_cell_angle_beta   90.00040268
_cell_angle_gamma   90.00017230
_symmetry_Int_Tables_number   1
_chemical_formula_structural   Cs27Sn14Pb13I81
_chemical_formula_sum   'Cs27 Sn14 Pb13 I81'
_cell_volume   6833.91054312
_cell_formula_units_Z   1
loop_
 _symmetry_equiv_pos_site_id
 _symmetry_equiv_pos_as_xyz
  1  'x, y, z'
loop_
 _atom_site_type_symbol
 _atom_site_label
 _atom_site_symmetry_multiplicity
 _atom_site_fract_x
 _atom_site_fract_y
 _atom_site_fract_z
 _atom_site_occupancy
  Cs  Cs0  1  0.00028854  -0.00199872  0.00141742  1
  Cs  Cs1  1  -0.00051971  -0.00073015  0.33437152  1
  Cs  Cs2  1  0.00089511  0.00225276  0.66247781  1
  Cs  Cs3  1  0.00079177  0.33339192  0.00131398  1
  Cs  Cs4  1  -0.00107479  0.33289596  0.33148895  1
  Cs  Cs5  1  0.00189954  0.33465035  0.66763756  1
  Cs  Cs6  1  0.00107955  0.67135672  -0.00811336  1
  Cs  Cs7  1  -0.00229298  0.66834676  0.33103861  1
  Cs  Cs8  1  0.00490174  0.66360814  0.67766486  1
  Cs  Cs9  1  0.33450310  -0.00110016  -0.00026171  1
  Cs  Cs10  1  0.32986701  -0.00492020  0.33465331  1
  Cs  Cs11  1  0.33144934  -0.00359096  0.66553310  1
  Cs  Cs12  1  0.33598197  0.33166566  0.00251380  1
  Cs  Cs13  1  0.33371722  0.33433617  0.33092021  1
  Cs  Cs14  1  0.33284091  0.33484403  0.66555301  1
  Cs  Cs15  1  0.33231673  0.67321037  -0.00082051  1
  Cs  Cs16  1  0.33440848  0.67193874  0.34105506  1
  Cs  Cs17  1  0.32715977  0.67204504  0.65949478  1
  Cs  Cs18  1  0.66562257  -0.00073175  -0.00053750  1
  Cs  Cs19  1  0.66912570  0.00092991  0.33335399  1
  Cs  Cs20  1  0.66684512  0.00240245  0.66689100  1
  Cs  Cs21  1  0.66431938  0.33240427  0.00146390  1
  Cs  Cs22  1  0.66714907  0.33370093  0.33232596  1
  Cs  Cs23  1  0.66677693  0.33212513  0.66783750  1
  Cs  Cs24  1  0.66793148  0.67183090  -0.00218700  1
  Cs  Cs25  1  0.66622323  0.66581431  0.33536995  1
  Cs  Cs26  1  0.66583071  0.66938771  0.66600459  1
  Sn  Sn27  1  0.49983835  0.49972106  0.16571029  1
  Sn  Sn28  1  0.83339093  0.49981163  0.49987493  1
  Sn  Sn29  1  0.16668011  0.16732319  0.16576738  1
  Sn  Sn30  1  0.49963666  0.16749712  0.83325887  1
  Sn  Sn31  1  0.83352869  0.16723766  0.83377232  1
  Sn  Sn32  1  0.49979141  0.49936559  0.83389058  1
  Sn  Sn33  1  0.16683365  0.49952137  0.16666140  1
  Sn  Sn34  1  0.83345439  0.83275014  0.50025146  1
  Sn  Sn35  1  0.83339226  0.49928179  0.16677725  1
  Sn  Sn36  1  0.49991302  0.16685410  0.16707933  1
  Sn  Sn37  1  0.50048853  0.16716520  0.49964953  1
  Sn  Sn38  1  0.83247753  0.16738031  0.49982694  1
  Sn  Sn39  1  0.16696619  0.16735479  0.83436883  1
  Sn  Sn40  1  0.83334571  0.16735672  0.16644016  1
  Pb  Pb41  1  0.83317171  0.83651234  0.83055803  1
  Pb  Pb42  1  0.16362260  0.49958103  0.49721013  1
  Pb  Pb43  1  0.16672541  0.83667428  0.83356136  1
  Pb  Pb44  1  0.50025543  0.83276667  0.16675205  1
  Pb  Pb45  1  0.16317854  0.83316295  0.49988355  1
  Pb  Pb46  1  0.83130883  0.49785380  0.83406573  1
  Pb  Pb47  1  0.16995805  0.49758805  0.83597493  1
  Pb  Pb48  1  0.50237003  0.83645797  0.49990267  1
  Pb  Pb49  1  0.83318332  0.83297911  0.16823607  1
  Pb  Pb50  1  0.50005126  0.83310870  0.83323805  1
  Pb  Pb51  1  0.50185894  0.49797414  0.49989396  1
  Pb  Pb52  1  0.16666006  0.16697224  0.49940526  1
  Pb  Pb53  1  0.16647842  0.83310531  0.16662685  1
  I  I54  1  0.16634124  0.00418666  0.16332467  1
  I  I55  1  0.16512198  0.00058691  0.49845697  1
  I  I56  1  0.16900769  0.00545395  0.83981172  1
  I  I57  1  0.16590068  0.33188851  0.16352971  1
  I  I58  1  0.16359668  0.33295882  0.50265733  1
  I  I59  1  0.16332870  0.32930180  0.83445161  1
  I  I60  1  0.16581179  0.66292552  0.16836932  1
  I  I61  1  0.16731624  0.66633345  0.49751950  1
  I  I62  1  0.16712970  0.66616402  0.83473423  1
  I  I63  1  0.50069268  0.00452355  0.16567089  1
  I  I64  1  0.50564215  0.00523706  0.50015528  1
  I  I65  1  0.50050538  0.00464258  0.83403874  1
  I  I66  1  0.50089312  0.33186749  0.16619106  1
  I  I67  1  0.50685643  0.32948685  0.49991147  1
  I  I68  1  0.50119623  0.33096544  0.83486355  1
  I  I69  1  0.50122109  0.66237585  0.16141587  1
  I  I70  1  0.50228439  0.66643694  0.49962262  1
  I  I71  1  0.50266404  0.66308421  0.84062720  1
  I  I72  1  0.83325606  0.00408352  0.16714688  1
  I  I73  1  0.82945472  0.00231038  0.50040269  1
  I  I74  1  0.83017066  0.00560185  0.83509919  1
  I  I75  1  0.83314159  0.33198298  0.17148496  1
  I  I76  1  0.82945990  0.33196037  0.49796866  1
  I  I77  1  0.83463804  0.32915038  0.82854141  1
  I  I78  1  0.83255545  0.66276736  0.17228865  1
  I  I79  1  0.83314071  0.66566843  0.49144423  1
  I  I80  1  0.83134951  0.66641019  0.83326328  1
  I  I81  1  0.16583034  0.17023654  0.00099722  1
  I  I82  1  0.16623994  0.16998881  0.32963701  1
  I  I83  1  0.16594810  0.16503990  0.66942110  1
  I  I84  1  0.15964994  0.49655795  0.00403741  1
  I  I85  1  0.17169861  0.49098391  0.32878841  1
  I  I86  1  0.16618705  0.49944359  0.66703870  1
  I  I87  1  0.16474002  0.83225593  0.00011955  1
  I  I88  1  0.16697750  0.83722229  0.33322531  1
  I  I89  1  0.16654881  0.83509402  0.66671981  1
  I  I90  1  0.50248088  0.16977736  0.00040087  1
  I  I91  1  0.50376738  0.17027073  0.33234217  1
  I  I92  1  0.50428096  0.16988762  0.66724132  1
  I  I93  1  0.50270544  0.48984550  0.00140827  1
  I  I94  1  0.49910928  0.49493288  0.32994524  1
  I  I95  1  0.50386161  0.49307145  0.66909679  1
  I  I96  1  0.50099026  0.83867335  -0.00000837  1
  I  I97  1  0.50027359  0.83380217  0.33342728  1
  I  I98  1  0.50176772  0.83387694  0.66653976  1
  I  I99  1  0.83136682  0.17140387  0.00084840  1
  I  I100  1  0.83094834  0.16641531  0.33316357  1
  I  I101  1  0.83016130  0.16569106  0.66614668  1
  I  I102  1  0.83476739  0.49388476  0.00354815  1
  I  I103  1  0.83160257  0.49485631  0.33227604  1
  I  I104  1  0.83023059  0.49791207  0.66433545  1
  I  I105  1  0.83413751  0.83368604  -0.00029646  1
  I  I106  1  0.83279740  0.83985222  0.33614382  1
  I  I107  1  0.83181757  0.83384476  0.66253958  1
  I  I108  1  -0.00074705  0.17143033  0.16490018  1
  I  I109  1  -0.00371646  0.16559603  0.50024559  1
  I  I110  1  -0.00054769  0.16540441  0.83517283  1
  I  I111  1  -0.00081183  0.49181479  0.17383187  1
  I  I112  1  -0.00498024  0.49501730  0.49530504  1
  I  I113  1  0.00009824  0.49895035  0.83257921  1
  I  I114  1  -0.00019092  0.83549313  0.16922725  1
  I  I115  1  -0.00471539  0.84042744  0.49767849  1
  I  I116  1  -0.00020134  0.83338543  0.83248804  1
  I  I117  1  0.33389069  0.17222666  0.16396722  1
  I  I118  1  0.33644749  0.16742009  0.50016545  1
  I  I119  1  0.33423878  0.17011624  0.83634013  1
  I  I120  1  0.33402357  0.49063742  0.16099222  1
  I  I121  1  0.33351551  0.49805214  0.49945183  1
  I  I122  1  0.33770430  0.49174478  0.83814903  1
  I  I123  1  0.33335268  0.83529878  0.16746052  1
  I  I124  1  0.33335815  0.83483761  0.50009455  1
  I  I125  1  0.33341003  0.83583787  0.83286060  1
  I  I126  1  0.66685214  0.17091832  0.16575808  1
  I  I127  1  0.66798116  0.16632033  0.49995437  1
  I  I128  1  0.66644278  0.16931563  0.83436798  1
  I  I129  1  0.66685112  0.49288617  0.16791528  1
  I  I130  1  0.67012320  0.50004958  0.49372966  1
  I  I131  1  0.66368514  0.49210439  0.83838015  1
  I  I132  1  0.66676675  0.83526150  0.16722805  1
  I  I133  1  0.67024035  0.83255971  0.49906985  1
  I  I134  1  0.66676752  0.83660762  0.83351308  1
