# generated using pymatgen
data_Cs27Sn13Pb14I81
_symmetry_space_group_name_H-M   'P 1'
_cell_length_a   18.97621656
_cell_length_b   18.97688860
_cell_length_c   18.97883654
_cell_angle_alpha   90.00152533
_cell_angle_beta   90.00052935
_cell_angle_gamma   89.99959915
_symmetry_Int_Tables_number   1
_chemical_formula_structural   Cs27Sn13Pb14I81
_chemical_formula_sum   'Cs27 Sn13 Pb14 I81'
_cell_volume   6834.46024075
_cell_formula_units_Z   1
loop_
 _symmetry_equiv_pos_site_id
 _symmetry_equiv_pos_as_xyz
  1  'x, y, z'
loop_
 _atom_site_type_symbol
 _atom_site_label
 _atom_site_symmetry_multiplicity
 _atom_site_fract_x
 _atom_site_fract_y
 _atom_site_fract_z
 _atom_site_occupancy
  Cs  Cs0  1  -0.00223683  0.00334973  -0.00258844  1
  Cs  Cs1  1  0.00341683  -0.00146284  0.33348266  1
  Cs  Cs2  1  0.00514373  0.00521260  0.67129727  1
  Cs  Cs3  1  0.00195476  0.33468105  -0.00018868  1
  Cs  Cs4  1  0.00000121  0.33343942  0.33478271  1
  Cs  Cs5  1  -0.00273585  0.32721424  0.66645929  1
  Cs  Cs6  1  -0.00216994  0.66483978  0.00168224  1
  Cs  Cs7  1  -0.00018196  0.66670186  0.33251835  1
  Cs  Cs8  1  0.00501869  0.66855075  0.66858850  1
  Cs  Cs9  1  0.33567415  0.00290627  0.00114675  1
  Cs  Cs10  1  0.33367151  -0.00030499  0.33355107  1
  Cs  Cs11  1  0.33036817  -0.00326038  0.66320779  1
  Cs  Cs12  1  0.33167265  0.33440104  -0.00214976  1
  Cs  Cs13  1  0.33424021  0.33376129  0.33223433  1
  Cs  Cs14  1  0.33357876  0.33697570  0.67251279  1
  Cs  Cs15  1  0.33397039  0.66327111  -0.00544901  1
  Cs  Cs16  1  0.33202007  0.66730249  0.33299549  1
  Cs  Cs17  1  0.32970949  0.66588097  0.67628654  1
  Cs  Cs18  1  0.66629518  -0.00092877  -0.00011810  1
  Cs  Cs19  1  0.66499329  -0.00181583  0.33177816  1
  Cs  Cs20  1  0.66665424  0.00129423  0.66924577  1
  Cs  Cs21  1  0.66635344  0.33307619  0.00241555  1
  Cs  Cs22  1  0.66620021  0.33514029  0.33544712  1
  Cs  Cs23  1  0.66943220  0.33210541  0.65930824  1
  Cs  Cs24  1  0.66760846  0.66756650  0.00004791  1
  Cs  Cs25  1  0.66776602  0.66713474  0.33302124  1
  Cs  Cs26  1  0.66506203  0.66621946  0.66575151  1
  Sn  Sn27  1  0.50079734  0.83372182  0.49918166  1
  Sn  Sn28  1  0.49990271  0.16597498  0.49973153  1
  Sn  Sn29  1  0.83349626  0.83358453  0.16742221  1
  Sn  Sn30  1  0.50028354  0.16655619  0.83323824  1
  Sn  Sn31  1  0.16597632  0.50091049  0.16790527  1
  Sn  Sn32  1  0.50097120  0.16610681  0.16703654  1
  Sn  Sn33  1  0.16681380  0.83253929  0.16667753  1
  Sn  Sn34  1  0.83396777  0.49988879  0.16619288  1
  Sn  Sn35  1  0.83315580  0.83362627  0.49964197  1
  Sn  Sn36  1  0.83288902  0.50018460  0.83368900  1
  Sn  Sn37  1  0.83265355  0.16656788  0.16720144  1
  Sn  Sn38  1  0.16670158  0.49990859  0.49906730  1
  Sn  Sn39  1  0.49971526  0.83370803  0.16731947  1
  Pb  Pb40  1  0.83130079  0.16873040  0.83570825  1
  Pb  Pb41  1  0.50316508  0.49747638  0.83329324  1
  Pb  Pb42  1  0.49759954  0.50108209  0.49992135  1
  Pb  Pb43  1  0.83156075  0.16373132  0.49750166  1
  Pb  Pb44  1  0.50002690  0.50041140  0.16672697  1
  Pb  Pb45  1  0.16693478  0.83181451  0.49826582  1
  Pb  Pb46  1  0.16925772  0.16662981  0.83342901  1
  Pb  Pb47  1  0.50019664  0.83525312  0.83323079  1
  Pb  Pb48  1  0.83323529  0.83173922  0.83318310  1
  Pb  Pb49  1  0.83514923  0.50234076  0.49956499  1
  Pb  Pb50  1  0.16679450  0.16679477  0.16675324  1
  Pb  Pb51  1  0.16400612  0.49984696  0.83390500  1
  Pb  Pb52  1  0.16651538  0.83349889  0.83712666  1
  Pb  Pb53  1  0.16954202  0.16920195  0.49972616  1
  I  I54  1  0.16497515  -0.00307908  0.16708965  1
  I  I55  1  0.16569273  -0.00024112  0.49859240  1
  I  I56  1  0.16504223  0.00000617  0.83385597  1
  I  I57  1  0.16367961  0.33645415  0.16904385  1
  I  I58  1  0.16648885  0.33707339  0.49194429  1
  I  I59  1  0.16808731  0.33361128  0.83632921  1
  I  I60  1  0.16336234  0.66661101  0.17092405  1
  I  I61  1  0.16783925  0.66401244  0.49602250  1
  I  I62  1  0.16875711  0.66639060  0.83094787  1
  I  I63  1  0.50252877  -0.00013383  0.16663723  1
  I  I64  1  0.50340826  -0.00042162  0.49801174  1
  I  I65  1  0.50227840  0.00318824  0.83579776  1
  I  I66  1  0.50302410  0.33013360  0.16734142  1
  I  I67  1  0.49848640  0.33041590  0.49854969  1
  I  I68  1  0.49936905  0.32941595  0.83536444  1
  I  I69  1  0.50247451  0.67019282  0.17233738  1
  I  I70  1  0.50370157  0.67055354  0.49251134  1
  I  I71  1  0.49913217  0.66667840  0.83346155  1
  I  I72  1  0.83224939  -0.00080869  0.17080251  1
  I  I73  1  0.83199575  -0.00421487  0.49356333  1
  I  I74  1  0.83214143  0.00034072  0.83484536  1
  I  I75  1  0.83287537  0.33361892  0.16178228  1
  I  I76  1  0.83245149  0.33328896  0.49924429  1
  I  I77  1  0.83276664  0.33661069  0.83938674  1
  I  I78  1  0.83362431  0.66713111  0.16623706  1
  I  I79  1  0.82628397  0.67004280  0.49298953  1
  I  I80  1  0.83357752  0.66381606  0.84104202  1
  I  I81  1  0.16938940  0.16831060  0.00063735  1
  I  I82  1  0.16922454  0.16635090  0.33295877  1
  I  I83  1  0.16712355  0.16913299  0.66641716  1
  I  I84  1  0.16483543  0.50386686  0.00358368  1
  I  I85  1  0.16136860  0.50350904  0.33117556  1
  I  I86  1  0.16761815  0.50022982  0.66426932  1
  I  I87  1  0.16687215  0.82629765  0.00588936  1
  I  I88  1  0.16658257  0.83097618  0.32970650  1
  I  I89  1  0.16752581  0.83042461  0.66630731  1
  I  I90  1  0.50379993  0.16289206  0.00181368  1
  I  I91  1  0.50323780  0.16240109  0.33230721  1
  I  I92  1  0.49888624  0.16342260  0.66586803  1
  I  I93  1  0.49572224  0.49972156  0.00035677  1
  I  I94  1  0.50334357  0.49462745  0.33313323  1
  I  I95  1  0.49935437  0.49985763  0.66652748  1
  I  I96  1  0.50098766  0.83697266  0.00375480  1
  I  I97  1  0.50093243  0.84122938  0.33200871  1
  I  I98  1  0.50517334  0.83694652  0.66308879  1
  I  I99  1  0.82783392  0.16170861  0.00433466  1
  I  I100  1  0.82784058  0.17225937  0.32909089  1
  I  I101  1  0.83118249  0.16842639  0.66646051  1
  I  I102  1  0.83823878  0.50144101  0.00298096  1
  I  I103  1  0.83534529  0.49903957  0.32982712  1
  I  I104  1  0.83361088  0.50153851  0.66856168  1
  I  I105  1  0.83243754  0.83462231  0.00412281  1
  I  I106  1  0.83162185  0.83085780  0.33114402  1
  I  I107  1  0.82654467  0.82971074  0.66335718  1
  I  I108  1  -0.00313793  0.16454550  0.16612812  1
  I  I109  1  -0.00018999  0.16617754  0.49867340  1
  I  I110  1  -0.00057905  0.16776756  0.83501038  1
  I  I111  1  -0.00083129  0.50317056  0.16625895  1
  I  I112  1  0.00277926  0.50303570  0.49661765  1
  I  I113  1  -0.00339573  0.50004995  0.83742036  1
  I  I114  1  -0.00105674  0.83203304  0.17072673  1
  I  I115  1  -0.00249404  0.82933116  0.49398593  1
  I  I116  1  -0.00021179  0.83305377  0.83185842  1
  I  I117  1  0.33694987  0.16361377  0.16665729  1
  I  I118  1  0.33811271  0.15959633  0.49567240  1
  I  I119  1  0.33788875  0.16762909  0.83824708  1
  I  I120  1  0.33046344  0.50255335  0.17055064  1
  I  I121  1  0.32996676  0.50031983  0.49183810  1
  I  I122  1  0.33322301  0.49876855  0.83371876  1
  I  I123  1  0.33430466  0.83427157  0.17105643  1
  I  I124  1  0.33654329  0.83732769  0.49465161  1
  I  I125  1  0.33352738  0.83278910  0.83280421  1
  I  I126  1  0.66598701  0.16430363  0.16621186  1
  I  I127  1  0.66310328  0.16736265  0.50124137  1
  I  I128  1  0.66330756  0.16724167  0.83263858  1
  I  I129  1  0.66985822  0.50177077  0.16289416  1
  I  I130  1  0.66677670  0.49839210  0.49994060  1
  I  I131  1  0.67057825  0.50132820  0.84180010  1
  I  I132  1  0.66685188  0.83382330  0.16986615  1
  I  I133  1  0.66600419  0.83538175  0.49113254  1
  I  I134  1  0.66665288  0.83181830  0.83815061  1
