# generated using pymatgen
data_Cs27Sn13Pb14I81
_symmetry_space_group_name_H-M   'P 1'
_cell_length_a   18.98162947
_cell_length_b   18.97182119
_cell_length_c   18.97572737
_cell_angle_alpha   90.00051705
_cell_angle_beta   89.99991141
_cell_angle_gamma   90.00102512
_symmetry_Int_Tables_number   1
_chemical_formula_structural   Cs27Sn13Pb14I81
_chemical_formula_sum   'Cs27 Sn13 Pb14 I81'
_cell_volume   6833.46455741
_cell_formula_units_Z   1
loop_
 _symmetry_equiv_pos_site_id
 _symmetry_equiv_pos_as_xyz
  1  'x, y, z'
loop_
 _atom_site_type_symbol
 _atom_site_label
 _atom_site_symmetry_multiplicity
 _atom_site_fract_x
 _atom_site_fract_y
 _atom_site_fract_z
 _atom_site_occupancy
  Cs  Cs0  1  -0.00044917  0.00202365  -0.00112394  1
  Cs  Cs1  1  -0.00001178  -0.00004394  0.33407948  1
  Cs  Cs2  1  0.00027277  -0.00271075  0.67104197  1
  Cs  Cs3  1  0.00018854  0.33203141  0.00122076  1
  Cs  Cs4  1  0.00351349  0.33349051  0.33223127  1
  Cs  Cs5  1  -0.00224723  0.33627725  0.66638251  1
  Cs  Cs6  1  0.00256616  0.66648170  0.00127321  1
  Cs  Cs7  1  -0.00207340  0.66706825  0.33832530  1
  Cs  Cs8  1  0.00002653  0.66633641  0.65763815  1
  Cs  Cs9  1  0.33115966  -0.00163526  -0.00098261  1
  Cs  Cs10  1  0.33488315  0.00304125  0.34229279  1
  Cs  Cs11  1  0.33390866  -0.00711869  0.66114046  1
  Cs  Cs12  1  0.33277960  0.33385653  0.00222670  1
  Cs  Cs13  1  0.33351601  0.33295866  0.33373652  1
  Cs  Cs14  1  0.33453264  0.33259489  0.66338089  1
  Cs  Cs15  1  0.33284039  0.66784595  -0.00134260  1
  Cs  Cs16  1  0.33390110  0.66396752  0.33208422  1
  Cs  Cs17  1  0.33120053  0.67589670  0.66978109  1
  Cs  Cs18  1  0.66926874  0.00104494  0.00107625  1
  Cs  Cs19  1  0.66639999  -0.00624584  0.33463172  1
  Cs  Cs20  1  0.66649571  0.00292149  0.66408862  1
  Cs  Cs21  1  0.66659715  0.33366286  -0.00060125  1
  Cs  Cs22  1  0.66368671  0.33312860  0.33142482  1
  Cs  Cs23  1  0.66752333  0.33367070  0.66881666  1
  Cs  Cs24  1  0.66291500  0.66629441  0.00019540  1
  Cs  Cs25  1  0.66768185  0.67366465  0.33189502  1
  Cs  Cs26  1  0.66721663  0.66260550  0.66816776  1
  Sn  Sn27  1  0.16654716  0.50098220  0.16590340  1
  Sn  Sn28  1  0.83331094  0.16612075  0.83333006  1
  Sn  Sn29  1  0.50064851  0.16703766  0.16582015  1
  Sn  Sn30  1  0.16709883  0.16755211  0.83344443  1
  Sn  Sn31  1  0.50024526  0.49927021  0.16741373  1
  Sn  Sn32  1  0.49996692  0.50004895  0.49945909  1
  Sn  Sn33  1  0.16654909  0.49919863  0.83375008  1
  Sn  Sn34  1  0.49960478  0.16684011  0.83404760  1
  Sn  Sn35  1  0.83360968  0.16716338  0.49955952  1
  Sn  Sn36  1  0.83314213  0.83325887  0.83383547  1
  Sn  Sn37  1  0.83249739  0.16743379  0.16709342  1
  Sn  Sn38  1  0.83316859  0.49955323  0.16644195  1
  Sn  Sn39  1  0.16677319  0.83284749  0.16678176  1
  Pb  Pb40  1  0.16650326  0.83325797  0.49652751  1
  Pb  Pb41  1  0.83107145  0.49781173  0.49689226  1
  Pb  Pb42  1  0.16701547  0.16683146  0.16542988  1
  Pb  Pb43  1  0.16892139  0.49984767  0.49988911  1
  Pb  Pb44  1  0.50279911  0.83650228  0.83373066  1
  Pb  Pb45  1  0.83541297  0.49973801  0.83524453  1
  Pb  Pb46  1  0.50033488  0.82978191  0.49994939  1
  Pb  Pb47  1  0.49751866  0.83394139  0.16655945  1
  Pb  Pb48  1  0.83323882  0.83582529  0.50294358  1
  Pb  Pb49  1  0.50203108  0.16809449  0.49977478  1
  Pb  Pb50  1  0.16394940  0.16695761  0.50366824  1
  Pb  Pb51  1  0.83508121  0.83356811  0.16498892  1
  Pb  Pb52  1  0.49755406  0.49812288  0.83377211  1
  Pb  Pb53  1  0.16468320  0.83318191  0.83475250  1
  I  I54  1  0.16494024  -0.00150634  0.16312730  1
  I  I55  1  0.16772407  0.00029342  0.49892335  1
  I  I56  1  0.16638780  0.00302363  0.83622164  1
  I  I57  1  0.16634776  0.33614286  0.16411977  1
  I  I58  1  0.16649895  0.33332160  0.49576192  1
  I  I59  1  0.16394052  0.33269214  0.84016871  1
  I  I60  1  0.16699831  0.66423088  0.16006918  1
  I  I61  1  0.16655799  0.66633850  0.50548630  1
  I  I62  1  0.16591632  0.66384238  0.83695272  1
  I  I63  1  0.50420479  0.00383398  0.16176018  1
  I  I64  1  0.50043250  0.00027588  0.49973630  1
  I  I65  1  0.49548627  0.00522266  0.83941358  1
  I  I66  1  0.49917516  0.33346209  0.16628523  1
  I  I67  1  0.50024431  0.33579701  0.49693554  1
  I  I68  1  0.50576261  0.32980520  0.83528329  1
  I  I69  1  0.50277481  0.66316483  0.17077605  1
  I  I70  1  0.50044427  0.66177709  0.49222142  1
  I  I71  1  0.49996413  0.66646571  0.83308300  1
  I  I72  1  0.83086667  0.00370858  0.16707997  1
  I  I73  1  0.83154765  0.00423582  0.49447811  1
  I  I74  1  0.83576587  0.00298368  0.83572226  1
  I  I75  1  0.83469079  0.33237259  0.16382445  1
  I  I76  1  0.83301213  0.32998704  0.50664646  1
  I  I77  1  0.83216028  0.32979072  0.83256237  1
  I  I78  1  0.83117127  0.66371920  0.16381632  1
  I  I79  1  0.83255964  0.66636179  0.50088988  1
  I  I80  1  0.83592692  0.66850882  0.83678497  1
  I  I81  1  0.16197892  0.16798964  -0.00272587  1
  I  I82  1  0.16646090  0.16639000  0.33328181  1
  I  I83  1  0.16729484  0.17250384  0.67214575  1
  I  I84  1  0.16833478  0.49929637  0.00132252  1
  I  I85  1  0.16481679  0.50353128  0.32954009  1
  I  I86  1  0.16695581  0.49446080  0.66974251  1
  I  I87  1  0.16564941  0.83104393  0.00251509  1
  I  I88  1  0.16481183  0.82694959  0.32849590  1
  I  I89  1  0.16572481  0.83307251  0.66690995  1
  I  I90  1  0.50496928  0.17249919  0.00054625  1
  I  I91  1  0.50366703  0.16910113  0.32994934  1
  I  I92  1  0.50178357  0.16913587  0.66943399  1
  I  I93  1  0.50139626  0.49739228  0.00342343  1
  I  I94  1  0.49757331  0.49302988  0.33059414  1
  I  I95  1  0.49918570  0.49680221  0.66500258  1
  I  I96  1  0.49977007  0.82868997  0.00012028  1
  I  I97  1  0.49978693  0.83877846  0.33297976  1
  I  I98  1  0.49890969  0.83335584  0.66696507  1
  I  I99  1  0.83288261  0.16650822  -0.00000297  1
  I  I100  1  0.82889255  0.17196804  0.33162315  1
  I  I101  1  0.83335390  0.16187218  0.66822134  1
  I  I102  1  0.82946356  0.49423481  0.00359882  1
  I  I103  1  0.83898417  0.49490262  0.32856194  1
  I  I104  1  0.83346478  0.49931836  0.66672424  1
  I  I105  1  0.83484562  0.84137725  -0.00251977  1
  I  I106  1  0.83510335  0.83417799  0.33317883  1
  I  I107  1  0.83522029  0.83907815  0.67092171  1
  I  I108  1  -0.00284069  0.16934359  0.16507041  1
  I  I109  1  -0.00414288  0.16768514  0.49698527  1
  I  I110  1  -0.00083865  0.16619675  0.83448152  1
  I  I111  1  0.00006152  0.49856872  0.16096258  1
  I  I112  1  -0.00022833  0.49949253  0.49949898  1
  I  I113  1  0.00321991  0.49397198  0.84006342  1
  I  I114  1  0.00274537  0.82960342  0.16399622  1
  I  I115  1  -0.00029232  0.83264491  0.50047028  1
  I  I116  1  -0.00276925  0.84145764  0.83600230  1
  I  I117  1  0.33609003  0.17010884  0.16134097  1
  I  I118  1  0.33362530  0.16736409  0.49937439  1
  I  I119  1  0.33346459  0.17291645  0.84036705  1
  I  I120  1  0.33350819  0.49936885  0.16685677  1
  I  I121  1  0.33653100  0.49643776  0.49308341  1
  I  I122  1  0.32977458  0.49446976  0.83941284  1
  I  I123  1  0.32981206  0.82864455  0.16345509  1
  I  I124  1  0.33336379  0.83557191  0.50168427  1
  I  I125  1  0.33308873  0.83419468  0.83382947  1
  I  I126  1  0.66731826  0.17439230  0.16132971  1
  I  I127  1  0.66972878  0.16868241  0.50493374  1
  I  I128  1  0.66738647  0.16253472  0.83436290  1
  I  I129  1  0.66650566  0.49419420  0.17001955  1
  I  I130  1  0.66342354  0.49767311  0.49611770  1
  I  I131  1  0.66663932  0.49985085  0.83389003  1
  I  I132  1  0.66679715  0.83098173  0.16573599  1
  I  I133  1  0.66699663  0.83407365  0.49846075  1
  I  I134  1  0.67067827  0.83838389  0.83544952  1
