# generated using pymatgen
data_Cs27Sn13Pb14I81
_symmetry_space_group_name_H-M   'P 1'
_cell_length_a   18.98099695
_cell_length_b   18.97630613
_cell_length_c   18.97235760
_cell_angle_alpha   90.00192637
_cell_angle_beta   90.00208845
_cell_angle_gamma   89.99970270
_symmetry_Int_Tables_number   1
_chemical_formula_structural   Cs27Sn13Pb14I81
_chemical_formula_sum   'Cs27 Sn13 Pb14 I81'
_cell_volume   6833.63846353
_cell_formula_units_Z   1
loop_
 _symmetry_equiv_pos_site_id
 _symmetry_equiv_pos_as_xyz
  1  'x, y, z'
loop_
 _atom_site_type_symbol
 _atom_site_label
 _atom_site_symmetry_multiplicity
 _atom_site_fract_x
 _atom_site_fract_y
 _atom_site_fract_z
 _atom_site_occupancy
  Cs  Cs0  1  -0.00099994  0.00148523  0.00155759  1
  Cs  Cs1  1  0.00014640  -0.00061653  0.33384369  1
  Cs  Cs2  1  0.00048634  -0.00256963  0.66370858  1
  Cs  Cs3  1  -0.00626364  0.33499855  0.00094139  1
  Cs  Cs4  1  -0.00142171  0.33147641  0.33671068  1
  Cs  Cs5  1  0.00245027  0.33468986  0.66402384  1
  Cs  Cs6  1  0.00095606  0.66330383  0.00110155  1
  Cs  Cs7  1  0.00374722  0.67146033  0.33204802  1
  Cs  Cs8  1  -0.00207191  0.66592598  0.66712474  1
  Cs  Cs9  1  0.33496601  0.00043190  0.00002528  1
  Cs  Cs10  1  0.33264658  0.00067872  0.33176275  1
  Cs  Cs11  1  0.33426074  0.00043259  0.66878802  1
  Cs  Cs12  1  0.33243066  0.33337413  -0.00209486  1
  Cs  Cs13  1  0.33496409  0.33277781  0.33440746  1
  Cs  Cs14  1  0.33164444  0.33322686  0.66741013  1
  Cs  Cs15  1  0.33021647  0.66367220  0.00208857  1
  Cs  Cs16  1  0.33619141  0.66754152  0.33075968  1
  Cs  Cs17  1  0.33541444  0.66465891  0.66643705  1
  Cs  Cs18  1  0.66641086  0.00016432  -0.00195660  1
  Cs  Cs19  1  0.66693585  0.00007568  0.33099266  1
  Cs  Cs20  1  0.66528220  -0.00736329  0.67425001  1
  Cs  Cs21  1  0.67733494  0.33357088  -0.00090237  1
  Cs  Cs22  1  0.66608223  0.33461971  0.33325828  1
  Cs  Cs23  1  0.66758563  0.33275115  0.66653854  1
  Cs  Cs24  1  0.67094665  0.66593723  -0.00016301  1
  Cs  Cs25  1  0.66018843  0.66718818  0.33421698  1
  Cs  Cs26  1  0.66592942  0.67458994  0.66713066  1
  Sn  Sn27  1  0.16722800  0.16704280  0.16676010  1
  Sn  Sn28  1  0.83290588  0.16682046  0.50025270  1
  Sn  Sn29  1  0.16660343  0.16673227  0.83336864  1
  Sn  Sn30  1  0.50064150  0.83396972  0.16647325  1
  Sn  Sn31  1  0.83385514  0.49985851  0.49997392  1
  Sn  Sn32  1  0.50013636  0.16644340  0.49987289  1
  Sn  Sn33  1  0.16676887  0.83319213  0.83317120  1
  Sn  Sn34  1  0.83252858  0.83344530  0.16691894  1
  Sn  Sn35  1  0.16750916  0.49985524  0.83247342  1
  Sn  Sn36  1  0.16620064  0.49953514  0.50036648  1
  Sn  Sn37  1  0.49978910  0.49951154  0.83350794  1
  Sn  Sn38  1  0.49951295  0.16642553  0.16694924  1
  Sn  Sn39  1  0.16693182  0.16723035  0.49993524  1
  Pb  Pb40  1  0.83300787  0.16550282  0.16877905  1
  Pb  Pb41  1  0.83341019  0.50265232  0.17027775  1
  Pb  Pb42  1  0.83332051  0.83325037  0.49810295  1
  Pb  Pb43  1  0.49772345  0.83094238  0.83615335  1
  Pb  Pb44  1  0.49980541  0.49794393  0.50183193  1
  Pb  Pb45  1  0.16666279  0.49701577  0.16720218  1
  Pb  Pb46  1  0.83596185  0.83334392  0.83595427  1
  Pb  Pb47  1  0.83630313  0.16652041  0.83009307  1
  Pb  Pb48  1  0.16694134  0.83311152  0.50204501  1
  Pb  Pb49  1  0.49852697  0.16834988  0.83378690  1
  Pb  Pb50  1  0.16712280  0.83569393  0.16460522  1
  Pb  Pb51  1  0.50003556  0.49884591  0.16405831  1
  Pb  Pb52  1  0.49969456  0.83641137  0.49790557  1
  Pb  Pb53  1  0.83381307  0.50005766  0.83062784  1
  I  I54  1  0.16751613  0.00394079  0.16793814  1
  I  I55  1  0.16547538  0.00382713  0.50059217  1
  I  I56  1  0.16582247  0.00136240  0.83336180  1
  I  I57  1  0.17264591  0.32872075  0.16362365  1
  I  I58  1  0.16597652  0.33202629  0.50415330  1
  I  I59  1  0.17134579  0.33326095  0.83140019  1
  I  I60  1  0.16681658  0.66675961  0.16631181  1
  I  I61  1  0.16098467  0.66313562  0.50465700  1
  I  I62  1  0.17025992  0.66539864  0.82940789  1
  I  I63  1  0.49899896  0.00128135  0.17072680  1
  I  I64  1  0.49834379  0.00497669  0.49975365  1
  I  I65  1  0.49777346  0.00009433  0.83123113  1
  I  I66  1  0.49408731  0.32951284  0.17077849  1
  I  I67  1  0.49884809  0.32966425  0.49374901  1
  I  I68  1  0.49210329  0.33597594  0.83376288  1
  I  I69  1  0.50383936  0.66919409  0.16474671  1
  I  I70  1  0.50004761  0.66644685  0.49922109  1
  I  I71  1  0.49315424  0.66331568  0.83299376  1
  I  I72  1  0.83327784  -0.00221562  0.16954308  1
  I  I73  1  0.83638994  0.00324358  0.49788981  1
  I  I74  1  0.83513300  0.00005041  0.83032165  1
  I  I75  1  0.83334621  0.33322298  0.16513270  1
  I  I76  1  0.83589906  0.33237972  0.49927863  1
  I  I77  1  0.83402622  0.33327555  0.83787128  1
  I  I78  1  0.82799665  0.67044368  0.16723131  1
  I  I79  1  0.84016835  0.66353510  0.49935589  1
  I  I80  1  0.83567910  0.66658955  0.83129371  1
  I  I81  1  0.17265463  0.16544101  -0.00010553  1
  I  I82  1  0.16715400  0.17031769  0.33434196  1
  I  I83  1  0.16656690  0.16768152  0.66606304  1
  I  I84  1  0.17105522  0.49976498  -0.00319497  1
  I  I85  1  0.16255647  0.49517381  0.33693028  1
  I  I86  1  0.16669378  0.49492969  0.66669973  1
  I  I87  1  0.16668076  0.83255709  -0.00331231  1
  I  I88  1  0.16628861  0.83330844  0.33295881  1
  I  I89  1  0.16646886  0.83817189  0.67008968  1
  I  I90  1  0.49360467  0.16332892  0.00303224  1
  I  I91  1  0.49438433  0.16378331  0.33345468  1
  I  I92  1  0.49822864  0.17023010  0.66398391  1
  I  I93  1  0.49085649  0.49925634  -0.00362871  1
  I  I94  1  0.49944714  0.50209096  0.33345580  1
  I  I95  1  0.49614306  0.49734451  0.66953031  1
  I  I96  1  0.50316439  0.84185977  0.00375439  1
  I  I97  1  0.50185239  0.83317735  0.32966207  1
  I  I98  1  0.49961548  0.83406740  0.66713968  1
  I  I99  1  0.83392312  0.16539824  0.00011656  1
  I  I100  1  0.83866856  0.16932582  0.33678669  1
  I  I101  1  0.83288138  0.17053395  0.66182656  1
  I  I102  1  0.83389256  0.50104502  0.00000038  1
  I  I103  1  0.83948011  0.49429293  0.33797717  1
  I  I104  1  0.83636848  0.49496231  0.66287630  1
  I  I105  1  0.82911278  0.83524217  0.00365347  1
  I  I106  1  0.83130510  0.83418944  0.33028549  1
  I  I107  1  0.83449081  0.83360929  0.66661592  1
  I  I108  1  0.00280539  0.16483176  0.16681988  1
  I  I109  1  0.00133800  0.17056656  0.50022191  1
  I  I110  1  0.00520635  0.16976874  0.83578564  1
  I  I111  1  0.00018165  0.50107644  0.16164615  1
  I  I112  1  0.00149071  0.49094164  0.50579951  1
  I  I113  1  0.00381756  0.49952250  0.83145328  1
  I  I114  1  -0.00163141  0.83473516  0.16585826  1
  I  I115  1  0.00022271  0.83789229  0.49671795  1
  I  I116  1  0.00412888  0.83177028  0.83492886  1
  I  I117  1  0.33310382  0.16109862  0.17130000  1
  I  I118  1  0.33213283  0.17016567  0.49898802  1
  I  I119  1  0.32967301  0.16547991  0.82922795  1
  I  I120  1  0.33327742  0.50511520  0.17059509  1
  I  I121  1  0.33019870  0.49511168  0.50305690  1
  I  I122  1  0.33094611  0.49955818  0.82792461  1
  I  I123  1  0.33586086  0.83646755  0.16524569  1
  I  I124  1  0.33322893  0.83264537  0.49721683  1
  I  I125  1  0.32983486  0.83640441  0.83529228  1
  I  I126  1  0.66366133  0.16450121  0.17185273  1
  I  I127  1  0.66646657  0.17177535  0.49283069  1
  I  I128  1  0.66665408  0.16877926  0.83352295  1
  I  I129  1  0.66664327  0.49565883  0.16548663  1
  I  I130  1  0.66899287  0.49465276  0.50037319  1
  I  I131  1  0.66427429  0.49916415  0.83335359  1
  I  I132  1  0.66566271  0.83993391  0.16768980  1
  I  I133  1  0.66653546  0.83232107  0.50203483  1
  I  I134  1  0.66639739  0.83137134  0.83199892  1
