# generated using pymatgen
data_Cs27Sn13Pb14I81
_symmetry_space_group_name_H-M   'P 1'
_cell_length_a   18.97416373
_cell_length_b   18.98298015
_cell_length_c   18.97359767
_cell_angle_alpha   89.99747567
_cell_angle_beta   90.00076599
_cell_angle_gamma   90.00028097
_symmetry_Int_Tables_number   1
_chemical_formula_structural   Cs27Sn13Pb14I81
_chemical_formula_sum   'Cs27 Sn13 Pb14 I81'
_cell_volume   6834.02753535
_cell_formula_units_Z   1
loop_
 _symmetry_equiv_pos_site_id
 _symmetry_equiv_pos_as_xyz
  1  'x, y, z'
loop_
 _atom_site_type_symbol
 _atom_site_label
 _atom_site_symmetry_multiplicity
 _atom_site_fract_x
 _atom_site_fract_y
 _atom_site_fract_z
 _atom_site_occupancy
  Cs  Cs0  1  -0.00551274  0.00160474  -0.00038743  1
  Cs  Cs1  1  0.00396266  0.00334590  0.33129012  1
  Cs  Cs2  1  0.00133398  0.00119511  0.67007586  1
  Cs  Cs3  1  0.00068627  0.33244528  -0.00257343  1
  Cs  Cs4  1  -0.00198647  0.33054151  0.33684623  1
  Cs  Cs5  1  0.00548063  0.33152440  0.66552674  1
  Cs  Cs6  1  0.00187274  0.66620906  0.00229619  1
  Cs  Cs7  1  -0.00136018  0.66630712  0.33277560  1
  Cs  Cs8  1  -0.00302776  0.66702121  0.66546763  1
  Cs  Cs9  1  0.33473192  -0.00441960  0.00286601  1
  Cs  Cs10  1  0.33257044  -0.00375925  0.33162379  1
  Cs  Cs11  1  0.33343752  0.00096650  0.66541108  1
  Cs  Cs12  1  0.33336039  0.33914291  -0.00005002  1
  Cs  Cs13  1  0.33396761  0.33346460  0.33420497  1
  Cs  Cs14  1  0.33298039  0.33266096  0.66649718  1
  Cs  Cs15  1  0.32977547  0.66593750  0.00444820  1
  Cs  Cs16  1  0.33256775  0.66991120  0.32728765  1
  Cs  Cs17  1  0.33430184  0.66690001  0.66776163  1
  Cs  Cs18  1  0.67163678  0.00549072  -0.00020562  1
  Cs  Cs19  1  0.66350212  0.00086726  0.33227313  1
  Cs  Cs20  1  0.66597456  -0.00370163  0.66795182  1
  Cs  Cs21  1  0.66651103  0.33199205  0.00264751  1
  Cs  Cs22  1  0.66736465  0.33231006  0.33245795  1
  Cs  Cs23  1  0.66357955  0.33632200  0.66510129  1
  Cs  Cs24  1  0.66802014  0.66431599  -0.00187067  1
  Cs  Cs25  1  0.66829200  0.66886004  0.33667215  1
  Cs  Cs26  1  0.66773296  0.66652273  0.66548050  1
  Sn  Sn27  1  0.16781808  0.50127072  0.50005960  1
  Sn  Sn28  1  0.83312922  0.50057611  0.16603942  1
  Sn  Sn29  1  0.83300108  0.49981825  0.83384842  1
  Sn  Sn30  1  0.49938514  0.83302767  0.83325049  1
  Sn  Sn31  1  0.16714128  0.83310122  0.83257064  1
  Sn  Sn32  1  0.83293568  0.83270697  0.16682894  1
  Sn  Sn33  1  0.16667638  0.83224812  0.50077432  1
  Sn  Sn34  1  0.50097791  0.16716677  0.50079085  1
  Sn  Sn35  1  0.16720884  0.16722485  0.16608235  1
  Sn  Sn36  1  0.49979509  0.16691168  0.83273595  1
  Sn  Sn37  1  0.83222277  0.16630606  0.50073191  1
  Sn  Sn38  1  0.49891480  0.49977166  0.50045567  1
  Sn  Sn39  1  0.50056201  0.50009851  0.83270081  1
  Pb  Pb40  1  0.50288786  0.83322357  0.16343424  1
  Pb  Pb41  1  0.83112878  0.16947099  0.83081801  1
  Pb  Pb42  1  0.49822206  0.83312740  0.50165414  1
  Pb  Pb43  1  0.83585089  0.83606614  0.49819258  1
  Pb  Pb44  1  0.83297442  0.49873261  0.50030565  1
  Pb  Pb45  1  0.83324325  0.83136893  0.83475565  1
  Pb  Pb46  1  0.16783104  0.16648532  0.49916747  1
  Pb  Pb47  1  0.16414113  0.49800491  0.16947180  1
  Pb  Pb48  1  0.83469188  0.16718846  0.16840543  1
  Pb  Pb49  1  0.16700974  0.50192414  0.83145538  1
  Pb  Pb50  1  0.50221312  0.50015909  0.16708967  1
  Pb  Pb51  1  0.16478278  0.83466894  0.16631176  1
  Pb  Pb52  1  0.49776500  0.16685349  0.16690203  1
  Pb  Pb53  1  0.16951106  0.16424872  0.83572594  1
  I  I54  1  0.16409326  0.00213328  0.17001309  1
  I  I55  1  0.16590783  -0.00225072  0.50149766  1
  I  I56  1  0.17064426  -0.00365130  0.82685932  1
  I  I57  1  0.16498891  0.33069462  0.16899504  1
  I  I58  1  0.16677912  0.33545249  0.49785103  1
  I  I59  1  0.16631608  0.33345434  0.83274219  1
  I  I60  1  0.16642412  0.66653047  0.16622944  1
  I  I61  1  0.17092569  0.66632942  0.50321980  1
  I  I62  1  0.17203547  0.66976266  0.83250811  1
  I  I63  1  0.50195651  0.00003311  0.16724214  1
  I  I64  1  0.50222774  0.00266728  0.50397291  1
  I  I65  1  0.49477958  0.00009996  0.82919195  1
  I  I66  1  0.50180746  0.33346517  0.16280621  1
  I  I67  1  0.49792344  0.33371827  0.50748697  1
  I  I68  1  0.50498555  0.33396933  0.82891792  1
  I  I69  1  0.49728406  0.66666531  0.16736769  1
  I  I70  1  0.49869177  0.66371268  0.50461167  1
  I  I71  1  0.50103820  0.66578052  0.82898015  1
  I  I72  1  0.83590936  -0.00175173  0.16769964  1
  I  I73  1  0.82834834  0.00365507  0.49763106  1
  I  I74  1  0.83264289  0.00012083  0.83521683  1
  I  I75  1  0.83442210  0.33600972  0.16443226  1
  I  I76  1  0.83447134  0.33103182  0.49762267  1
  I  I77  1  0.82891270  0.33730628  0.83967308  1
  I  I78  1  0.83465569  0.66582935  0.16336165  1
  I  I79  1  0.83198543  0.66664058  0.50029963  1
  I  I80  1  0.82761411  0.66347817  0.83342734  1
  I  I81  1  0.16539654  0.16499193  0.00290788  1
  I  I82  1  0.16656671  0.16477531  0.33162928  1
  I  I83  1  0.16432419  0.16736958  0.66682619  1
  I  I84  1  0.16859523  0.50048779  -0.00007387  1
  I  I85  1  0.17138709  0.50533181  0.33749355  1
  I  I86  1  0.16530969  0.49954730  0.66339211  1
  I  I87  1  0.17047496  0.83505718  -0.00277145  1
  I  I88  1  0.16499671  0.83189162  0.33580895  1
  I  I89  1  0.16975830  0.83086905  0.66660836  1
  I  I90  1  0.49824985  0.16720006  -0.00334150  1
  I  I91  1  0.50270958  0.17208886  0.33683549  1
  I  I92  1  0.50300761  0.16811197  0.66633684  1
  I  I93  1  0.50239757  0.49867634  -0.00348222  1
  I  I94  1  0.49777274  0.49401193  0.33694601  1
  I  I95  1  0.50244558  0.49901341  0.66715937  1
  I  I96  1  0.49236500  0.83257580  -0.00503223  1
  I  I97  1  0.49858437  0.83411830  0.33345652  1
  I  I98  1  0.49934390  0.83330330  0.66999619  1
  I  I99  1  0.83331079  0.16532471  -0.00029764  1
  I  I100  1  0.82843979  0.16940539  0.33622634  1
  I  I101  1  0.83430878  0.16797114  0.66310875  1
  I  I102  1  0.82802778  0.50300161  -0.00059169  1
  I  I103  1  0.83449111  0.50169931  0.33141077  1
  I  I104  1  0.83114046  0.49883714  0.66902402  1
  I  I105  1  0.83531631  0.83264243  0.00263772  1
  I  I106  1  0.83552802  0.82621232  0.33043132  1
  I  I107  1  0.83283112  0.83257551  0.66677411  1
  I  I108  1  0.00227366  0.16596768  0.17083602  1
  I  I109  1  -0.00123131  0.16766044  0.49594837  1
  I  I110  1  0.00002843  0.16630156  0.83239537  1
  I  I111  1  -0.00362124  0.50322800  0.16194165  1
  I  I112  1  0.00202913  0.50103844  0.49955502  1
  I  I113  1  -0.00227745  0.50256814  0.83546757  1
  I  I114  1  -0.00275322  0.83027637  0.16513690  1
  I  I115  1  0.00382033  0.82885161  0.50580405  1
  I  I116  1  0.00247287  0.83153132  0.83092302  1
  I  I117  1  0.33036949  0.16461266  0.16977368  1
  I  I118  1  0.33653019  0.16852991  0.50319627  1
  I  I119  1  0.33752129  0.17218911  0.82592970  1
  I  I120  1  0.33316459  0.49855434  0.16449691  1
  I  I121  1  0.33447478  0.49636674  0.50629089  1
  I  I122  1  0.33662046  0.49765634  0.83011416  1
  I  I123  1  0.33319963  0.83567102  0.16790843  1
  I  I124  1  0.33018914  0.83482486  0.50079816  1
  I  I125  1  0.33391416  0.83226233  0.82935745  1
  I  I126  1  0.66659058  0.16609899  0.16598089  1
  I  I127  1  0.66515604  0.17311315  0.50171506  1
  I  I128  1  0.66285999  0.16118915  0.83310632  1
  I  I129  1  0.67022129  0.50214358  0.16708671  1
  I  I130  1  0.66379793  0.49686859  0.50132306  1
  I  I131  1  0.66522768  0.50232396  0.83116319  1
  I  I132  1  0.67055611  0.83035444  0.16672986  1
  I  I133  1  0.66658942  0.83139329  0.50022863  1
  I  I134  1  0.66364766  0.83471622  0.83508092  1
