# generated using pymatgen
data_Cs27Sn13Pb14I81
_symmetry_space_group_name_H-M   'P 1'
_cell_length_a   18.97167972
_cell_length_b   18.98226036
_cell_length_c   18.97803155
_cell_angle_alpha   90.00026597
_cell_angle_beta   89.99679302
_cell_angle_gamma   89.99833733
_symmetry_Int_Tables_number   1
_chemical_formula_structural   Cs27Sn13Pb14I81
_chemical_formula_sum   'Cs27 Sn13 Pb14 I81'
_cell_volume   6834.47050399
_cell_formula_units_Z   1
loop_
 _symmetry_equiv_pos_site_id
 _symmetry_equiv_pos_as_xyz
  1  'x, y, z'
loop_
 _atom_site_type_symbol
 _atom_site_label
 _atom_site_symmetry_multiplicity
 _atom_site_fract_x
 _atom_site_fract_y
 _atom_site_fract_z
 _atom_site_occupancy
  Cs  Cs0  1  -0.00104749  -0.00124006  0.00003046  1
  Cs  Cs1  1  0.00157312  -0.00287974  0.33137225  1
  Cs  Cs2  1  0.00150302  0.00403357  0.66893189  1
  Cs  Cs3  1  0.00039244  0.33237993  -0.00250543  1
  Cs  Cs4  1  -0.00225365  0.33372400  0.33467200  1
  Cs  Cs5  1  0.00027186  0.33363925  0.66729603  1
  Cs  Cs6  1  -0.00199032  0.66912787  0.00002784  1
  Cs  Cs7  1  0.00008100  0.66812113  0.33304829  1
  Cs  Cs8  1  0.00052156  0.66478893  0.66668438  1
  Cs  Cs9  1  0.33437405  0.00653728  0.00192430  1
  Cs  Cs10  1  0.33509240  -0.00376032  0.33141888  1
  Cs  Cs11  1  0.33655160  -0.00287720  0.66494579  1
  Cs  Cs12  1  0.34003969  0.33292899  0.00723813  1
  Cs  Cs13  1  0.33335019  0.33371740  0.32403653  1
  Cs  Cs14  1  0.32814258  0.33453709  0.66940811  1
  Cs  Cs15  1  0.33677327  0.66167991  0.00241446  1
  Cs  Cs16  1  0.33189132  0.66935705  0.33310951  1
  Cs  Cs17  1  0.33308808  0.66807330  0.66482741  1
  Cs  Cs18  1  0.66696006  -0.00557027  -0.00220290  1
  Cs  Cs19  1  0.66467521  0.00208045  0.33714860  1
  Cs  Cs20  1  0.65819417  -0.00048546  0.66428665  1
  Cs  Cs21  1  0.66360608  0.33419750  0.00037125  1
  Cs  Cs22  1  0.66874503  0.33121215  0.33496267  1
  Cs  Cs23  1  0.66751417  0.33206059  0.66498130  1
  Cs  Cs24  1  0.66615539  0.67065183  -0.00109892  1
  Cs  Cs25  1  0.66873221  0.66637147  0.33332617  1
  Cs  Cs26  1  0.66585180  0.66695437  0.66775506  1
  Sn  Sn27  1  0.16666943  0.83314657  0.83353896  1
  Sn  Sn28  1  0.49961401  0.49947078  0.50015791  1
  Sn  Sn29  1  0.16593641  0.49991817  0.83299749  1
  Sn  Sn30  1  0.83376578  0.83302535  0.50064110  1
  Sn  Sn31  1  0.83366274  0.49933108  0.16622469  1
  Sn  Sn32  1  0.50016336  0.83314416  0.16672240  1
  Sn  Sn33  1  0.16651718  0.16740925  0.50024571  1
  Sn  Sn34  1  0.83343688  0.50088854  0.50029494  1
  Sn  Sn35  1  0.83391976  0.49928398  0.83347843  1
  Sn  Sn36  1  0.16600343  0.16706846  0.83255684  1
  Sn  Sn37  1  0.83352662  0.16739488  0.83399151  1
  Sn  Sn38  1  0.16677558  0.49902374  0.50034483  1
  Sn  Sn39  1  0.83373379  0.16725444  0.16553886  1
  Pb  Pb40  1  0.50318069  0.50143724  0.16923901  1
  Pb  Pb41  1  0.49669646  0.83310320  0.83527508  1
  Pb  Pb42  1  0.50014133  0.49986604  0.83122815  1
  Pb  Pb43  1  0.50005914  0.16698831  0.83306334  1
  Pb  Pb44  1  0.16433258  0.16682250  0.16648018  1
  Pb  Pb45  1  0.16884574  0.83324312  0.16364870  1
  Pb  Pb46  1  0.49604051  0.16967503  0.50004590  1
  Pb  Pb47  1  0.16422066  0.50008176  0.16650251  1
  Pb  Pb48  1  0.83463618  0.83364150  0.83105148  1
  Pb  Pb49  1  0.83224387  0.83362781  0.16861888  1
  Pb  Pb50  1  0.50219064  0.83102192  0.49861595  1
  Pb  Pb51  1  0.50355023  0.16454517  0.16674800  1
  Pb  Pb52  1  0.83495358  0.16695023  0.50066384  1
  Pb  Pb53  1  0.16493688  0.83317834  0.50162524  1
  I  I54  1  0.16371235  0.00012259  0.16779245  1
  I  I55  1  0.16242590  0.00247176  0.50458336  1
  I  I56  1  0.16199340  0.00140622  0.82982781  1
  I  I57  1  0.16963110  0.33350608  0.16424192  1
  I  I58  1  0.16370858  0.33484881  0.50817177  1
  I  I59  1  0.16058746  0.33380613  0.82667105  1
  I  I60  1  0.16394766  0.66650175  0.16701015  1
  I  I61  1  0.16724165  0.66316579  0.50427034  1
  I  I62  1  0.16238231  0.66491059  0.82905012  1
  I  I63  1  0.50123273  -0.00295218  0.16756947  1
  I  I64  1  0.50154311  -0.00004401  0.49866725  1
  I  I65  1  0.50124432  -0.00001694  0.83325661  1
  I  I66  1  0.49859216  0.33349725  0.16721703  1
  I  I67  1  0.50842097  0.33747196  0.49980326  1
  I  I68  1  0.49651428  0.33357623  0.83396599  1
  I  I69  1  0.50228274  0.66888632  0.16692447  1
  I  I70  1  0.49606987  0.66313888  0.49955789  1
  I  I71  1  0.50050290  0.66642385  0.83374110  1
  I  I72  1  0.83260162  0.00278501  0.16331344  1
  I  I73  1  0.83610785  -0.00164067  0.49870922  1
  I  I74  1  0.83876237  0.00295575  0.83725965  1
  I  I75  1  0.83392968  0.33432391  0.16883219  1
  I  I76  1  0.83197626  0.33666423  0.49920634  1
  I  I77  1  0.84064779  0.33438568  0.83203673  1
  I  I78  1  0.83208917  0.66373142  0.16533570  1
  I  I79  1  0.83534425  0.66382628  0.49917435  1
  I  I80  1  0.83755028  0.66344023  0.83497537  1
  I  I81  1  0.16433691  0.16684214  -0.00373296  1
  I  I82  1  0.16451339  0.17218526  0.33625841  1
  I  I83  1  0.15987056  0.16839821  0.66781854  1
  I  I84  1  0.16195888  0.49976746  -0.00377671  1
  I  I85  1  0.16552970  0.49583432  0.33690687  1
  I  I86  1  0.16208020  0.49936812  0.66658983  1
  I  I87  1  0.16393011  0.83319012  -0.00457209  1
  I  I88  1  0.16637264  0.83363235  0.33355136  1
  I  I89  1  0.16501766  0.83281605  0.66957630  1
  I  I90  1  0.49506571  0.16729404  0.00005560  1
  I  I91  1  0.50091762  0.16655797  0.33345215  1
  I  I92  1  0.50648876  0.16470785  0.66638154  1
  I  I93  1  0.49927105  0.50129005  0.00029105  1
  I  I94  1  0.49899718  0.50103527  0.33707611  1
  I  I95  1  0.50483985  0.50166234  0.66326642  1
  I  I96  1  0.50333311  0.83190814  0.00285850  1
  I  I97  1  0.50102583  0.83235132  0.33097716  1
  I  I98  1  0.50064634  0.83310103  0.66650906  1
  I  I99  1  0.83919264  0.17374963  -0.00112765  1
  I  I100  1  0.83442267  0.16983539  0.33174344  1
  I  I101  1  0.83692235  0.17018011  0.66963650  1
  I  I102  1  0.83859155  0.49597069  -0.00100064  1
  I  I103  1  0.83314812  0.50000693  0.33427372  1
  I  I104  1  0.83436772  0.50014784  0.66654456  1
  I  I105  1  0.83279909  0.83092214  -0.00022669  1
  I  I106  1  0.83377104  0.82846686  0.33639403  1
  I  I107  1  0.83425905  0.82741947  0.66344982  1
  I  I108  1  -0.00369653  0.16990652  0.16559691  1
  I  I109  1  0.00280654  0.17234091  0.50195870  1
  I  I110  1  0.00015228  0.16795898  0.83318667  1
  I  I111  1  -0.00409068  0.49791801  0.17150414  1
  I  I112  1  -0.00037956  0.50005301  0.50093377  1
  I  I113  1  -0.00034144  0.49936688  0.82862253  1
  I  I114  1  -0.00027029  0.83333150  0.16757667  1
  I  I115  1  -0.00284759  0.82645182  0.49850925  1
  I  I116  1  0.00267268  0.83277910  0.83270350  1
  I  I117  1  0.33339137  0.16523231  0.16632608  1
  I  I118  1  0.32794942  0.16973078  0.50764264  1
  I  I119  1  0.32918996  0.16696146  0.82866683  1
  I  I120  1  0.33352917  0.50157021  0.16656619  1
  I  I121  1  0.33174262  0.49624675  0.50607289  1
  I  I122  1  0.32953130  0.50012483  0.82825403  1
  I  I123  1  0.33647681  0.83232065  0.16840690  1
  I  I124  1  0.33314588  0.83267119  0.49970553  1
  I  I125  1  0.32849061  0.83284447  0.83110546  1
  I  I126  1  0.67159198  0.17181763  0.16226112  1
  I  I127  1  0.66685100  0.16639500  0.49971144  1
  I  I128  1  0.67060526  0.17188602  0.83721739  1
  I  I129  1  0.67136529  0.49692443  0.16644205  1
  I  I130  1  0.66851038  0.50536392  0.49942066  1
  I  I131  1  0.67059861  0.49590350  0.83242518  1
  I  I132  1  0.66470054  0.83232128  0.16758494  1
  I  I133  1  0.67028873  0.82858773  0.50032556  1
  I  I134  1  0.66678083  0.83325454  0.83298307  1
