# generated using pymatgen
data_Cs27Sn14Pb13I81
_symmetry_space_group_name_H-M   'P 1'
_cell_length_a   18.96578418
_cell_length_b   18.98625936
_cell_length_c   18.97689454
_cell_angle_alpha   89.99950005
_cell_angle_beta   90.00115673
_cell_angle_gamma   90.00212849
_symmetry_Int_Tables_number   1
_chemical_formula_structural   Cs27Sn14Pb13I81
_chemical_formula_sum   'Cs27 Sn14 Pb13 I81'
_cell_volume   6833.37661529
_cell_formula_units_Z   1
loop_
 _symmetry_equiv_pos_site_id
 _symmetry_equiv_pos_as_xyz
  1  'x, y, z'
loop_
 _atom_site_type_symbol
 _atom_site_label
 _atom_site_symmetry_multiplicity
 _atom_site_fract_x
 _atom_site_fract_y
 _atom_site_fract_z
 _atom_site_occupancy
  Cs  Cs0  1  0.00030712  0.00150159  -0.00059593  1
  Cs  Cs1  1  -0.00157649  -0.00150870  0.33521470  1
  Cs  Cs2  1  -0.00017347  -0.00140783  0.66676284  1
  Cs  Cs3  1  0.00793550  0.33189950  0.00201690  1
  Cs  Cs4  1  -0.00333083  0.34222298  0.33454566  1
  Cs  Cs5  1  -0.00167152  0.33425437  0.66366500  1
  Cs  Cs6  1  0.00010889  0.66439872  0.00391107  1
  Cs  Cs7  1  0.00203138  0.65922429  0.33039898  1
  Cs  Cs8  1  0.00907805  0.66958809  0.66502561  1
  Cs  Cs9  1  0.32983208  0.00392578  0.00537103  1
  Cs  Cs10  1  0.33357922  0.00087711  0.33149671  1
  Cs  Cs11  1  0.33230831  -0.00111046  0.66510654  1
  Cs  Cs12  1  0.32713353  0.33083053  0.00335760  1
  Cs  Cs13  1  0.33343998  0.33022919  0.32963117  1
  Cs  Cs14  1  0.33658977  0.33268796  0.66765670  1
  Cs  Cs15  1  0.33341240  0.66521672  -0.00160340  1
  Cs  Cs16  1  0.33262165  0.66798360  0.33678678  1
  Cs  Cs17  1  0.33193440  0.66857161  0.66511388  1
  Cs  Cs18  1  0.66757337  -0.00096344  0.00068487  1
  Cs  Cs19  1  0.66649148  -0.00113544  0.33170007  1
  Cs  Cs20  1  0.66684363  0.00038476  0.66759770  1
  Cs  Cs21  1  0.66589780  0.33271001  -0.00439587  1
  Cs  Cs22  1  0.66847541  0.33350908  0.33662357  1
  Cs  Cs23  1  0.66597323  0.33217104  0.66727752  1
  Cs  Cs24  1  0.66723353  0.66819163  -0.00115399  1
  Cs  Cs25  1  0.66758193  0.66814690  0.32919586  1
  Cs  Cs26  1  0.66402341  0.66820015  0.67032434  1
  Sn  Sn27  1  0.16670897  0.83341721  0.16666027  1
  Sn  Sn28  1  0.50110776  0.83355621  0.50063363  1
  Sn  Sn29  1  0.83262580  0.16679599  0.83429503  1
  Sn  Sn30  1  0.50051111  0.49988294  0.16636038  1
  Sn  Sn31  1  0.50044791  0.16623028  0.83295000  1
  Sn  Sn32  1  0.83274635  0.83307275  0.83237115  1
  Sn  Sn33  1  0.49925692  0.16635542  0.50069327  1
  Sn  Sn34  1  0.50037264  0.83388966  0.83292933  1
  Sn  Sn35  1  0.83298445  0.50012191  0.83300271  1
  Sn  Sn36  1  0.83279304  0.16679031  0.16591558  1
  Sn  Sn37  1  0.83250705  0.83287807  0.50067722  1
  Sn  Sn38  1  0.50042802  0.49986390  0.83345721  1
  Sn  Sn39  1  0.16718908  0.16676531  0.50023336  1
  Sn  Sn40  1  0.50041632  0.50009553  0.49994611  1
  Pb  Pb41  1  0.16664708  0.16651916  0.83114251  1
  Pb  Pb42  1  0.16365477  0.16534271  0.16959246  1
  Pb  Pb43  1  0.83255626  0.16511957  0.50075545  1
  Pb  Pb44  1  0.16690687  0.83487250  0.49838278  1
  Pb  Pb45  1  0.83077952  0.50334084  0.50283263  1
  Pb  Pb46  1  0.83493468  0.83458539  0.16625023  1
  Pb  Pb47  1  0.16943624  0.50214235  0.16669690  1
  Pb  Pb48  1  0.16958093  0.49710349  0.50019966  1
  Pb  Pb49  1  0.83100487  0.49750238  0.16387990  1
  Pb  Pb50  1  0.50173675  0.16860296  0.16654845  1
  Pb  Pb51  1  0.16687322  0.83354719  0.83530050  1
  Pb  Pb52  1  0.49866806  0.83156941  0.16631838  1
  Pb  Pb53  1  0.16689454  0.49994006  0.83310326  1
  I  I54  1  0.16922875  -0.00211219  0.16644086  1
  I  I55  1  0.17327752  0.00243739  0.49938876  1
  I  I56  1  0.16675303  0.00003555  0.83392904  1
  I  I57  1  0.16656586  0.33329311  0.16712986  1
  I  I58  1  0.17037278  0.32927668  0.49992312  1
  I  I59  1  0.16710585  0.33314592  0.83404292  1
  I  I60  1  0.16463877  0.66961623  0.16798049  1
  I  I61  1  0.16695360  0.66668706  0.49842164  1
  I  I62  1  0.16756433  0.66683289  0.83327179  1
  I  I63  1  0.49916742  0.00008162  0.16703593  1
  I  I64  1  0.49966128  -0.00011217  0.50645126  1
  I  I65  1  0.50624993  0.00009236  0.82582983  1
  I  I66  1  0.50109989  0.33642284  0.16652432  1
  I  I67  1  0.49505789  0.33298665  0.50298022  1
  I  I68  1  0.50609517  0.33307515  0.82957410  1
  I  I69  1  0.49942704  0.66370866  0.16609951  1
  I  I70  1  0.50453243  0.66718422  0.50269803  1
  I  I71  1  0.50535703  0.66679705  0.83129139  1
  I  I72  1  0.83243162  0.00236825  0.16116718  1
  I  I73  1  0.82843854  -0.00266868  0.50456450  1
  I  I74  1  0.82749191  -0.00006628  0.83347253  1
  I  I75  1  0.83286618  0.32976256  0.16350149  1
  I  I76  1  0.83415762  0.33356842  0.49951771  1
  I  I77  1  0.82549894  0.33285435  0.83790312  1
  I  I78  1  0.83476786  0.66638650  0.16661852  1
  I  I79  1  0.82845003  0.67122762  0.50344947  1
  I  I80  1  0.82534977  0.66725691  0.82927844  1
  I  I81  1  0.16895894  0.16598060  0.00017285  1
  I  I82  1  0.17428375  0.16423820  0.33689726  1
  I  I83  1  0.16776236  0.16437749  0.66351032  1
  I  I84  1  0.16968698  0.49989622  0.00002274  1
  I  I85  1  0.16766180  0.50030141  0.33349558  1
  I  I86  1  0.16803945  0.50160079  0.66646035  1
  I  I87  1  0.16728587  0.83415034  0.00274177  1
  I  I88  1  0.16752869  0.83564097  0.33103558  1
  I  I89  1  0.16627892  0.83412905  0.66655784  1
  I  I90  1  0.50300194  0.16597291  -0.00336421  1
  I  I91  1  0.49813255  0.16661941  0.33635889  1
  I  I92  1  0.50181426  0.17025495  0.66702793  1
  I  I93  1  0.50402934  0.50132433  -0.00172343  1
  I  I94  1  0.49805694  0.50017470  0.33433035  1
  I  I95  1  0.50349695  0.49927694  0.66723356  1
  I  I96  1  0.50377963  0.83296312  -0.00355806  1
  I  I97  1  0.50255049  0.83339562  0.33654128  1
  I  I98  1  0.50278173  0.83024554  0.66678806  1
  I  I99  1  0.82713613  0.16360549  -0.00240907  1
  I  I100  1  0.83298259  0.16277441  0.33206315  1
  I  I101  1  0.83188869  0.16819300  0.66996984  1
  I  I102  1  0.82588620  0.50623891  -0.00413110  1
  I  I103  1  0.83181396  0.49925702  0.33351587  1
  I  I104  1  0.82678923  0.49259493  0.67072293  1
  I  I105  1  0.82915474  0.83215843  -0.00371819  1
  I  I106  1  0.82919527  0.83794149  0.33596652  1
  I  I107  1  0.82905270  0.83679276  0.66779578  1
  I  I108  1  -0.00388555  0.16506091  0.15992850  1
  I  I109  1  0.00130880  0.16181475  0.49992966  1
  I  I110  1  -0.00360704  0.16605041  0.83576933  1
  I  I111  1  -0.00032292  0.49983755  0.16547708  1
  I  I112  1  -0.00040348  0.49955541  0.50070833  1
  I  I113  1  -0.00357686  0.50008760  0.83407870  1
  I  I114  1  0.00243565  0.83582227  0.16721166  1
  I  I115  1  -0.00272606  0.83781319  0.50440807  1
  I  I116  1  -0.00367830  0.83401206  0.82936874  1
  I  I117  1  0.33344527  0.16743345  0.16444427  1
  I  I118  1  0.33623630  0.16465840  0.50488406  1
  I  I119  1  0.33711348  0.16696742  0.83113810  1
  I  I120  1  0.33758228  0.49840321  0.16331185  1
  I  I121  1  0.33847701  0.50665699  0.50401808  1
  I  I122  1  0.33808759  0.50038991  0.83294412  1
  I  I123  1  0.33113471  0.83333239  0.16735788  1
  I  I124  1  0.33708125  0.83101739  0.50350542  1
  I  I125  1  0.33728672  0.83222256  0.82914824  1
  I  I126  1  0.66937956  0.16470551  0.16660992  1
  I  I127  1  0.66324396  0.16871579  0.50139735  1
  I  I128  1  0.66589403  0.16681562  0.83099170  1
  I  I129  1  0.66311004  0.50213667  0.16918101  1
  I  I130  1  0.66235924  0.49287690  0.49852543  1
  I  I131  1  0.66517118  0.49983919  0.83305693  1
  I  I132  1  0.66665081  0.83321607  0.16754608  1
  I  I133  1  0.66512904  0.83637420  0.50325629  1
  I  I134  1  0.66605916  0.83344322  0.83016853  1
