# generated using pymatgen
data_Cs27Sn14Pb13I81
_symmetry_space_group_name_H-M   'P 1'
_cell_length_a   18.97020961
_cell_length_b   18.97526316
_cell_length_c   18.98013346
_cell_angle_alpha   89.99895259
_cell_angle_beta   90.00105145
_cell_angle_gamma   90.00149196
_symmetry_Int_Tables_number   1
_chemical_formula_structural   Cs27Sn14Pb13I81
_chemical_formula_sum   'Cs27 Sn14 Pb13 I81'
_cell_volume   6832.17841525
_cell_formula_units_Z   1
loop_
 _symmetry_equiv_pos_site_id
 _symmetry_equiv_pos_as_xyz
  1  'x, y, z'
loop_
 _atom_site_type_symbol
 _atom_site_label
 _atom_site_symmetry_multiplicity
 _atom_site_fract_x
 _atom_site_fract_y
 _atom_site_fract_z
 _atom_site_occupancy
  Cs  Cs0  1  -0.00112322  -0.00008302  -0.00137143  1
  Cs  Cs1  1  0.00057454  0.00218541  0.33585523  1
  Cs  Cs2  1  -0.00010318  0.00406275  0.66715397  1
  Cs  Cs3  1  -0.00198657  0.33420414  0.00057549  1
  Cs  Cs4  1  0.00139328  0.33327409  0.33450608  1
  Cs  Cs5  1  -0.00124942  0.33280713  0.66513517  1
  Cs  Cs6  1  0.00086027  0.66648415  0.00086003  1
  Cs  Cs7  1  0.00031529  0.66533158  0.33117753  1
  Cs  Cs8  1  0.00504396  0.66255008  0.66934456  1
  Cs  Cs9  1  0.33494826  0.00030987  0.00114978  1
  Cs  Cs10  1  0.33010119  0.00237018  0.33201412  1
  Cs  Cs11  1  0.33368542  -0.00100104  0.66636656  1
  Cs  Cs12  1  0.34484486  0.33015492  0.00052410  1
  Cs  Cs13  1  0.33274173  0.33020987  0.32906508  1
  Cs  Cs14  1  0.33911485  0.33429882  0.67029350  1
  Cs  Cs15  1  0.33007587  0.66787928  -0.00117009  1
  Cs  Cs16  1  0.33343932  0.66729881  0.33462893  1
  Cs  Cs17  1  0.33093094  0.66547079  0.66617548  1
  Cs  Cs18  1  0.66682258  -0.00050229  -0.00110294  1
  Cs  Cs19  1  0.67049004  -0.00685369  0.34035992  1
  Cs  Cs20  1  0.66572149  -0.00011871  0.66443430  1
  Cs  Cs21  1  0.66442063  0.33191799  -0.00044543  1
  Cs  Cs22  1  0.66502863  0.33668567  0.33109882  1
  Cs  Cs23  1  0.66613157  0.33247228  0.66828339  1
  Cs  Cs24  1  0.66942652  0.66926607  0.00241713  1
  Cs  Cs25  1  0.66405102  0.66971061  0.33571967  1
  Cs  Cs26  1  0.66420898  0.66808676  0.66235613  1
  Sn  Sn27  1  0.50068941  0.83296830  0.83392520  1
  Sn  Sn28  1  0.16643856  0.16714230  0.83383231  1
  Sn  Sn29  1  0.16626431  0.50032898  0.16697976  1
  Sn  Sn30  1  0.49911174  0.83321273  0.16606778  1
  Sn  Sn31  1  0.16617703  0.83297371  0.49924200  1
  Sn  Sn32  1  0.83341415  0.50011117  0.83345550  1
  Sn  Sn33  1  0.50001700  0.16684104  0.49953571  1
  Sn  Sn34  1  0.83388026  0.50021568  0.49976990  1
  Sn  Sn35  1  0.83269875  0.83316727  0.83311785  1
  Sn  Sn36  1  0.83416059  0.16677637  0.83416250  1
  Sn  Sn37  1  0.16601453  0.50051638  0.49911575  1
  Sn  Sn38  1  0.16714411  0.83289607  0.16746045  1
  Sn  Sn39  1  0.83348773  0.16708000  0.16640994  1
  Sn  Sn40  1  0.83403821  0.49922909  0.16679278  1
  Pb  Pb41  1  0.50094398  0.16443965  0.83218785  1
  Pb  Pb42  1  0.83402020  0.83316958  0.16535399  1
  Pb  Pb43  1  0.16828574  0.16773690  0.50202433  1
  Pb  Pb44  1  0.83182266  0.16907984  0.49998958  1
  Pb  Pb45  1  0.49737974  0.83466231  0.49997347  1
  Pb  Pb46  1  0.16639238  0.83483391  0.83370874  1
  Pb  Pb47  1  0.50311134  0.50318278  0.83350778  1
  Pb  Pb48  1  0.16516327  0.49732395  0.83414378  1
  Pb  Pb49  1  0.49912539  0.49797699  0.49974086  1
  Pb  Pb50  1  0.16484432  0.16709989  0.16452658  1
  Pb  Pb51  1  0.50352914  0.16359515  0.16898353  1
  Pb  Pb52  1  0.49980385  0.50245071  0.16663033  1
  Pb  Pb53  1  0.83630935  0.83064196  0.50305166  1
  I  I54  1  0.16894253  -0.00270335  0.16929127  1
  I  I55  1  0.16968757  -0.00215115  0.49738480  1
  I  I56  1  0.16030327  0.00243340  0.83252761  1
  I  I57  1  0.16237448  0.33638550  0.17132145  1
  I  I58  1  0.16267348  0.33679359  0.49650198  1
  I  I59  1  0.15981801  0.32993046  0.83150717  1
  I  I60  1  0.16407428  0.66654839  0.16949472  1
  I  I61  1  0.16348742  0.66615018  0.49781801  1
  I  I62  1  0.16620732  0.66642485  0.83249328  1
  I  I63  1  0.49441463  -0.00390511  0.16223827  1
  I  I64  1  0.49983453  0.00214860  0.50099600  1
  I  I65  1  0.50541697  -0.00321567  0.83615192  1
  I  I66  1  0.49752232  0.33306405  0.16776093  1
  I  I67  1  0.49923468  0.33050477  0.50247381  1
  I  I68  1  0.49932158  0.33314002  0.83132011  1
  I  I69  1  0.50181293  0.67041689  0.16382819  1
  I  I70  1  0.50217686  0.66677208  0.50040786  1
  I  I71  1  0.50354321  0.67117446  0.83566291  1
  I  I72  1  0.83266383  0.00199796  0.16029157  1
  I  I73  1  0.83325186  -0.00016300  0.49998924  1
  I  I74  1  0.83364980  0.00043628  0.83909336  1
  I  I75  1  0.83871693  0.33465669  0.16220567  1
  I  I76  1  0.83963483  0.33704278  0.50424590  1
  I  I77  1  0.83940400  0.33331504  0.83345595  1
  I  I78  1  0.83426676  0.66386034  0.16509372  1
  I  I79  1  0.83285550  0.66260466  0.49802065  1
  I  I80  1  0.82874052  0.66629315  0.83411423  1
  I  I81  1  0.16383821  0.16483829  -0.00315259  1
  I  I82  1  0.16636631  0.16539290  0.33313090  1
  I  I83  1  0.15994956  0.16497321  0.66968810  1
  I  I84  1  0.16091280  0.50567666  0.00313991  1
  I  I85  1  0.15772355  0.50417757  0.33309267  1
  I  I86  1  0.16206950  0.50406714  0.66423868  1
  I  I87  1  0.16721777  0.82950857  0.00265917  1
  I  I88  1  0.17252222  0.83027839  0.33239916  1
  I  I89  1  0.16626635  0.82992809  0.66473270  1
  I  I90  1  0.49843151  0.16695838  0.00023561  1
  I  I91  1  0.49930007  0.16563642  0.33599163  1
  I  I92  1  0.50123619  0.16421485  0.66469274  1
  I  I93  1  0.49871823  0.49674864  0.00002973  1
  I  I94  1  0.50689017  0.50213963  0.33320628  1
  I  I95  1  0.49961653  0.50181021  0.66667048  1
  I  I96  1  0.49824341  0.83413800  0.00000052  1
  I  I97  1  0.49863220  0.83475265  0.33084169  1
  I  I98  1  0.50386954  0.83570536  0.66900657  1
  I  I99  1  0.83675029  0.17102538  -0.00114279  1
  I  I100  1  0.83149515  0.17060347  0.33076546  1
  I  I101  1  0.83534437  0.16707141  0.66966534  1
  I  I102  1  0.83746926  0.49983786  0.00025836  1
  I  I103  1  0.83755679  0.49426418  0.33255950  1
  I  I104  1  0.83746031  0.50027484  0.66689593  1
  I  I105  1  0.83438446  0.82972794  -0.00284800  1
  I  I106  1  0.82982283  0.83453120  0.33352593  1
  I  I107  1  0.82803698  0.83545146  0.67108623  1
  I  I108  1  -0.00329114  0.16558433  0.16508062  1
  I  I109  1  -0.00005668  0.16449707  0.49987622  1
  I  I110  1  -0.00215403  0.16306391  0.83500558  1
  I  I111  1  -0.00060001  0.50308151  0.16700648  1
  I  I112  1  -0.00007793  0.50319912  0.50005236  1
  I  I113  1  -0.00350913  0.50538837  0.83346783  1
  I  I114  1  0.00276782  0.83178078  0.16836011  1
  I  I115  1  0.00388821  0.83391588  0.49417135  1
  I  I116  1  -0.00281883  0.83206037  0.83366946  1
  I  I117  1  0.33345512  0.16913666  0.16502043  1
  I  I118  1  0.33567481  0.16661243  0.50323069  1
  I  I119  1  0.33154554  0.16446611  0.83064187  1
  I  I120  1  0.32981452  0.50228673  0.17282967  1
  I  I121  1  0.32947742  0.50326080  0.49542165  1
  I  I122  1  0.33320488  0.49876563  0.83209841  1
  I  I123  1  0.33224835  0.82818442  0.16395446  1
  I  I124  1  0.32973135  0.82725875  0.50211165  1
  I  I125  1  0.33515919  0.83738839  0.83400128  1
  I  I126  1  0.67110969  0.17295283  0.15894009  1
  I  I127  1  0.66440516  0.16622840  0.50219779  1
  I  I128  1  0.67024840  0.16885484  0.83571956  1
  I  I129  1  0.67028449  0.49713566  0.16617184  1
  I  I130  1  0.66974169  0.49761620  0.50060114  1
  I  I131  1  0.67191326  0.49339692  0.83344812  1
  I  I132  1  0.66512921  0.83420473  0.16315235  1
  I  I133  1  0.66690488  0.83296521  0.49811152  1
  I  I134  1  0.66747251  0.83490019  0.83950191  1
