# generated using pymatgen
data_Cs27Sn13Pb14I81
_symmetry_space_group_name_H-M   'P 1'
_cell_length_a   18.98477391
_cell_length_b   18.99759749
_cell_length_c   18.99365985
_cell_angle_alpha   90.00018140
_cell_angle_beta   90.00133813
_cell_angle_gamma   90.00094233
_symmetry_Int_Tables_number   1
_chemical_formula_structural   Cs27Sn13Pb14I81
_chemical_formula_sum   'Cs27 Sn13 Pb14 I81'
_cell_volume   6850.35009433
_cell_formula_units_Z   1
loop_
 _symmetry_equiv_pos_site_id
 _symmetry_equiv_pos_as_xyz
  1  'x, y, z'
loop_
 _atom_site_type_symbol
 _atom_site_label
 _atom_site_symmetry_multiplicity
 _atom_site_fract_x
 _atom_site_fract_y
 _atom_site_fract_z
 _atom_site_occupancy
  Cs  Cs0  1  0.00174427  0.00179708  -0.00177543  1
  Cs  Cs1  1  0.00313828  -0.00147113  0.33608439  1
  Cs  Cs2  1  0.00191420  -0.00062871  0.66639939  1
  Cs  Cs3  1  0.00523755  0.33139405  -0.00837943  1
  Cs  Cs4  1  -0.00137458  0.33414986  0.33163976  1
  Cs  Cs5  1  0.00225936  0.33183431  0.67867216  1
  Cs  Cs6  1  0.00111919  0.66613021  0.00067248  1
  Cs  Cs7  1  0.00240895  0.66735480  0.33626524  1
  Cs  Cs8  1  0.00085144  0.66872315  0.66296155  1
  Cs  Cs9  1  0.33695450  -0.00250312  0.00031909  1
  Cs  Cs10  1  0.32886088  0.00258684  0.33534616  1
  Cs  Cs11  1  0.33582393  0.00227042  0.66646440  1
  Cs  Cs12  1  0.32645064  0.33385403  -0.00067870  1
  Cs  Cs13  1  0.32716596  0.33276894  0.34266937  1
  Cs  Cs14  1  0.32895058  0.34109882  0.65632690  1
  Cs  Cs15  1  0.33380835  0.66802048  0.00008830  1
  Cs  Cs16  1  0.32539793  0.66553283  0.33323356  1
  Cs  Cs17  1  0.33516834  0.65907605  0.66697985  1
  Cs  Cs18  1  0.66498875  -0.00054791  0.00134781  1
  Cs  Cs19  1  0.66698629  0.00136127  0.33207262  1
  Cs  Cs20  1  0.66620946  -0.00167136  0.66677046  1
  Cs  Cs21  1  0.66829424  0.33255092  0.00222608  1
  Cs  Cs22  1  0.66742968  0.33252412  0.33200381  1
  Cs  Cs23  1  0.66654379  0.33716109  0.66602007  1
  Cs  Cs24  1  0.66622643  0.66763812  0.00155564  1
  Cs  Cs25  1  0.66888221  0.66635072  0.33028031  1
  Cs  Cs26  1  0.66600418  0.66693820  0.66741506  1
  Sn  Sn27  1  0.50029766  0.49952836  0.16659384  1
  Sn  Sn28  1  0.83272972  0.16776589  0.49956337  1
  Sn  Sn29  1  0.50023766  0.83400958  0.83320492  1
  Sn  Sn30  1  0.83297079  0.16655981  0.16721514  1
  Sn  Sn31  1  0.50023300  0.16683829  0.83364047  1
  Sn  Sn32  1  0.83275877  0.49978014  0.16718415  1
  Sn  Sn33  1  0.83314278  0.83347098  0.83431425  1
  Sn  Sn34  1  0.50024032  0.16707249  0.16602861  1
  Sn  Sn35  1  0.50061325  0.83333939  0.16740248  1
  Sn  Sn36  1  0.83286876  0.83362187  0.16593770  1
  Sn  Sn37  1  0.16709832  0.83346167  0.83353980  1
  Sn  Sn38  1  0.50031508  0.83323625  0.49925697  1
  Sn  Sn39  1  0.83271359  0.49857356  0.49935725  1
  Pb  Pb40  1  0.83181000  0.83349702  0.49944496  1
  Pb  Pb41  1  0.50189915  0.16521411  0.49969684  1
  Pb  Pb42  1  0.16686703  0.50280738  0.83354021  1
  Pb  Pb43  1  0.16276857  0.16654820  0.50010479  1
  Pb  Pb44  1  0.16677411  0.16651282  0.16665327  1
  Pb  Pb45  1  0.17033404  0.83342138  0.50295584  1
  Pb  Pb46  1  0.50019045  0.49941633  0.83587691  1
  Pb  Pb47  1  0.16614013  0.49997565  0.16663529  1
  Pb  Pb48  1  0.16257214  0.49999849  0.49980878  1
  Pb  Pb49  1  0.17083468  0.16432670  0.83339005  1
  Pb  Pb50  1  0.83107355  0.16430197  0.83372189  1
  Pb  Pb51  1  0.83306158  0.50266288  0.83404591  1
  Pb  Pb52  1  0.16660050  0.83352251  0.16487249  1
  Pb  Pb53  1  0.50235600  0.50244267  0.49680695  1
  I  I54  1  0.16586663  -0.00009435  0.16617599  1
  I  I55  1  0.16342680  -0.00035912  0.49944244  1
  I  I56  1  0.16364789  -0.00358785  0.83427707  1
  I  I57  1  0.16712913  0.33328706  0.16519961  1
  I  I58  1  0.17317064  0.33339863  0.50069992  1
  I  I59  1  0.16624411  0.33297930  0.83369759  1
  I  I60  1  0.16710962  0.66684809  0.16482794  1
  I  I61  1  0.16414154  0.66692813  0.50069541  1
  I  I62  1  0.16979286  0.67118524  0.83452800  1
  I  I63  1  0.50645463  -0.00075834  0.16448328  1
  I  I64  1  0.50406700  -0.00277842  0.49717643  1
  I  I65  1  0.50037261  -0.00198062  0.83851663  1
  I  I66  1  0.50871432  0.33261211  0.16021176  1
  I  I67  1  0.49882371  0.33351522  0.50190031  1
  I  I68  1  0.50302561  0.33004556  0.83915500  1
  I  I69  1  0.50666613  0.66793836  0.16582986  1
  I  I70  1  0.50339291  0.67027413  0.50331677  1
  I  I71  1  0.49982750  0.67041569  0.83387424  1
  I  I72  1  0.82685808  -0.00022826  0.16673277  1
  I  I73  1  0.83096701  0.00199997  0.49662735  1
  I  I74  1  0.83395892  -0.00390125  0.83640145  1
  I  I75  1  0.82533989  0.33308063  0.17327582  1
  I  I76  1  0.83144215  0.33319323  0.48992484  1
  I  I77  1  0.83225825  0.33309452  0.83478333  1
  I  I78  1  0.82699128  0.66718092  0.16623412  1
  I  I79  1  0.83138898  0.66487291  0.49691825  1
  I  I80  1  0.82957056  0.67122762  0.83678555  1
  I  I81  1  0.16089662  0.16691114  -0.00021062  1
  I  I82  1  0.17255878  0.16517936  0.33339078  1
  I  I83  1  0.16585559  0.16451363  0.66690078  1
  I  I84  1  0.16384340  0.50009642  0.00012933  1
  I  I85  1  0.17006276  0.50229748  0.33329338  1
  I  I86  1  0.16632876  0.50115361  0.66651557  1
  I  I87  1  0.17102521  0.83361339  -0.00289485  1
  I  I88  1  0.16635260  0.83242957  0.33355531  1
  I  I89  1  0.16270834  0.83410889  0.67077601  1
  I  I90  1  0.50645182  0.16000743  0.00138294  1
  I  I91  1  0.50323403  0.16432080  0.32983524  1
  I  I92  1  0.50260597  0.15728538  0.66899936  1
  I  I93  1  0.50813610  0.50591881  0.00405903  1
  I  I94  1  0.50349972  0.49987471  0.32887354  1
  I  I95  1  0.50079863  0.50162793  0.66632942  1
  I  I96  1  0.50038271  0.83372269  0.00039548  1
  I  I97  1  0.50779587  0.83370754  0.33151348  1
  I  I98  1  0.50120975  0.83910198  0.66814025  1
  I  I99  1  0.83107074  0.16860128  0.00338502  1
  I  I100  1  0.82682155  0.16476283  0.33146740  1
  I  I101  1  0.83144820  0.16909587  0.66452027  1
  I  I102  1  0.82891336  0.49882484  0.00385938  1
  I  I103  1  0.82851860  0.50212583  0.33169001  1
  I  I104  1  0.83413143  0.49724630  0.66403822  1
  I  I105  1  0.82868823  0.83296337  0.00107983  1
  I  I106  1  0.82742418  0.83324657  0.32998416  1
  I  I107  1  0.83136657  0.83331581  0.66903618  1
  I  I108  1  -0.00413989  0.16585498  0.17134240  1
  I  I109  1  -0.00561096  0.16757225  0.49237988  1
  I  I110  1  -0.00005441  0.16483764  0.83307628  1
  I  I111  1  -0.00436076  0.50214707  0.17130399  1
  I  I112  1  -0.00533101  0.50003659  0.49092643  1
  I  I113  1  -0.00034265  0.50136757  0.83526013  1
  I  I114  1  -0.00381738  0.83272136  0.16260051  1
  I  I115  1  -0.00010373  0.83281947  0.50090232  1
  I  I116  1  -0.00110528  0.83180246  0.83879299  1
  I  I117  1  0.33750582  0.16421657  0.16115468  1
  I  I118  1  0.33364725  0.16419531  0.49988936  1
  I  I119  1  0.33869028  0.15849031  0.84170160  1
  I  I120  1  0.33681306  0.50283384  0.16379196  1
  I  I121  1  0.33350309  0.50178414  0.49951215  1
  I  I122  1  0.33378710  0.50287266  0.83599427  1
  I  I123  1  0.33731423  0.83311974  0.16553084  1
  I  I124  1  0.33839621  0.83458580  0.49688317  1
  I  I125  1  0.33522957  0.83768097  0.83435256  1
  I  I126  1  0.66674251  0.16531236  0.16645847  1
  I  I127  1  0.66982287  0.16884685  0.49743235  1
  I  I128  1  0.66347548  0.15827655  0.83560371  1
  I  I129  1  0.66728476  0.50168400  0.16969950  1
  I  I130  1  0.67008878  0.49690575  0.49816908  1
  I  I131  1  0.66668440  0.50429550  0.83022479  1
  I  I132  1  0.66635154  0.83303745  0.16200976  1
  I  I133  1  0.66409074  0.83361291  0.50484498  1
  I  I134  1  0.66571368  0.83644682  0.83465114  1
