# generated using pymatgen
data_Cs27Sn13Pb14I81
_symmetry_space_group_name_H-M   'P 1'
_cell_length_a   18.97736226
_cell_length_b   18.97355824
_cell_length_c   18.97820130
_cell_angle_alpha   89.99873193
_cell_angle_beta   89.99918005
_cell_angle_gamma   89.99986762
_symmetry_Int_Tables_number   1
_chemical_formula_structural   Cs27Sn13Pb14I81
_chemical_formula_sum   'Cs27 Sn13 Pb14 I81'
_cell_volume   6833.44465304
_cell_formula_units_Z   1
loop_
 _symmetry_equiv_pos_site_id
 _symmetry_equiv_pos_as_xyz
  1  'x, y, z'
loop_
 _atom_site_type_symbol
 _atom_site_label
 _atom_site_symmetry_multiplicity
 _atom_site_fract_x
 _atom_site_fract_y
 _atom_site_fract_z
 _atom_site_occupancy
  Cs  Cs0  1  0.00131688  0.00051198  -0.00092564  1
  Cs  Cs1  1  0.00413704  0.00320693  0.33021809  1
  Cs  Cs2  1  -0.00011463  -0.00090206  0.66791170  1
  Cs  Cs3  1  -0.00289608  0.33293158  -0.00060930  1
  Cs  Cs4  1  -0.00042524  0.33181603  0.33531834  1
  Cs  Cs5  1  0.00140654  0.33239045  0.66644841  1
  Cs  Cs6  1  -0.00041234  0.66622746  0.00135923  1
  Cs  Cs7  1  -0.00129181  0.66523830  0.33113353  1
  Cs  Cs8  1  0.00096448  0.66917173  0.66769581  1
  Cs  Cs9  1  0.33796021  -0.00010763  0.00651118  1
  Cs  Cs10  1  0.33031218  -0.00271162  0.32589449  1
  Cs  Cs11  1  0.33219459  0.00002628  0.66693417  1
  Cs  Cs12  1  0.33987513  0.33533210  -0.00503098  1
  Cs  Cs13  1  0.33207609  0.33283725  0.33771426  1
  Cs  Cs14  1  0.33199539  0.33449762  0.66687586  1
  Cs  Cs15  1  0.33396404  0.66573229  0.00016210  1
  Cs  Cs16  1  0.33440460  0.66817996  0.33126752  1
  Cs  Cs17  1  0.33080215  0.66541020  0.66986414  1
  Cs  Cs18  1  0.65821056  0.00283972  -0.00061384  1
  Cs  Cs19  1  0.66333750  0.00000735  0.33526061  1
  Cs  Cs20  1  0.66653968  -0.00643523  0.66581613  1
  Cs  Cs21  1  0.66698582  0.33146777  0.00036569  1
  Cs  Cs22  1  0.66809684  0.33525127  0.33435806  1
  Cs  Cs23  1  0.66745416  0.33278834  0.66425196  1
  Cs  Cs24  1  0.66882708  0.66627887  -0.00197856  1
  Cs  Cs25  1  0.66760514  0.66451306  0.33510127  1
  Cs  Cs26  1  0.66764021  0.67443381  0.66541286  1
  Sn  Sn27  1  0.16660790  0.49929905  0.16668821  1
  Sn  Sn28  1  0.16620297  0.16598704  0.83350530  1
  Sn  Sn29  1  0.83272747  0.16712847  0.50095083  1
  Sn  Sn30  1  0.16642499  0.83434535  0.83304334  1
  Sn  Sn31  1  0.16642156  0.83318029  0.50025220  1
  Sn  Sn32  1  0.83290877  0.49963454  0.50055872  1
  Sn  Sn33  1  0.83385009  0.16716761  0.83232696  1
  Sn  Sn34  1  0.50079761  0.49940911  0.49953657  1
  Sn  Sn35  1  0.83309910  0.83343063  0.16663471  1
  Sn  Sn36  1  0.50038099  0.49985420  0.16749495  1
  Sn  Sn37  1  0.83340329  0.49952935  0.83271417  1
  Sn  Sn38  1  0.83332726  0.50069671  0.16671432  1
  Sn  Sn39  1  0.50057135  0.16716825  0.50024344  1
  Pb  Pb40  1  0.16652006  0.16476294  0.50164126  1
  Pb  Pb41  1  0.49666055  0.83334537  0.83340190  1
  Pb  Pb42  1  0.16441759  0.49978237  0.83538812  1
  Pb  Pb43  1  0.83519123  0.83383610  0.49803083  1
  Pb  Pb44  1  0.16676345  0.16976748  0.16332557  1
  Pb  Pb45  1  0.16498412  0.83154015  0.16606875  1
  Pb  Pb46  1  0.49731847  0.83297371  0.49996163  1
  Pb  Pb47  1  0.50334225  0.50010319  0.83234875  1
  Pb  Pb48  1  0.83323900  0.16684552  0.16679517  1
  Pb  Pb49  1  0.83470970  0.83417803  0.83549843  1
  Pb  Pb50  1  0.50313998  0.83054968  0.16687253  1
  Pb  Pb51  1  0.50006039  0.16956899  0.16980351  1
  Pb  Pb52  1  0.50063043  0.16676398  0.83057272  1
  Pb  Pb53  1  0.16647440  0.50170623  0.49839795  1
  I  I54  1  0.16404709  -0.00004518  0.16867507  1
  I  I55  1  0.16537839  -0.00291920  0.50112739  1
  I  I56  1  0.15905738  0.00031285  0.82838395  1
  I  I57  1  0.16164501  0.33780174  0.16785426  1
  I  I58  1  0.16675378  0.33337998  0.50006546  1
  I  I59  1  0.16366369  0.33084983  0.83501264  1
  I  I60  1  0.16699748  0.66342340  0.16505609  1
  I  I61  1  0.16575499  0.66936361  0.50599833  1
  I  I62  1  0.16493170  0.66876258  0.83098605  1
  I  I63  1  0.50075878  0.00004543  0.16726795  1
  I  I64  1  0.50534858  0.00296455  0.50300737  1
  I  I65  1  0.50556756  0.00030184  0.83097934  1
  I  I66  1  0.50418566  0.33783297  0.16690270  1
  I  I67  1  0.50381310  0.33440355  0.49557153  1
  I  I68  1  0.49401865  0.33354651  0.83627922  1
  I  I69  1  0.49786861  0.66220626  0.17382076  1
  I  I70  1  0.50446937  0.66299419  0.49531243  1
  I  I71  1  0.49998654  0.66627066  0.83136279  1
  I  I72  1  0.83694523  -0.00234758  0.16724127  1
  I  I73  1  0.83019083  0.00319830  0.50365945  1
  I  I74  1  0.83635973  0.00321634  0.82948068  1
  I  I75  1  0.83301483  0.33710568  0.16638686  1
  I  I76  1  0.83091439  0.33439309  0.49840285  1
  I  I77  1  0.83917565  0.33357173  0.83468339  1
  I  I78  1  0.83402791  0.66382380  0.16674429  1
  I  I79  1  0.83035268  0.66341796  0.50134142  1
  I  I80  1  0.83450285  0.66395270  0.83219262  1
  I  I81  1  0.15836232  0.16020099  -0.00455358  1
  I  I82  1  0.16590592  0.16464550  0.33343987  1
  I  I83  1  0.16438269  0.16652730  0.66960838  1
  I  I84  1  0.16594471  0.50200371  0.00331357  1
  I  I85  1  0.16182107  0.50316403  0.33049087  1
  I  I86  1  0.16677336  0.49982879  0.66686222  1
  I  I87  1  0.16373794  0.83571592  -0.00269555  1
  I  I88  1  0.16547619  0.83143696  0.33511303  1
  I  I89  1  0.16466948  0.83515719  0.66728672  1
  I  I90  1  0.49984521  0.16705108  -0.00007669  1
  I  I91  1  0.50706816  0.16852436  0.33770547  1
  I  I92  1  0.50067358  0.17522050  0.66284292  1
  I  I93  1  0.49999325  0.50179261  0.00276039  1
  I  I94  1  0.50501319  0.49658105  0.33357413  1
  I  I95  1  0.50300805  0.49577392  0.66286197  1
  I  I96  1  0.49838471  0.83195979  0.00035664  1
  I  I97  1  0.49605378  0.83593113  0.33346378  1
  I  I98  1  0.50323937  0.83012646  0.66633709  1
  I  I99  1  0.83910417  0.17071049  -0.00303520  1
  I  I100  1  0.82984941  0.17025676  0.33661905  1
  I  I101  1  0.83428342  0.17507630  0.66637240  1
  I  I102  1  0.83451343  0.50042002  0.00053784  1
  I  I103  1  0.83286264  0.50033537  0.33341816  1
  I  I104  1  0.83002713  0.49523222  0.66588380  1
  I  I105  1  0.83707435  0.82618123  0.00296046  1
  I  I106  1  0.83656984  0.82687748  0.33054005  1
  I  I107  1  0.83380207  0.83000289  0.66671178  1
  I  I108  1  -0.00015504  0.16971823  0.17174336  1
  I  I109  1  -0.00310686  0.17094735  0.50156533  1
  I  I110  1  -0.00124305  0.16755448  0.82760726  1
  I  I111  1  -0.00164610  0.50443600  0.16644854  1
  I  I112  1  -0.00340739  0.49685607  0.49835555  1
  I  I113  1  -0.00386953  0.49905095  0.83328756  1
  I  I114  1  -0.00265132  0.82495766  0.16726315  1
  I  I115  1  0.00266507  0.83230148  0.50305456  1
  I  I116  1  0.00258769  0.83375771  0.83034386  1
  I  I117  1  0.33333967  0.16732448  0.16715812  1
  I  I118  1  0.33580461  0.17178306  0.50139904  1
  I  I119  1  0.33059001  0.16267472  0.83251162  1
  I  I120  1  0.33385709  0.49930484  0.17139573  1
  I  I121  1  0.33612295  0.49699113  0.49470034  1
  I  I122  1  0.33324944  0.50039557  0.83471285  1
  I  I123  1  0.33332095  0.83130253  0.16642758  1
  I  I124  1  0.32963709  0.83259923  0.50385838  1
  I  I125  1  0.32823110  0.83779740  0.82961910  1
  I  I126  1  0.66688588  0.16685724  0.16095250  1
  I  I127  1  0.66809058  0.17127240  0.50465126  1
  I  I128  1  0.67028620  0.17245626  0.83306962  1
  I  I129  1  0.66773871  0.50388666  0.16800347  1
  I  I130  1  0.66791639  0.49630443  0.49486557  1
  I  I131  1  0.67154724  0.49379178  0.83874025  1
  I  I132  1  0.67092338  0.82743276  0.16732318  1
  I  I133  1  0.66687776  0.83314533  0.49813645  1
  I  I134  1  0.66709639  0.83305042  0.83482212  1
