# generated using pymatgen
data_Cs27Sn13Pb14I81
_symmetry_space_group_name_H-M   'P 1'
_cell_length_a   18.97828055
_cell_length_b   18.97744998
_cell_length_c   18.97370842
_cell_angle_alpha   89.99894077
_cell_angle_beta   89.99923614
_cell_angle_gamma   89.99869376
_symmetry_Int_Tables_number   1
_chemical_formula_structural   Cs27Sn13Pb14I81
_chemical_formula_sum   'Cs27 Sn13 Pb14 I81'
_cell_volume   6833.55886363
_cell_formula_units_Z   1
loop_
 _symmetry_equiv_pos_site_id
 _symmetry_equiv_pos_as_xyz
  1  'x, y, z'
loop_
 _atom_site_type_symbol
 _atom_site_label
 _atom_site_symmetry_multiplicity
 _atom_site_fract_x
 _atom_site_fract_y
 _atom_site_fract_z
 _atom_site_occupancy
  Cs  Cs0  1  0.00202669  0.00034061  0.00084761  1
  Cs  Cs1  1  -0.00193112  0.00144971  0.33390574  1
  Cs  Cs2  1  0.00207589  0.00292837  0.66622332  1
  Cs  Cs3  1  -0.00342447  0.33366821  0.00304011  1
  Cs  Cs4  1  -0.00034629  0.33160138  0.33142585  1
  Cs  Cs5  1  -0.00003542  0.33209126  0.66697399  1
  Cs  Cs6  1  -0.00130483  0.66727667  -0.00393348  1
  Cs  Cs7  1  0.00321300  0.66737236  0.33242069  1
  Cs  Cs8  1  -0.00073232  0.66549618  0.67022690  1
  Cs  Cs9  1  0.33845814  0.00106955  -0.00881214  1
  Cs  Cs10  1  0.33181345  -0.00134536  0.33377299  1
  Cs  Cs11  1  0.33118168  0.00115019  0.67310069  1
  Cs  Cs12  1  0.33625622  0.33294787  0.00352434  1
  Cs  Cs13  1  0.33385114  0.33611550  0.33224475  1
  Cs  Cs14  1  0.33328695  0.33320079  0.66568014  1
  Cs  Cs15  1  0.33337185  0.66667148  0.00240714  1
  Cs  Cs16  1  0.33154976  0.66472383  0.33404522  1
  Cs  Cs17  1  0.33327319  0.66544022  0.66357562  1
  Cs  Cs18  1  0.65857729  -0.00296132  0.00102883  1
  Cs  Cs19  1  0.66949546  -0.00339921  0.33304702  1
  Cs  Cs20  1  0.66706614  -0.00236488  0.66387982  1
  Cs  Cs21  1  0.67000340  0.33120397  -0.00002760  1
  Cs  Cs22  1  0.66636374  0.33256270  0.33351032  1
  Cs  Cs23  1  0.66665038  0.33663755  0.66638493  1
  Cs  Cs24  1  0.66884481  0.67572712  -0.00130431  1
  Cs  Cs25  1  0.66605139  0.66991706  0.33333806  1
  Cs  Cs26  1  0.66840619  0.66307567  0.66726725  1
  Sn  Sn27  1  0.83369185  0.49984201  0.49872917  1
  Sn  Sn28  1  0.83326419  0.16647344  0.83398691  1
  Sn  Sn29  1  0.49994739  0.50004257  0.50034772  1
  Sn  Sn30  1  0.16667017  0.83473783  0.16712446  1
  Sn  Sn31  1  0.16632759  0.50042670  0.50064723  1
  Sn  Sn32  1  0.49977034  0.16655296  0.49977325  1
  Sn  Sn33  1  0.16666361  0.16556570  0.16679899  1
  Sn  Sn34  1  0.16773025  0.49959984  0.83280758  1
  Sn  Sn35  1  0.83304260  0.49992084  0.16747171  1
  Sn  Sn36  1  0.49888073  0.83323023  0.49997585  1
  Sn  Sn37  1  0.83378056  0.16716112  0.16569925  1
  Sn  Sn38  1  0.49912215  0.49982619  0.83317628  1
  Sn  Sn39  1  0.16731419  0.83281906  0.49944617  1
  Pb  Pb40  1  0.16492500  0.50003531  0.16671177  1
  Pb  Pb41  1  0.49983760  0.83038987  0.83023580  1
  Pb  Pb42  1  0.50219717  0.16904746  0.83086312  1
  Pb  Pb43  1  0.83569099  0.83383532  0.16668646  1
  Pb  Pb44  1  0.50316633  0.50015844  0.16650892  1
  Pb  Pb45  1  0.83314286  0.49903612  0.83351676  1
  Pb  Pb46  1  0.16517710  0.16948312  0.83605020  1
  Pb  Pb47  1  0.50028422  0.16667815  0.16870910  1
  Pb  Pb48  1  0.83414654  0.83056671  0.50013558  1
  Pb  Pb49  1  0.83342567  0.83725319  0.83333989  1
  Pb  Pb50  1  0.83146340  0.16868859  0.49953138  1
  Pb  Pb51  1  0.49687745  0.83328975  0.16899480  1
  Pb  Pb52  1  0.16850681  0.16684108  0.49837523  1
  Pb  Pb53  1  0.16669820  0.83106868  0.83285611  1
  I  I54  1  0.15989285  0.00012847  0.17440593  1
  I  I55  1  0.17111951  -0.00268867  0.49688293  1
  I  I56  1  0.16402818  0.00027918  0.83070313  1
  I  I57  1  0.16329510  0.33135201  0.16705340  1
  I  I58  1  0.16757946  0.33661788  0.50172115  1
  I  I59  1  0.16952539  0.33735089  0.82668736  1
  I  I60  1  0.16577098  0.66856153  0.16905598  1
  I  I61  1  0.17089557  0.66558924  0.49706117  1
  I  I62  1  0.16846841  0.66271083  0.83357302  1
  I  I63  1  0.50492091  0.00003107  0.16993239  1
  I  I64  1  0.49632813  -0.00054295  0.49730747  1
  I  I65  1  0.50214513  0.00009228  0.83179390  1
  I  I66  1  0.49509523  0.33354538  0.17091049  1
  I  I67  1  0.50053343  0.33505942  0.50317776  1
  I  I68  1  0.49670748  0.33690667  0.82569130  1
  I  I69  1  0.50011065  0.66648917  0.16857077  1
  I  I70  1  0.49915820  0.66553645  0.50332921  1
  I  I71  1  0.49790046  0.66226371  0.82765612  1
  I  I72  1  0.83587195  0.00344932  0.16339841  1
  I  I73  1  0.83194161  0.00013749  0.50011793  1
  I  I74  1  0.83397099  0.00513499  0.83896409  1
  I  I75  1  0.83954708  0.33303303  0.16751472  1
  I  I76  1  0.83356964  0.33711926  0.49888845  1
  I  I77  1  0.83346567  0.33141540  0.83504527  1
  I  I78  1  0.83406640  0.66389367  0.17153684  1
  I  I79  1  0.82914407  0.66196775  0.49529631  1
  I  I80  1  0.83311708  0.66627573  0.83358426  1
  I  I81  1  0.16485073  0.16281739  0.00407803  1
  I  I82  1  0.16037429  0.16812980  0.33048004  1
  I  I83  1  0.16505137  0.16464605  0.66667259  1
  I  I84  1  0.16911292  0.49946159  -0.00226133  1
  I  I85  1  0.16906203  0.50093446  0.33630361  1
  I  I86  1  0.16508643  0.50500683  0.66467604  1
  I  I87  1  0.16348157  0.83491292  0.00282035  1
  I  I88  1  0.17019155  0.82990174  0.33452066  1
  I  I89  1  0.17098530  0.83031712  0.66297712  1
  I  I90  1  0.49871266  0.16907336  -0.00018495  1
  I  I91  1  0.50174124  0.17123868  0.33700766  1
  I  I92  1  0.50116610  0.16603720  0.66280339  1
  I  I93  1  0.49511907  0.49799640  -0.00298322  1
  I  I94  1  0.49711742  0.50000339  0.33714682  1
  I  I95  1  0.50173415  0.50010847  0.66449647  1
  I  I96  1  0.50013234  0.83185429  -0.00024626  1
  I  I97  1  0.49950921  0.82910194  0.33755378  1
  I  I98  1  0.49280749  0.83542147  0.66195436  1
  I  I99  1  0.83800238  0.17567385  0.00148799  1
  I  I100  1  0.83602846  0.16976616  0.33046262  1
  I  I101  1  0.83102200  0.16991249  0.66837894  1
  I  I102  1  0.83501884  0.49664596  0.00241809  1
  I  I103  1  0.83386884  0.49409998  0.33416966  1
  I  I104  1  0.83271906  0.49846264  0.66390874  1
  I  I105  1  0.83609153  0.82533535  0.00027663  1
  I  I106  1  0.83089784  0.83670221  0.33357436  1
  I  I107  1  0.83514984  0.83269957  0.66632149  1
  I  I108  1  -0.00044215  0.16791394  0.16501836  1
  I  I109  1  -0.00004792  0.16728437  0.50119859  1
  I  I110  1  -0.00274315  0.17087679  0.83302165  1
  I  I111  1  -0.00282044  0.49795807  0.17086231  1
  I  I112  1  0.00082483  0.50397864  0.50033470  1
  I  I113  1  0.00220626  0.49919417  0.82960544  1
  I  I114  1  0.00355331  0.83375925  0.17491805  1
  I  I115  1  0.00377525  0.82858409  0.49600927  1
  I  I116  1  0.00033818  0.82826993  0.83051065  1
  I  I117  1  0.33044156  0.16428534  0.16988872  1
  I  I118  1  0.33634204  0.17233206  0.49775357  1
  I  I119  1  0.33346913  0.16621954  0.83424669  1
  I  I120  1  0.33314559  0.49918518  0.16858737  1
  I  I121  1  0.33333253  0.50068280  0.50423668  1
  I  I122  1  0.33321890  0.49974190  0.82428463  1
  I  I123  1  0.32882348  0.83701780  0.16940691  1
  I  I124  1  0.33293585  0.82704416  0.49493527  1
  I  I125  1  0.33324533  0.83649671  0.83641882  1
  I  I126  1  0.66999833  0.17283004  0.16456279  1
  I  I127  1  0.66349013  0.16766431  0.49870333  1
  I  I128  1  0.66986254  0.17106252  0.84003016  1
  I  I129  1  0.67105145  0.49245189  0.17124499  1
  I  I130  1  0.66585781  0.49927576  0.50087919  1
  I  I131  1  0.66440272  0.49761553  0.82766299  1
  I  I132  1  0.66663371  0.83327267  0.16773490  1
  I  I133  1  0.66368847  0.83249908  0.50122518  1
  I  I134  1  0.66642477  0.82936515  0.83175180  1
