# generated using pymatgen
data_Cs27Sn13Pb14I81
_symmetry_space_group_name_H-M   'P 1'
_cell_length_a   18.97672948
_cell_length_b   18.97193631
_cell_length_c   18.98074049
_cell_angle_alpha   89.99751797
_cell_angle_beta   90.00027573
_cell_angle_gamma   89.99986614
_symmetry_Int_Tables_number   1
_chemical_formula_structural   Cs27Sn13Pb14I81
_chemical_formula_sum   'Cs27 Sn13 Pb14 I81'
_cell_volume   6833.54683883
_cell_formula_units_Z   1
loop_
 _symmetry_equiv_pos_site_id
 _symmetry_equiv_pos_as_xyz
  1  'x, y, z'
loop_
 _atom_site_type_symbol
 _atom_site_label
 _atom_site_symmetry_multiplicity
 _atom_site_fract_x
 _atom_site_fract_y
 _atom_site_fract_z
 _atom_site_occupancy
  Cs  Cs0  1  0.00194883  -0.00115971  0.00091737  1
  Cs  Cs1  1  -0.00150732  0.00032572  0.33595076  1
  Cs  Cs2  1  -0.00050103  0.00219717  0.66374326  1
  Cs  Cs3  1  0.00032162  0.33423390  -0.00097077  1
  Cs  Cs4  1  -0.00297221  0.33075492  0.33112731  1
  Cs  Cs5  1  -0.00058986  0.33358059  0.66822865  1
  Cs  Cs6  1  -0.00033940  0.66627847  0.00056662  1
  Cs  Cs7  1  0.00100796  0.66957182  0.33089771  1
  Cs  Cs8  1  0.00604245  0.66489918  0.66640842  1
  Cs  Cs9  1  0.33352564  0.00194205  0.00062003  1
  Cs  Cs10  1  0.33119775  0.00152834  0.33124212  1
  Cs  Cs11  1  0.33585428  -0.00034976  0.66717733  1
  Cs  Cs12  1  0.33602419  0.33016876  0.00202297  1
  Cs  Cs13  1  0.33865427  0.33199676  0.33081102  1
  Cs  Cs14  1  0.33189036  0.33407768  0.66653276  1
  Cs  Cs15  1  0.33014966  0.66698336  0.00166767  1
  Cs  Cs16  1  0.33625115  0.66646014  0.33847817  1
  Cs  Cs17  1  0.33076674  0.66519840  0.65719240  1
  Cs  Cs18  1  0.66421872  -0.00426859  -0.00450603  1
  Cs  Cs19  1  0.67414274  -0.00232821  0.33843221  1
  Cs  Cs20  1  0.66381072  -0.00546253  0.66703966  1
  Cs  Cs21  1  0.66550454  0.33427192  -0.00085806  1
  Cs  Cs22  1  0.66723887  0.33525720  0.33340731  1
  Cs  Cs23  1  0.66939765  0.33160535  0.66850424  1
  Cs  Cs24  1  0.66848410  0.66754574  -0.00022283  1
  Cs  Cs25  1  0.66220332  0.66544381  0.33258184  1
  Cs  Cs26  1  0.66298439  0.67196992  0.66909877  1
  Sn  Sn27  1  0.16644011  0.50037759  0.16674559  1
  Sn  Sn28  1  0.83245273  0.49946427  0.83312293  1
  Sn  Sn29  1  0.50022671  0.49992426  0.83342443  1
  Sn  Sn30  1  0.16663723  0.83413047  0.83381533  1
  Sn  Sn31  1  0.16769356  0.16706778  0.50077179  1
  Sn  Sn32  1  0.83350656  0.50030986  0.50026034  1
  Sn  Sn33  1  0.16603912  0.16592087  0.83274299  1
  Sn  Sn34  1  0.83321466  0.16714394  0.16510323  1
  Sn  Sn35  1  0.49943090  0.16687643  0.50010822  1
  Sn  Sn36  1  0.16766445  0.83246521  0.16592331  1
  Sn  Sn37  1  0.83396738  0.16688987  0.83444390  1
  Sn  Sn38  1  0.49920962  0.83353841  0.16645307  1
  Sn  Sn39  1  0.83416909  0.49920070  0.16670499  1
  Pb  Pb40  1  0.49673391  0.83064254  0.83495796  1
  Pb  Pb41  1  0.50030333  0.50146009  0.16505399  1
  Pb  Pb42  1  0.16474984  0.49720952  0.49669581  1
  Pb  Pb43  1  0.50010009  0.16800721  0.83190181  1
  Pb  Pb44  1  0.16645765  0.49953632  0.83494277  1
  Pb  Pb45  1  0.83354184  0.82946111  0.50035179  1
  Pb  Pb46  1  0.50360810  0.16421971  0.16856453  1
  Pb  Pb47  1  0.83340952  0.16797868  0.50075015  1
  Pb  Pb48  1  0.16512533  0.16656388  0.16629502  1
  Pb  Pb49  1  0.50229168  0.49803995  0.50251487  1
  Pb  Pb50  1  0.16662945  0.83571164  0.49963061  1
  Pb  Pb51  1  0.49979269  0.83584273  0.49745946  1
  Pb  Pb52  1  0.83590338  0.83322034  0.83320548  1
  Pb  Pb53  1  0.83379314  0.83309945  0.16650591  1
  I  I54  1  0.16844825  -0.00233051  0.16559444  1
  I  I55  1  0.16780617  0.00383981  0.49893039  1
  I  I56  1  0.16154396  0.00106816  0.83591028  1
  I  I57  1  0.16254682  0.33554453  0.16621600  1
  I  I58  1  0.16883507  0.32953731  0.50625098  1
  I  I59  1  0.16454060  0.33056640  0.83100082  1
  I  I60  1  0.16335636  0.66680103  0.16014682  1
  I  I61  1  0.16467403  0.66631410  0.50274950  1
  I  I62  1  0.16589009  0.66846449  0.83763392  1
  I  I63  1  0.49293454  -0.00321535  0.16578858  1
  I  I64  1  0.49799424  0.00373570  0.50157307  1
  I  I65  1  0.50272924  -0.00013600  0.83269126  1
  I  I66  1  0.49746737  0.33321868  0.16685483  1
  I  I67  1  0.49567481  0.33036202  0.49861410  1
  I  I68  1  0.50032699  0.33597860  0.83440504  1
  I  I69  1  0.50012124  0.66931181  0.16553320  1
  I  I70  1  0.50198238  0.66649205  0.50032141  1
  I  I71  1  0.50775229  0.66301984  0.83453848  1
  I  I72  1  0.83379048  0.00286086  0.16303012  1
  I  I73  1  0.83336962  0.00041893  0.49827571  1
  I  I74  1  0.83581706  0.00345275  0.83856699  1
  I  I75  1  0.83923851  0.33454541  0.16620600  1
  I  I76  1  0.83401832  0.33586892  0.49920833  1
  I  I77  1  0.83600433  0.33349272  0.83426231  1
  I  I78  1  0.83490470  0.66321828  0.16576159  1
  I  I79  1  0.83358126  0.66131858  0.49865685  1
  I  I80  1  0.83070913  0.66301795  0.83510329  1
  I  I81  1  0.16324747  0.16601327  -0.00259886  1
  I  I82  1  0.16750408  0.16729104  0.33508109  1
  I  I83  1  0.16360639  0.16199220  0.66810057  1
  I  I84  1  0.16084101  0.49980500  0.00277620  1
  I  I85  1  0.16129635  0.50489141  0.32886481  1
  I  I86  1  0.16573827  0.50269681  0.66669240  1
  I  I87  1  0.16920436  0.83555751  0.00062399  1
  I  I88  1  0.16925242  0.83022089  0.32991436  1
  I  I89  1  0.16468752  0.83468374  0.66956784  1
  I  I90  1  0.49794842  0.16709334  0.00000329  1
  I  I91  1  0.49413902  0.16730289  0.33621560  1
  I  I92  1  0.50075974  0.16825009  0.66408481  1
  I  I93  1  0.50570521  0.49881076  -0.00263399  1
  I  I94  1  0.50113301  0.50060627  0.33332083  1
  I  I95  1  0.50444717  0.49958883  0.67030660  1
  I  I96  1  0.49867206  0.83402956  0.00280534  1
  I  I97  1  0.49369974  0.83108393  0.32958807  1
  I  I98  1  0.49984805  0.83281297  0.66680648  1
  I  I99  1  0.83943630  0.17502004  -0.00081688  1
  I  I100  1  0.83368348  0.17040310  0.33129677  1
  I  I101  1  0.83566837  0.17205482  0.66969367  1
  I  I102  1  0.83374561  0.49572322  0.00007891  1
  I  I103  1  0.83824348  0.49502834  0.33191638  1
  I  I104  1  0.82946098  0.49417196  0.66805494  1
  I  I105  1  0.83194436  0.83003055  -0.00000020  1
  I  I106  1  0.83591629  0.83642445  0.33298158  1
  I  I107  1  0.83430512  0.83552326  0.66702258  1
  I  I108  1  -0.00285116  0.16718239  0.16790033  1
  I  I109  1  0.00209450  0.16760379  0.50094515  1
  I  I110  1  -0.00010568  0.16923722  0.83146208  1
  I  I111  1  -0.00106970  0.50185752  0.16415577  1
  I  I112  1  -0.00315191  0.49647085  0.50566151  1
  I  I113  1  -0.00293385  0.49860142  0.83269982  1
  I  I114  1  0.00304461  0.83150820  0.16278112  1
  I  I115  1  0.00034502  0.83719956  0.49693328  1
  I  I116  1  0.00371734  0.83254032  0.84103080  1
  I  I117  1  0.33333858  0.16926679  0.16538441  1
  I  I118  1  0.33222104  0.16671024  0.50518958  1
  I  I119  1  0.33039332  0.16522573  0.83127821  1
  I  I120  1  0.33081597  0.50186459  0.16336381  1
  I  I121  1  0.33326514  0.50045508  0.50069843  1
  I  I122  1  0.33497946  0.49960897  0.83664217  1
  I  I123  1  0.33151711  0.82845543  0.16257351  1
  I  I124  1  0.33312068  0.83050023  0.50167646  1
  I  I125  1  0.32906819  0.83883849  0.83690661  1
  I  I126  1  0.67139253  0.17280238  0.16295812  1
  I  I127  1  0.66507274  0.16885750  0.49829229  1
  I  I128  1  0.66978805  0.17059283  0.83557873  1
  I  I129  1  0.67008425  0.49770751  0.16805639  1
  I  I130  1  0.67026176  0.49577554  0.49389934  1
  I  I131  1  0.66895258  0.49379381  0.83559790  1
  I  I132  1  0.66465960  0.83345062  0.16799384  1
  I  I133  1  0.66652942  0.83761650  0.49758313  1
  I  I134  1  0.66645608  0.83537389  0.83464449  1
