# generated using pymatgen
data_Cs27Sn14Pb13I81
_symmetry_space_group_name_H-M   'P 1'
_cell_length_a   18.99307500
_cell_length_b   18.97916035
_cell_length_c   18.96022656
_cell_angle_alpha   89.99924664
_cell_angle_beta   90.00035693
_cell_angle_gamma   89.99979482
_symmetry_Int_Tables_number   1
_chemical_formula_structural   Cs27Sn14Pb13I81
_chemical_formula_sum   'Cs27 Sn14 Pb13 I81'
_cell_volume   6834.64246652
_cell_formula_units_Z   1
loop_
 _symmetry_equiv_pos_site_id
 _symmetry_equiv_pos_as_xyz
  1  'x, y, z'
loop_
 _atom_site_type_symbol
 _atom_site_label
 _atom_site_symmetry_multiplicity
 _atom_site_fract_x
 _atom_site_fract_y
 _atom_site_fract_z
 _atom_site_occupancy
  Cs  Cs0  1  0.00123064  0.00121573  -0.00229788  1
  Cs  Cs1  1  -0.00287683  -0.00252935  0.33080002  1
  Cs  Cs2  1  0.00082039  0.00079640  0.66824586  1
  Cs  Cs3  1  0.00069489  0.33323725  0.00341824  1
  Cs  Cs4  1  0.00220227  0.33474066  0.33271969  1
  Cs  Cs5  1  -0.00076949  0.33282016  0.66594821  1
  Cs  Cs6  1  0.00161528  0.66546479  -0.00028757  1
  Cs  Cs7  1  -0.00277642  0.66752596  0.33127321  1
  Cs  Cs8  1  0.00101951  0.66589588  0.66704808  1
  Cs  Cs9  1  0.33215668  0.00063379  -0.00040341  1
  Cs  Cs10  1  0.33716496  -0.00225079  0.33100231  1
  Cs  Cs11  1  0.33217533  0.00046183  0.66743455  1
  Cs  Cs12  1  0.33380949  0.33593660  0.00550698  1
  Cs  Cs13  1  0.32991271  0.33227597  0.33431915  1
  Cs  Cs14  1  0.33405184  0.33265873  0.66553501  1
  Cs  Cs15  1  0.33409198  0.66313894  0.00073891  1
  Cs  Cs16  1  0.33522567  0.67068742  0.33223100  1
  Cs  Cs17  1  0.33107756  0.66617916  0.66638556  1
  Cs  Cs18  1  0.66678583  0.00049061  0.00056243  1
  Cs  Cs19  1  0.66540219  -0.00942997  0.32530812  1
  Cs  Cs20  1  0.66683375  0.00303793  0.66807973  1
  Cs  Cs21  1  0.66462571  0.33567834  0.00281853  1
  Cs  Cs22  1  0.66817136  0.33199839  0.33599058  1
  Cs  Cs23  1  0.66696705  0.33252851  0.66661005  1
  Cs  Cs24  1  0.66348202  0.66448479  0.00268845  1
  Cs  Cs25  1  0.66762205  0.67813270  0.32686875  1
  Cs  Cs26  1  0.66737734  0.66387823  0.66746448  1
  Sn  Sn27  1  0.16654648  0.49941571  0.50110465  1
  Sn  Sn28  1  0.16646306  0.16701863  0.50089760  1
  Sn  Sn29  1  0.83321404  0.16701416  0.50042877  1
  Sn  Sn30  1  0.49998551  0.16622666  0.83284427  1
  Sn  Sn31  1  0.16679564  0.16811011  0.83264697  1
  Sn  Sn32  1  0.83239393  0.83310267  0.83274271  1
  Sn  Sn33  1  0.50042445  0.49957072  0.50036433  1
  Sn  Sn34  1  0.83319831  0.16730513  0.83289845  1
  Sn  Sn35  1  0.50063555  0.83397554  0.83243786  1
  Sn  Sn36  1  0.83408588  0.49957408  0.83274501  1
  Sn  Sn37  1  0.83305513  0.49947799  0.50068406  1
  Sn  Sn38  1  0.16597161  0.49863304  0.83238869  1
  Sn  Sn39  1  0.16644596  0.83348495  0.16642272  1
  Sn  Sn40  1  0.50033999  0.16723791  0.50064118  1
  Pb  Pb41  1  0.50006832  0.49959679  0.17130931  1
  Pb  Pb42  1  0.83336745  0.16691980  0.16715566  1
  Pb  Pb43  1  0.16672131  0.83315580  0.83422436  1
  Pb  Pb44  1  0.49996443  0.49924206  0.83190141  1
  Pb  Pb45  1  0.16655899  0.83362356  0.49812487  1
  Pb  Pb46  1  0.50008757  0.83388705  0.50256718  1
  Pb  Pb47  1  0.16658881  0.50158487  0.16711416  1
  Pb  Pb48  1  0.16658905  0.16514232  0.16707529  1
  Pb  Pb49  1  0.83549776  0.83338360  0.16284634  1
  Pb  Pb50  1  0.83338374  0.83359675  0.50244390  1
  Pb  Pb51  1  0.49780459  0.83347253  0.16287905  1
  Pb  Pb52  1  0.50002624  0.16701477  0.16710905  1
  Pb  Pb53  1  0.83332558  0.49968036  0.16716400  1
  I  I54  1  0.16661551  -0.00245747  0.16450079  1
  I  I55  1  0.16691217  0.00399622  0.50467997  1
  I  I56  1  0.16454792  0.00310134  0.83066196  1
  I  I57  1  0.16688019  0.33338075  0.16605151  1
  I  I58  1  0.16695846  0.33312696  0.50341256  1
  I  I59  1  0.16383040  0.33288220  0.82984914  1
  I  I60  1  0.16671129  0.66918056  0.16445530  1
  I  I61  1  0.16664176  0.66292783  0.50415453  1
  I  I62  1  0.16391964  0.66371612  0.83060481  1
  I  I63  1  0.49886830  -0.00005045  0.17189990  1
  I  I64  1  0.49868241  0.00383994  0.50215256  1
  I  I65  1  0.50199122  0.00169480  0.82823462  1
  I  I66  1  0.49867625  0.33328626  0.15873313  1
  I  I67  1  0.49969138  0.33243860  0.50664845  1
  I  I68  1  0.50198654  0.33011147  0.83076616  1
  I  I69  1  0.49882302  0.66682890  0.16588823  1
  I  I70  1  0.49851589  0.66365067  0.50202135  1
  I  I71  1  0.50237089  0.66823263  0.83212600  1
  I  I72  1  0.83447012  -0.00008657  0.16818940  1
  I  I73  1  0.83450453  0.00376068  0.50455710  1
  I  I74  1  0.83384551  0.00136786  0.83000920  1
  I  I75  1  0.83459443  0.33333967  0.16110167  1
  I  I76  1  0.83330554  0.33312195  0.50761089  1
  I  I77  1  0.83412331  0.33295735  0.82902514  1
  I  I78  1  0.83443566  0.66672078  0.16802257  1
  I  I79  1  0.83480000  0.66319624  0.50456004  1
  I  I80  1  0.83450479  0.66558745  0.82917676  1
  I  I81  1  0.16616111  0.16898150  -0.00384991  1
  I  I82  1  0.16675784  0.17069275  0.33740749  1
  I  I83  1  0.16658570  0.16918751  0.66722996  1
  I  I84  1  0.16202964  0.49723338  -0.00351530  1
  I  I85  1  0.16618204  0.49584070  0.33739769  1
  I  I86  1  0.16541861  0.49759581  0.66661905  1
  I  I87  1  0.16637691  0.83364961  0.00172167  1
  I  I88  1  0.16709984  0.83323527  0.33042498  1
  I  I89  1  0.16693494  0.83281335  0.66689017  1
  I  I90  1  0.50003079  0.16163295  -0.00404250  1
  I  I91  1  0.49847003  0.17203578  0.33773374  1
  I  I92  1  0.49982803  0.16607834  0.66699347  1
  I  I93  1  0.49938504  0.50101635  -0.00034346  1
  I  I94  1  0.49810141  0.49266918  0.33965382  1
  I  I95  1  0.49958543  0.49893929  0.66364851  1
  I  I96  1  0.50469570  0.83933551  -0.00500774  1
  I  I97  1  0.49903901  0.83291636  0.33319387  1
  I  I98  1  0.50168775  0.83588266  0.67047866  1
  I  I99  1  0.83397842  0.16632737  -0.00448146  1
  I  I100  1  0.83478276  0.17276068  0.33777071  1
  I  I101  1  0.83355216  0.16714396  0.66748399  1
  I  I102  1  0.83866335  0.49967090  -0.00417609  1
  I  I103  1  0.83527133  0.49392016  0.33775918  1
  I  I104  1  0.83471754  0.49941203  0.66706179  1
  I  I105  1  0.82945415  0.83412416  -0.00541025  1
  I  I106  1  0.83398741  0.83323792  0.33320642  1
  I  I107  1  0.83211360  0.83362062  0.67075563  1
  I  I108  1  0.00008256  0.16449778  0.16556908  1
  I  I109  1  -0.00001260  0.17202166  0.50627288  1
  I  I110  1  -0.00013210  0.16526921  0.82858801  1
  I  I111  1  0.00008778  0.50194414  0.16971261  1
  I  I112  1  0.00002692  0.49438412  0.50401974  1
  I  I113  1  -0.00014558  0.49925939  0.82668364  1
  I  I114  1  0.00269714  0.83340874  0.16554739  1
  I  I115  1  -0.00003110  0.83378042  0.50157966  1
  I  I116  1  -0.00243949  0.83566056  0.83523154  1
  I  I117  1  0.33323056  0.16484645  0.16567037  1
  I  I118  1  0.33317042  0.17264922  0.50631146  1
  I  I119  1  0.33309710  0.16458234  0.82764828  1
  I  I120  1  0.33313726  0.50207564  0.16344608  1
  I  I121  1  0.33262445  0.49435152  0.50440600  1
  I  I122  1  0.33068236  0.49911168  0.82957617  1
  I  I123  1  0.33056728  0.83335851  0.16549867  1
  I  I124  1  0.33334164  0.83232718  0.50187416  1
  I  I125  1  0.33545618  0.83698517  0.83517003  1
  I  I126  1  0.66667747  0.16486771  0.16618272  1
  I  I127  1  0.66686996  0.17455751  0.50786773  1
  I  I128  1  0.66706985  0.16493910  0.82771423  1
  I  I129  1  0.66671945  0.50178038  0.16303745  1
  I  I130  1  0.66749128  0.49256790  0.50599075  1
  I  I131  1  0.66947321  0.49904004  0.82933251  1
  I  I132  1  0.66663445  0.83312849  0.16883301  1
  I  I133  1  0.66672081  0.83193402  0.49754914  1
  I  I134  1  0.66717196  0.83672810  0.83181796  1
