# generated using pymatgen
data_Cs27Sn13Pb14I81
_symmetry_space_group_name_H-M   'P 1'
_cell_length_a   18.97958184
_cell_length_b   18.97485264
_cell_length_c   18.97901580
_cell_angle_alpha   90.00106690
_cell_angle_beta   89.99802578
_cell_angle_gamma   90.00162167
_symmetry_Int_Tables_number   1
_chemical_formula_structural   Cs27Sn13Pb14I81
_chemical_formula_sum   'Cs27 Sn13 Pb14 I81'
_cell_volume   6835.00345576
_cell_formula_units_Z   1
loop_
 _symmetry_equiv_pos_site_id
 _symmetry_equiv_pos_as_xyz
  1  'x, y, z'
loop_
 _atom_site_type_symbol
 _atom_site_label
 _atom_site_symmetry_multiplicity
 _atom_site_fract_x
 _atom_site_fract_y
 _atom_site_fract_z
 _atom_site_occupancy
  Cs  Cs0  1  -0.00066780  0.00047486  0.00096813  1
  Cs  Cs1  1  0.00245274  -0.00320381  0.33298107  1
  Cs  Cs2  1  -0.00317408  0.00182833  0.66511170  1
  Cs  Cs3  1  -0.00068964  0.33267507  -0.00052975  1
  Cs  Cs4  1  0.00084834  0.34023551  0.33265475  1
  Cs  Cs5  1  -0.00124762  0.32991992  0.66736335  1
  Cs  Cs6  1  -0.00076359  0.66670894  0.00131139  1
  Cs  Cs7  1  0.00624955  0.66277881  0.33945315  1
  Cs  Cs8  1  0.00018513  0.66779804  0.66336311  1
  Cs  Cs9  1  0.33490549  0.00085191  -0.00140857  1
  Cs  Cs10  1  0.33156299  0.00132528  0.33229136  1
  Cs  Cs11  1  0.33542354  0.00258084  0.67165946  1
  Cs  Cs12  1  0.33335058  0.33148806  -0.00047924  1
  Cs  Cs13  1  0.33439904  0.33069269  0.33423298  1
  Cs  Cs14  1  0.33169164  0.33328465  0.66681774  1
  Cs  Cs15  1  0.33358413  0.66736497  -0.00094851  1
  Cs  Cs16  1  0.33018585  0.66755040  0.33376600  1
  Cs  Cs17  1  0.33539551  0.66563157  0.66761094  1
  Cs  Cs18  1  0.66666687  -0.00276594  0.00142586  1
  Cs  Cs19  1  0.66660126  0.00132464  0.33288438  1
  Cs  Cs20  1  0.66760819  0.00553906  0.66492718  1
  Cs  Cs21  1  0.66782880  0.33426270  0.00272432  1
  Cs  Cs22  1  0.66645774  0.33212078  0.33416493  1
  Cs  Cs23  1  0.66945374  0.32846890  0.66339915  1
  Cs  Cs24  1  0.66692664  0.66745991  -0.00078983  1
  Cs  Cs25  1  0.66726837  0.66631445  0.33319084  1
  Cs  Cs26  1  0.66431148  0.66757175  0.66828607  1
  Sn  Sn27  1  0.16637200  0.50107827  0.83360866  1
  Sn  Sn28  1  0.50009294  0.83295062  0.49905979  1
  Sn  Sn29  1  0.16650209  0.16649408  0.49909664  1
  Sn  Sn30  1  0.83321714  0.83334217  0.16658137  1
  Sn  Sn31  1  0.16554574  0.16660932  0.16744943  1
  Sn  Sn32  1  0.83447620  0.16596094  0.16664448  1
  Sn  Sn33  1  0.83329752  0.50098440  0.83338066  1
  Sn  Sn34  1  0.16552064  0.83257858  0.83354546  1
  Sn  Sn35  1  0.83417793  0.83247433  0.83392142  1
  Sn  Sn36  1  0.49985423  0.50110059  0.16678390  1
  Sn  Sn37  1  0.50004169  0.50088836  0.49988421  1
  Sn  Sn38  1  0.50054947  0.83226167  0.16765708  1
  Sn  Sn39  1  0.50035723  0.50012671  0.83332006  1
  Pb  Pb40  1  0.16920595  0.49794001  0.16453064  1
  Pb  Pb41  1  0.16645488  0.16638624  0.83370179  1
  Pb  Pb42  1  0.83324862  0.16609869  0.83561553  1
  Pb  Pb43  1  0.16664293  0.83471208  0.16491749  1
  Pb  Pb44  1  0.83163696  0.50086622  0.16519737  1
  Pb  Pb45  1  0.83117855  0.83321414  0.49976310  1
  Pb  Pb46  1  0.50057376  0.83202057  0.83348498  1
  Pb  Pb47  1  0.16891073  0.49835036  0.50258421  1
  Pb  Pb48  1  0.16935674  0.83515292  0.50294159  1
  Pb  Pb49  1  0.83612859  0.16652394  0.49641817  1
  Pb  Pb50  1  0.50021886  0.16613181  0.16662395  1
  Pb  Pb51  1  0.83088770  0.50025759  0.50291728  1
  Pb  Pb52  1  0.49824995  0.16634503  0.49983462  1
  Pb  Pb53  1  0.50041649  0.17013412  0.83341705  1
  I  I54  1  0.16825643  0.00280647  0.16674423  1
  I  I55  1  0.16966236  0.00287830  0.49786091  1
  I  I56  1  0.16264458  -0.00289710  0.83353924  1
  I  I57  1  0.16267194  0.32992467  0.16757261  1
  I  I58  1  0.16993149  0.33055334  0.49783821  1
  I  I59  1  0.16845833  0.33629130  0.83350510  1
  I  I60  1  0.16520451  0.66660190  0.16639421  1
  I  I61  1  0.16634807  0.66668329  0.49962870  1
  I  I62  1  0.16732197  0.66615598  0.83410460  1
  I  I63  1  0.50088477  -0.00338100  0.17090228  1
  I  I64  1  0.49891857  -0.00313931  0.49486181  1
  I  I65  1  0.49832101  -0.00048019  0.83331103  1
  I  I66  1  0.49966785  0.33624717  0.16542283  1
  I  I67  1  0.49852155  0.33658052  0.50086003  1
  I  I68  1  0.49853181  0.33918227  0.83405001  1
  I  I69  1  0.50538955  0.66706660  0.16612310  1
  I  I70  1  0.49964640  0.66602802  0.50007750  1
  I  I71  1  0.49943376  0.66361598  0.83355793  1
  I  I72  1  0.83048571  -0.00121291  0.16002991  1
  I  I73  1  0.82943668  -0.00009546  0.50629451  1
  I  I74  1  0.83864495  -0.00360949  0.83543382  1
  I  I75  1  0.83498962  0.33138158  0.16440653  1
  I  I76  1  0.82995554  0.33335010  0.50109968  1
  I  I77  1  0.83275463  0.33644140  0.83442779  1
  I  I78  1  0.82857100  0.66987085  0.16216207  1
  I  I79  1  0.83604220  0.66670714  0.49555786  1
  I  I80  1  0.83318696  0.66693311  0.83981287  1
  I  I81  1  0.16367410  0.16743754  0.00265681  1
  I  I82  1  0.16454212  0.16569048  0.33234946  1
  I  I83  1  0.17036083  0.16767268  0.66482873  1
  I  I84  1  0.16988743  0.50084765  -0.00372415  1
  I  I85  1  0.16826973  0.49977410  0.33331630  1
  I  I86  1  0.16955820  0.50087558  0.67078196  1
  I  I87  1  0.16867019  0.83188479  -0.00312568  1
  I  I88  1  0.16522159  0.83391860  0.33334618  1
  I  I89  1  0.16295435  0.83132895  0.67090152  1
  I  I90  1  0.49582399  0.16641106  0.00038551  1
  I  I91  1  0.50115226  0.17211538  0.33308008  1
  I  I92  1  0.49684291  0.16479433  0.66645772  1
  I  I93  1  0.49990423  0.50342593  -0.00024699  1
  I  I94  1  0.50015420  0.50334490  0.33300893  1
  I  I95  1  0.49897617  0.50454133  0.66708858  1
  I  I96  1  0.50085491  0.83001669  0.00261097  1
  I  I97  1  0.50477377  0.82577679  0.33209426  1
  I  I98  1  0.49833511  0.82890842  0.66484922  1
  I  I99  1  0.83976984  0.16588583  0.00336389  1
  I  I100  1  0.83244560  0.16053962  0.32857253  1
  I  I101  1  0.83397602  0.16687854  0.66657639  1
  I  I102  1  0.83029983  0.50049204  -0.00323937  1
  I  I103  1  0.83088208  0.49896866  0.33318572  1
  I  I104  1  0.83165053  0.50551226  0.67158757  1
  I  I105  1  0.83027623  0.83386143  0.00005248  1
  I  I106  1  0.82919390  0.83907560  0.32978766  1
  I  I107  1  0.83572296  0.82861534  0.67007458  1
  I  I108  1  -0.00034687  0.16071946  0.16890622  1
  I  I109  1  0.00376319  0.16644618  0.50097215  1
  I  I110  1  0.00000537  0.17219030  0.83168883  1
  I  I111  1  0.00006532  0.50053357  0.16404835  1
  I  I112  1  0.00026549  0.49820689  0.50102368  1
  I  I113  1  -0.00010668  0.50313593  0.83489851  1
  I  I114  1  -0.00276172  0.83748555  0.16185462  1
  I  I115  1  0.00027962  0.83520494  0.49856276  1
  I  I116  1  -0.00077117  0.82581703  0.83919764  1
  I  I117  1  0.33092907  0.16769749  0.16941869  1
  I  I118  1  0.33064034  0.16734847  0.49349044  1
  I  I119  1  0.33304167  0.16516929  0.83612491  1
  I  I120  1  0.33748451  0.50413946  0.16367429  1
  I  I121  1  0.33715095  0.50290387  0.50255487  1
  I  I122  1  0.33370764  0.50350729  0.83327337  1
  I  I123  1  0.33625877  0.83112043  0.16782775  1
  I  I124  1  0.33720257  0.82914115  0.49528300  1
  I  I125  1  0.33161389  0.83013048  0.83318234  1
  I  I126  1  0.66923488  0.16585575  0.16373154  1
  I  I127  1  0.66671522  0.16743430  0.50033599  1
  I  I128  1  0.66699755  0.16571353  0.83479111  1
  I  I129  1  0.66322122  0.49852080  0.16366972  1
  I  I130  1  0.66223249  0.50248998  0.50180402  1
  I  I131  1  0.66639972  0.50451568  0.83411701  1
  I  I132  1  0.66658447  0.83584596  0.16339227  1
  I  I133  1  0.66287641  0.82951059  0.50134129  1
  I  I134  1  0.66933032  0.82887051  0.83532151  1
