# generated using pymatgen
data_Cs27Sn14Pb13I81
_symmetry_space_group_name_H-M   'P 1'
_cell_length_a   18.96835343
_cell_length_b   18.97827643
_cell_length_c   18.97902294
_cell_angle_alpha   90.00068626
_cell_angle_beta   89.99895430
_cell_angle_gamma   89.99748476
_symmetry_Int_Tables_number   1
_chemical_formula_structural   Cs27Sn14Pb13I81
_chemical_formula_sum   'Cs27 Sn14 Pb13 I81'
_cell_volume   6832.19497141
_cell_formula_units_Z   1
loop_
 _symmetry_equiv_pos_site_id
 _symmetry_equiv_pos_as_xyz
  1  'x, y, z'
loop_
 _atom_site_type_symbol
 _atom_site_label
 _atom_site_symmetry_multiplicity
 _atom_site_fract_x
 _atom_site_fract_y
 _atom_site_fract_z
 _atom_site_occupancy
  Cs  Cs0  1  0.00077595  -0.00063690  0.00444710  1
  Cs  Cs1  1  -0.00177149  -0.00002027  0.33065094  1
  Cs  Cs2  1  0.00120666  0.00128283  0.66475000  1
  Cs  Cs3  1  -0.00180301  0.33356308  -0.00053815  1
  Cs  Cs4  1  0.00080360  0.33048743  0.33175653  1
  Cs  Cs5  1  0.00002136  0.33328340  0.66819199  1
  Cs  Cs6  1  0.00006624  0.66632814  0.00132987  1
  Cs  Cs7  1  -0.00274758  0.66980187  0.33262690  1
  Cs  Cs8  1  0.00080794  0.66630448  0.66652783  1
  Cs  Cs9  1  0.33531638  0.00079964  0.00186866  1
  Cs  Cs10  1  0.33270490  0.00152934  0.33222613  1
  Cs  Cs11  1  0.33432761  -0.00312522  0.66620495  1
  Cs  Cs12  1  0.33332863  0.33682115  0.00502968  1
  Cs  Cs13  1  0.34073989  0.33308343  0.33176572  1
  Cs  Cs14  1  0.32937147  0.33440058  0.66360250  1
  Cs  Cs15  1  0.33349221  0.66619732  -0.00266700  1
  Cs  Cs16  1  0.33473101  0.66624671  0.33347467  1
  Cs  Cs17  1  0.33131342  0.66915587  0.66983005  1
  Cs  Cs18  1  0.66402061  0.00008747  -0.00752399  1
  Cs  Cs19  1  0.67091861  -0.00237569  0.33436255  1
  Cs  Cs20  1  0.66215005  0.00165484  0.67161495  1
  Cs  Cs21  1  0.67009387  0.33060301  0.00018899  1
  Cs  Cs22  1  0.65794605  0.33454387  0.33337306  1
  Cs  Cs23  1  0.66987866  0.33148963  0.66522455  1
  Cs  Cs24  1  0.66324597  0.66761749  0.00042650  1
  Cs  Cs25  1  0.66790662  0.66660489  0.33534487  1
  Cs  Cs26  1  0.67084837  0.66550023  0.66445288  1
  Sn  Sn27  1  0.16583953  0.50020984  0.16700665  1
  Sn  Sn28  1  0.16641111  0.50006865  0.49952242  1
  Sn  Sn29  1  0.83395293  0.16676051  0.49925346  1
  Sn  Sn30  1  0.16604928  0.16658385  0.50044001  1
  Sn  Sn31  1  0.16711388  0.83340125  0.50026920  1
  Sn  Sn32  1  0.49969745  0.49945620  0.83288890  1
  Sn  Sn33  1  0.83384161  0.49931292  0.16696286  1
  Sn  Sn34  1  0.16730180  0.49977892  0.83336955  1
  Sn  Sn35  1  0.16550798  0.83378659  0.83295888  1
  Sn  Sn36  1  0.49920550  0.83325843  0.49900661  1
  Sn  Sn37  1  0.83342820  0.16751043  0.16761201  1
  Sn  Sn38  1  0.83476759  0.83316589  0.83310838  1
  Sn  Sn39  1  0.16677052  0.16652261  0.83306481  1
  Sn  Sn40  1  0.49975742  0.83341819  0.16776766  1
  Pb  Pb41  1  0.49764328  0.50233665  0.50254851  1
  Pb  Pb42  1  0.83575367  0.16473825  0.83321588  1
  Pb  Pb43  1  0.50017480  0.50159275  0.16501526  1
  Pb  Pb44  1  0.83118098  0.83332522  0.16457431  1
  Pb  Pb45  1  0.49943394  0.16436717  0.50010095  1
  Pb  Pb46  1  0.50336677  0.16401706  0.16665423  1
  Pb  Pb47  1  0.83386472  0.83550918  0.50209925  1
  Pb  Pb48  1  0.83573500  0.49750640  0.49756264  1
  Pb  Pb49  1  0.16540466  0.16898301  0.16703130  1
  Pb  Pb50  1  0.83395004  0.50161964  0.83508825  1
  Pb  Pb51  1  0.49923897  0.83179412  0.83265911  1
  Pb  Pb52  1  0.16818790  0.83117543  0.16679651  1
  Pb  Pb53  1  0.49641352  0.17014983  0.83311337  1
  I  I54  1  0.16612765  -0.00000533  0.16564247  1
  I  I55  1  0.16721887  -0.00019735  0.50758546  1
  I  I56  1  0.16146511  -0.00069016  0.82605294  1
  I  I57  1  0.16549739  0.33715314  0.16505581  1
  I  I58  1  0.16098818  0.33332807  0.50443499  1
  I  I59  1  0.17105956  0.33398770  0.83027366  1
  I  I60  1  0.16124629  0.66299045  0.16560063  1
  I  I61  1  0.17180400  0.66685435  0.50344206  1
  I  I62  1  0.16715776  0.66659098  0.83097004  1
  I  I63  1  0.49912315  -0.00383454  0.16856018  1
  I  I64  1  0.49360538  -0.00365793  0.49807999  1
  I  I65  1  0.50048237  -0.00007406  0.83401318  1
  I  I66  1  0.49842764  0.33352235  0.16492900  1
  I  I67  1  0.49936873  0.33352087  0.50092825  1
  I  I68  1  0.49514644  0.33784139  0.83538099  1
  I  I69  1  0.50153577  0.66926848  0.16921125  1
  I  I70  1  0.49497694  0.67025265  0.49708785  1
  I  I71  1  0.49285463  0.66436424  0.83416855  1
  I  I72  1  0.83248125  0.00244129  0.16960785  1
  I  I73  1  0.84014689  0.00310144  0.49348347  1
  I  I74  1  0.83739356  -0.00312082  0.83548612  1
  I  I75  1  0.83886686  0.33358127  0.16807021  1
  I  I76  1  0.83960269  0.32960054  0.50122955  1
  I  I77  1  0.83314092  0.33318151  0.83279821  1
  I  I78  1  0.83673965  0.66425165  0.16355398  1
  I  I79  1  0.83355363  0.66676037  0.49931247  1
  I  I80  1  0.83876694  0.66948481  0.83480452  1
  I  I81  1  0.16507227  0.16609147  -0.00265103  1
  I  I82  1  0.16404365  0.16532545  0.33651514  1
  I  I83  1  0.16091087  0.17041595  0.66603462  1
  I  I84  1  0.16701994  0.50054450  -0.00085296  1
  I  I85  1  0.16125565  0.50095351  0.33373054  1
  I  I86  1  0.17184619  0.50049483  0.66693613  1
  I  I87  1  0.16493510  0.83293180  -0.00294716  1
  I  I88  1  0.16914207  0.83346867  0.33641840  1
  I  I89  1  0.16856605  0.82971494  0.66665071  1
  I  I90  1  0.50020806  0.16210752  -0.00015999  1
  I  I91  1  0.49474484  0.16924922  0.33337372  1
  I  I92  1  0.50636727  0.16332200  0.66669046  1
  I  I93  1  0.49233092  0.50501584  -0.00257381  1
  I  I94  1  0.49881376  0.50031626  0.33355288  1
  I  I95  1  0.49358938  0.50344209  0.67014780  1
  I  I96  1  0.50114409  0.83088640  0.00129083  1
  I  I97  1  0.49444350  0.83223803  0.33427027  1
  I  I98  1  0.49744724  0.83256091  0.66425880  1
  I  I99  1  0.83461754  0.16944161  0.00226971  1
  I  I100  1  0.84094112  0.16800400  0.33368885  1
  I  I101  1  0.83626391  0.16406567  0.66419600  1
  I  I102  1  0.83938222  0.49482180  0.00294255  1
  I  I103  1  0.83887088  0.50107744  0.32961769  1
  I  I104  1  0.83276741  0.49985826  0.66655088  1
  I  I105  1  0.83834226  0.83455445  -0.00309563  1
  I  I106  1  0.83449700  0.83243326  0.33344847  1
  I  I107  1  0.83330269  0.83371915  0.66980772  1
  I  I108  1  -0.00253099  0.16689685  0.16757260  1
  I  I109  1  0.00179946  0.16445523  0.50015383  1
  I  I110  1  0.00389736  0.17212272  0.83156656  1
  I  I111  1  0.00110484  0.49779111  0.16356374  1
  I  I112  1  0.00444550  0.50563276  0.50632666  1
  I  I113  1  0.00388285  0.49893485  0.83164860  1
  I  I114  1  -0.00002057  0.83387743  0.16776802  1
  I  I115  1  0.00355174  0.83123967  0.50306826  1
  I  I116  1  0.00256913  0.83042602  0.82873765  1
  I  I117  1  0.33326567  0.16764010  0.16640803  1
  I  I118  1  0.32934027  0.16836291  0.50496037  1
  I  I119  1  0.32811471  0.15989412  0.82676922  1
  I  I120  1  0.33030587  0.50184256  0.16709895  1
  I  I121  1  0.32875510  0.49453285  0.49522715  1
  I  I122  1  0.33032296  0.50329781  0.83562590  1
  I  I123  1  0.33582312  0.83037662  0.16524667  1
  I  I124  1  0.33120933  0.83474394  0.50275828  1
  I  I125  1  0.32984991  0.83386768  0.83192914  1
  I  I126  1  0.67135588  0.17433280  0.17250068  1
  I  I127  1  0.66951795  0.16445355  0.49536405  1
  I  I128  1  0.66688216  0.16495616  0.83350092  1
  I  I129  1  0.66933333  0.49763653  0.16316201  1
  I  I130  1  0.66669924  0.50063409  0.50062254  1
  I  I131  1  0.66482124  0.50528638  0.83679541  1
  I  I132  1  0.66360420  0.83093964  0.17061283  1
  I  I133  1  0.66452291  0.83502561  0.49832971  1
  I  I134  1  0.66824573  0.83166999  0.83457318  1
