# generated using pymatgen
data_Cs27Sn14Pb13I81
_symmetry_space_group_name_H-M   'P 1'
_cell_length_a   18.98369578
_cell_length_b   18.96565779
_cell_length_c   18.97814584
_cell_angle_alpha   90.00094985
_cell_angle_beta   89.99999993
_cell_angle_gamma   89.99999999
_symmetry_Int_Tables_number   1
_chemical_formula_structural   Cs27Sn14Pb13I81
_chemical_formula_sum   'Cs27 Sn14 Pb13 I81'
_cell_volume   6832.85894058
_cell_formula_units_Z   1
loop_
 _symmetry_equiv_pos_site_id
 _symmetry_equiv_pos_as_xyz
  1  'x, y, z'
loop_
 _atom_site_type_symbol
 _atom_site_label
 _atom_site_symmetry_multiplicity
 _atom_site_fract_x
 _atom_site_fract_y
 _atom_site_fract_z
 _atom_site_occupancy
  Cs  Cs0  1  -0.00158270  -0.00085925  0.00189631  1
  Cs  Cs1  1  -0.00163262  -0.00007512  0.32967752  1
  Cs  Cs2  1  -0.00005292  -0.00225863  0.66997212  1
  Cs  Cs3  1  0.00114017  0.33391195  -0.00131998  1
  Cs  Cs4  1  -0.00155018  0.33450271  0.33850249  1
  Cs  Cs5  1  -0.00176750  0.33386022  0.66664400  1
  Cs  Cs6  1  -0.00185646  0.66660894  -0.00000223  1
  Cs  Cs7  1  -0.00042821  0.66656516  0.33388568  1
  Cs  Cs8  1  0.00316549  0.66814200  0.66431446  1
  Cs  Cs9  1  0.33333330  0.00184703  0.00155377  1
  Cs  Cs10  1  0.33333329  0.00118536  0.33296011  1
  Cs  Cs11  1  0.33333329  -0.00096509  0.66466421  1
  Cs  Cs12  1  0.33333330  0.33373621  -0.00085863  1
  Cs  Cs13  1  0.33333335  0.33510192  0.33280262  1
  Cs  Cs14  1  0.33333322  0.32916663  0.67180482  1
  Cs  Cs15  1  0.33333337  0.66380709  0.00097709  1
  Cs  Cs16  1  0.33333341  0.66014210  0.33774453  1
  Cs  Cs17  1  0.33333334  0.67671150  0.65976466  1
  Cs  Cs18  1  0.66824934  -0.00085912  0.00189627  1
  Cs  Cs19  1  0.66829916  -0.00007497  0.32967762  1
  Cs  Cs20  1  0.66671954  -0.00225867  0.66997217  1
  Cs  Cs21  1  0.66552659  0.33391198  -0.00132003  1
  Cs  Cs22  1  0.66821684  0.33450250  0.33850260  1
  Cs  Cs23  1  0.66843416  0.33386018  0.66664402  1
  Cs  Cs24  1  0.66852299  0.66660901  -0.00000230  1
  Cs  Cs25  1  0.66709458  0.66656500  0.33388577  1
  Cs  Cs26  1  0.66350123  0.66814194  0.66431464  1
  Sn  Sn27  1  0.49944194  0.16712482  0.83350507  1
  Sn  Sn28  1  0.49950334  0.49988467  0.83324464  1
  Sn  Sn29  1  0.16730142  0.16635415  0.16682597  1
  Sn  Sn30  1  0.83333331  0.83382235  0.49936236  1
  Sn  Sn31  1  0.49940625  0.83336518  0.16651668  1
  Sn  Sn32  1  0.16722472  0.16712480  0.83350506  1
  Sn  Sn33  1  0.83333331  0.50029982  0.16615302  1
  Sn  Sn34  1  0.16708140  0.16658485  0.49989299  1
  Sn  Sn35  1  0.49958523  0.16658484  0.49989305  1
  Sn  Sn36  1  0.16726042  0.83336517  0.16651669  1
  Sn  Sn37  1  0.83333335  0.50010164  0.83403830  1
  Sn  Sn38  1  0.49936526  0.16635416  0.16682599  1
  Sn  Sn39  1  0.83333333  0.83224677  0.16728146  1
  Sn  Sn40  1  0.16716330  0.49988470  0.83324470  1
  Pb  Pb41  1  0.16501406  0.83601547  0.49696744  1
  Pb  Pb42  1  0.83333333  0.50239443  0.50022335  1
  Pb  Pb43  1  0.16697794  0.49730566  0.50328751  1
  Pb  Pb44  1  0.83333333  0.16419979  0.50016981  1
  Pb  Pb45  1  0.50193201  0.49933744  0.16511492  1
  Pb  Pb46  1  0.16473465  0.49933747  0.16511493  1
  Pb  Pb47  1  0.49968873  0.49730562  0.50328756  1
  Pb  Pb48  1  0.83333334  0.16710901  0.16658824  1
  Pb  Pb49  1  0.50165258  0.83601548  0.49696746  1
  Pb  Pb50  1  0.16691157  0.83390801  0.83571699  1
  Pb  Pb51  1  0.83333334  0.16879797  0.83338948  1
  Pb  Pb52  1  0.83333330  0.83065192  0.83366349  1
  Pb  Pb53  1  0.49975505  0.83390801  0.83571700  1
  I  I54  1  0.16433022  0.00104515  0.16425401  1
  I  I55  1  0.17048573  0.00414370  0.50602241  1
  I  I56  1  0.17215207  0.00388350  0.83149675  1
  I  I57  1  0.17057743  0.32974387  0.16727468  1
  I  I58  1  0.16901787  0.32880916  0.49301966  1
  I  I59  1  0.16678625  0.33209926  0.83609843  1
  I  I60  1  0.16750278  0.66919202  0.16339669  1
  I  I61  1  0.16449464  0.66700388  0.50089334  1
  I  I62  1  0.16542823  0.66373590  0.83694357  1
  I  I63  1  0.50233647  0.00104510  0.16425392  1
  I  I64  1  0.49618111  0.00414370  0.50602248  1
  I  I65  1  0.49451459  0.00388349  0.83149672  1
  I  I66  1  0.49608942  0.32974386  0.16727460  1
  I  I67  1  0.49764904  0.32880918  0.49301940  1
  I  I68  1  0.49988045  0.33209925  0.83609873  1
  I  I69  1  0.49916357  0.66919201  0.16339694  1
  I  I70  1  0.50217191  0.66700389  0.50089342  1
  I  I71  1  0.50123838  0.66373591  0.83694317  1
  I  I72  1  0.83333328  -0.00285660  0.17082878  1
  I  I73  1  0.83333326  -0.00328146  0.49064297  1
  I  I74  1  0.83333333  -0.00019729  0.83380615  1
  I  I75  1  0.83333303  0.33609573  0.16094727  1
  I  I76  1  0.83333324  0.33329542  0.49915088  1
  I  I77  1  0.83333325  0.33694796  0.83984576  1
  I  I78  1  0.83333379  0.66771047  0.16562554  1
  I  I79  1  0.83333352  0.67016482  0.49722952  1
  I  I80  1  0.83333333  0.66242959  0.83615850  1
  I  I81  1  0.17202748  0.16684494  0.00010928  1
  I  I82  1  0.17203796  0.16077735  0.33238647  1
  I  I83  1  0.17223536  0.17247065  0.66744951  1
  I  I84  1  0.16798923  0.49389187  -0.00305517  1
  I  I85  1  0.16307367  0.49919535  0.33327332  1
  I  I86  1  0.16256758  0.49441725  0.67174341  1
  I  I87  1  0.16290608  0.83943490  0.00394309  1
  I  I88  1  0.16771781  0.83915202  0.32880244  1
  I  I89  1  0.16302842  0.83334866  0.66642942  1
  I  I90  1  0.49463925  0.16684482  0.00010927  1
  I  I91  1  0.49462866  0.16077727  0.33238646  1
  I  I92  1  0.49443136  0.17247091  0.66744950  1
  I  I93  1  0.49867754  0.49389216  -0.00305519  1
  I  I94  1  0.50359275  0.49919539  0.33327334  1
  I  I95  1  0.50409922  0.49441686  0.67174338  1
  I  I96  1  0.50376059  0.83943464  0.00394311  1
  I  I97  1  0.49894890  0.83915207  0.32880244  1
  I  I98  1  0.50363827  0.83334873  0.66642941  1
  I  I99  1  0.83333325  0.16222179  0.00013706  1
  I  I100  1  0.83333342  0.17155871  0.33317184  1
  I  I101  1  0.83333336  0.16579201  0.66675181  1
  I  I102  1  0.83333324  0.50567017  -0.00015503  1
  I  I103  1  0.83333356  0.50172235  0.33048017  1
  I  I104  1  0.83333323  0.49930987  0.67005686  1
  I  I105  1  0.83333338  0.83169947  0.00358044  1
  I  I106  1  0.83333350  0.82826277  0.33082096  1
  I  I107  1  0.83333328  0.83413150  0.66423232  1
  I  I108  1  0.00326968  0.16355787  0.16577793  1
  I  I109  1  0.00325906  0.16599098  0.49964215  1
  I  I110  1  0.00350833  0.17003732  0.83364603  1
  I  I111  1  -0.00315001  0.50384382  0.16003089  1
  I  I112  1  0.00002837  0.49661412  0.50249049  1
  I  I113  1  0.00022764  0.49569256  0.83793106  1
  I  I114  1  -0.00008912  0.83455431  0.16963920  1
  I  I115  1  -0.00276477  0.83494852  0.49393001  1
  I  I116  1  0.00006317  0.83465394  0.83597284  1
  I  I117  1  0.33333333  0.15902757  0.16575680  1
  I  I118  1  0.33333336  0.16604156  0.50041946  1
  I  I119  1  0.33333335  0.17484888  0.83448519  1
  I  I120  1  0.33333334  0.50331694  0.16475061  1
  I  I121  1  0.33333335  0.50482065  0.49769406  1
  I  I122  1  0.33333333  0.49253231  0.83503081  1
  I  I123  1  0.33333332  0.84050614  0.16318004  1
  I  I124  1  0.33333336  0.83191441  0.50012444  1
  I  I125  1  0.33333332  0.82723564  0.83459508  1
  I  I126  1  0.66339704  0.16355770  0.16577807  1
  I  I127  1  0.66340763  0.16599092  0.49964195  1
  I  I128  1  0.66315834  0.17003725  0.83364597  1
  I  I129  1  0.66981670  0.50384456  0.16003114  1
  I  I130  1  0.66663833  0.49661448  0.50249015  1
  I  I131  1  0.66643899  0.49569265  0.83793105  1
  I  I132  1  0.66675582  0.83455394  0.16963920  1
  I  I133  1  0.66943147  0.83494831  0.49392981  1
  I  I134  1  0.66660353  0.83465393  0.83597292  1
