# generated using pymatgen
data_Cs27Sn13Pb14I81
_symmetry_space_group_name_H-M   'P 1'
_cell_length_a   18.98137311
_cell_length_b   18.97727023
_cell_length_c   18.97148563
_cell_angle_alpha   89.99919657
_cell_angle_beta   89.99964192
_cell_angle_gamma   90.00153141
_symmetry_Int_Tables_number   1
_chemical_formula_structural   Cs27Sn13Pb14I81
_chemical_formula_sum   'Cs27 Sn13 Pb14 I81'
_cell_volume   6833.80699352
_cell_formula_units_Z   1
loop_
 _symmetry_equiv_pos_site_id
 _symmetry_equiv_pos_as_xyz
  1  'x, y, z'
loop_
 _atom_site_type_symbol
 _atom_site_label
 _atom_site_symmetry_multiplicity
 _atom_site_fract_x
 _atom_site_fract_y
 _atom_site_fract_z
 _atom_site_occupancy
  Cs  Cs0  1  -0.00000528  0.00466045  0.00138750  1
  Cs  Cs1  1  -0.00048404  -0.00472721  0.33756608  1
  Cs  Cs2  1  -0.00138903  -0.00041346  0.66188911  1
  Cs  Cs3  1  -0.00092660  0.33243394  -0.00021578  1
  Cs  Cs4  1  -0.00164415  0.33672770  0.33547961  1
  Cs  Cs5  1  0.00078164  0.33376123  0.66801658  1
  Cs  Cs6  1  -0.00035362  0.66397865  0.00171513  1
  Cs  Cs7  1  0.00381602  0.66732868  0.33223717  1
  Cs  Cs8  1  0.00078001  0.66553731  0.66597299  1
  Cs  Cs9  1  0.33110319  0.00418853  0.00104273  1
  Cs  Cs10  1  0.33316270  -0.00266298  0.32979535  1
  Cs  Cs11  1  0.33154226  -0.00081241  0.66867013  1
  Cs  Cs12  1  0.33178386  0.32806212  0.00229466  1
  Cs  Cs13  1  0.34286025  0.33157230  0.33015690  1
  Cs  Cs14  1  0.33123867  0.33493689  0.66721421  1
  Cs  Cs15  1  0.33198639  0.66741698  -0.00162496  1
  Cs  Cs16  1  0.33294187  0.66904769  0.33227603  1
  Cs  Cs17  1  0.33314678  0.66540934  0.66744621  1
  Cs  Cs18  1  0.66733890  -0.00301269  -0.00077069  1
  Cs  Cs19  1  0.66723070  0.00239558  0.33408515  1
  Cs  Cs20  1  0.66964774  -0.00180561  0.66586396  1
  Cs  Cs21  1  0.66930585  0.33328800  0.00054729  1
  Cs  Cs22  1  0.65861093  0.33166357  0.33390949  1
  Cs  Cs23  1  0.66678501  0.33323999  0.66518665  1
  Cs  Cs24  1  0.66767128  0.66952942  -0.00105526  1
  Cs  Cs25  1  0.66266912  0.66449635  0.32938906  1
  Cs  Cs26  1  0.66644242  0.66792166  0.66988348  1
  Sn  Sn27  1  0.83345418  0.16604441  0.16658608  1
  Sn  Sn28  1  0.83240725  0.16726783  0.83359806  1
  Sn  Sn29  1  0.83348671  0.50011613  0.50060560  1
  Sn  Sn30  1  0.16653456  0.50078663  0.83294080  1
  Sn  Sn31  1  0.16694273  0.16782987  0.49965552  1
  Sn  Sn32  1  0.50071640  0.83342969  0.16731448  1
  Sn  Sn33  1  0.50106935  0.16743483  0.83292567  1
  Sn  Sn34  1  0.83289581  0.83406172  0.16656728  1
  Sn  Sn35  1  0.50001060  0.49893882  0.83334091  1
  Sn  Sn36  1  0.16637883  0.49878539  0.50051936  1
  Sn  Sn37  1  0.16608310  0.83281240  0.83334971  1
  Sn  Sn38  1  0.50026674  0.83337189  0.49964862  1
  Sn  Sn39  1  0.83323017  0.49927542  0.83246684  1
  Pb  Pb40  1  0.49847896  0.83362282  0.83374645  1
  Pb  Pb41  1  0.83125507  0.83021900  0.49752670  1
  Pb  Pb42  1  0.83464627  0.16881736  0.50009159  1
  Pb  Pb43  1  0.49780098  0.16446246  0.50249628  1
  Pb  Pb44  1  0.50233607  0.16443114  0.16416599  1
  Pb  Pb45  1  0.16838262  0.83257904  0.50183793  1
  Pb  Pb46  1  0.16691510  0.49953191  0.16700903  1
  Pb  Pb47  1  0.16374468  0.16689735  0.17030608  1
  Pb  Pb48  1  0.83568022  0.83338538  0.83485685  1
  Pb  Pb49  1  0.16595183  0.16733779  0.83210377  1
  Pb  Pb50  1  0.16644568  0.83336102  0.16408560  1
  Pb  Pb51  1  0.83327936  0.49965372  0.16684527  1
  Pb  Pb52  1  0.49970368  0.50158435  0.50205327  1
  Pb  Pb53  1  0.49990880  0.50218697  0.16326739  1
  I  I54  1  0.16845582  0.00003273  0.16493567  1
  I  I55  1  0.16777509  0.00168442  0.50320248  1
  I  I56  1  0.16855275  -0.00144807  0.83171910  1
  I  I57  1  0.16406257  0.33307906  0.16042957  1
  I  I58  1  0.16227282  0.33493936  0.50813638  1
  I  I59  1  0.16665587  0.33648260  0.83036505  1
  I  I60  1  0.16408030  0.66675878  0.16922537  1
  I  I61  1  0.16379449  0.66340958  0.50344814  1
  I  I62  1  0.16781046  0.66473012  0.82830609  1
  I  I63  1  0.50161843  -0.00342048  0.16754545  1
  I  I64  1  0.49808489  -0.00322283  0.49914908  1
  I  I65  1  0.50249753  0.00237377  0.83340960  1
  I  I66  1  0.50128412  0.33298586  0.16808918  1
  I  I67  1  0.50112328  0.33343586  0.49940481  1
  I  I68  1  0.49874020  0.33395669  0.83200018  1
  I  I69  1  0.50665372  0.67029535  0.16810001  1
  I  I70  1  0.49825234  0.66936352  0.49887289  1
  I  I71  1  0.50163605  0.66408611  0.83313155  1
  I  I72  1  0.82956325  0.00023690  0.15994702  1
  I  I73  1  0.83509113  -0.00004426  0.50239157  1
  I  I74  1  0.83001828  0.00277731  0.83599299  1
  I  I75  1  0.83545079  0.33061049  0.16338951  1
  I  I76  1  0.83510844  0.33676751  0.50068067  1
  I  I77  1  0.83478932  0.33385901  0.83590804  1
  I  I78  1  0.82937723  0.66915979  0.16583568  1
  I  I79  1  0.84014152  0.66260085  0.50665112  1
  I  I80  1  0.83111440  0.66358961  0.83137493  1
  I  I81  1  0.16865942  0.16583572  -0.00013499  1
  I  I82  1  0.16567875  0.17200296  0.33797419  1
  I  I83  1  0.16489063  0.16765711  0.66447851  1
  I  I84  1  0.16534924  0.50497907  -0.00398792  1
  I  I85  1  0.15971216  0.49776243  0.33733223  1
  I  I86  1  0.16559921  0.50048007  0.66776696  1
  I  I87  1  0.16934773  0.82721582  -0.00385524  1
  I  I88  1  0.16604617  0.83297864  0.33339074  1
  I  I89  1  0.16942163  0.83159303  0.66964163  1
  I  I90  1  0.49919277  0.16860772  -0.00393672  1
  I  I91  1  0.50026117  0.16720385  0.33328823  1
  I  I92  1  0.50623646  0.16760563  0.67051366  1
  I  I93  1  0.50070354  0.49897916  -0.00522376  1
  I  I94  1  0.50037921  0.50028215  0.33346228  1
  I  I95  1  0.49991215  0.50029690  0.67038002  1
  I  I96  1  0.50324623  0.83254652  0.00221126  1
  I  I97  1  0.50265708  0.83245568  0.33287834  1
  I  I98  1  0.49652688  0.83251054  0.66530040  1
  I  I99  1  0.83040799  0.16848112  -0.00147154  1
  I  I100  1  0.83682561  0.16322780  0.33089746  1
  I  I101  1  0.83125648  0.16929275  0.66973774  1
  I  I102  1  0.83403364  0.49949864  -0.00347580  1
  I  I103  1  0.83993510  0.50159148  0.33630517  1
  I  I104  1  0.83452596  0.49492176  0.66846259  1
  I  I105  1  0.82685287  0.83226971  0.00267998  1
  I  I106  1  0.83302756  0.83873266  0.32966225  1
  I  I107  1  0.83214417  0.83579266  0.66665470  1
  I  I108  1  -0.00413083  0.16027633  0.15701644  1
  I  I109  1  0.00258189  0.16735152  0.50326356  1
  I  I110  1  -0.00298220  0.16943082  0.83639873  1
  I  I111  1  -0.00025739  0.50307085  0.16256791  1
  I  I112  1  0.00038640  0.49705512  0.50830457  1
  I  I113  1  -0.00032254  0.50026076  0.82965408  1
  I  I114  1  -0.00297603  0.83657519  0.16420113  1
  I  I115  1  -0.00007327  0.83476574  0.49946272  1
  I  I116  1  0.00320004  0.82914135  0.83385905  1
  I  I117  1  0.33360569  0.16496131  0.16478436  1
  I  I118  1  0.33010020  0.17322663  0.50385024  1
  I  I119  1  0.33516581  0.16831433  0.83089204  1
  I  I120  1  0.33355706  0.50283481  0.16676235  1
  I  I121  1  0.33040325  0.49859262  0.50594466  1
  I  I122  1  0.33282059  0.50157982  0.82911836  1
  I  I123  1  0.33609219  0.83178009  0.16930157  1
  I  I124  1  0.33609425  0.83161192  0.49505584  1
  I  I125  1  0.33081359  0.82923048  0.83384374  1
  I  I126  1  0.67024506  0.16545065  0.16545854  1
  I  I127  1  0.66667890  0.16735828  0.49882027  1
  I  I128  1  0.66750452  0.17354680  0.83635046  1
  I  I129  1  0.66677516  0.49952702  0.16756796  1
  I  I130  1  0.66911587  0.50226352  0.50461669  1
  I  I131  1  0.66743018  0.49614841  0.82964389  1
  I  I132  1  0.66687341  0.83623445  0.16854397  1
  I  I133  1  0.66362128  0.83238014  0.50129142  1
  I  I134  1  0.66679343  0.83076246  0.83258106  1
