# generated using pymatgen
data_Cs27Sn14Pb13I81
_symmetry_space_group_name_H-M   'P 1'
_cell_length_a   18.96470164
_cell_length_b   18.97723604
_cell_length_c   18.98599677
_cell_angle_alpha   90.00110612
_cell_angle_beta   90.00090567
_cell_angle_gamma   89.99963892
_symmetry_Int_Tables_number   1
_chemical_formula_structural   Cs27Sn14Pb13I81
_chemical_formula_sum   'Cs27 Sn14 Pb13 I81'
_cell_volume   6833.01503476
_cell_formula_units_Z   1
loop_
 _symmetry_equiv_pos_site_id
 _symmetry_equiv_pos_as_xyz
  1  'x, y, z'
loop_
 _atom_site_type_symbol
 _atom_site_label
 _atom_site_symmetry_multiplicity
 _atom_site_fract_x
 _atom_site_fract_y
 _atom_site_fract_z
 _atom_site_occupancy
  Cs  Cs0  1  -0.00813167  -0.00141109  -0.00155648  1
  Cs  Cs1  1  -0.00364607  -0.00394136  0.33265668  1
  Cs  Cs2  1  -0.00410626  -0.00695391  0.66988926  1
  Cs  Cs3  1  0.00278421  0.33558159  -0.00060225  1
  Cs  Cs4  1  0.00278176  0.33525064  0.33676224  1
  Cs  Cs5  1  -0.00374388  0.33054077  0.66240704  1
  Cs  Cs6  1  0.00204899  0.66568471  -0.00146720  1
  Cs  Cs7  1  -0.00287161  0.66737917  0.33466858  1
  Cs  Cs8  1  -0.00049547  0.67785770  0.66534356  1
  Cs  Cs9  1  0.33483850  0.00196704  0.00181208  1
  Cs  Cs10  1  0.33432529  0.00113742  0.33378278  1
  Cs  Cs11  1  0.33299162  0.00092800  0.66565320  1
  Cs  Cs12  1  0.33127913  0.33376825  -0.00091701  1
  Cs  Cs13  1  0.33256126  0.33176938  0.33345244  1
  Cs  Cs14  1  0.33439740  0.33143192  0.66660553  1
  Cs  Cs15  1  0.33225088  0.66399347  -0.00020922  1
  Cs  Cs16  1  0.33443662  0.66765511  0.33237130  1
  Cs  Cs17  1  0.33432838  0.66830545  0.66914405  1
  Cs  Cs18  1  0.67197635  0.00117140  0.00222523  1
  Cs  Cs19  1  0.66839802  0.00097857  0.32718957  1
  Cs  Cs20  1  0.66698838  0.00174765  0.66979050  1
  Cs  Cs21  1  0.66777755  0.33398057  0.00034465  1
  Cs  Cs22  1  0.66790817  0.33383107  0.33312305  1
  Cs  Cs23  1  0.66843868  0.33488472  0.66596592  1
  Cs  Cs24  1  0.66604037  0.66470815  0.00081372  1
  Cs  Cs25  1  0.66612407  0.66517359  0.33270478  1
  Cs  Cs26  1  0.66358060  0.66254713  0.66504587  1
  Sn  Sn27  1  0.49958931  0.83377619  0.49978035  1
  Sn  Sn28  1  0.49968189  0.16665701  0.50063124  1
  Sn  Sn29  1  0.83365953  0.50004078  0.83369000  1
  Sn  Sn30  1  0.49925625  0.16603454  0.83287440  1
  Sn  Sn31  1  0.16729669  0.16683626  0.50036501  1
  Sn  Sn32  1  0.50032265  0.50032528  0.16725614  1
  Sn  Sn33  1  0.16765883  0.83442690  0.16659253  1
  Sn  Sn34  1  0.49967846  0.83428083  0.83388622  1
  Sn  Sn35  1  0.49911021  0.83264138  0.16636596  1
  Sn  Sn36  1  0.16782788  0.49999685  0.50048574  1
  Sn  Sn37  1  0.16713455  0.16659563  0.83286194  1
  Sn  Sn38  1  0.16680403  0.16537687  0.16682406  1
  Sn  Sn39  1  0.83272345  0.49980544  0.16572434  1
  Sn  Sn40  1  0.49866071  0.49965143  0.49899814  1
  Pb  Pb41  1  0.50071797  0.49944256  0.83329324  1
  Pb  Pb42  1  0.83307537  0.16857656  0.83331806  1
  Pb  Pb43  1  0.16425414  0.49792833  0.82977517  1
  Pb  Pb44  1  0.83325778  0.16639133  0.49991480  1
  Pb  Pb45  1  0.16869115  0.83396059  0.49808058  1
  Pb  Pb46  1  0.83339285  0.50003974  0.49991678  1
  Pb  Pb47  1  0.49877005  0.16697850  0.16662228  1
  Pb  Pb48  1  0.82950193  0.83349813  0.49987216  1
  Pb  Pb49  1  0.83000147  0.83055513  0.83346918  1
  Pb  Pb50  1  0.83307335  0.83080492  0.16658407  1
  Pb  Pb51  1  0.16907172  0.83590334  0.83596852  1
  Pb  Pb52  1  0.16710824  0.50017364  0.16837247  1
  Pb  Pb53  1  0.83716119  0.16969874  0.16680097  1
  I  I54  1  0.17490712  0.00030520  0.16918962  1
  I  I55  1  0.17200082  0.00332326  0.50088486  1
  I  I56  1  0.16847046  0.00412137  0.82690177  1
  I  I57  1  0.16679889  0.33082743  0.16585885  1
  I  I58  1  0.17417821  0.33248035  0.49702551  1
  I  I59  1  0.17439457  0.32974401  0.83941650  1
  I  I60  1  0.16824206  0.66882616  0.16902978  1
  I  I61  1  0.17023431  0.66439908  0.49670974  1
  I  I62  1  0.16666515  0.66682604  0.83408850  1
  I  I63  1  0.49675754  -0.00250075  0.16932838  1
  I  I64  1  0.49535840  0.00051927  0.50067052  1
  I  I65  1  0.49575048  0.00046460  0.82968650  1
  I  I66  1  0.50207050  0.33602332  0.16960347  1
  I  I67  1  0.49643483  0.33338213  0.50015726  1
  I  I68  1  0.49785962  0.33046148  0.83039420  1
  I  I69  1  0.49836606  0.66683107  0.16949849  1
  I  I70  1  0.49704990  0.66616733  0.49947543  1
  I  I71  1  0.50339563  0.66885224  0.83100725  1
  I  I72  1  0.83070800  -0.00008613  0.16695322  1
  I  I73  1  0.83505624  -0.00002649  0.50036995  1
  I  I74  1  0.83478491  -0.00011078  0.83267467  1
  I  I75  1  0.82600780  0.33739775  0.16354023  1
  I  I76  1  0.82904885  0.33351584  0.49974198  1
  I  I77  1  0.82986442  0.33620555  0.83756178  1
  I  I78  1  0.83320068  0.66300472  0.16370872  1
  I  I79  1  0.83522518  0.66635862  0.50031306  1
  I  I80  1  0.83173464  0.66297201  0.83750199  1
  I  I81  1  0.17188234  0.16346927  -0.00013473  1
  I  I82  1  0.17178304  0.16821747  0.33407314  1
  I  I83  1  0.17230405  0.17387575  0.66600911  1
  I  I84  1  0.16815502  0.49852050  -0.00002117  1
  I  I85  1  0.16690575  0.49392785  0.33607438  1
  I  I86  1  0.17325233  0.49492007  0.66205395  1
  I  I87  1  0.17335942  0.83624746  0.00380115  1
  I  I88  1  0.17312337  0.83752786  0.33030341  1
  I  I89  1  0.16709949  0.83227168  0.66666593  1
  I  I90  1  0.49551138  0.16461959  -0.00241492  1
  I  I91  1  0.49566931  0.16558358  0.33607462  1
  I  I92  1  0.49308700  0.16458694  0.66611538  1
  I  I93  1  0.50259607  0.50312835  0.00253734  1
  I  I94  1  0.50231363  0.50266423  0.33355616  1
  I  I95  1  0.49880299  0.50229596  0.66382585  1
  I  I96  1  0.49604094  0.83235265  0.00069940  1
  I  I97  1  0.49594180  0.83182252  0.33307794  1
  I  I98  1  0.50109107  0.83269454  0.66622966  1
  I  I99  1  0.83201852  0.16655222  0.00012253  1
  I  I100  1  0.83121298  0.16953084  0.33317982  1
  I  I101  1  0.83596172  0.17123805  0.66673211  1
  I  I102  1  0.82624749  0.49945737  0.00110147  1
  I  I103  1  0.83126017  0.50056669  0.33080501  1
  I  I104  1  0.83121493  0.49805944  0.66871417  1
  I  I105  1  0.83097952  0.83428497  0.00007372  1
  I  I106  1  0.83239421  0.83034918  0.33298093  1
  I  I107  1  0.83429580  0.82999659  0.66688744  1
  I  I108  1  0.00548150  0.16163646  0.16695278  1
  I  I109  1  0.00401309  0.17451125  0.49952160  1
  I  I110  1  0.00325699  0.17029899  0.83314880  1
  I  I111  1  -0.00184381  0.49865923  0.16465030  1
  I  I112  1  0.00301013  0.49273015  0.49880811  1
  I  I113  1  -0.00319204  0.49712907  0.84088047  1
  I  I114  1  0.00298464  0.83689011  0.16756714  1
  I  I115  1  0.00042192  0.83189872  0.49791573  1
  I  I116  1  0.00015422  0.83406234  0.83461073  1
  I  I117  1  0.33059453  0.16850463  0.16717323  1
  I  I118  1  0.33399175  0.16824357  0.50067659  1
  I  I119  1  0.33400350  0.16433409  0.83199531  1
  I  I120  1  0.33618013  0.50166006  0.16949203  1
  I  I121  1  0.33510229  0.49826128  0.49369432  1
  I  I122  1  0.33324082  0.50151312  0.83617794  1
  I  I123  1  0.33504720  0.83052270  0.16734590  1
  I  I124  1  0.33728285  0.83276701  0.50120759  1
  I  I125  1  0.33739305  0.83252598  0.83068529  1
  I  I126  1  0.66658257  0.16443515  0.16662554  1
  I  I127  1  0.66223848  0.16818664  0.50541775  1
  I  I128  1  0.66299924  0.16394055  0.82822023  1
  I  I129  1  0.66472506  0.50552729  0.16889900  1
  I  I130  1  0.66303110  0.50022659  0.49931958  1
  I  I131  1  0.66848389  0.49877113  0.83314595  1
  I  I132  1  0.66281175  0.83115242  0.16774379  1
  I  I133  1  0.66057608  0.83134480  0.49679434  1
  I  I134  1  0.66161657  0.84085636  0.83558974  1
