# generated using pymatgen
data_Cs27Sn13Pb14I81
_symmetry_space_group_name_H-M   'P 1'
_cell_length_a   18.97642921
_cell_length_b   18.97127895
_cell_length_c   18.98051037
_cell_angle_alpha   90.00029422
_cell_angle_beta   89.99886070
_cell_angle_gamma   90.00140396
_symmetry_Int_Tables_number   1
_chemical_formula_structural   Cs27Sn13Pb14I81
_chemical_formula_sum   'Cs27 Sn13 Pb14 I81'
_cell_volume   6833.11910212
_cell_formula_units_Z   1
loop_
 _symmetry_equiv_pos_site_id
 _symmetry_equiv_pos_as_xyz
  1  'x, y, z'
loop_
 _atom_site_type_symbol
 _atom_site_label
 _atom_site_symmetry_multiplicity
 _atom_site_fract_x
 _atom_site_fract_y
 _atom_site_fract_z
 _atom_site_occupancy
  Cs  Cs0  1  0.00038878  -0.00351952  0.00061756  1
  Cs  Cs1  1  0.00655754  0.00263515  0.33256436  1
  Cs  Cs2  1  -0.00109046  -0.00019219  0.66648173  1
  Cs  Cs3  1  -0.00087802  0.33269117  0.00030766  1
  Cs  Cs4  1  -0.00208569  0.33285962  0.33136669  1
  Cs  Cs5  1  0.00074633  0.33238247  0.66637946  1
  Cs  Cs6  1  0.00225317  0.66993347  -0.00605799  1
  Cs  Cs7  1  -0.00451983  0.66332112  0.33251263  1
  Cs  Cs8  1  -0.00013661  0.66830182  0.67292900  1
  Cs  Cs9  1  0.33800839  0.00270138  0.01079251  1
  Cs  Cs10  1  0.32527094  -0.00791572  0.32916307  1
  Cs  Cs11  1  0.33314684  0.00211524  0.66023125  1
  Cs  Cs12  1  0.33619924  0.33496001  -0.00199788  1
  Cs  Cs13  1  0.33049677  0.33462927  0.33562681  1
  Cs  Cs14  1  0.33400496  0.33385615  0.66746679  1
  Cs  Cs15  1  0.33023244  0.66424794  0.00063644  1
  Cs  Cs16  1  0.33512962  0.66994109  0.33298740  1
  Cs  Cs17  1  0.33264950  0.66601660  0.66622052  1
  Cs  Cs18  1  0.66479562  0.00313381  0.00030951  1
  Cs  Cs19  1  0.66606221  -0.00345559  0.33279644  1
  Cs  Cs20  1  0.66838099  0.00130737  0.66753836  1
  Cs  Cs21  1  0.66568269  0.33086345  0.00047856  1
  Cs  Cs22  1  0.67094670  0.33556115  0.33452951  1
  Cs  Cs23  1  0.66606901  0.33284454  0.66616052  1
  Cs  Cs24  1  0.66714421  0.66677941  -0.00247930  1
  Cs  Cs25  1  0.66732802  0.66616225  0.33400051  1
  Cs  Cs26  1  0.66698287  0.66742172  0.66649838  1
  Sn  Sn27  1  0.83326498  0.83441756  0.49909920  1
  Sn  Sn28  1  0.16725701  0.50001361  0.49936949  1
  Sn  Sn29  1  0.50040469  0.16689810  0.49949694  1
  Sn  Sn30  1  0.83249031  0.16581680  0.50050587  1
  Sn  Sn31  1  0.16627450  0.16634147  0.83344514  1
  Sn  Sn32  1  0.83249649  0.49894160  0.83317522  1
  Sn  Sn33  1  0.83429419  0.16755320  0.83262795  1
  Sn  Sn34  1  0.83315336  0.83345736  0.16762054  1
  Sn  Sn35  1  0.49949878  0.83304720  0.83302145  1
  Sn  Sn36  1  0.16714872  0.49983787  0.16762074  1
  Sn  Sn37  1  0.49934671  0.49933999  0.49982222  1
  Sn  Sn38  1  0.50096673  0.50100642  0.83315869  1
  Sn  Sn39  1  0.49964757  0.49980858  0.16699313  1
  Pb  Pb40  1  0.50013638  0.16680635  0.83175454  1
  Pb  Pb41  1  0.16709810  0.49875032  0.83323738  1
  Pb  Pb42  1  0.17048572  0.83701535  0.83337436  1
  Pb  Pb43  1  0.50183322  0.83077463  0.16453807  1
  Pb  Pb44  1  0.16667896  0.16937487  0.16399471  1
  Pb  Pb45  1  0.16357787  0.83019118  0.50028283  1
  Pb  Pb46  1  0.16648534  0.16857738  0.50124184  1
  Pb  Pb47  1  0.83328628  0.49976147  0.50199276  1
  Pb  Pb48  1  0.83323195  0.16432182  0.16688639  1
  Pb  Pb49  1  0.83192664  0.83412882  0.83307481  1
  Pb  Pb50  1  0.83335073  0.50161408  0.16367011  1
  Pb  Pb51  1  0.50157312  0.83320709  0.50140998  1
  Pb  Pb52  1  0.16422272  0.83037806  0.16661947  1
  Pb  Pb53  1  0.50011358  0.16918373  0.17087058  1
  I  I54  1  0.16612418  -0.00008855  0.16552690  1
  I  I55  1  0.16937549  0.00021147  0.50182727  1
  I  I56  1  0.15857340  0.00448297  0.83062235  1
  I  I57  1  0.16905956  0.33749478  0.17055946  1
  I  I58  1  0.16650277  0.33674921  0.49782723  1
  I  I59  1  0.16599522  0.33111393  0.83267477  1
  I  I60  1  0.17119988  0.66236186  0.16850778  1
  I  I61  1  0.17262013  0.66198228  0.49827368  1
  I  I62  1  0.16322312  0.66649586  0.83355523  1
  I  I63  1  0.50169389  -0.00019832  0.16408639  1
  I  I64  1  0.50417537  0.00258321  0.50598226  1
  I  I65  1  0.50195865  -0.00178811  0.83040445  1
  I  I66  1  0.49805172  0.33782068  0.15941386  1
  I  I67  1  0.50259487  0.33474422  0.50311554  1
  I  I68  1  0.50104875  0.33642020  0.83439611  1
  I  I69  1  0.49734292  0.66234406  0.17099963  1
  I  I70  1  0.49846369  0.66320148  0.49945932  1
  I  I71  1  0.50673923  0.66401393  0.83119252  1
  I  I72  1  0.83203909  -0.00345068  0.16493695  1
  I  I73  1  0.82702835  0.00129603  0.50351645  1
  I  I74  1  0.83481060  0.00293615  0.83168200  1
  I  I75  1  0.83346523  0.33364426  0.16801159  1
  I  I76  1  0.83197058  0.33093933  0.50380497  1
  I  I77  1  0.83120746  0.33317814  0.82832116  1
  I  I78  1  0.83248137  0.66916676  0.17204347  1
  I  I79  1  0.83301840  0.66838705  0.49852816  1
  I  I80  1  0.83088025  0.66453916  0.83277734  1
  I  I81  1  0.16034042  0.16924667  -0.00401984  1
  I  I82  1  0.16600985  0.16722894  0.33343891  1
  I  I83  1  0.16518706  0.17130385  0.66909306  1
  I  I84  1  0.16954435  0.49834537  0.00194391  1
  I  I85  1  0.17380365  0.49955842  0.33374662  1
  I  I86  1  0.16964445  0.49782797  0.66451391  1
  I  I87  1  0.16228425  0.82997759  -0.00015660  1
  I  I88  1  0.16910000  0.83599489  0.33350541  1
  I  I89  1  0.16353511  0.82904322  0.66686745  1
  I  I90  1  0.50048570  0.16693298  -0.00000952  1
  I  I91  1  0.50748441  0.17245711  0.33871282  1
  I  I92  1  0.50173803  0.17291959  0.66397783  1
  I  I93  1  0.49986328  0.50474579  -0.00076315  1
  I  I94  1  0.49579724  0.49519425  0.33413801  1
  I  I95  1  0.50006902  0.49962438  0.66658481  1
  I  I96  1  0.50368529  0.82911952  -0.00344027  1
  I  I97  1  0.50136061  0.83240774  0.33334055  1
  I  I98  1  0.50391215  0.82691491  0.66925961  1
  I  I99  1  0.83641222  0.16968210  -0.00331059  1
  I  I100  1  0.82890414  0.16610163  0.33690058  1
  I  I101  1  0.83275501  0.16518052  0.66665580  1
  I  I102  1  0.82966815  0.49670696  -0.00417035  1
  I  I103  1  0.83186181  0.49888154  0.33343208  1
  I  I104  1  0.82987888  0.50095384  0.66980130  1
  I  I105  1  0.83173559  0.83084359  0.00144186  1
  I  I106  1  0.83135526  0.83627940  0.33444870  1
  I  I107  1  0.83118771  0.83393590  0.66453459  1
  I  I108  1  -0.00016419  0.17001271  0.17013746  1
  I  I109  1  -0.00308653  0.16466585  0.50334667  1
  I  I110  1  -0.00204804  0.17336519  0.82744352  1
  I  I111  1  0.00234501  0.50122986  0.17061892  1
  I  I112  1  0.00201652  0.49995963  0.49708024  1
  I  I113  1  -0.00224094  0.49828284  0.83270014  1
  I  I114  1  -0.00366492  0.83114086  0.16872735  1
  I  I115  1  -0.00458760  0.83821238  0.49841079  1
  I  I116  1  -0.00012746  0.82979615  0.83350506  1
  I  I117  1  0.33355255  0.16448598  0.16414901  1
  I  I118  1  0.33591311  0.17151654  0.50454206  1
  I  I119  1  0.33170710  0.16883447  0.83104293  1
  I  I120  1  0.33432845  0.49978945  0.16439184  1
  I  I121  1  0.33507630  0.49415370  0.50239086  1
  I  I122  1  0.33640252  0.50121750  0.83315339  1
  I  I123  1  0.33351151  0.83461910  0.16493021  1
  I  I124  1  0.33347559  0.83598135  0.50187362  1
  I  I125  1  0.33795454  0.82457633  0.83222044  1
  I  I126  1  0.66665048  0.16932229  0.16109758  1
  I  I127  1  0.66733487  0.16971638  0.50678600  1
  I  I128  1  0.66929155  0.16804440  0.83051671  1
  I  I129  1  0.66384857  0.50166896  0.16883353  1
  I  I130  1  0.66396659  0.49908868  0.49873344  1
  I  I131  1  0.66578567  0.49850117  0.83282492  1
  I  I132  1  0.66951980  0.83041193  0.16985239  1
  I  I133  1  0.66968603  0.83190770  0.49837908  1
  I  I134  1  0.66429420  0.83136051  0.83283261  1
