# generated using pymatgen
data_Cs27Sn14Pb13I81
_symmetry_space_group_name_H-M   'P 1'
_cell_length_a   18.98297257
_cell_length_b   18.97202767
_cell_length_c   18.97296728
_cell_angle_alpha   89.99896231
_cell_angle_beta   90.00058971
_cell_angle_gamma   89.99805611
_symmetry_Int_Tables_number   1
_chemical_formula_structural   Cs27Sn14Pb13I81
_chemical_formula_sum   'Cs27 Sn14 Pb13 I81'
_cell_volume   6833.02841743
_cell_formula_units_Z   1
loop_
 _symmetry_equiv_pos_site_id
 _symmetry_equiv_pos_as_xyz
  1  'x, y, z'
loop_
 _atom_site_type_symbol
 _atom_site_label
 _atom_site_symmetry_multiplicity
 _atom_site_fract_x
 _atom_site_fract_y
 _atom_site_fract_z
 _atom_site_occupancy
  Cs  Cs0  1  -0.00110588  0.00245453  -0.00243406  1
  Cs  Cs1  1  0.00023072  0.00267492  0.33146832  1
  Cs  Cs2  1  -0.00157144  -0.00596060  0.67333294  1
  Cs  Cs3  1  -0.00012432  0.33313834  -0.00011716  1
  Cs  Cs4  1  0.00053162  0.33285498  0.33197344  1
  Cs  Cs5  1  0.00225016  0.33137216  0.66966015  1
  Cs  Cs6  1  0.00004768  0.66254861  0.00296093  1
  Cs  Cs7  1  -0.00182042  0.66662447  0.33380005  1
  Cs  Cs8  1  -0.00043888  0.67417305  0.66396618  1
  Cs  Cs9  1  0.33448417  -0.00150342  0.00085331  1
  Cs  Cs10  1  0.33468032  0.00147841  0.33235478  1
  Cs  Cs11  1  0.33206080  -0.00969169  0.66579071  1
  Cs  Cs12  1  0.33349421  0.33450929  -0.00014699  1
  Cs  Cs13  1  0.33181891  0.33193956  0.33361398  1
  Cs  Cs14  1  0.33498032  0.33400783  0.66683859  1
  Cs  Cs15  1  0.33611282  0.66375091  0.00090324  1
  Cs  Cs16  1  0.33228762  0.66940830  0.33207180  1
  Cs  Cs17  1  0.33200422  0.67082378  0.66577519  1
  Cs  Cs18  1  0.66668729  -0.00183972  -0.00011603  1
  Cs  Cs19  1  0.66388992  0.00321258  0.33188192  1
  Cs  Cs20  1  0.66910203  -0.00760908  0.66640184  1
  Cs  Cs21  1  0.66513762  0.33399809  -0.00033817  1
  Cs  Cs22  1  0.66813489  0.33251649  0.33647439  1
  Cs  Cs23  1  0.66222216  0.33395694  0.66589838  1
  Cs  Cs24  1  0.66268883  0.66519980  0.00005249  1
  Cs  Cs25  1  0.67075579  0.66671270  0.34128168  1
  Cs  Cs26  1  0.67022703  0.67202161  0.65911770  1
  Sn  Sn27  1  0.16740799  0.49990746  0.16685733  1
  Sn  Sn28  1  0.83342141  0.16614748  0.16694663  1
  Sn  Sn29  1  0.49989638  0.16808831  0.16559125  1
  Sn  Sn30  1  0.16563775  0.83358258  0.16644358  1
  Sn  Sn31  1  0.16667309  0.16665646  0.16682598  1
  Sn  Sn32  1  0.83293280  0.49980109  0.83305377  1
  Sn  Sn33  1  0.16665627  0.49905579  0.49977883  1
  Sn  Sn34  1  0.16658372  0.49964232  0.83306554  1
  Sn  Sn35  1  0.49959638  0.49897179  0.16680689  1
  Sn  Sn36  1  0.83391440  0.83396648  0.16635414  1
  Sn  Sn37  1  0.50031311  0.49922989  0.83369364  1
  Sn  Sn38  1  0.49973678  0.16702393  0.83382328  1
  Sn  Sn39  1  0.16558271  0.16735857  0.49992499  1
  Sn  Sn40  1  0.83455057  0.16715997  0.50000998  1
  Pb  Pb41  1  0.83625843  0.49739993  0.50291073  1
  Pb  Pb42  1  0.49941412  0.16659947  0.50027381  1
  Pb  Pb43  1  0.50032815  0.83297200  0.16684306  1
  Pb  Pb44  1  0.49747597  0.49998736  0.49980019  1
  Pb  Pb45  1  0.83099942  0.16832182  0.83330605  1
  Pb  Pb46  1  0.50004431  0.83269174  0.83363562  1
  Pb  Pb47  1  0.83339269  0.83026757  0.83655243  1
  Pb  Pb48  1  0.16653468  0.83412925  0.49714055  1
  Pb  Pb49  1  0.16666266  0.83013071  0.83671169  1
  Pb  Pb50  1  0.49991589  0.83336219  0.49956389  1
  Pb  Pb51  1  0.83384365  0.83685991  0.49688087  1
  Pb  Pb52  1  0.16889445  0.16812851  0.83307119  1
  Pb  Pb53  1  0.83284773  0.49954144  0.16573225  1
  I  I54  1  0.16725101  0.00154358  0.17218136  1
  I  I55  1  0.16464665  0.00381358  0.49440091  1
  I  I56  1  0.16854546  0.00000193  0.83262078  1
  I  I57  1  0.16695774  0.33345521  0.16701127  1
  I  I58  1  0.16352450  0.33313950  0.49399636  1
  I  I59  1  0.16505364  0.33677059  0.83860149  1
  I  I60  1  0.16686017  0.66511827  0.16558071  1
  I  I61  1  0.16887364  0.66364626  0.50022809  1
  I  I62  1  0.17005584  0.66132847  0.83239996  1
  I  I63  1  0.49751102  0.00347725  0.16369115  1
  I  I64  1  0.49714314  0.00078165  0.49938281  1
  I  I65  1  0.50025126  0.00319342  0.83873451  1
  I  I66  1  0.49661979  0.33292846  0.16230559  1
  I  I67  1  0.50231668  0.33321504  0.49991918  1
  I  I68  1  0.49960170  0.33451438  0.83868221  1
  I  I69  1  0.49550606  0.66311975  0.16088988  1
  I  I70  1  0.49861955  0.66605696  0.49913652  1
  I  I71  1  0.49837366  0.66229480  0.84007371  1
  I  I72  1  0.83636996  0.00167004  0.17010214  1
  I  I73  1  0.83981589  0.00473944  0.49995766  1
  I  I74  1  0.83121174  0.00016306  0.83091836  1
  I  I75  1  0.83569192  0.33022342  0.16862128  1
  I  I76  1  0.83463526  0.32986648  0.49056568  1
  I  I77  1  0.83609690  0.33624508  0.83747290  1
  I  I78  1  0.83718823  0.66834767  0.16253791  1
  I  I79  1  0.83297398  0.66664658  0.50002498  1
  I  I80  1  0.83184094  0.66210952  0.83567929  1
  I  I81  1  0.16377951  0.16744391  0.00352507  1
  I  I82  1  0.16777342  0.17117146  0.33142113  1
  I  I83  1  0.16350652  0.17341101  0.66386332  1
  I  I84  1  0.16731900  0.50042843  0.00100189  1
  I  I85  1  0.17129115  0.49929062  0.33177472  1
  I  I86  1  0.16695373  0.49300439  0.66679235  1
  I  I87  1  0.16352854  0.83542635  0.00480848  1
  I  I88  1  0.16339694  0.82801773  0.32905373  1
  I  I89  1  0.16773972  0.83346458  0.66667916  1
  I  I90  1  0.49985794  0.17113427  0.00196313  1
  I  I91  1  0.50002947  0.17027841  0.32971692  1
  I  I92  1  0.49999929  0.17353140  0.66969678  1
  I  I93  1  0.49483029  0.49637281  0.00052601  1
  I  I94  1  0.49556723  0.49548034  0.32973844  1
  I  I95  1  0.49880383  0.49433794  0.67008231  1
  I  I96  1  0.49956656  0.83334889  0.00047454  1
  I  I97  1  0.49931658  0.83323338  0.33234627  1
  I  I98  1  0.49981494  0.83422155  0.66699333  1
  I  I99  1  0.83648078  0.16435607  0.00338104  1
  I  I100  1  0.83205743  0.16375641  0.33143052  1
  I  I101  1  0.83734635  0.17133251  0.66422144  1
  I  I102  1  0.83811621  0.49798092  -0.00211806  1
  I  I103  1  0.83234684  0.50276721  0.33348159  1
  I  I104  1  0.83119211  0.49672188  0.67071150  1
  I  I105  1  0.83769959  0.84167548  0.00416251  1
  I  I106  1  0.83771336  0.83138798  0.32910561  1
  I  I107  1  0.83203012  0.83374026  0.66657181  1
  I  I108  1  0.00068116  0.16688109  0.17109314  1
  I  I109  1  0.00100997  0.17193283  0.48986805  1
  I  I110  1  0.00011540  0.16976035  0.83609784  1
  I  I111  1  0.00304941  0.49811979  0.16508772  1
  I  I112  1  0.00425399  0.49814193  0.49654326  1
  I  I113  1  0.00117630  0.49976015  0.83588487  1
  I  I114  1  0.00085101  0.83526325  0.16673893  1
  I  I115  1  0.00016448  0.82942780  0.50120955  1
  I  I116  1  0.00008059  0.83242867  0.83229388  1
  I  I117  1  0.33260471  0.16717957  0.16723839  1
  I  I118  1  0.32982515  0.17160764  0.49519730  1
  I  I119  1  0.33664723  0.17375919  0.83849868  1
  I  I120  1  0.33206208  0.49775332  0.16243022  1
  I  I121  1  0.32924403  0.49259728  0.50231433  1
  I  I122  1  0.33326423  0.49565072  0.83561344  1
  I  I123  1  0.33038104  0.83472548  0.16715649  1
  I  I124  1  0.33262502  0.83542631  0.49808048  1
  I  I125  1  0.33322086  0.83265156  0.83484088  1
  I  I126  1  0.66661513  0.16622818  0.16706973  1
  I  I127  1  0.66914161  0.16594023  0.49522523  1
  I  I128  1  0.66324961  0.17438901  0.83853887  1
  I  I129  1  0.66389417  0.49716083  0.15992852  1
  I  I130  1  0.66694055  0.49969466  0.49971287  1
  I  I131  1  0.66541219  0.49513884  0.84150314  1
  I  I132  1  0.66947612  0.83733708  0.16607679  1
  I  I133  1  0.66735322  0.83392510  0.49759296  1
  I  I134  1  0.66678318  0.83163572  0.83612445  1
