# generated using pymatgen
data_Cs27Sn13Pb14I81
_symmetry_space_group_name_H-M   'P 1'
_cell_length_a   18.98625454
_cell_length_b   18.99223441
_cell_length_c   18.99409236
_cell_angle_alpha   90.00063482
_cell_angle_beta   89.99997232
_cell_angle_gamma   90.00097919
_symmetry_Int_Tables_number   1
_chemical_formula_structural   Cs27Sn13Pb14I81
_chemical_formula_sum   'Cs27 Sn13 Pb14 I81'
_cell_volume   6849.10629343
_cell_formula_units_Z   1
loop_
 _symmetry_equiv_pos_site_id
 _symmetry_equiv_pos_as_xyz
  1  'x, y, z'
loop_
 _atom_site_type_symbol
 _atom_site_label
 _atom_site_symmetry_multiplicity
 _atom_site_fract_x
 _atom_site_fract_y
 _atom_site_fract_z
 _atom_site_occupancy
  Cs  Cs0  1  -0.00914223  -0.00026186  -0.00200287  1
  Cs  Cs1  1  -0.00467154  -0.00282662  0.33126678  1
  Cs  Cs2  1  -0.00164323  0.00385817  0.66966800  1
  Cs  Cs3  1  -0.00016196  0.33654008  -0.00510024  1
  Cs  Cs4  1  0.00169607  0.33379896  0.33666818  1
  Cs  Cs5  1  0.00036132  0.33181919  0.66806539  1
  Cs  Cs6  1  0.00056914  0.66485678  0.00439515  1
  Cs  Cs7  1  0.00232490  0.67000716  0.32831841  1
  Cs  Cs8  1  0.00292066  0.66499084  0.66608222  1
  Cs  Cs9  1  0.33537628  0.00256739  -0.00011251  1
  Cs  Cs10  1  0.33292056  0.00474785  0.33398077  1
  Cs  Cs11  1  0.33182371  -0.00035089  0.66618893  1
  Cs  Cs12  1  0.33558615  0.33351789  -0.00089772  1
  Cs  Cs13  1  0.33301387  0.33035275  0.33347554  1
  Cs  Cs14  1  0.33240899  0.33246449  0.66700780  1
  Cs  Cs15  1  0.33380577  0.66615236  0.00141584  1
  Cs  Cs16  1  0.33138509  0.66752732  0.33199919  1
  Cs  Cs17  1  0.33413601  0.66844191  0.66617291  1
  Cs  Cs18  1  0.67328212  -0.00208494  0.00258128  1
  Cs  Cs19  1  0.67641883  0.00240296  0.32910621  1
  Cs  Cs20  1  0.67167501  -0.01105929  0.66747192  1
  Cs  Cs21  1  0.66284995  0.33466567  0.00264233  1
  Cs  Cs22  1  0.66840263  0.33212230  0.33356416  1
  Cs  Cs23  1  0.66682801  0.33621273  0.66372269  1
  Cs  Cs24  1  0.66483026  0.66508706  -0.00232966  1
  Cs  Cs25  1  0.66534094  0.66595029  0.34228474  1
  Cs  Cs26  1  0.66495669  0.67232696  0.66076006  1
  Sn  Sn27  1  0.16732878  0.16639116  0.49909132  1
  Sn  Sn28  1  0.16644495  0.16669717  0.16666956  1
  Sn  Sn29  1  0.83267729  0.50001832  0.83363980  1
  Sn  Sn30  1  0.49981967  0.16630551  0.50140903  1
  Sn  Sn31  1  0.49961370  0.83267387  0.16684583  1
  Sn  Sn32  1  0.16711573  0.50092565  0.83245979  1
  Sn  Sn33  1  0.50010193  0.16678226  0.83191120  1
  Sn  Sn34  1  0.16721474  0.83366919  0.50065362  1
  Sn  Sn35  1  0.83206162  0.49983162  0.16632014  1
  Sn  Sn36  1  0.16723665  0.50006457  0.50070695  1
  Sn  Sn37  1  0.50072205  0.50099186  0.16653680  1
  Sn  Sn38  1  0.50031051  0.49951494  0.83335754  1
  Sn  Sn39  1  0.16711162  0.83273154  0.83332527  1
  Pb  Pb40  1  0.83660042  0.16994828  0.16645711  1
  Pb  Pb41  1  0.82918337  0.16941269  0.83308553  1
  Pb  Pb42  1  0.16719990  0.49840230  0.16624983  1
  Pb  Pb43  1  0.16793804  0.16665563  0.83315018  1
  Pb  Pb44  1  0.49770761  0.49843926  0.50000427  1
  Pb  Pb45  1  0.83014960  0.82992996  0.16655156  1
  Pb  Pb46  1  0.16816532  0.83595563  0.16606707  1
  Pb  Pb47  1  0.83329426  0.16677423  0.50036923  1
  Pb  Pb48  1  0.49809758  0.83318158  0.83478830  1
  Pb  Pb49  1  0.83675658  0.83314598  0.50006854  1
  Pb  Pb50  1  0.49910614  0.16698231  0.16669389  1
  Pb  Pb51  1  0.83643959  0.82995109  0.83339320  1
  Pb  Pb52  1  0.83623505  0.50004788  0.50007365  1
  Pb  Pb53  1  0.49785553  0.83665232  0.49735742  1
  I  I54  1  0.17222908  0.00337061  0.17084869  1
  I  I55  1  0.17234944  0.00043852  0.50002985  1
  I  I56  1  0.17099311  -0.00207458  0.83056962  1
  I  I57  1  0.16946352  0.33089646  0.17146551  1
  I  I58  1  0.16985851  0.33319902  0.49952426  1
  I  I59  1  0.16513634  0.33647549  0.83110686  1
  I  I60  1  0.16495539  0.66650741  0.16978336  1
  I  I61  1  0.16580071  0.66632144  0.50517950  1
  I  I62  1  0.16860932  0.66490153  0.82566645  1
  I  I63  1  0.49349338  -0.00154206  0.16674878  1
  I  I64  1  0.49111429  0.00423665  0.50496148  1
  I  I65  1  0.49382330  0.00252422  0.83162428  1
  I  I66  1  0.50181493  0.33626943  0.16462641  1
  I  I67  1  0.49193511  0.33072781  0.49909942  1
  I  I68  1  0.49618642  0.33505347  0.83644443  1
  I  I69  1  0.50114108  0.66472761  0.15977585  1
  I  I70  1  0.49839469  0.66688175  0.50144128  1
  I  I71  1  0.50049337  0.66314213  0.83687227  1
  I  I72  1  0.83245553  -0.00010240  0.16758886  1
  I  I73  1  0.83437102  -0.00000650  0.49909434  1
  I  I74  1  0.83446931  -0.00018513  0.83295574  1
  I  I75  1  0.82554325  0.33743783  0.16248613  1
  I  I76  1  0.83742350  0.33365257  0.49940442  1
  I  I77  1  0.84149820  0.33761437  0.83715218  1
  I  I78  1  0.83644751  0.66228303  0.16144268  1
  I  I79  1  0.83352255  0.66630535  0.49991899  1
  I  I80  1  0.82858426  0.66187931  0.83778507  1
  I  I81  1  0.17053795  0.16854852  0.00161684  1
  I  I82  1  0.17385297  0.16847322  0.33504326  1
  I  I83  1  0.16937575  0.16730572  0.66390204  1
  I  I84  1  0.16671253  0.50238970  -0.00307853  1
  I  I85  1  0.16681553  0.50112939  0.33568052  1
  I  I86  1  0.16657011  0.49838789  0.66760945  1
  I  I87  1  0.16904783  0.82780977  -0.00273577  1
  I  I88  1  0.16862432  0.83025287  0.33603273  1
  I  I89  1  0.16843821  0.83333953  0.66642435  1
  I  I90  1  0.49569096  0.16955935  -0.00215261  1
  I  I91  1  0.49459248  0.16737008  0.33558181  1
  I  I92  1  0.49110623  0.17451530  0.66689576  1
  I  I93  1  0.49746852  0.49729128  -0.00091515  1
  I  I94  1  0.50255428  0.50172603  0.33056812  1
  I  I95  1  0.50115776  0.49675106  0.66976408  1
  I  I96  1  0.49508902  0.83335208  0.00244051  1
  I  I97  1  0.49604946  0.82616420  0.32998125  1
  I  I98  1  0.50046698  0.83124418  0.66642985  1
  I  I99  1  0.83546933  0.16480827  -0.00019197  1
  I  I100  1  0.82902387  0.16985785  0.33321867  1
  I  I101  1  0.83974971  0.17055734  0.66692531  1
  I  I102  1  0.83612210  0.49942722  -0.00076368  1
  I  I103  1  0.82930844  0.49932177  0.33043237  1
  I  I104  1  0.83187365  0.49894786  0.66998138  1
  I  I105  1  0.83747650  0.83618307  0.00001928  1
  I  I106  1  0.83593586  0.83097947  0.33305440  1
  I  I107  1  0.82908885  0.83055254  0.66691028  1
  I  I108  1  0.00450698  0.16689212  0.17390138  1
  I  I109  1  0.00407844  0.16722344  0.49557734  1
  I  I110  1  -0.00007075  0.16701925  0.83355215  1
  I  I111  1  -0.00152559  0.49641975  0.16349302  1
  I  I112  1  0.00474506  0.49690029  0.50351829  1
  I  I113  1  0.00101224  0.50450015  0.83419323  1
  I  I114  1  0.00000930  0.83330539  0.16777889  1
  I  I115  1  0.00553988  0.83518466  0.50241025  1
  I  I116  1  0.00476470  0.83027589  0.82978929  1
  I  I117  1  0.33122320  0.17005355  0.16880453  1
  I  I118  1  0.33194895  0.16785247  0.49938547  1
  I  I119  1  0.33566884  0.17358424  0.83328617  1
  I  I120  1  0.33596786  0.50156858  0.16296004  1
  I  I121  1  0.32946506  0.50078426  0.50345726  1
  I  I122  1  0.33336196  0.49937098  0.83432069  1
  I  I123  1  0.33561856  0.82502199  0.16598446  1
  I  I124  1  0.32965393  0.83077530  0.50375975  1
  I  I125  1  0.33019095  0.82679892  0.83000826  1
  I  I126  1  0.66674224  0.16426444  0.16736295  1
  I  I127  1  0.66319301  0.16979635  0.50281252  1
  I  I128  1  0.66114873  0.17221711  0.82935058  1
  I  I129  1  0.66545444  0.50252235  0.15731713  1
  I  I130  1  0.66643149  0.49734006  0.50151037  1
  I  I131  1  0.66562199  0.49293466  0.84042687  1
  I  I132  1  0.66231944  0.83553737  0.16491638  1
  I  I133  1  0.66623611  0.83445971  0.49899101  1
  I  I134  1  0.66660447  0.83431152  0.83522836  1
