# generated using pymatgen
data_Cs27Sn13Pb14I81
_symmetry_space_group_name_H-M   'P 1'
_cell_length_a   18.98025279
_cell_length_b   18.97543726
_cell_length_c   18.97453551
_cell_angle_alpha   90.00188722
_cell_angle_beta   90.00128226
_cell_angle_gamma   89.99918469
_symmetry_Int_Tables_number   1
_chemical_formula_structural   Cs27Sn13Pb14I81
_chemical_formula_sum   'Cs27 Sn13 Pb14 I81'
_cell_volume   6833.84206502
_cell_formula_units_Z   1
loop_
 _symmetry_equiv_pos_site_id
 _symmetry_equiv_pos_as_xyz
  1  'x, y, z'
loop_
 _atom_site_type_symbol
 _atom_site_label
 _atom_site_symmetry_multiplicity
 _atom_site_fract_x
 _atom_site_fract_y
 _atom_site_fract_z
 _atom_site_occupancy
  Cs  Cs0  1  0.00192009  0.00310656  -0.00154019  1
  Cs  Cs1  1  -0.00473153  -0.00009420  0.33498243  1
  Cs  Cs2  1  0.00166471  0.00003931  0.66758891  1
  Cs  Cs3  1  -0.00354559  0.32876916  -0.00326887  1
  Cs  Cs4  1  0.00301629  0.33566619  0.33469536  1
  Cs  Cs5  1  -0.00046699  0.33191523  0.66706211  1
  Cs  Cs6  1  0.00656607  0.66881338  0.00178264  1
  Cs  Cs7  1  -0.00027162  0.66526567  0.33222744  1
  Cs  Cs8  1  -0.00101638  0.66833674  0.66381392  1
  Cs  Cs9  1  0.33128705  -0.00422607  -0.00105623  1
  Cs  Cs10  1  0.33732009  0.00406748  0.33356303  1
  Cs  Cs11  1  0.33345892  0.00012421  0.66733548  1
  Cs  Cs12  1  0.33282614  0.33527972  -0.00227039  1
  Cs  Cs13  1  0.33163262  0.33316961  0.33448008  1
  Cs  Cs14  1  0.33470526  0.33313619  0.66528018  1
  Cs  Cs15  1  0.33099107  0.66887506  0.00192944  1
  Cs  Cs16  1  0.33102732  0.66381254  0.33156510  1
  Cs  Cs17  1  0.33519897  0.66714967  0.66604044  1
  Cs  Cs18  1  0.66712039  0.00118138  0.00827537  1
  Cs  Cs19  1  0.66726187  0.00123096  0.32616594  1
  Cs  Cs20  1  0.66360940  -0.00447503  0.66429165  1
  Cs  Cs21  1  0.67156065  0.33585002  -0.00182672  1
  Cs  Cs22  1  0.66583621  0.33216076  0.33341319  1
  Cs  Cs23  1  0.66635089  0.33531939  0.66792325  1
  Cs  Cs24  1  0.66449241  0.66302605  -0.00321576  1
  Cs  Cs25  1  0.66832115  0.66757192  0.33417024  1
  Cs  Cs26  1  0.66601799  0.66740129  0.66775261  1
  Sn  Sn27  1  0.16769318  0.83421450  0.49987023  1
  Sn  Sn28  1  0.16643036  0.49998001  0.83289296  1
  Sn  Sn29  1  0.50110887  0.83452625  0.83284748  1
  Sn  Sn30  1  0.83273755  0.50013584  0.16734168  1
  Sn  Sn31  1  0.50078857  0.50077820  0.49917227  1
  Sn  Sn32  1  0.16597001  0.16564466  0.49931649  1
  Sn  Sn33  1  0.16680946  0.16647866  0.16734943  1
  Sn  Sn34  1  0.50045088  0.16561239  0.83340429  1
  Sn  Sn35  1  0.49916558  0.83260488  0.50009156  1
  Sn  Sn36  1  0.50059541  0.50001072  0.16773031  1
  Sn  Sn37  1  0.83352643  0.16722510  0.50033093  1
  Sn  Sn38  1  0.83254273  0.83354857  0.83359741  1
  Sn  Sn39  1  0.83237524  0.49918403  0.49942175  1
  Pb  Pb40  1  0.16717667  0.83175891  0.83125461  1
  Pb  Pb41  1  0.49872236  0.50069087  0.83305309  1
  Pb  Pb42  1  0.50000832  0.83100475  0.16696540  1
  Pb  Pb43  1  0.16837665  0.16806056  0.83262127  1
  Pb  Pb44  1  0.83278834  0.83328522  0.50088244  1
  Pb  Pb45  1  0.16632610  0.49809405  0.16450389  1
  Pb  Pb46  1  0.83077089  0.16415738  0.83084078  1
  Pb  Pb47  1  0.16667581  0.49985589  0.50124002  1
  Pb  Pb48  1  0.83558971  0.50185525  0.83299841  1
  Pb  Pb49  1  0.49816954  0.16943962  0.16381280  1
  Pb  Pb50  1  0.83522888  0.16899146  0.16906275  1
  Pb  Pb51  1  0.16671502  0.83625726  0.17010553  1
  Pb  Pb52  1  0.83333724  0.83065289  0.16351903  1
  Pb  Pb53  1  0.50023228  0.16661353  0.50098471  1
  I  I54  1  0.16725160  0.00410358  0.16580039  1
  I  I55  1  0.16664105  0.00052245  0.49824663  1
  I  I56  1  0.16578800  -0.00010148  0.83457051  1
  I  I57  1  0.16769497  0.33067767  0.17410109  1
  I  I58  1  0.16621403  0.33088233  0.49839449  1
  I  I59  1  0.16925156  0.33572142  0.83113388  1
  I  I60  1  0.16679504  0.66643561  0.16579277  1
  I  I61  1  0.16768445  0.66862640  0.50442585  1
  I  I62  1  0.16871713  0.66415089  0.83199803  1
  I  I63  1  0.49863171  0.00017239  0.16853469  1
  I  I64  1  0.49818718  -0.00254737  0.50478463  1
  I  I65  1  0.50133224  -0.00134705  0.82548400  1
  I  I66  1  0.50250212  0.33726857  0.17181614  1
  I  I67  1  0.50006954  0.33601820  0.49909899  1
  I  I68  1  0.49587670  0.33202575  0.83231668  1
  I  I69  1  0.50216426  0.66279476  0.16558111  1
  I  I70  1  0.49962508  0.66646613  0.50329330  1
  I  I71  1  0.50214867  0.66937231  0.83111923  1
  I  I72  1  0.83450978  0.00032732  0.16769456  1
  I  I73  1  0.83564677  0.00221551  0.50371619  1
  I  I74  1  0.83362610  -0.00349528  0.82956241  1
  I  I75  1  0.82946656  0.33698021  0.16671712  1
  I  I76  1  0.83396273  0.33429245  0.49752516  1
  I  I77  1  0.83291723  0.33331658  0.83445047  1
  I  I78  1  0.83100275  0.66246477  0.17465497  1
  I  I79  1  0.83299478  0.66391800  0.49837885  1
  I  I80  1  0.82660517  0.66933387  0.82996322  1
  I  I81  1  0.16907352  0.17136879  0.00171370  1
  I  I82  1  0.16431488  0.16496118  0.33516404  1
  I  I83  1  0.16428962  0.16457653  0.66341706  1
  I  I84  1  0.16825922  0.49900609  -0.00289270  1
  I  I85  1  0.16702809  0.50127638  0.33347062  1
  I  I86  1  0.16783860  0.49852561  0.66865111  1
  I  I87  1  0.16686955  0.83268503  -0.00012135  1
  I  I88  1  0.17186761  0.83157333  0.33830515  1
  I  I89  1  0.16810693  0.83855800  0.66335719  1
  I  I90  1  0.49704559  0.16212063  -0.00382214  1
  I  I91  1  0.50090672  0.16476764  0.33335734  1
  I  I92  1  0.49736580  0.16802148  0.66876906  1
  I  I93  1  0.50226654  0.49865171  0.00204142  1
  I  I94  1  0.50255351  0.50479707  0.33486744  1
  I  I95  1  0.50254213  0.50093940  0.66379576  1
  I  I96  1  0.50356008  0.83530433  -0.00318489  1
  I  I97  1  0.49579458  0.83083732  0.33690191  1
  I  I98  1  0.49983774  0.83063798  0.66604376  1
  I  I99  1  0.83499089  0.16783281  -0.00006277  1
  I  I100  1  0.83357891  0.16661447  0.33728728  1
  I  I101  1  0.84059389  0.17424752  0.66294815  1
  I  I102  1  0.82950414  0.50199024  0.00235409  1
  I  I103  1  0.83009640  0.49694446  0.33470438  1
  I  I104  1  0.83001787  0.49787941  0.66347338  1
  I  I105  1  0.82690182  0.83146382  -0.00442753  1
  I  I106  1  0.83353030  0.83476442  0.33346830  1
  I  I107  1  0.83158694  0.83035861  0.66865862  1
  I  I108  1  0.00310683  0.16991845  0.16724815  1
  I  I109  1  0.00059776  0.16732764  0.49722983  1
  I  I110  1  -0.00017217  0.16668094  0.83470421  1
  I  I111  1  -0.00269852  0.49919616  0.17086058  1
  I  I112  1  -0.00250270  0.49973866  0.49781150  1
  I  I113  1  0.00281430  0.50102705  0.83248650  1
  I  I114  1  0.00012325  0.82912969  0.16601087  1
  I  I115  1  0.00193464  0.83389438  0.50282417  1
  I  I116  1  -0.00173605  0.82926823  0.83069626  1
  I  I117  1  0.33052901  0.16994947  0.17443078  1
  I  I118  1  0.33098308  0.16641990  0.49859516  1
  I  I119  1  0.33609061  0.16217022  0.83044380  1
  I  I120  1  0.33583323  0.49881438  0.16973390  1
  I  I121  1  0.33598030  0.50078002  0.49837382  1
  I  I122  1  0.33127604  0.50071171  0.83249711  1
  I  I123  1  0.33335350  0.82948979  0.16148920  1
  I  I124  1  0.33437622  0.83263754  0.50666755  1
  I  I125  1  0.33639906  0.83514004  0.83030986  1
  I  I126  1  0.66671692  0.16596355  0.16727673  1
  I  I127  1  0.66891954  0.16866376  0.50358254  1
  I  I128  1  0.66310666  0.16801482  0.83082523  1
  I  I129  1  0.66644152  0.49973430  0.16992234  1
  I  I130  1  0.66635197  0.49997987  0.49774953  1
  I  I131  1  0.66670426  0.49883451  0.83357616  1
  I  I132  1  0.66657620  0.83651677  0.17146037  1
  I  I133  1  0.66374908  0.83115384  0.50417852  1
  I  I134  1  0.66505084  0.83440936  0.82524942  1
