# generated using pymatgen
data_Cs27Sn14Pb13I81
_symmetry_space_group_name_H-M   'P 1'
_cell_length_a   18.98413687
_cell_length_b   18.97526342
_cell_length_c   18.97047001
_cell_angle_alpha   89.99986223
_cell_angle_beta   90.00019634
_cell_angle_gamma   90.00015567
_symmetry_Int_Tables_number   1
_chemical_formula_structural   Cs27Sn14Pb13I81
_chemical_formula_sum   'Cs27 Sn14 Pb13 I81'
_cell_volume   6833.71340287
_cell_formula_units_Z   1
loop_
 _symmetry_equiv_pos_site_id
 _symmetry_equiv_pos_as_xyz
  1  'x, y, z'
loop_
 _atom_site_type_symbol
 _atom_site_label
 _atom_site_symmetry_multiplicity
 _atom_site_fract_x
 _atom_site_fract_y
 _atom_site_fract_z
 _atom_site_occupancy
  Cs  Cs0  1  0.00189298  0.00227888  -0.00093170  1
  Cs  Cs1  1  -0.00209844  0.00046885  0.33250605  1
  Cs  Cs2  1  -0.00782190  -0.00334469  0.67457130  1
  Cs  Cs3  1  -0.00060550  0.33297967  -0.00360974  1
  Cs  Cs4  1  0.00240922  0.33216614  0.33531746  1
  Cs  Cs5  1  -0.00129152  0.33122541  0.66665721  1
  Cs  Cs6  1  -0.00418063  0.66467987  0.00212335  1
  Cs  Cs7  1  0.00312637  0.66634505  0.33206970  1
  Cs  Cs8  1  -0.00071463  0.67033416  0.66711939  1
  Cs  Cs9  1  0.33254892  0.00106754  -0.00104499  1
  Cs  Cs10  1  0.33307888  0.00194278  0.33237181  1
  Cs  Cs11  1  0.33396206  -0.00552930  0.67090643  1
  Cs  Cs12  1  0.33503182  0.33200795  -0.00170527  1
  Cs  Cs13  1  0.33380661  0.33281196  0.33493401  1
  Cs  Cs14  1  0.33401957  0.33468609  0.66549969  1
  Cs  Cs15  1  0.33315303  0.66647913  -0.00074272  1
  Cs  Cs16  1  0.33064880  0.66569774  0.33484732  1
  Cs  Cs17  1  0.33505278  0.66751473  0.66559965  1
  Cs  Cs18  1  0.66506277  -0.00252986  0.00295162  1
  Cs  Cs19  1  0.67006250  0.00047750  0.33300527  1
  Cs  Cs20  1  0.67192384  -0.00569199  0.66587624  1
  Cs  Cs21  1  0.66407106  0.33746535  0.00027225  1
  Cs  Cs22  1  0.66354818  0.33357269  0.33410548  1
  Cs  Cs23  1  0.66520429  0.33261947  0.66464333  1
  Cs  Cs24  1  0.67125054  0.66455987  -0.00009929  1
  Cs  Cs25  1  0.66696774  0.66511728  0.33204609  1
  Cs  Cs26  1  0.66414174  0.67201742  0.66922779  1
  Sn  Sn27  1  0.16690555  0.83367623  0.16699675  1
  Sn  Sn28  1  0.16594616  0.16696702  0.16730730  1
  Sn  Sn29  1  0.49900953  0.16677296  0.50122400  1
  Sn  Sn30  1  0.83412170  0.16684947  0.16669071  1
  Sn  Sn31  1  0.16731470  0.49977041  0.83288468  1
  Sn  Sn32  1  0.50003501  0.16717848  0.83187263  1
  Sn  Sn33  1  0.49963159  0.83303396  0.16718524  1
  Sn  Sn34  1  0.49997280  0.49937777  0.50081008  1
  Sn  Sn35  1  0.16697702  0.49929751  0.16629000  1
  Sn  Sn36  1  0.49900801  0.49900268  0.83245899  1
  Sn  Sn37  1  0.16650886  0.49915473  0.50056458  1
  Sn  Sn38  1  0.83342119  0.50003708  0.50007921  1
  Sn  Sn39  1  0.16716345  0.16661995  0.50016734  1
  Sn  Sn40  1  0.83376416  0.83413876  0.16714898  1
  Pb  Pb41  1  0.83343029  0.83331441  0.83630114  1
  Pb  Pb42  1  0.82988962  0.16708184  0.83615901  1
  Pb  Pb43  1  0.16661568  0.83436849  0.49847722  1
  Pb  Pb44  1  0.49966599  0.16520441  0.16706830  1
  Pb  Pb45  1  0.49987431  0.83294216  0.83575888  1
  Pb  Pb46  1  0.83353155  0.16820883  0.49835819  1
  Pb  Pb47  1  0.83584157  0.49931967  0.16854059  1
  Pb  Pb48  1  0.49976549  0.83377441  0.49775795  1
  Pb  Pb49  1  0.49772981  0.50188619  0.16678742  1
  Pb  Pb50  1  0.16668451  0.83033473  0.83601799  1
  Pb  Pb51  1  0.83351638  0.83067085  0.49758913  1
  Pb  Pb52  1  0.83305679  0.49975140  0.83030011  1
  Pb  Pb53  1  0.16830609  0.16853057  0.83258269  1
  I  I54  1  0.16632353  0.00071441  0.17189864  1
  I  I55  1  0.17330957  0.00401740  0.49236333  1
  I  I56  1  0.16904208  0.00018607  0.83445858  1
  I  I57  1  0.16219949  0.33315241  0.16827821  1
  I  I58  1  0.16792264  0.33447517  0.49351641  1
  I  I59  1  0.16888810  0.33684008  0.83929129  1
  I  I60  1  0.16724443  0.66616558  0.16688829  1
  I  I61  1  0.16791976  0.66304336  0.49828171  1
  I  I62  1  0.17381244  0.66171431  0.83166770  1
  I  I63  1  0.49583307  -0.00264856  0.16640892  1
  I  I64  1  0.49433647  0.00371456  0.50207132  1
  I  I65  1  0.49979238  0.00290580  0.83085741  1
  I  I66  1  0.50117656  0.33347583  0.16598093  1
  I  I67  1  0.49906033  0.33421321  0.50190790  1
  I  I68  1  0.49583291  0.33434440  0.83144232  1
  I  I69  1  0.50031765  0.66969156  0.16675010  1
  I  I70  1  0.49854665  0.66309164  0.50268990  1
  I  I71  1  0.49581316  0.66311224  0.82944501  1
  I  I72  1  0.83777708  -0.00014082  0.16771038  1
  I  I73  1  0.83239477  0.00018084  0.49953569  1
  I  I74  1  0.83175464  0.00031457  0.83026246  1
  I  I75  1  0.83760506  0.33066888  0.16818435  1
  I  I76  1  0.83371428  0.33624774  0.49568970  1
  I  I77  1  0.83526041  0.33354672  0.83902950  1
  I  I78  1  0.83414052  0.66893189  0.16832854  1
  I  I79  1  0.83390383  0.66236517  0.49735272  1
  I  I80  1  0.83132307  0.66621627  0.83623369  1
  I  I81  1  0.16485563  0.16693239  0.00300542  1
  I  I82  1  0.16924223  0.17157191  0.33265334  1
  I  I83  1  0.16956938  0.17392439  0.66328822  1
  I  I84  1  0.17154473  0.50123967  0.00056548  1
  I  I85  1  0.16685464  0.50075363  0.33357708  1
  I  I86  1  0.16754679  0.49434204  0.66543390  1
  I  I87  1  0.16701822  0.83457722  0.00505316  1
  I  I88  1  0.16667809  0.82748852  0.32931837  1
  I  I89  1  0.16753106  0.83293223  0.66682090  1
  I  I90  1  0.50028885  0.17007488  -0.00182823  1
  I  I91  1  0.49894337  0.17099523  0.33600213  1
  I  I92  1  0.49367912  0.17243872  0.66545927  1
  I  I93  1  0.49522273  0.49695653  -0.00250301  1
  I  I94  1  0.49915138  0.49679884  0.33646721  1
  I  I95  1  0.49498685  0.49662790  0.66582497  1
  I  I96  1  0.49950402  0.83386754  0.00391201  1
  I  I97  1  0.49925449  0.83276680  0.32958366  1
  I  I98  1  0.50024548  0.83288762  0.66668456  1
  I  I99  1  0.83957166  0.16292507  0.00451441  1
  I  I100  1  0.83283567  0.16297664  0.33012463  1
  I  I101  1  0.83647029  0.16836074  0.66650392  1
  I  I102  1  0.83297440  0.50174953  0.00020845  1
  I  I103  1  0.83180656  0.50057320  0.33626068  1
  I  I104  1  0.83866822  0.49777666  0.66244834  1
  I  I105  1  0.83324834  0.83454517  0.00504532  1
  I  I106  1  0.83385560  0.83715073  0.32915318  1
  I  I107  1  0.83269999  0.83269306  0.66648727  1
  I  I108  1  0.00182445  0.16251412  0.17218024  1
  I  I109  1  0.00321960  0.17300059  0.49439940  1
  I  I110  1  0.00007182  0.16762332  0.83210259  1
  I  I111  1  0.00416660  0.50484099  0.16672262  1
  I  I112  1  0.00191078  0.49673634  0.49746901  1
  I  I113  1  0.00322370  0.50110420  0.83483714  1
  I  I114  1  0.00071066  0.83281366  0.16737028  1
  I  I115  1  0.00014208  0.83154961  0.49618452  1
  I  I116  1  0.00025394  0.83176106  0.83467143  1
  I  I117  1  0.33035770  0.16629828  0.16761871  1
  I  I118  1  0.33298118  0.17583548  0.49496425  1
  I  I119  1  0.33625523  0.16934042  0.83636266  1
  I  I120  1  0.32947376  0.49924950  0.17077914  1
  I  I121  1  0.33292207  0.49655562  0.49939912  1
  I  I122  1  0.33341641  0.49669248  0.83047967  1
  I  I123  1  0.33211305  0.83279492  0.16681520  1
  I  I124  1  0.33324897  0.82841048  0.49481421  1
  I  I125  1  0.33336526  0.83477182  0.83827659  1
  I  I126  1  0.66847291  0.16046637  0.16659451  1
  I  I127  1  0.66374966  0.17200704  0.50055977  1
  I  I128  1  0.66187438  0.17422899  0.82934176  1
  I  I129  1  0.66660665  0.50144165  0.16690986  1
  I  I130  1  0.66515289  0.49606525  0.50264186  1
  I  I131  1  0.66307278  0.49682032  0.83057285  1
  I  I132  1  0.66712711  0.83889864  0.16692552  1
  I  I133  1  0.66651682  0.83261057  0.49505906  1
  I  I134  1  0.66633793  0.83041599  0.83746152  1
