# generated using pymatgen
data_Cs27Sn13Pb14I81
_symmetry_space_group_name_H-M   'P 1'
_cell_length_a   19.00100209
_cell_length_b   18.98657499
_cell_length_c   18.98723826
_cell_angle_alpha   90.00010145
_cell_angle_beta   90.00041739
_cell_angle_gamma   89.99936455
_symmetry_Int_Tables_number   1
_chemical_formula_structural   Cs27Sn13Pb14I81
_chemical_formula_sum   'Cs27 Sn13 Pb14 I81'
_cell_volume   6849.91109580
_cell_formula_units_Z   1
loop_
 _symmetry_equiv_pos_site_id
 _symmetry_equiv_pos_as_xyz
  1  'x, y, z'
loop_
 _atom_site_type_symbol
 _atom_site_label
 _atom_site_symmetry_multiplicity
 _atom_site_fract_x
 _atom_site_fract_y
 _atom_site_fract_z
 _atom_site_occupancy
  Cs  Cs0  1  -0.00000197  -0.00452719  -0.00493675  1
  Cs  Cs1  1  0.00370129  0.00291914  0.33422970  1
  Cs  Cs2  1  -0.00719390  0.00338883  0.67021128  1
  Cs  Cs3  1  0.00402760  0.33701237  0.00326738  1
  Cs  Cs4  1  -0.00000760  0.33292512  0.33252369  1
  Cs  Cs5  1  -0.00062776  0.33290963  0.66488970  1
  Cs  Cs6  1  -0.00218422  0.66574266  -0.00057244  1
  Cs  Cs7  1  0.00095408  0.66821902  0.33418230  1
  Cs  Cs8  1  0.00072262  0.66544265  0.66639180  1
  Cs  Cs9  1  0.33225472  0.00008540  -0.00048564  1
  Cs  Cs10  1  0.33422534  -0.00295591  0.33296017  1
  Cs  Cs11  1  0.33296391  -0.00006749  0.66934063  1
  Cs  Cs12  1  0.33335427  0.33263362  -0.00005061  1
  Cs  Cs13  1  0.33277093  0.33262303  0.33230627  1
  Cs  Cs14  1  0.33656411  0.33627991  0.66899125  1
  Cs  Cs15  1  0.33190129  0.66768887  -0.00158460  1
  Cs  Cs16  1  0.33322769  0.67500154  0.34243776  1
  Cs  Cs17  1  0.33509037  0.66563345  0.66133877  1
  Cs  Cs18  1  0.66849201  -0.00558801  -0.00348287  1
  Cs  Cs19  1  0.66216711  0.00364371  0.33429000  1
  Cs  Cs20  1  0.67513450  0.00192058  0.66864161  1
  Cs  Cs21  1  0.66028608  0.33527474  0.00449791  1
  Cs  Cs22  1  0.66777983  0.33004029  0.33007944  1
  Cs  Cs23  1  0.66502965  0.33378000  0.66808117  1
  Cs  Cs24  1  0.67204318  0.66862536  0.00124703  1
  Cs  Cs25  1  0.66707167  0.67037353  0.33243927  1
  Cs  Cs26  1  0.66488022  0.66493360  0.66587267  1
  Sn  Sn27  1  0.49947982  0.16713090  0.16722421  1
  Sn  Sn28  1  0.83338756  0.50059117  0.50029983  1
  Sn  Sn29  1  0.16678439  0.16723365  0.16731685  1
  Sn  Sn30  1  0.49820822  0.50036442  0.16720192  1
  Sn  Sn31  1  0.83363957  0.16625884  0.16595894  1
  Sn  Sn32  1  0.49872578  0.16708236  0.49986910  1
  Sn  Sn33  1  0.16794311  0.16716131  0.49963791  1
  Sn  Sn34  1  0.16753872  0.83208349  0.83308715  1
  Sn  Sn35  1  0.83388840  0.49938565  0.83264228  1
  Sn  Sn36  1  0.16621408  0.50078930  0.83371712  1
  Sn  Sn37  1  0.49909213  0.83300865  0.83323477  1
  Sn  Sn38  1  0.16825945  0.50002001  0.16671143  1
  Sn  Sn39  1  0.83351927  0.83240348  0.49949406  1
  Pb  Pb40  1  0.49980582  0.83337744  0.16499044  1
  Pb  Pb41  1  0.83351448  0.83634450  0.16944676  1
  Pb  Pb42  1  0.49954434  0.50186530  0.83547783  1
  Pb  Pb43  1  0.16529698  0.49811874  0.49971577  1
  Pb  Pb44  1  0.83365731  0.49874434  0.16685795  1
  Pb  Pb45  1  0.83328910  0.16728927  0.49838279  1
  Pb  Pb46  1  0.16664334  0.83303052  0.16485676  1
  Pb  Pb47  1  0.83337164  0.17032327  0.83669096  1
  Pb  Pb48  1  0.50006981  0.16465459  0.83381861  1
  Pb  Pb49  1  0.83377233  0.83072419  0.83158378  1
  Pb  Pb50  1  0.16470146  0.83627755  0.50301460  1
  Pb  Pb51  1  0.50234364  0.49791477  0.49710381  1
  Pb  Pb52  1  0.50199584  0.83614942  0.50245216  1
  Pb  Pb53  1  0.16660463  0.16747946  0.83360353  1
  I  I54  1  0.16733278  0.00354855  0.16955919  1
  I  I55  1  0.16768482  0.00405226  0.49335407  1
  I  I56  1  0.17046695  -0.00216111  0.83336203  1
  I  I57  1  0.16653343  0.33297181  0.16368688  1
  I  I58  1  0.16653445  0.33012365  0.50012222  1
  I  I59  1  0.16166538  0.33656257  0.83529504  1
  I  I60  1  0.17003106  0.66300045  0.16333855  1
  I  I61  1  0.16605261  0.66664741  0.49707971  1
  I  I62  1  0.16541375  0.66540391  0.84026084  1
  I  I63  1  0.49964156  0.00368462  0.17000271  1
  I  I64  1  0.49868766  0.00390350  0.49184968  1
  I  I65  1  0.49382307  -0.00313692  0.83525012  1
  I  I66  1  0.50067663  0.33227292  0.16843239  1
  I  I67  1  0.49891486  0.32986877  0.49939319  1
  I  I68  1  0.50040586  0.33350997  0.83191069  1
  I  I69  1  0.49663973  0.66354767  0.16340349  1
  I  I70  1  0.50014783  0.66666925  0.49851026  1
  I  I71  1  0.49915966  0.66944297  0.83561169  1
  I  I72  1  0.83280840  0.00464061  0.16885081  1
  I  I73  1  0.83313483  -0.00136148  0.49899908  1
  I  I74  1  0.83380935  -0.00010344  0.83203726  1
  I  I75  1  0.83321169  0.33070008  0.16924989  1
  I  I76  1  0.83390379  0.33572420  0.50291190  1
  I  I77  1  0.83980347  0.33783068  0.82509381  1
  I  I78  1  0.83251423  0.66645004  0.16487088  1
  I  I79  1  0.83396336  0.66569130  0.50417392  1
  I  I80  1  0.83475844  0.66314658  0.83399477  1
  I  I81  1  0.16775535  0.16786638  0.00336638  1
  I  I82  1  0.16577421  0.17248996  0.33186543  1
  I  I83  1  0.17044444  0.16594294  0.66400063  1
  I  I84  1  0.16382159  0.49736047  0.00026507  1
  I  I85  1  0.16742973  0.49513278  0.33027458  1
  I  I86  1  0.16304281  0.50193584  0.66936608  1
  I  I87  1  0.16854606  0.83524289  -0.00325646  1
  I  I88  1  0.16498397  0.83125497  0.33374610  1
  I  I89  1  0.17088174  0.82731202  0.67060220  1
  I  I90  1  0.49891106  0.17025720  0.00379826  1
  I  I91  1  0.50073734  0.17004205  0.33206675  1
  I  I92  1  0.49571345  0.16474590  0.66381452  1
  I  I93  1  0.50140901  0.49199914  0.00326305  1
  I  I94  1  0.49558265  0.49737928  0.32912852  1
  I  I95  1  0.49901250  0.49854989  0.66655156  1
  I  I96  1  0.49763157  0.83608030  -0.00287454  1
  I  I97  1  0.50222480  0.83206187  0.33360717  1
  I  I98  1  0.49525940  0.83334270  0.66999360  1
  I  I99  1  0.83349684  0.16753112  0.00458268  1
  I  I100  1  0.83337540  0.16966494  0.33057391  1
  I  I101  1  0.83331654  0.16433647  0.66663148  1
  I  I102  1  0.83475674  0.49789427  -0.00205747  1
  I  I103  1  0.83319049  0.50135287  0.33559437  1
  I  I104  1  0.83932177  0.50312172  0.66697530  1
  I  I105  1  0.83271086  0.83387872  -0.00033383  1
  I  I106  1  0.83282949  0.82469668  0.33704844  1
  I  I107  1  0.83342558  0.83496223  0.66394748  1
  I  I108  1  0.00138404  0.17159138  0.17165067  1
  I  I109  1  0.00207030  0.16660098  0.49526174  1
  I  I110  1  0.00005209  0.16030916  0.83176379  1
  I  I111  1  0.00276528  0.49417902  0.16473731  1
  I  I112  1  -0.00267937  0.49996350  0.49926892  1
  I  I113  1  0.00105319  0.50566892  0.83668966  1
  I  I114  1  0.00004960  0.83386149  0.16338846  1
  I  I115  1  -0.00286376  0.83199191  0.50198904  1
  I  I116  1  0.00256027  0.83233109  0.83281082  1
  I  I117  1  0.33312905  0.17152496  0.17072011  1
  I  I118  1  0.33317623  0.16648887  0.49122162  1
  I  I119  1  0.33321727  0.16978949  0.83596362  1
  I  I120  1  0.33226765  0.48928133  0.15868908  1
  I  I121  1  0.33340997  0.49974889  0.50307232  1
  I  I122  1  0.33029161  0.50116710  0.83668480  1
  I  I123  1  0.33319633  0.83763083  0.16756296  1
  I  I124  1  0.33325183  0.83326941  0.49963216  1
  I  I125  1  0.33229640  0.82865342  0.83472036  1
  I  I126  1  0.66556649  0.17175822  0.17156554  1
  I  I127  1  0.66462130  0.16626996  0.49467778  1
  I  I128  1  0.66679245  0.16451813  0.83193660  1
  I  I129  1  0.66469041  0.49410703  0.16644500  1
  I  I130  1  0.67018844  0.50097645  0.50577977  1
  I  I131  1  0.66894571  0.50114266  0.83123812  1
  I  I132  1  0.66668244  0.83253759  0.16205937  1
  I  I133  1  0.66963376  0.83165328  0.50286338  1
  I  I134  1  0.66502777  0.83415345  0.83296244  1
