# generated using pymatgen
data_Cs27Sn14Pb13I81
_symmetry_space_group_name_H-M   'P 1'
_cell_length_a   18.96872890
_cell_length_b   18.98305776
_cell_length_c   18.97484957
_cell_angle_alpha   90.00022616
_cell_angle_beta   89.99892584
_cell_angle_gamma   89.99900601
_symmetry_Int_Tables_number   1
_chemical_formula_structural   Cs27Sn14Pb13I81
_chemical_formula_sum   'Cs27 Sn14 Pb13 I81'
_cell_volume   6832.54876793
_cell_formula_units_Z   1
loop_
 _symmetry_equiv_pos_site_id
 _symmetry_equiv_pos_as_xyz
  1  'x, y, z'
loop_
 _atom_site_type_symbol
 _atom_site_label
 _atom_site_symmetry_multiplicity
 _atom_site_fract_x
 _atom_site_fract_y
 _atom_site_fract_z
 _atom_site_occupancy
  Cs  Cs0  1  0.00023307  -0.00076727  -0.00073666  1
  Cs  Cs1  1  0.00126175  0.00247185  0.33321883  1
  Cs  Cs2  1  -0.00213721  -0.00060374  0.66923859  1
  Cs  Cs3  1  -0.00318863  0.33460436  -0.00348158  1
  Cs  Cs4  1  0.00128316  0.33475836  0.33683177  1
  Cs  Cs5  1  0.00132568  0.33462859  0.66825439  1
  Cs  Cs6  1  -0.00106271  0.66755612  -0.00066312  1
  Cs  Cs7  1  0.00019829  0.66584363  0.33185692  1
  Cs  Cs8  1  0.00134136  0.66565779  0.66798041  1
  Cs  Cs9  1  0.33235945  0.00221407  0.00298473  1
  Cs  Cs10  1  0.33097944  0.00906355  0.32920131  1
  Cs  Cs11  1  0.34275347  -0.00289361  0.66671745  1
  Cs  Cs12  1  0.34279319  0.33302780  0.00123325  1
  Cs  Cs13  1  0.33278944  0.32578360  0.33417975  1
  Cs  Cs14  1  0.33110829  0.33170613  0.66475108  1
  Cs  Cs15  1  0.33457984  0.66681511  0.00011469  1
  Cs  Cs16  1  0.33038542  0.66546322  0.33274264  1
  Cs  Cs17  1  0.33223358  0.66747641  0.66682474  1
  Cs  Cs18  1  0.66865731  -0.00072956  -0.00104158  1
  Cs  Cs19  1  0.66700897  -0.00231701  0.34295590  1
  Cs  Cs20  1  0.65931861  -0.00232165  0.65725346  1
  Cs  Cs21  1  0.66546992  0.33480619  0.00102397  1
  Cs  Cs22  1  0.66557859  0.33409306  0.33095735  1
  Cs  Cs23  1  0.66577752  0.33252547  0.66699172  1
  Cs  Cs24  1  0.66716658  0.66568865  0.00169697  1
  Cs  Cs25  1  0.66683644  0.66658072  0.33312015  1
  Cs  Cs26  1  0.66389934  0.66866150  0.66440669  1
  Sn  Sn27  1  0.83350714  0.16657409  0.16613542  1
  Sn  Sn28  1  0.83250115  0.83364997  0.16622261  1
  Sn  Sn29  1  0.16592927  0.83347890  0.83244895  1
  Sn  Sn30  1  0.16609743  0.16666621  0.83345423  1
  Sn  Sn31  1  0.83242408  0.50024296  0.50032369  1
  Sn  Sn32  1  0.16601099  0.49978851  0.16543755  1
  Sn  Sn33  1  0.83353534  0.16629851  0.83393046  1
  Sn  Sn34  1  0.50036515  0.50011364  0.49989572  1
  Sn  Sn35  1  0.83358489  0.83340278  0.83359145  1
  Sn  Sn36  1  0.50091419  0.83322870  0.16652764  1
  Sn  Sn37  1  0.16616183  0.49981737  0.83472927  1
  Sn  Sn38  1  0.83365819  0.50027605  0.83310678  1
  Sn  Sn39  1  0.83418744  0.49985310  0.16663635  1
  Sn  Sn40  1  0.16625154  0.83356744  0.50063361  1
  Pb  Pb41  1  0.16617176  0.16331800  0.50336753  1
  Pb  Pb42  1  0.50029903  0.83311213  0.83541329  1
  Pb  Pb43  1  0.50007230  0.50019358  0.83136709  1
  Pb  Pb44  1  0.83509347  0.83114908  0.50010901  1
  Pb  Pb45  1  0.50006021  0.16961671  0.49990940  1
  Pb  Pb46  1  0.50003431  0.50136059  0.16846783  1
  Pb  Pb47  1  0.49690148  0.83143638  0.49696951  1
  Pb  Pb48  1  0.16633050  0.50105136  0.50024652  1
  Pb  Pb49  1  0.16586242  0.83190584  0.16593913  1
  Pb  Pb50  1  0.50087191  0.16661678  0.83347917  1
  Pb  Pb51  1  0.50368518  0.16362113  0.16648088  1
  Pb  Pb52  1  0.83353328  0.16946508  0.50064705  1
  Pb  Pb53  1  0.16397376  0.17003038  0.16390354  1
  I  I54  1  0.16742561  0.00024913  0.16763806  1
  I  I55  1  0.16566132  -0.00449035  0.50233470  1
  I  I56  1  0.15924693  -0.00065582  0.82864721  1
  I  I57  1  0.16180926  0.33807829  0.16433294  1
  I  I58  1  0.16781083  0.33332993  0.49992267  1
  I  I59  1  0.15928724  0.33433642  0.83716639  1
  I  I60  1  0.16116581  0.66393830  0.16244575  1
  I  I61  1  0.16592333  0.66865224  0.50588211  1
  I  I62  1  0.16077845  0.66643017  0.83286638  1
  I  I63  1  0.50208541  -0.00417885  0.16612132  1
  I  I64  1  0.49915967  -0.00037750  0.49983159  1
  I  I65  1  0.49953017  -0.00019266  0.83317288  1
  I  I66  1  0.49963283  0.33323650  0.16852838  1
  I  I67  1  0.50367123  0.33765825  0.49904659  1
  I  I68  1  0.49987437  0.33351963  0.83286819  1
  I  I69  1  0.50636351  0.66900292  0.16670402  1
  I  I70  1  0.50510277  0.66398445  0.50003467  1
  I  I71  1  0.49940896  0.66663056  0.83323038  1
  I  I72  1  0.82915400  -0.00072531  0.15856667  1
  I  I73  1  0.83462498  -0.00020816  0.49938252  1
  I  I74  1  0.84105106  -0.00060288  0.84244412  1
  I  I75  1  0.83814536  0.33452186  0.16415859  1
  I  I76  1  0.83113405  0.33785830  0.49971150  1
  I  I77  1  0.83914252  0.33413669  0.83559794  1
  I  I78  1  0.83310997  0.66623277  0.16416232  1
  I  I79  1  0.83133059  0.66307344  0.49969369  1
  I  I80  1  0.83920907  0.66645524  0.83622489  1
  I  I81  1  0.16391150  0.15970213  -0.00398825  1
  I  I82  1  0.16659542  0.16673243  0.33305729  1
  I  I83  1  0.15826662  0.17487923  0.67147111  1
  I  I84  1  0.15836116  0.50349394  -0.00112517  1
  I  I85  1  0.16259514  0.50472334  0.33111768  1
  I  I86  1  0.16324233  0.49886987  0.67002085  1
  I  I87  1  0.16528054  0.83415546  -0.00332388  1
  I  I88  1  0.16652673  0.82730851  0.33456348  1
  I  I89  1  0.16084061  0.82957383  0.66904874  1
  I  I90  1  0.49731089  0.16845501  0.00019872  1
  I  I91  1  0.50039158  0.16637189  0.33296009  1
  I  I92  1  0.50219372  0.16559167  0.66673914  1
  I  I93  1  0.50107488  0.50056993  0.00018023  1
  I  I94  1  0.50474997  0.50313086  0.33606910  1
  I  I95  1  0.50467946  0.50152981  0.66359638  1
  I  I96  1  0.50047360  0.83065922  0.00309151  1
  I  I97  1  0.50730948  0.83080990  0.32969889  1
  I  I98  1  0.50183626  0.83314680  0.66637839  1
  I  I99  1  0.83703217  0.17026440  -0.00070893  1
  I  I100  1  0.83193219  0.16634212  0.33027315  1
  I  I101  1  0.83806943  0.16743690  0.67059594  1
  I  I102  1  0.83801866  0.50055376  -0.00011454  1
  I  I103  1  0.83399151  0.50085756  0.33203990  1
  I  I104  1  0.83431223  0.50010328  0.66811286  1
  I  I105  1  0.83519063  0.82918051  -0.00034426  1
  I  I106  1  0.83142971  0.83232752  0.33036883  1
  I  I107  1  0.83685172  0.83274901  0.66994998  1
  I  I108  1  -0.00403776  0.16056139  0.16495610  1
  I  I109  1  -0.00010002  0.17014124  0.49665922  1
  I  I110  1  -0.00101986  0.16712320  0.83697890  1
  I  I111  1  -0.00191186  0.50335728  0.16817432  1
  I  I112  1  -0.00277173  0.50130514  0.49958730  1
  I  I113  1  -0.00097979  0.50047725  0.83192628  1
  I  I114  1  -0.00343950  0.83349992  0.16528956  1
  I  I115  1  0.00266579  0.82887017  0.50018573  1
  I  I116  1  -0.00064593  0.83219867  0.83546354  1
  I  I117  1  0.33316145  0.16663818  0.16599509  1
  I  I118  1  0.33291428  0.16977313  0.50104181  1
  I  I119  1  0.32998481  0.16728174  0.83186287  1
  I  I120  1  0.33053354  0.50441412  0.16331750  1
  I  I121  1  0.33498147  0.50359510  0.49998108  1
  I  I122  1  0.32961944  0.50065224  0.83630996  1
  I  I123  1  0.33459202  0.82823609  0.16709784  1
  I  I124  1  0.32957198  0.82845312  0.50682003  1
  I  I125  1  0.32986584  0.83224766  0.83060608  1
  I  I126  1  0.67172290  0.17450562  0.15877036  1
  I  I127  1  0.66708657  0.16328954  0.50273281  1
  I  I128  1  0.67128393  0.16864210  0.83796903  1
  I  I129  1  0.67049801  0.49855498  0.16398121  1
  I  I130  1  0.66860992  0.50139331  0.49956774  1
  I  I131  1  0.67072389  0.49994455  0.83665884  1
  I  I132  1  0.66954781  0.82999517  0.16106686  1
  I  I133  1  0.66671534  0.83373982  0.50228144  1
  I  I134  1  0.67055164  0.83206821  0.83608726  1
