# generated using pymatgen
data_Cs27Sn13Pb14I81
_symmetry_space_group_name_H-M   'P 1'
_cell_length_a   18.97248243
_cell_length_b   18.98200261
_cell_length_c   18.97607252
_cell_angle_alpha   90.00018738
_cell_angle_beta   89.99925862
_cell_angle_gamma   89.99934004
_symmetry_Int_Tables_number   1
_chemical_formula_structural   Cs27Sn13Pb14I81
_chemical_formula_sum   'Cs27 Sn13 Pb14 I81'
_cell_volume   6833.96137045
_cell_formula_units_Z   1
loop_
 _symmetry_equiv_pos_site_id
 _symmetry_equiv_pos_as_xyz
  1  'x, y, z'
loop_
 _atom_site_type_symbol
 _atom_site_label
 _atom_site_symmetry_multiplicity
 _atom_site_fract_x
 _atom_site_fract_y
 _atom_site_fract_z
 _atom_site_occupancy
  Cs  Cs0  1  -0.00041331  -0.00029930  0.00385469  1
  Cs  Cs1  1  0.00122944  -0.00038374  0.33281168  1
  Cs  Cs2  1  0.00131853  -0.00125577  0.66637881  1
  Cs  Cs3  1  -0.00005290  0.33793702  -0.00442086  1
  Cs  Cs4  1  -0.00034026  0.33263200  0.33466552  1
  Cs  Cs5  1  -0.00742687  0.33456059  0.66862466  1
  Cs  Cs6  1  0.00138880  0.66313484  -0.00312762  1
  Cs  Cs7  1  -0.00109414  0.66831587  0.33311853  1
  Cs  Cs8  1  -0.00206099  0.66677215  0.66965898  1
  Cs  Cs9  1  0.33767313  0.00009144  -0.00509490  1
  Cs  Cs10  1  0.32867852  0.00138741  0.33713044  1
  Cs  Cs11  1  0.33268087  -0.00046588  0.66622486  1
  Cs  Cs12  1  0.33396508  0.33590273  0.00421262  1
  Cs  Cs13  1  0.33286969  0.33433060  0.33348556  1
  Cs  Cs14  1  0.33473858  0.33285826  0.66398781  1
  Cs  Cs15  1  0.33456518  0.66349630  -0.00263469  1
  Cs  Cs16  1  0.33365402  0.66395322  0.33468285  1
  Cs  Cs17  1  0.33427313  0.66740739  0.66657814  1
  Cs  Cs18  1  0.66176473  0.00494465  0.00528288  1
  Cs  Cs19  1  0.67051509  -0.00133454  0.32686375  1
  Cs  Cs20  1  0.66578067  0.00071833  0.66887189  1
  Cs  Cs21  1  0.66535495  0.32444096  -0.00103924  1
  Cs  Cs22  1  0.66945901  0.33234600  0.33209500  1
  Cs  Cs23  1  0.67274299  0.33490373  0.66860710  1
  Cs  Cs24  1  0.66450532  0.67064702  0.00693127  1
  Cs  Cs25  1  0.66727310  0.66788050  0.33114679  1
  Cs  Cs26  1  0.66759674  0.66485090  0.66561062  1
  Sn  Sn27  1  0.83339270  0.49984952  0.16676652  1
  Sn  Sn28  1  0.16704346  0.16705892  0.50029880  1
  Sn  Sn29  1  0.49981753  0.16677301  0.50002844  1
  Sn  Sn30  1  0.50003898  0.50010227  0.83264308  1
  Sn  Sn31  1  0.16665205  0.16675852  0.83302915  1
  Sn  Sn32  1  0.83304233  0.83380535  0.83329673  1
  Sn  Sn33  1  0.16669483  0.16592226  0.16647686  1
  Sn  Sn34  1  0.49957317  0.49973900  0.50094634  1
  Sn  Sn35  1  0.50018122  0.83359990  0.49997683  1
  Sn  Sn36  1  0.16661634  0.83283730  0.49955746  1
  Sn  Sn37  1  0.83338690  0.83345046  0.50090271  1
  Sn  Sn38  1  0.16707720  0.83351230  0.16691697  1
  Sn  Sn39  1  0.16669854  0.50008421  0.50034490  1
  Pb  Pb40  1  0.83561883  0.83220334  0.16654563  1
  Pb  Pb41  1  0.49653963  0.83340420  0.16922758  1
  Pb  Pb42  1  0.16839932  0.49775263  0.83037492  1
  Pb  Pb43  1  0.50224650  0.83178423  0.83116473  1
  Pb  Pb44  1  0.16549783  0.83487923  0.83318510  1
  Pb  Pb45  1  0.83548633  0.16391954  0.83330821  1
  Pb  Pb46  1  0.83622613  0.16908463  0.16667227  1
  Pb  Pb47  1  0.83334577  0.16378984  0.49999959  1
  Pb  Pb48  1  0.49710571  0.16651666  0.16961171  1
  Pb  Pb49  1  0.83297811  0.50224563  0.49886828  1
  Pb  Pb50  1  0.16537078  0.50011051  0.16883492  1
  Pb  Pb51  1  0.83034905  0.50214457  0.83586561  1
  Pb  Pb52  1  0.49786422  0.16873146  0.83074626  1
  Pb  Pb53  1  0.50216317  0.49981739  0.16739197  1
  I  I54  1  0.16502472  0.00001482  0.17381047  1
  I  I55  1  0.16872970  -0.00003147  0.49927812  1
  I  I56  1  0.16630085  0.00282286  0.82791815  1
  I  I57  1  0.16533889  0.33056539  0.16895292  1
  I  I58  1  0.17395586  0.33270700  0.49867726  1
  I  I59  1  0.16702855  0.32982340  0.83417859  1
  I  I60  1  0.16433356  0.66923190  0.17334915  1
  I  I61  1  0.16923631  0.66756650  0.49483219  1
  I  I62  1  0.16611749  0.66649090  0.83359038  1
  I  I63  1  0.50428170  -0.00008748  0.16661573  1
  I  I64  1  0.49526230  -0.00031033  0.49939830  1
  I  I65  1  0.50011244  0.00018381  0.83180707  1
  I  I66  1  0.49822418  0.33324906  0.16946869  1
  I  I67  1  0.49044816  0.33361181  0.50283484  1
  I  I68  1  0.49989676  0.33648651  0.82653245  1
  I  I69  1  0.49806860  0.66663698  0.16905873  1
  I  I70  1  0.49636142  0.66669009  0.50330600  1
  I  I71  1  0.49870649  0.66388017  0.82638058  1
  I  I72  1  0.83343117  -0.00009951  0.16744845  1
  I  I73  1  0.83483936  -0.00439500  0.50195373  1
  I  I74  1  0.83418086  -0.00384555  0.82721613  1
  I  I75  1  0.83463460  0.33658937  0.16876684  1
  I  I76  1  0.83434045  0.33342932  0.49827038  1
  I  I77  1  0.83381323  0.33348282  0.83454639  1
  I  I78  1  0.83608958  0.66469755  0.16847590  1
  I  I79  1  0.83490924  0.67020935  0.50187762  1
  I  I80  1  0.83597295  0.66965831  0.82781146  1
  I  I81  1  0.16407197  0.16117676  0.00053136  1
  I  I82  1  0.17009084  0.16559243  0.33486355  1
  I  I83  1  0.17091241  0.16525868  0.66476050  1
  I  I84  1  0.16719962  0.50002273  -0.00010090  1
  I  I85  1  0.17212664  0.49711480  0.33726432  1
  I  I86  1  0.16751743  0.50205648  0.66197944  1
  I  I87  1  0.16237709  0.83791678  0.00258270  1
  I  I88  1  0.16470409  0.83777072  0.33574040  1
  I  I89  1  0.16834670  0.83444252  0.66287116  1
  I  I90  1  0.49839245  0.16930863  -0.00014369  1
  I  I91  1  0.49393942  0.16940837  0.33811179  1
  I  I92  1  0.49237149  0.16351638  0.66242643  1
  I  I93  1  0.50105140  0.50072222  -0.00252248  1
  I  I94  1  0.49626527  0.50051606  0.33744538  1
  I  I95  1  0.49586444  0.50079274  0.66407601  1
  I  I96  1  0.50062944  0.83027203  -0.00005192  1
  I  I97  1  0.50500763  0.82992241  0.33831496  1
  I  I98  1  0.49369630  0.83513020  0.66216046  1
  I  I99  1  0.83518944  0.16461904  0.00002182  1
  I  I100  1  0.83501259  0.16495798  0.33354688  1
  I  I101  1  0.83683188  0.16925680  0.66639074  1
  I  I102  1  0.83561404  0.50345134  0.00297263  1
  I  I103  1  0.83313926  0.50306353  0.33145386  1
  I  I104  1  0.83517434  0.49998723  0.66666534  1
  I  I105  1  0.83751641  0.83007892  -0.00220889  1
  I  I106  1  0.83220747  0.83168226  0.33630108  1
  I  I107  1  0.83656092  0.83197631  0.66465670  1
  I  I108  1  0.00453467  0.16217149  0.17204494  1
  I  I109  1  0.00389320  0.16683509  0.49910841  1
  I  I110  1  0.00397082  0.16767765  0.82894927  1
  I  I111  1  -0.00207820  0.50087107  0.16927304  1
  I  I112  1  0.00276381  0.49952055  0.49698384  1
  I  I113  1  -0.00006622  0.49941368  0.83299082  1
  I  I114  1  0.00340101  0.83691992  0.17427340  1
  I  I115  1  0.00133026  0.83342244  0.49942231  1
  I  I116  1  -0.00230122  0.83318995  0.82633506  1
  I  I117  1  0.32885076  0.16450285  0.16624619  1
  I  I118  1  0.33186441  0.16310289  0.49969719  1
  I  I119  1  0.32971640  0.16461049  0.83402862  1
  I  I120  1  0.33322462  0.49993749  0.16581877  1
  I  I121  1  0.33314729  0.50373309  0.50187998  1
  I  I122  1  0.33616243  0.50133364  0.83135299  1
  I  I123  1  0.32852510  0.83599277  0.17248146  1
  I  I124  1  0.33263768  0.83335304  0.49543126  1
  I  I125  1  0.33344563  0.83343835  0.83329465  1
  I  I126  1  0.66653780  0.16776430  0.16808037  1
  I  I127  1  0.66341882  0.16818198  0.50099864  1
  I  I128  1  0.66632157  0.16745334  0.83144764  1
  I  I129  1  0.66964565  0.50351815  0.17007687  1
  I  I130  1  0.66341759  0.50006743  0.50206498  1
  I  I131  1  0.66307400  0.50014581  0.82348658  1
  I  I132  1  0.66674133  0.83079642  0.16842460  1
  I  I133  1  0.66625574  0.83180067  0.50534022  1
  I  I134  1  0.67006893  0.83132291  0.82651302  1
