# generated using pymatgen
data_Cs27Sn14Pb13I81
_symmetry_space_group_name_H-M   'P 1'
_cell_length_a   18.97485454
_cell_length_b   18.98417439
_cell_length_c   18.96893409
_cell_angle_alpha   89.99995011
_cell_angle_beta   90.00049244
_cell_angle_gamma   89.99935005
_symmetry_Int_Tables_number   1
_chemical_formula_structural   Cs27Sn14Pb13I81
_chemical_formula_sum   'Cs27 Sn14 Pb13 I81'
_cell_volume   6833.02638069
_cell_formula_units_Z   1
loop_
 _symmetry_equiv_pos_site_id
 _symmetry_equiv_pos_as_xyz
  1  'x, y, z'
loop_
 _atom_site_type_symbol
 _atom_site_label
 _atom_site_symmetry_multiplicity
 _atom_site_fract_x
 _atom_site_fract_y
 _atom_site_fract_z
 _atom_site_occupancy
  Cs  Cs0  1  0.00079277  0.00246646  -0.00079186  1
  Cs  Cs1  1  0.00108676  -0.00418480  0.33678793  1
  Cs  Cs2  1  -0.00239065  -0.00319440  0.66360340  1
  Cs  Cs3  1  0.00053078  0.33225112  0.00027353  1
  Cs  Cs4  1  0.00110327  0.33287868  0.33329314  1
  Cs  Cs5  1  0.00155619  0.33568862  0.66530108  1
  Cs  Cs6  1  0.00476385  0.66489840  0.00242362  1
  Cs  Cs7  1  -0.00109027  0.67110373  0.33727685  1
  Cs  Cs8  1  -0.00952956  0.66801367  0.65779685  1
  Cs  Cs9  1  0.33286907  -0.00041651  -0.00037159  1
  Cs  Cs10  1  0.33527871  -0.00054002  0.33381730  1
  Cs  Cs11  1  0.33371269  0.00349665  0.66822448  1
  Cs  Cs12  1  0.33174044  0.33271038  0.00048057  1
  Cs  Cs13  1  0.33478770  0.33263498  0.33403284  1
  Cs  Cs14  1  0.33213741  0.33212727  0.66489307  1
  Cs  Cs15  1  0.33188290  0.66719693  -0.00015274  1
  Cs  Cs16  1  0.33298185  0.66838552  0.33206622  1
  Cs  Cs17  1  0.33684878  0.66033606  0.67092833  1
  Cs  Cs18  1  0.66852172  0.00079185  -0.00082861  1
  Cs  Cs19  1  0.66447170  0.00203365  0.33276110  1
  Cs  Cs20  1  0.66694892  -0.00220363  0.66575435  1
  Cs  Cs21  1  0.67126829  0.33180949  0.00218928  1
  Cs  Cs22  1  0.66476062  0.33100948  0.33120994  1
  Cs  Cs23  1  0.66818765  0.33968268  0.66641150  1
  Cs  Cs24  1  0.66582602  0.66762825  -0.00265722  1
  Cs  Cs25  1  0.66706181  0.66754714  0.33236105  1
  Cs  Cs26  1  0.67375522  0.66177501  0.67195646  1
  Sn  Sn27  1  0.50120968  0.16595429  0.50019278  1
  Sn  Sn28  1  0.49970121  0.83345349  0.50016489  1
  Sn  Sn29  1  0.16651816  0.83319339  0.83284143  1
  Sn  Sn30  1  0.83361909  0.50104716  0.16665607  1
  Sn  Sn31  1  0.50084836  0.83355949  0.16705028  1
  Sn  Sn32  1  0.49914209  0.16653018  0.16619490  1
  Sn  Sn33  1  0.16751985  0.16707113  0.16624256  1
  Sn  Sn34  1  0.16739259  0.16658600  0.83414972  1
  Sn  Sn35  1  0.16644606  0.49999421  0.83385964  1
  Sn  Sn36  1  0.83256104  0.83290290  0.16614824  1
  Sn  Sn37  1  0.49986533  0.16677851  0.83365237  1
  Sn  Sn38  1  0.16664256  0.49917905  0.16662922  1
  Sn  Sn39  1  0.83230244  0.16688065  0.49988007  1
  Sn  Sn40  1  0.49989392  0.50000786  0.16651389  1
  Pb  Pb41  1  0.49819736  0.49719036  0.83611424  1
  Pb  Pb42  1  0.83363439  0.16667128  0.83060427  1
  Pb  Pb43  1  0.16681855  0.50025855  0.49950057  1
  Pb  Pb44  1  0.83307503  0.49751332  0.49693227  1
  Pb  Pb45  1  0.49865257  0.83504784  0.83337205  1
  Pb  Pb46  1  0.83595872  0.83342718  0.83608964  1
  Pb  Pb47  1  0.83024046  0.83522643  0.49763997  1
  Pb  Pb48  1  0.83389214  0.16637688  0.16809029  1
  Pb  Pb49  1  0.16706160  0.83362414  0.16567636  1
  Pb  Pb50  1  0.17019454  0.83324450  0.50341242  1
  Pb  Pb51  1  0.83635258  0.49988953  0.83612053  1
  Pb  Pb52  1  0.50001511  0.50017590  0.49795677  1
  Pb  Pb53  1  0.16728525  0.16657684  0.49988267  1
  I  I54  1  0.16952093  0.00283416  0.16243016  1
  I  I55  1  0.16386429  0.00011177  0.49839130  1
  I  I56  1  0.17110176  0.00158662  0.83854141  1
  I  I57  1  0.16901411  0.33295420  0.15978395  1
  I  I58  1  0.16832012  0.33307313  0.50299739  1
  I  I59  1  0.17073460  0.33257109  0.83873614  1
  I  I60  1  0.16929632  0.66411855  0.16177142  1
  I  I61  1  0.16782782  0.66689569  0.49812519  1
  I  I62  1  0.16768905  0.66588802  0.84093492  1
  I  I63  1  0.49968585  0.00088375  0.16761680  1
  I  I64  1  0.50281709  0.00143438  0.49386987  1
  I  I65  1  0.49304149  0.00339740  0.83798241  1
  I  I66  1  0.49929653  0.33241429  0.16679930  1
  I  I67  1  0.50242366  0.32979865  0.49861696  1
  I  I68  1  0.49407887  0.32893336  0.83197902  1
  I  I69  1  0.49954792  0.66691265  0.17195342  1
  I  I70  1  0.49696596  0.66976994  0.49334656  1
  I  I71  1  0.49660094  0.66644692  0.83330042  1
  I  I72  1  0.83008215  -0.00220101  0.16853743  1
  I  I73  1  0.83213151  0.00294751  0.49673377  1
  I  I74  1  0.83706703  0.00020294  0.83705401  1
  I  I75  1  0.83155067  0.33555566  0.16837025  1
  I  I76  1  0.82654822  0.32981339  0.49793765  1
  I  I77  1  0.83461896  0.33319247  0.83575165  1
  I  I78  1  0.83083783  0.66628503  0.16643992  1
  I  I79  1  0.83331958  0.66680937  0.50085613  1
  I  I80  1  0.83376539  0.66659834  0.83071099  1
  I  I81  1  0.17372922  0.16733142  0.00042599  1
  I  I82  1  0.16963073  0.17207788  0.33002209  1
  I  I83  1  0.17028568  0.16793259  0.66997756  1
  I  I84  1  0.16690681  0.49851749  0.00140767  1
  I  I85  1  0.16721676  0.49372358  0.32881621  1
  I  I86  1  0.16873845  0.49680729  0.67013192  1
  I  I87  1  0.16914517  0.83427825  -0.00219749  1
  I  I88  1  0.16422012  0.83381334  0.33327452  1
  I  I89  1  0.16839187  0.83650461  0.67138553  1
  I  I90  1  0.49437903  0.16646544  0.00136091  1
  I  I91  1  0.49990247  0.16665791  0.33197655  1
  I  I92  1  0.49839941  0.16066788  0.66652091  1
  I  I93  1  0.50152035  0.50160848  0.00472020  1
  I  I94  1  0.49697974  0.49468703  0.32883183  1
  I  I95  1  0.49702582  0.49965846  0.66711911  1
  I  I96  1  0.50194431  0.83406324  0.00347325  1
  I  I97  1  0.50276840  0.83867216  0.33144217  1
  I  I98  1  0.49539724  0.84115613  0.66421325  1
  I  I99  1  0.83137790  0.16693764  0.00026953  1
  I  I100  1  0.82832885  0.16716483  0.33559262  1
  I  I101  1  0.82937399  0.16522097  0.66286173  1
  I  I102  1  0.83047699  0.50099650  0.00454019  1
  I  I103  1  0.83628141  0.50356395  0.32860266  1
  I  I104  1  0.83529283  0.49932499  0.66660349  1
  I  I105  1  0.82509305  0.83155761  0.00427484  1
  I  I106  1  0.83427985  0.82945236  0.32959413  1
  I  I107  1  0.83401287  0.83472373  0.66636201  1
  I  I108  1  0.00297613  0.16978526  0.16330064  1
  I  I109  1  -0.00200010  0.16783288  0.49830828  1
  I  I110  1  0.00387728  0.16745115  0.83855582  1
  I  I111  1  0.00090178  0.49872997  0.16185853  1
  I  I112  1  -0.00015248  0.49718327  0.49805253  1
  I  I113  1  0.00470657  0.49517550  0.84037118  1
  I  I114  1  -0.00187191  0.83089582  0.16381356  1
  I  I115  1  -0.00022646  0.83515020  0.49922467  1
  I  I116  1  0.00431567  0.83759948  0.83680125  1
  I  I117  1  0.33434650  0.16908016  0.16799792  1
  I  I118  1  0.33677325  0.16321098  0.49912334  1
  I  I119  1  0.33285666  0.16644534  0.83284965  1
  I  I120  1  0.33326181  0.49886393  0.16327405  1
  I  I121  1  0.33358588  0.49725510  0.49709283  1
  I  I122  1  0.32997247  0.50205665  0.84004000  1
  I  I123  1  0.33638987  0.83219080  0.16897546  1
  I  I124  1  0.33764625  0.84224224  0.48947290  1
  I  I125  1  0.33052869  0.83254608  0.83708948  1
  I  I126  1  0.66356154  0.16894776  0.16501762  1
  I  I127  1  0.66432520  0.16281188  0.49724971  1
  I  I128  1  0.66334832  0.16507959  0.83802296  1
  I  I129  1  0.66592621  0.49891892  0.16916413  1
  I  I130  1  0.66648244  0.50022096  0.49856034  1
  I  I131  1  0.66659201  0.49856564  0.83414168  1
  I  I132  1  0.66513414  0.83117293  0.17032355  1
  I  I133  1  0.66251395  0.83756466  0.49735494  1
  I  I134  1  0.66647501  0.83594107  0.83218218  1
