# generated using pymatgen
data_Cs27Sn14Pb13I81
_symmetry_space_group_name_H-M   'P 1'
_cell_length_a   18.97602070
_cell_length_b   18.98159041
_cell_length_c   18.97058244
_cell_angle_alpha   90.00021838
_cell_angle_beta   90.00101908
_cell_angle_gamma   90.00026458
_symmetry_Int_Tables_number   1
_chemical_formula_structural   Cs27Sn14Pb13I81
_chemical_formula_sum   'Cs27 Sn14 Pb13 I81'
_cell_volume   6833.10993560
_cell_formula_units_Z   1
loop_
 _symmetry_equiv_pos_site_id
 _symmetry_equiv_pos_as_xyz
  1  'x, y, z'
loop_
 _atom_site_type_symbol
 _atom_site_label
 _atom_site_symmetry_multiplicity
 _atom_site_fract_x
 _atom_site_fract_y
 _atom_site_fract_z
 _atom_site_occupancy
  Cs  Cs0  1  -0.00107091  -0.00054738  0.00023268  1
  Cs  Cs1  1  0.00239155  0.00139064  0.33687773  1
  Cs  Cs2  1  -0.00447334  -0.00808030  0.65975463  1
  Cs  Cs3  1  0.00282732  0.33636725  0.00251028  1
  Cs  Cs4  1  0.00064108  0.33132508  0.33296503  1
  Cs  Cs5  1  -0.00107512  0.32954554  0.65984653  1
  Cs  Cs6  1  0.00255283  0.66384092  -0.00225825  1
  Cs  Cs7  1  -0.00140500  0.66705839  0.33336519  1
  Cs  Cs8  1  0.00168594  0.67831567  0.66846942  1
  Cs  Cs9  1  0.33546158  0.00290853  0.00195165  1
  Cs  Cs10  1  0.33386849  -0.00022869  0.33339286  1
  Cs  Cs11  1  0.33227170  0.00005774  0.66445424  1
  Cs  Cs12  1  0.33102915  0.33341833  -0.00080336  1
  Cs  Cs13  1  0.33293660  0.33328382  0.33449868  1
  Cs  Cs14  1  0.33530110  0.33348678  0.66620835  1
  Cs  Cs15  1  0.33194096  0.66546681  -0.00169958  1
  Cs  Cs16  1  0.33652503  0.66551790  0.33292778  1
  Cs  Cs17  1  0.33267634  0.66681217  0.66829716  1
  Cs  Cs18  1  0.66630580  0.00108912  -0.00041294  1
  Cs  Cs19  1  0.66291224  -0.00190198  0.32899472  1
  Cs  Cs20  1  0.67137230  0.00154452  0.67276558  1
  Cs  Cs21  1  0.66698934  0.33293170  -0.00102970  1
  Cs  Cs22  1  0.66631880  0.33640533  0.33389846  1
  Cs  Cs23  1  0.66778737  0.33465055  0.66773807  1
  Cs  Cs24  1  0.66568739  0.66603109  0.00135951  1
  Cs  Cs25  1  0.66506100  0.66450595  0.33424761  1
  Cs  Cs26  1  0.66642688  0.66368212  0.66378492  1
  Sn  Sn27  1  0.16641141  0.50030554  0.50020003  1
  Sn  Sn28  1  0.83314899  0.49978023  0.83388519  1
  Sn  Sn29  1  0.83463766  0.83308891  0.16642850  1
  Sn  Sn30  1  0.50044116  0.49883559  0.16564024  1
  Sn  Sn31  1  0.16600380  0.16630497  0.83328122  1
  Sn  Sn32  1  0.50063700  0.50067206  0.83434906  1
  Sn  Sn33  1  0.50031230  0.16573167  0.49951546  1
  Sn  Sn34  1  0.50004738  0.16808280  0.16732861  1
  Sn  Sn35  1  0.16591172  0.83399710  0.16633368  1
  Sn  Sn36  1  0.83241580  0.50005505  0.16585736  1
  Sn  Sn37  1  0.49996589  0.83272416  0.83232820  1
  Sn  Sn38  1  0.16669095  0.16569850  0.16573530  1
  Sn  Sn39  1  0.83325405  0.16675138  0.16654544  1
  Sn  Sn40  1  0.50019148  0.83459317  0.50158360  1
  Pb  Pb41  1  0.83611993  0.50026032  0.50017425  1
  Pb  Pb42  1  0.83099311  0.83108997  0.83588702  1
  Pb  Pb43  1  0.16882137  0.83599048  0.83565303  1
  Pb  Pb44  1  0.83635881  0.16891563  0.83553451  1
  Pb  Pb45  1  0.16663491  0.49977579  0.16784896  1
  Pb  Pb46  1  0.83011972  0.16661407  0.49744464  1
  Pb  Pb47  1  0.83027448  0.83336534  0.49733791  1
  Pb  Pb48  1  0.16896902  0.83136805  0.49740074  1
  Pb  Pb49  1  0.49894898  0.49978341  0.50019515  1
  Pb  Pb50  1  0.49999658  0.83312331  0.16628744  1
  Pb  Pb51  1  0.16616195  0.49817120  0.83089179  1
  Pb  Pb52  1  0.49887257  0.16703368  0.83356746  1
  Pb  Pb53  1  0.16847472  0.16762131  0.49969320  1
  I  I54  1  0.16574868  0.00124904  0.16373265  1
  I  I55  1  0.16762011  -0.00015806  0.50054407  1
  I  I56  1  0.17069615  0.00364378  0.83670520  1
  I  I57  1  0.16587391  0.33056414  0.16502158  1
  I  I58  1  0.17049197  0.33524421  0.49689288  1
  I  I59  1  0.17044571  0.33071791  0.84209927  1
  I  I60  1  0.16518550  0.66865024  0.16984997  1
  I  I61  1  0.16987787  0.66399320  0.49809890  1
  I  I62  1  0.16616455  0.66675574  0.83374584  1
  I  I63  1  0.50148192  0.00234396  0.16739499  1
  I  I64  1  0.49770888  0.00047381  0.49658157  1
  I  I65  1  0.49678810  -0.00189288  0.83369881  1
  I  I66  1  0.50177125  0.33305137  0.16741692  1
  I  I67  1  0.49719495  0.33117681  0.49722761  1
  I  I68  1  0.50193785  0.33606614  0.83461401  1
  I  I69  1  0.50240349  0.66420706  0.16686908  1
  I  I70  1  0.49775610  0.66853184  0.49904041  1
  I  I71  1  0.50229889  0.66552022  0.83462913  1
  I  I72  1  0.83223384  0.00053890  0.16825645  1
  I  I73  1  0.83669929  0.00002690  0.49894902  1
  I  I74  1  0.83148811  -0.00005818  0.83558644  1
  I  I75  1  0.83246260  0.33353540  0.16311977  1
  I  I76  1  0.83137323  0.33345756  0.49755046  1
  I  I77  1  0.82491629  0.33681109  0.83987252  1
  I  I78  1  0.83225475  0.66590230  0.16361559  1
  I  I79  1  0.83085248  0.66669657  0.49530066  1
  I  I80  1  0.83277277  0.66310652  0.84044242  1
  I  I81  1  0.17072984  0.16495121  0.00262961  1
  I  I82  1  0.16543471  0.16467505  0.32970393  1
  I  I83  1  0.17193056  0.17238138  0.66872650  1
  I  I84  1  0.16774360  0.50123782  0.00006705  1
  I  I85  1  0.16933986  0.49814804  0.33507804  1
  I  I86  1  0.17019571  0.49610459  0.66388469  1
  I  I87  1  0.16611871  0.83305354  0.00380129  1
  I  I88  1  0.16571046  0.83988530  0.32941824  1
  I  I89  1  0.16662483  0.83375921  0.66671703  1
  I  I90  1  0.50114569  0.16696249  0.00333467  1
  I  I91  1  0.49781244  0.16654995  0.33121838  1
  I  I92  1  0.49497435  0.16658195  0.66462663  1
  I  I93  1  0.50260379  0.50030725  0.00082933  1
  I  I94  1  0.50262216  0.49977269  0.33047928  1
  I  I95  1  0.50228984  0.50039740  0.66941716  1
  I  I96  1  0.49995747  0.83193799  -0.00183288  1
  I  I97  1  0.49974053  0.83399196  0.33465687  1
  I  I98  1  0.49828822  0.83227212  0.66684392  1
  I  I99  1  0.82644071  0.16444080  0.00438647  1
  I  I100  1  0.83913655  0.17045168  0.32831700  1
  I  I101  1  0.83384349  0.16969825  0.66691121  1
  I  I102  1  0.82893135  0.49966551  0.00181259  1
  I  I103  1  0.82892226  0.49975001  0.32950182  1
  I  I104  1  0.82748899  0.49867515  0.66980851  1
  I  I105  1  0.83355755  0.83579553  0.00423334  1
  I  I106  1  0.83439338  0.83046680  0.32865860  1
  I  I107  1  0.83451608  0.83120075  0.66697261  1
  I  I108  1  0.00019053  0.16733620  0.16103415  1
  I  I109  1  0.00003388  0.16990199  0.49904360  1
  I  I110  1  0.00388691  0.17048822  0.84099743  1
  I  I111  1  -0.00281292  0.49823973  0.16420017  1
  I  I112  1  0.00337646  0.49715816  0.49714400  1
  I  I113  1  -0.00272944  0.49685670  0.83991694  1
  I  I114  1  -0.00034947  0.83547778  0.16656310  1
  I  I115  1  0.00003204  0.83152876  0.50072307  1
  I  I116  1  -0.00009185  0.83183202  0.83295575  1
  I  I117  1  0.33377401  0.16617694  0.16670531  1
  I  I118  1  0.33642142  0.16457811  0.49287844  1
  I  I119  1  0.33133229  0.16899410  0.84065836  1
  I  I120  1  0.33616862  0.49774773  0.16460624  1
  I  I121  1  0.33164860  0.49922478  0.49782642  1
  I  I122  1  0.33628763  0.50210280  0.83724755  1
  I  I123  1  0.33160912  0.83666368  0.16719771  1
  I  I124  1  0.33683914  0.83634786  0.49957737  1
  I  I125  1  0.33679867  0.82596239  0.83314913  1
  I  I126  1  0.66612435  0.16692227  0.17196125  1
  I  I127  1  0.66190302  0.16511831  0.49490170  1
  I  I128  1  0.66680515  0.16507416  0.83340789  1
  I  I129  1  0.66610758  0.49767083  0.16427092  1
  I  I130  1  0.66667727  0.50018224  0.49898803  1
  I  I131  1  0.66544193  0.50288623  0.83795393  1
  I  I132  1  0.66868388  0.83518396  0.16688663  1
  I  I133  1  0.66220581  0.83498892  0.50022413  1
  I  I134  1  0.66288088  0.83347382  0.83265744  1
