# generated using pymatgen
data_Cs27Sn13Pb14I81
_symmetry_space_group_name_H-M   'P 1'
_cell_length_a   18.98111589
_cell_length_b   18.97907503
_cell_length_c   18.97499284
_cell_angle_alpha   90.00122472
_cell_angle_beta   89.99855902
_cell_angle_gamma   89.99924012
_symmetry_Int_Tables_number   1
_chemical_formula_structural   Cs27Sn13Pb14I81
_chemical_formula_sum   'Cs27 Sn13 Pb14 I81'
_cell_volume   6835.62774487
_cell_formula_units_Z   1
loop_
 _symmetry_equiv_pos_site_id
 _symmetry_equiv_pos_as_xyz
  1  'x, y, z'
loop_
 _atom_site_type_symbol
 _atom_site_label
 _atom_site_symmetry_multiplicity
 _atom_site_fract_x
 _atom_site_fract_y
 _atom_site_fract_z
 _atom_site_occupancy
  Cs  Cs0  1  0.00061760  -0.00211481  -0.00090639  1
  Cs  Cs1  1  -0.00027447  0.00143486  0.33498246  1
  Cs  Cs2  1  0.00012083  0.00062794  0.66559051  1
  Cs  Cs3  1  -0.00182662  0.33711781  0.00146209  1
  Cs  Cs4  1  -0.00136007  0.33447196  0.33343390  1
  Cs  Cs5  1  0.00668479  0.33291752  0.66601605  1
  Cs  Cs6  1  -0.00026491  0.66748022  -0.00027029  1
  Cs  Cs7  1  0.00111163  0.66523896  0.33260817  1
  Cs  Cs8  1  -0.00323791  0.66744892  0.66778061  1
  Cs  Cs9  1  0.33398177  -0.00140034  0.00204551  1
  Cs  Cs10  1  0.33376432  -0.00121848  0.32947217  1
  Cs  Cs11  1  0.33280702  0.00704624  0.66581916  1
  Cs  Cs12  1  0.33415490  0.33242069  -0.00603368  1
  Cs  Cs13  1  0.33106523  0.33496837  0.33857244  1
  Cs  Cs14  1  0.33262167  0.33233396  0.66498547  1
  Cs  Cs15  1  0.33357468  0.66852876  0.00084930  1
  Cs  Cs16  1  0.33343456  0.66559676  0.33386316  1
  Cs  Cs17  1  0.33550450  0.66061557  0.66412965  1
  Cs  Cs18  1  0.66622232  -0.00085293  0.00036487  1
  Cs  Cs19  1  0.66765130  0.00159164  0.33853008  1
  Cs  Cs20  1  0.66702941  0.00114016  0.65987589  1
  Cs  Cs21  1  0.66793531  0.33254826  0.00075325  1
  Cs  Cs22  1  0.67052373  0.32929535  0.33133523  1
  Cs  Cs23  1  0.65997466  0.33559687  0.66765723  1
  Cs  Cs24  1  0.66707420  0.66749533  -0.00015363  1
  Cs  Cs25  1  0.66480926  0.66747869  0.33574929  1
  Cs  Cs26  1  0.66843333  0.66542483  0.66426191  1
  Sn  Sn27  1  0.50021656  0.83336241  0.83352261  1
  Sn  Sn28  1  0.83281976  0.83367108  0.83386171  1
  Sn  Sn29  1  0.16646748  0.83392448  0.16669756  1
  Sn  Sn30  1  0.83333575  0.16640911  0.83337204  1
  Sn  Sn31  1  0.83335529  0.49993532  0.83243480  1
  Sn  Sn32  1  0.50037756  0.83345540  0.16604412  1
  Sn  Sn33  1  0.49902791  0.16662762  0.16631585  1
  Sn  Sn34  1  0.49986109  0.49979723  0.16639715  1
  Sn  Sn35  1  0.16715170  0.83322126  0.83287987  1
  Sn  Sn36  1  0.83319601  0.83337208  0.16647512  1
  Sn  Sn37  1  0.16714130  0.16610322  0.16616014  1
  Sn  Sn38  1  0.16689974  0.83325127  0.50018920  1
  Sn  Sn39  1  0.83338140  0.49998031  0.50081175  1
  Pb  Pb40  1  0.49729489  0.83339551  0.50027682  1
  Pb  Pb41  1  0.83360403  0.16415392  0.16509183  1
  Pb  Pb42  1  0.83150165  0.50244084  0.16635389  1
  Pb  Pb43  1  0.83348858  0.16974779  0.50334436  1
  Pb  Pb44  1  0.50199237  0.50207942  0.83521659  1
  Pb  Pb45  1  0.50184246  0.16429259  0.83532471  1
  Pb  Pb46  1  0.16458216  0.50219313  0.50002235  1
  Pb  Pb47  1  0.16917798  0.49990144  0.16644060  1
  Pb  Pb48  1  0.49989027  0.16664895  0.49727897  1
  Pb  Pb49  1  0.83516364  0.83219272  0.50021198  1
  Pb  Pb50  1  0.50220768  0.50003789  0.49754118  1
  Pb  Pb51  1  0.16477185  0.50217586  0.83352012  1
  Pb  Pb52  1  0.16485057  0.16455978  0.83576702  1
  Pb  Pb53  1  0.16658903  0.16440620  0.49734938  1
  I  I54  1  0.17095169  -0.00241146  0.16630042  1
  I  I55  1  0.16415049  -0.00403328  0.50182242  1
  I  I56  1  0.16355186  -0.00452836  0.83293583  1
  I  I57  1  0.16979848  0.33014715  0.16667355  1
  I  I58  1  0.16504487  0.33324135  0.49717550  1
  I  I59  1  0.16345307  0.33299787  0.83607991  1
  I  I60  1  0.16661871  0.67065199  0.16608133  1
  I  I61  1  0.16614495  0.67064704  0.49614611  1
  I  I62  1  0.16391994  0.67164800  0.83809652  1
  I  I63  1  0.49841335  -0.00154853  0.16240669  1
  I  I64  1  0.50214435  -0.00040910  0.49806007  1
  I  I65  1  0.50158593  -0.00433929  0.84038898  1
  I  I66  1  0.49732760  0.33276599  0.16782873  1
  I  I67  1  0.50087412  0.33345828  0.49831835  1
  I  I68  1  0.50408540  0.33324971  0.83715747  1
  I  I69  1  0.50081970  0.66872960  0.16326775  1
  I  I70  1  0.49973076  0.66695085  0.49628610  1
  I  I71  1  0.50137596  0.67078486  0.84042768  1
  I  I72  1  0.83043354  -0.00419289  0.16132011  1
  I  I73  1  0.83410262  0.00006263  0.49980367  1
  I  I74  1  0.83408787  -0.00208465  0.84010666  1
  I  I75  1  0.83287588  0.33329442  0.16547276  1
  I  I76  1  0.83304462  0.33749215  0.50161750  1
  I  I77  1  0.83269148  0.33369954  0.83040912  1
  I  I78  1  0.83442610  0.67080833  0.16133086  1
  I  I79  1  0.83444485  0.66456598  0.50519803  1
  I  I80  1  0.83392997  0.66838251  0.83364193  1
  I  I81  1  0.17017925  0.15897166  0.00374411  1
  I  I82  1  0.16946238  0.15955964  0.32899092  1
  I  I83  1  0.16419831  0.16405435  0.66698552  1
  I  I84  1  0.16252919  0.50346276  0.00015515  1
  I  I85  1  0.16337422  0.50357738  0.33301641  1
  I  I86  1  0.16807589  0.50279566  0.66682328  1
  I  I87  1  0.16583288  0.83645671  0.00058915  1
  I  I88  1  0.16617885  0.83650763  0.33151848  1
  I  I89  1  0.16354402  0.83129064  0.66780921  1
  I  I90  1  0.49698746  0.16666697  0.00386017  1
  I  I91  1  0.49853386  0.16185551  0.32808433  1
  I  I92  1  0.50208309  0.16438201  0.66724646  1
  I  I93  1  0.50294012  0.50044368  0.00341507  1
  I  I94  1  0.50224178  0.50494455  0.32912825  1
  I  I95  1  0.50059541  0.50327700  0.66694066  1
  I  I96  1  0.49753657  0.83305018  0.00136077  1
  I  I97  1  0.50060267  0.83353187  0.32942706  1
  I  I98  1  0.50251688  0.83231806  0.67009691  1
  I  I99  1  0.83316547  0.16984575  -0.00272913  1
  I  I100  1  0.83288340  0.16691672  0.33312150  1
  I  I101  1  0.83358460  0.15746025  0.67123149  1
  I  I102  1  0.83217254  0.50046419  -0.00284774  1
  I  I103  1  0.83167980  0.50370734  0.33499500  1
  I  I104  1  0.83341052  0.50514990  0.66822789  1
  I  I105  1  0.83671901  0.83096355  -0.00067101  1
  I  I106  1  0.83307280  0.83116556  0.33039080  1
  I  I107  1  0.83367653  0.83417946  0.67033946  1
  I  I108  1  0.00244856  0.15996598  0.16521545  1
  I  I109  1  -0.00007553  0.16613975  0.49623044  1
  I  I110  1  -0.00324433  0.16364975  0.83658756  1
  I  I111  1  -0.00029938  0.50080270  0.16689556  1
  I  I112  1  -0.00343899  0.50186314  0.50280510  1
  I  I113  1  -0.00410489  0.50343192  0.83212351  1
  I  I114  1  0.00044179  0.83692355  0.16373690  1
  I  I115  1  0.00293188  0.83173359  0.49840789  1
  I  I116  1  -0.00067265  0.83263361  0.83705330  1
  I  I117  1  0.33361083  0.15918870  0.16639268  1
  I  I118  1  0.33308533  0.16647142  0.50288149  1
  I  I119  1  0.33335025  0.16462242  0.83328848  1
  I  I120  1  0.33697553  0.50694968  0.16663752  1
  I  I121  1  0.33335976  0.50162447  0.49778613  1
  I  I122  1  0.33366623  0.50253057  0.83525689  1
  I  I123  1  0.33349542  0.83386185  0.16406370  1
  I  I124  1  0.32946069  0.83302795  0.49781050  1
  I  I125  1  0.33315071  0.83334139  0.83888316  1
  I  I126  1  0.66408807  0.16542566  0.16473624  1
  I  I127  1  0.66700592  0.16463046  0.49634639  1
  I  I128  1  0.66990655  0.16380089  0.83728080  1
  I  I129  1  0.66376403  0.50098900  0.16605778  1
  I  I130  1  0.67008435  0.50380462  0.50483794  1
  I  I131  1  0.67039779  0.50397937  0.83102205  1
  I  I132  1  0.66622556  0.83264105  0.15934764  1
  I  I133  1  0.66670087  0.83186592  0.49875823  1
  I  I134  1  0.66755826  0.83250095  0.84227635  1
