# generated using pymatgen
data_Cs27Sn13Pb14I81
_symmetry_space_group_name_H-M   'P 1'
_cell_length_a   18.99874473
_cell_length_b   18.98172904
_cell_length_c   18.99341544
_cell_angle_alpha   89.99768698
_cell_angle_beta   89.99980369
_cell_angle_gamma   89.99897178
_symmetry_Int_Tables_number   1
_chemical_formula_structural   Cs27Sn13Pb14I81
_chemical_formula_sum   'Cs27 Sn13 Pb14 I81'
_cell_volume   6849.57687503
_cell_formula_units_Z   1
loop_
 _symmetry_equiv_pos_site_id
 _symmetry_equiv_pos_as_xyz
  1  'x, y, z'
loop_
 _atom_site_type_symbol
 _atom_site_label
 _atom_site_symmetry_multiplicity
 _atom_site_fract_x
 _atom_site_fract_y
 _atom_site_fract_z
 _atom_site_occupancy
  Cs  Cs0  1  -0.00397356  0.00198142  -0.00351647  1
  Cs  Cs1  1  -0.00086245  -0.00574857  0.33647002  1
  Cs  Cs2  1  -0.00740785  0.00118574  0.66550399  1
  Cs  Cs3  1  0.00126667  0.33481625  0.00198131  1
  Cs  Cs4  1  0.00024660  0.33288805  0.33063571  1
  Cs  Cs5  1  0.00048987  0.33193061  0.66709848  1
  Cs  Cs6  1  0.00149896  0.66512712  0.00271481  1
  Cs  Cs7  1  0.00396509  0.67367754  0.33162600  1
  Cs  Cs8  1  0.00298160  0.66702902  0.66658119  1
  Cs  Cs9  1  0.34599921  0.00417764  -0.00277302  1
  Cs  Cs10  1  0.33394666  -0.00010272  0.33346619  1
  Cs  Cs11  1  0.33257222  0.00009469  0.66665282  1
  Cs  Cs12  1  0.33234360  0.33088022  0.00103909  1
  Cs  Cs13  1  0.33303601  0.33236420  0.33473962  1
  Cs  Cs14  1  0.33208894  0.33369443  0.66451145  1
  Cs  Cs15  1  0.33058629  0.66699907  0.00075635  1
  Cs  Cs16  1  0.32855254  0.66941458  0.33457562  1
  Cs  Cs17  1  0.33257272  0.66607628  0.66532509  1
  Cs  Cs18  1  0.65630166  -0.00978207  -0.00483001  1
  Cs  Cs19  1  0.66724051  -0.00120988  0.33177489  1
  Cs  Cs20  1  0.67474036  -0.00198994  0.67142649  1
  Cs  Cs21  1  0.66629730  0.33380200  0.00380212  1
  Cs  Cs22  1  0.66689744  0.33389650  0.33323975  1
  Cs  Cs23  1  0.66998265  0.33664024  0.66370681  1
  Cs  Cs24  1  0.66727211  0.66983996  -0.00106981  1
  Cs  Cs25  1  0.66666256  0.66456989  0.33300055  1
  Cs  Cs26  1  0.66386760  0.66299650  0.66881719  1
  Sn  Sn27  1  0.49948432  0.49949051  0.83470202  1
  Sn  Sn28  1  0.16700855  0.16728860  0.49908476  1
  Sn  Sn29  1  0.16555291  0.49920647  0.50039563  1
  Sn  Sn30  1  0.16671289  0.83312349  0.83358717  1
  Sn  Sn31  1  0.83513885  0.49992925  0.49936436  1
  Sn  Sn32  1  0.50021086  0.83481074  0.50015674  1
  Sn  Sn33  1  0.83271193  0.49957333  0.16684235  1
  Sn  Sn34  1  0.83371954  0.49965714  0.83363461  1
  Sn  Sn35  1  0.49997008  0.16532944  0.50030213  1
  Sn  Sn36  1  0.16677071  0.50064100  0.83258039  1
  Sn  Sn37  1  0.16579240  0.16644210  0.16739442  1
  Sn  Sn38  1  0.83374828  0.16698007  0.16631057  1
  Sn  Sn39  1  0.50025908  0.49985667  0.16595026  1
  Pb  Pb40  1  0.16653377  0.49890198  0.16678897  1
  Pb  Pb41  1  0.83057268  0.83008463  0.50005289  1
  Pb  Pb42  1  0.83300152  0.16901479  0.83675544  1
  Pb  Pb43  1  0.50040929  0.16855213  0.16863632  1
  Pb  Pb44  1  0.50024124  0.16942760  0.83007341  1
  Pb  Pb45  1  0.83367652  0.16856753  0.49804545  1
  Pb  Pb46  1  0.49975642  0.83011044  0.16910769  1
  Pb  Pb47  1  0.16796884  0.83395980  0.50173790  1
  Pb  Pb48  1  0.83587462  0.83047411  0.83334303  1
  Pb  Pb49  1  0.16685146  0.83779184  0.16332871  1
  Pb  Pb50  1  0.49782813  0.83060573  0.83097196  1
  Pb  Pb51  1  0.83343862  0.83351585  0.16652511  1
  Pb  Pb52  1  0.16664086  0.16684209  0.83304709  1
  Pb  Pb53  1  0.49949835  0.49964681  0.49975040  1
  I  I54  1  0.15983168  0.00546425  0.17452559  1
  I  I55  1  0.17032640  0.00326213  0.49726320  1
  I  I56  1  0.16790733  -0.00240635  0.83346025  1
  I  I57  1  0.16597209  0.33112597  0.16658977  1
  I  I58  1  0.16983553  0.33423981  0.50255835  1
  I  I59  1  0.16616031  0.33692052  0.83159022  1
  I  I60  1  0.16689509  0.66672471  0.16967332  1
  I  I61  1  0.16550224  0.66358414  0.50221799  1
  I  I62  1  0.16677922  0.66360259  0.82687325  1
  I  I63  1  0.50028971  0.00017313  0.16574143  1
  I  I64  1  0.49124965  0.00113931  0.49802389  1
  I  I65  1  0.49729418  -0.00019276  0.83525560  1
  I  I66  1  0.50170483  0.33666374  0.16565688  1
  I  I67  1  0.49796043  0.33161530  0.49984081  1
  I  I68  1  0.49621752  0.33805889  0.83472051  1
  I  I69  1  0.50659246  0.66179765  0.16518537  1
  I  I70  1  0.50045887  0.66777245  0.50079465  1
  I  I71  1  0.50298865  0.66222538  0.83326145  1
  I  I72  1  0.83991486  0.00356526  0.17003539  1
  I  I73  1  0.83563864  0.00011944  0.49798884  1
  I  I74  1  0.83570476  -0.00009608  0.83373942  1
  I  I75  1  0.83342868  0.33522664  0.16650916  1
  I  I76  1  0.83133460  0.33717039  0.50266558  1
  I  I77  1  0.83720339  0.33807457  0.83001379  1
  I  I78  1  0.82866791  0.66249622  0.16607074  1
  I  I79  1  0.83753499  0.66128768  0.49756692  1
  I  I80  1  0.82992942  0.66151708  0.83548615  1
  I  I81  1  0.16158966  0.16905510  0.00269529  1
  I  I82  1  0.16769694  0.17490132  0.33447046  1
  I  I83  1  0.17202538  0.16976559  0.66352600  1
  I  I84  1  0.16504755  0.50192044  -0.00260956  1
  I  I85  1  0.16555471  0.49721607  0.33612342  1
  I  I86  1  0.16494344  0.49807725  0.66636506  1
  I  I87  1  0.16586079  0.82245749  -0.00391135  1
  I  I88  1  0.16806922  0.82963616  0.33335300  1
  I  I89  1  0.16905541  0.82984927  0.66926654  1
  I  I90  1  0.49844438  0.16676241  0.00014714  1
  I  I91  1  0.49772091  0.16793462  0.33642524  1
  I  I92  1  0.49119840  0.16675527  0.66213691  1
  I  I93  1  0.50270669  0.49940793  -0.00038775  1
  I  I94  1  0.50426382  0.49922676  0.33141624  1
  I  I95  1  0.50223080  0.50020542  0.66868489  1
  I  I96  1  0.49949090  0.83468576  -0.00030447  1
  I  I97  1  0.49787924  0.83378395  0.33682795  1
  I  I98  1  0.49836135  0.83364742  0.66351952  1
  I  I99  1  0.84214662  0.17500800  0.00463551  1
  I  I100  1  0.83400113  0.17637602  0.33047713  1
  I  I101  1  0.83399977  0.16843310  0.66657843  1
  I  I102  1  0.83299415  0.49579751  0.00011971  1
  I  I103  1  0.83049330  0.49525800  0.33303122  1
  I  I104  1  0.83219960  0.50085408  0.66664436  1
  I  I105  1  0.83352109  0.83143836  -0.00015696  1
  I  I106  1  0.83410703  0.82870256  0.33345033  1
  I  I107  1  0.83307755  0.83284716  0.66662611  1
  I  I108  1  0.00016598  0.17582002  0.17188754  1
  I  I109  1  0.00302371  0.17073442  0.49877404  1
  I  I110  1  0.00002035  0.16815677  0.82901542  1
  I  I111  1  -0.00261019  0.49694482  0.16420548  1
  I  I112  1  0.00088304  0.49410260  0.50391319  1
  I  I113  1  0.00033035  0.50364226  0.83256699  1
  I  I114  1  0.00034889  0.82696240  0.16785899  1
  I  I115  1  -0.00001313  0.83470642  0.50127830  1
  I  I116  1  0.00354291  0.82722652  0.83124106  1
  I  I117  1  0.33104159  0.16945111  0.16878482  1
  I  I118  1  0.33208018  0.17082139  0.49447351  1
  I  I119  1  0.33322670  0.17019476  0.83866222  1
  I  I120  1  0.33532285  0.49795971  0.16435340  1
  I  I121  1  0.33075934  0.49911115  0.50329932  1
  I  I122  1  0.33268072  0.50370748  0.83177172  1
  I  I123  1  0.33320968  0.83097401  0.16700408  1
  I  I124  1  0.33566058  0.82979785  0.50129358  1
  I  I125  1  0.33040561  0.82536345  0.83237238  1
  I  I126  1  0.66925451  0.17304040  0.16945227  1
  I  I127  1  0.66437099  0.16681574  0.49838624  1
  I  I128  1  0.66662682  0.16908789  0.83212780  1
  I  I129  1  0.66773592  0.49415150  0.16546718  1
  I  I130  1  0.66862846  0.50000748  0.50228778  1
  I  I131  1  0.66690262  0.49780499  0.83196248  1
  I  I132  1  0.66648892  0.83693294  0.16668627  1
  I  I133  1  0.66290058  0.83772838  0.49998833  1
  I  I134  1  0.66647071  0.83254554  0.83270077  1
