# generated using pymatgen
data_Cs27Sn14Pb13I81
_symmetry_space_group_name_H-M   'P 1'
_cell_length_a   18.98542986
_cell_length_b   18.97098721
_cell_length_c   18.97187215
_cell_angle_alpha   90.00060362
_cell_angle_beta   90.00057528
_cell_angle_gamma   90.00043123
_symmetry_Int_Tables_number   1
_chemical_formula_structural   Cs27Sn14Pb13I81
_chemical_formula_sum   'Cs27 Sn14 Pb13 I81'
_cell_volume   6833.14371756
_cell_formula_units_Z   1
loop_
 _symmetry_equiv_pos_site_id
 _symmetry_equiv_pos_as_xyz
  1  'x, y, z'
loop_
 _atom_site_type_symbol
 _atom_site_label
 _atom_site_symmetry_multiplicity
 _atom_site_fract_x
 _atom_site_fract_y
 _atom_site_fract_z
 _atom_site_occupancy
  Cs  Cs0  1  0.00114011  0.00965226  0.00013095  1
  Cs  Cs1  1  0.00046497  0.00071229  0.33284711  1
  Cs  Cs2  1  -0.00499665  0.00006432  0.66741378  1
  Cs  Cs3  1  0.00043037  0.33098912  0.00037430  1
  Cs  Cs4  1  -0.00197508  0.33090575  0.33429731  1
  Cs  Cs5  1  -0.00070976  0.33492392  0.66588416  1
  Cs  Cs6  1  0.00073494  0.66461440  0.00109117  1
  Cs  Cs7  1  0.00139561  0.66725229  0.33352461  1
  Cs  Cs8  1  0.00010309  0.66653371  0.66529234  1
  Cs  Cs9  1  0.33292091  0.00095577  -0.00171373  1
  Cs  Cs10  1  0.33133227  -0.00357537  0.33270259  1
  Cs  Cs11  1  0.33410480  0.00108325  0.66684175  1
  Cs  Cs12  1  0.33192553  0.33486564  -0.00011085  1
  Cs  Cs13  1  0.33530200  0.33362137  0.33582840  1
  Cs  Cs14  1  0.33600095  0.33074586  0.66260359  1
  Cs  Cs15  1  0.33396450  0.66634657  0.00126726  1
  Cs  Cs16  1  0.33231684  0.66910791  0.33212918  1
  Cs  Cs17  1  0.33059066  0.66642189  0.66675596  1
  Cs  Cs18  1  0.66671996  0.00056691  -0.00671645  1
  Cs  Cs19  1  0.66705906  0.00068445  0.33388985  1
  Cs  Cs20  1  0.67307032  0.00518425  0.67355060  1
  Cs  Cs21  1  0.66796792  0.33884970  0.00191570  1
  Cs  Cs22  1  0.66507110  0.32946251  0.33883007  1
  Cs  Cs23  1  0.66360765  0.32644587  0.65592024  1
  Cs  Cs24  1  0.66629142  0.66513126  0.00070396  1
  Cs  Cs25  1  0.66628797  0.66741790  0.33041993  1
  Cs  Cs26  1  0.67295744  0.66916331  0.66879721  1
  Sn  Sn27  1  0.16754436  0.83441544  0.50006849  1
  Sn  Sn28  1  0.50020517  0.83370611  0.16702877  1
  Sn  Sn29  1  0.16671469  0.83278782  0.83391984  1
  Sn  Sn30  1  0.16626532  0.83289686  0.16605091  1
  Sn  Sn31  1  0.83351326  0.50094857  0.16641208  1
  Sn  Sn32  1  0.83326097  0.50004733  0.83394819  1
  Sn  Sn33  1  0.49998707  0.50030702  0.83343963  1
  Sn  Sn34  1  0.16674852  0.16546928  0.49979781  1
  Sn  Sn35  1  0.16659994  0.50050523  0.16614776  1
  Sn  Sn36  1  0.49982988  0.83294620  0.50018111  1
  Sn  Sn37  1  0.49979601  0.16641678  0.16612122  1
  Sn  Sn38  1  0.49983820  0.49982970  0.16630326  1
  Sn  Sn39  1  0.83354481  0.83290926  0.16631898  1
  Sn  Sn40  1  0.16688705  0.50094246  0.83416133  1
  Pb  Pb41  1  0.83044595  0.16690694  0.16655900  1
  Pb  Pb42  1  0.49822973  0.16306364  0.49780869  1
  Pb  Pb43  1  0.50000394  0.50302951  0.49982080  1
  Pb  Pb44  1  0.83328249  0.83321679  0.49774241  1
  Pb  Pb45  1  0.49975758  0.16985409  0.83584311  1
  Pb  Pb46  1  0.16673278  0.50069061  0.49980263  1
  Pb  Pb47  1  0.16861273  0.16701331  0.16819653  1
  Pb  Pb48  1  0.49828340  0.83139617  0.83341585  1
  Pb  Pb49  1  0.83615129  0.16626523  0.49972030  1
  Pb  Pb50  1  0.16684974  0.16723187  0.83092640  1
  Pb  Pb51  1  0.83312220  0.50029551  0.49941860  1
  Pb  Pb52  1  0.83330547  0.17052558  0.83373293  1
  Pb  Pb53  1  0.83636934  0.83137338  0.83645250  1
  I  I54  1  0.16684171  -0.00348257  0.16479525  1
  I  I55  1  0.17128164  -0.00243236  0.49807412  1
  I  I56  1  0.16784906  -0.00325127  0.83728429  1
  I  I57  1  0.16655577  0.33681012  0.16356916  1
  I  I58  1  0.16611393  0.33147582  0.49924143  1
  I  I59  1  0.16588582  0.33740526  0.83772547  1
  I  I60  1  0.17005454  0.66710948  0.16832366  1
  I  I61  1  0.17001652  0.67010087  0.49905402  1
  I  I62  1  0.16724846  0.66590039  0.83235983  1
  I  I63  1  0.49859857  -0.00160408  0.17291478  1
  I  I64  1  0.49607707  -0.00460892  0.49254456  1
  I  I65  1  0.49729686  -0.00024537  0.83454141  1
  I  I66  1  0.49921827  0.33500792  0.16147666  1
  I  I67  1  0.49853319  0.33319983  0.49935999  1
  I  I68  1  0.49631734  0.33851277  0.83923687  1
  I  I69  1  0.49950659  0.66664381  0.16698504  1
  I  I70  1  0.49137133  0.67051755  0.49229458  1
  I  I71  1  0.50073279  0.66310595  0.84013025  1
  I  I72  1  0.83504575  -0.00326271  0.16922911  1
  I  I73  1  0.83156346  -0.00049351  0.49733610  1
  I  I74  1  0.83486216  -0.00025259  0.83395119  1
  I  I75  1  0.83484469  0.33722502  0.16207747  1
  I  I76  1  0.83517732  0.33332559  0.49824333  1
  I  I77  1  0.83792102  0.33895202  0.84243208  1
  I  I78  1  0.83002666  0.66599148  0.16408268  1
  I  I79  1  0.83665306  0.66691669  0.50164919  1
  I  I80  1  0.83100720  0.66309640  0.83561209  1
  I  I81  1  0.16721614  0.16443140  0.00008629  1
  I  I82  1  0.16842404  0.16207359  0.33591050  1
  I  I83  1  0.16808651  0.16280041  0.66313777  1
  I  I84  1  0.16737084  0.50681516  0.00087191  1
  I  I85  1  0.16719782  0.50320310  0.32973123  1
  I  I86  1  0.16612076  0.50311230  0.66993368  1
  I  I87  1  0.16782609  0.82728414  0.00131568  1
  I  I88  1  0.16753797  0.83280559  0.33197614  1
  I  I89  1  0.17239502  0.83201623  0.66655433  1
  I  I90  1  0.49797838  0.16028177  0.00401096  1
  I  I91  1  0.49941265  0.17348591  0.32996069  1
  I  I92  1  0.49908331  0.16828284  0.66639443  1
  I  I93  1  0.49960310  0.50208147  0.00180613  1
  I  I94  1  0.49936122  0.49846125  0.32934091  1
  I  I95  1  0.49807743  0.50208133  0.66968146  1
  I  I96  1  0.49909169  0.83411724  0.00378315  1
  I  I97  1  0.49485019  0.83095969  0.33102251  1
  I  I98  1  0.49232474  0.82985510  0.66437788  1
  I  I99  1  0.83556291  0.16362132  0.00045496  1
  I  I100  1  0.83318814  0.17032257  0.33285712  1
  I  I101  1  0.83257343  0.16808607  0.66671418  1
  I  I102  1  0.83301667  0.50432490  0.00137622  1
  I  I103  1  0.83407559  0.50370182  0.32891022  1
  I  I104  1  0.83563663  0.50000192  0.67008492  1
  I  I105  1  0.83004542  0.83023391  0.00453225  1
  I  I106  1  0.83719798  0.82618034  0.32919044  1
  I  I107  1  0.83360705  0.83147792  0.66719381  1
  I  I108  1  0.00013545  0.16693852  0.16871442  1
  I  I109  1  0.00422445  0.16019581  0.49778522  1
  I  I110  1  0.00031719  0.16810884  0.83341708  1
  I  I111  1  0.00063942  0.50735405  0.16151585  1
  I  I112  1  0.00022877  0.50096237  0.49938863  1
  I  I113  1  0.00083048  0.50407315  0.83944466  1
  I  I114  1  0.00132331  0.82565612  0.16768309  1
  I  I115  1  0.00363328  0.83628475  0.49888888  1
  I  I116  1  0.00447596  0.82700675  0.83092500  1
  I  I117  1  0.33631519  0.16749086  0.16788972  1
  I  I118  1  0.33049059  0.16543589  0.49942104  1
  I  I119  1  0.33320672  0.16980888  0.83352348  1
  I  I120  1  0.33328779  0.50271460  0.16142897  1
  I  I121  1  0.33324976  0.49781847  0.50002749  1
  I  I122  1  0.33267274  0.50382660  0.84052487  1
  I  I123  1  0.33293004  0.83039399  0.16817946  1
  I  I124  1  0.33210481  0.83555504  0.49374883  1
  I  I125  1  0.33000919  0.82703842  0.83734959  1
  I  I126  1  0.66260917  0.16729029  0.16788862  1
  I  I127  1  0.66624287  0.16729313  0.49912370  1
  I  I128  1  0.66647845  0.16508438  0.83282454  1
  I  I129  1  0.66615135  0.50367527  0.16051290  1
  I  I130  1  0.66642956  0.50119685  0.49996253  1
  I  I131  1  0.66646211  0.50051744  0.84230782  1
  I  I132  1  0.66565809  0.82953110  0.17263806  1
  I  I133  1  0.66360800  0.83013737  0.49311944  1
  I  I134  1  0.66686196  0.83173031  0.83222158  1
