# generated using pymatgen
data_Cs27Sn14Pb13I81
_symmetry_space_group_name_H-M   'P 1'
_cell_length_a   18.97267136
_cell_length_b   18.97366021
_cell_length_c   18.97935247
_cell_angle_alpha   89.99718106
_cell_angle_beta   90.00064704
_cell_angle_gamma   90.00116669
_symmetry_Int_Tables_number   1
_chemical_formula_structural   Cs27Sn14Pb13I81
_chemical_formula_sum   'Cs27 Sn14 Pb13 I81'
_cell_volume   6832.20664523
_cell_formula_units_Z   1
loop_
 _symmetry_equiv_pos_site_id
 _symmetry_equiv_pos_as_xyz
  1  'x, y, z'
loop_
 _atom_site_type_symbol
 _atom_site_label
 _atom_site_symmetry_multiplicity
 _atom_site_fract_x
 _atom_site_fract_y
 _atom_site_fract_z
 _atom_site_occupancy
  Cs  Cs0  1  -0.00513525  0.00096455  0.00053883  1
  Cs  Cs1  1  0.00483445  0.00006463  0.33060154  1
  Cs  Cs2  1  0.00404795  0.00659622  0.66714395  1
  Cs  Cs3  1  0.00605314  0.33250589  -0.00396206  1
  Cs  Cs4  1  -0.00168771  0.33436310  0.33975255  1
  Cs  Cs5  1  -0.00137569  0.32264604  0.66414763  1
  Cs  Cs6  1  0.00022150  0.66673550  0.00392899  1
  Cs  Cs7  1  0.00328139  0.66726173  0.32939593  1
  Cs  Cs8  1  -0.00683599  0.66841691  0.66570487  1
  Cs  Cs9  1  0.33658011  0.00122719  -0.00023631  1
  Cs  Cs10  1  0.33317057  0.00117202  0.33518154  1
  Cs  Cs11  1  0.33316862  -0.00132004  0.66516983  1
  Cs  Cs12  1  0.32928672  0.33676077  0.00024763  1
  Cs  Cs13  1  0.33484361  0.33433952  0.33081621  1
  Cs  Cs14  1  0.33257063  0.33442894  0.66949531  1
  Cs  Cs15  1  0.33148291  0.66270582  -0.00099807  1
  Cs  Cs16  1  0.33158239  0.66593788  0.33364834  1
  Cs  Cs17  1  0.33499874  0.66708852  0.66726493  1
  Cs  Cs18  1  0.66721961  0.00112519  0.00229524  1
  Cs  Cs19  1  0.66433040  0.00078632  0.32722531  1
  Cs  Cs20  1  0.66365074  -0.00500244  0.66899679  1
  Cs  Cs21  1  0.66626957  0.33222239  0.00219716  1
  Cs  Cs22  1  0.66782174  0.33359844  0.33322186  1
  Cs  Cs23  1  0.66880843  0.33526459  0.66433414  1
  Cs  Cs24  1  0.66713068  0.66714426  -0.00184848  1
  Cs  Cs25  1  0.66650091  0.66484310  0.33497498  1
  Cs  Cs26  1  0.66620463  0.66697815  0.66744256  1
  Sn  Sn27  1  0.49992303  0.83382671  0.83363767  1
  Sn  Sn28  1  0.49901726  0.49999943  0.49937304  1
  Sn  Sn29  1  0.83262511  0.50001570  0.16551170  1
  Sn  Sn30  1  0.16675188  0.16652204  0.16673555  1
  Sn  Sn31  1  0.16733369  0.50043901  0.50075436  1
  Sn  Sn32  1  0.50079406  0.50096736  0.16717424  1
  Sn  Sn33  1  0.83340266  0.50030613  0.83414025  1
  Sn  Sn34  1  0.16647686  0.83288542  0.83338772  1
  Sn  Sn35  1  0.50024638  0.16675563  0.50096837  1
  Sn  Sn36  1  0.83280404  0.83359061  0.50019879  1
  Sn  Sn37  1  0.49986162  0.83207623  0.16663933  1
  Sn  Sn38  1  0.83347873  0.83262339  0.83248013  1
  Sn  Sn39  1  0.50076936  0.83328378  0.49961064  1
  Sn  Sn40  1  0.50027160  0.16639855  0.83255737  1
  Pb  Pb41  1  0.83292301  0.50177950  0.50011536  1
  Pb  Pb42  1  0.49903764  0.16723495  0.16659384  1
  Pb  Pb43  1  0.16670377  0.49861322  0.16833379  1
  Pb  Pb44  1  0.83619835  0.16996188  0.16666109  1
  Pb  Pb45  1  0.83067737  0.16613740  0.83327254  1
  Pb  Pb46  1  0.16946821  0.16421781  0.83494565  1
  Pb  Pb47  1  0.83036935  0.16260331  0.49988412  1
  Pb  Pb48  1  0.50142792  0.50009975  0.83325199  1
  Pb  Pb49  1  0.16328803  0.50209380  0.83048305  1
  Pb  Pb50  1  0.16942410  0.16884527  0.49848341  1
  Pb  Pb51  1  0.83127699  0.83170413  0.16674042  1
  Pb  Pb52  1  0.16675512  0.83179108  0.50184727  1
  Pb  Pb53  1  0.16951961  0.83502704  0.16424064  1
  I  I54  1  0.17014905  0.00246487  0.16751604  1
  I  I55  1  0.16669665  -0.00002104  0.49975819  1
  I  I56  1  0.16269263  -0.00376434  0.83214565  1
  I  I57  1  0.17094119  0.33119110  0.16642641  1
  I  I58  1  0.17094217  0.33685860  0.49927363  1
  I  I59  1  0.16717751  0.33337076  0.83391612  1
  I  I60  1  0.16578052  0.66665209  0.16693865  1
  I  I61  1  0.17364308  0.66404175  0.49867383  1
  I  I62  1  0.17451593  0.66989199  0.83392232  1
  I  I63  1  0.49805906  -0.00256145  0.16843134  1
  I  I64  1  0.50457552  -0.00128570  0.50060412  1
  I  I65  1  0.50142269  -0.00211318  0.83099281  1
  I  I66  1  0.50208490  0.33630480  0.16999151  1
  I  I67  1  0.49496274  0.33417584  0.49928948  1
  I  I68  1  0.50209103  0.33127344  0.83064586  1
  I  I69  1  0.50286494  0.66656238  0.16945557  1
  I  I70  1  0.50023092  0.66719018  0.49981216  1
  I  I71  1  0.49938048  0.66984871  0.83118632  1
  I  I72  1  0.83201700  -0.00023621  0.16621903  1
  I  I73  1  0.82885982  -0.00534320  0.50753399  1
  I  I74  1  0.83443198  -0.00389871  0.82890512  1
  I  I75  1  0.82431172  0.33811421  0.16213575  1
  I  I76  1  0.83321138  0.33344271  0.50007410  1
  I  I77  1  0.83053714  0.33610755  0.83756562  1
  I  I78  1  0.83176419  0.66371211  0.16559307  1
  I  I79  1  0.82635968  0.66956904  0.50264695  1
  I  I80  1  0.82954818  0.66810136  0.83287743  1
  I  I81  1  0.17101003  0.16878609  0.00237317  1
  I  I82  1  0.17028869  0.16614949  0.33097782  1
  I  I83  1  0.16579808  0.16726465  0.66667515  1
  I  I84  1  0.16895356  0.49908746  -0.00021473  1
  I  I85  1  0.16725284  0.50074449  0.33613294  1
  I  I86  1  0.17552980  0.50079359  0.66317641  1
  I  I87  1  0.16650944  0.83281065  -0.00368223  1
  I  I88  1  0.16609207  0.83345704  0.33328730  1
  I  I89  1  0.17200923  0.83254134  0.66968046  1
  I  I90  1  0.49895930  0.16202676  -0.00225402  1
  I  I91  1  0.49804155  0.16390595  0.33589225  1
  I  I92  1  0.49946900  0.16289985  0.66624745  1
  I  I93  1  0.50244111  0.50271775  0.00243363  1
  I  I94  1  0.50190657  0.50272597  0.33364861  1
  I  I95  1  0.49827108  0.50222371  0.66387830  1
  I  I96  1  0.50016688  0.83452835  -0.00090285  1
  I  I97  1  0.50495312  0.83334689  0.33430766  1
  I  I98  1  0.50073671  0.83378305  0.66671010  1
  I  I99  1  0.82951451  0.16197446  -0.00010519  1
  I  I100  1  0.83033607  0.16749015  0.33340853  1
  I  I101  1  0.83656291  0.17357739  0.66658615  1
  I  I102  1  0.82700479  0.50645612  -0.00009075  1
  I  I103  1  0.83171108  0.50124040  0.33139115  1
  I  I104  1  0.83188023  0.50422806  0.66888660  1
  I  I105  1  0.83186469  0.83128521  -0.00308764  1
  I  I106  1  0.82726418  0.83117948  0.33592025  1
  I  I107  1  0.82681658  0.82579578  0.66779879  1
  I  I108  1  0.00363193  0.16640326  0.16605643  1
  I  I109  1  0.00012809  0.16836616  0.49832224  1
  I  I110  1  0.00008058  0.16616910  0.83531965  1
  I  I111  1  -0.00263924  0.49879631  0.16459999  1
  I  I112  1  0.00157210  0.50322150  0.49912639  1
  I  I113  1  -0.00440641  0.50677784  0.83899398  1
  I  I114  1  -0.00005035  0.83274507  0.16711227  1
  I  I115  1  -0.00269978  0.82868116  0.50507539  1
  I  I116  1  -0.00129882  0.82741655  0.82850468  1
  I  I117  1  0.33182327  0.16825166  0.16648360  1
  I  I118  1  0.33765200  0.16047768  0.50296696  1
  I  I119  1  0.33740062  0.16114678  0.82977398  1
  I  I120  1  0.33645007  0.50223228  0.16925290  1
  I  I121  1  0.33615667  0.50241142  0.49405037  1
  I  I122  1  0.33339493  0.50047962  0.83583476  1
  I  I123  1  0.33804070  0.82749829  0.16794960  1
  I  I124  1  0.33711461  0.83478207  0.50094590  1
  I  I125  1  0.33525919  0.83832121  0.83286784  1
  I  I126  1  0.66638510  0.16529814  0.16658577  1
  I  I127  1  0.66198651  0.17347026  0.50232829  1
  I  I128  1  0.66268483  0.16024741  0.83086709  1
  I  I129  1  0.66517987  0.50354169  0.16925564  1
  I  I130  1  0.66341550  0.49900306  0.49873043  1
  I  I131  1  0.66915574  0.50620105  0.83218837  1
  I  I132  1  0.66277520  0.83320148  0.16320180  1
  I  I133  1  0.66458024  0.83044257  0.50543122  1
  I  I134  1  0.66578010  0.83309219  0.83186462  1
