# generated using pymatgen
data_Cs27Sn14Pb13I81
_symmetry_space_group_name_H-M   'P 1'
_cell_length_a   18.98125113
_cell_length_b   18.96459358
_cell_length_c   18.98130613
_cell_angle_alpha   89.99847471
_cell_angle_beta   89.99958012
_cell_angle_gamma   89.99954172
_symmetry_Int_Tables_number   1
_chemical_formula_structural   Cs27Sn14Pb13I81
_chemical_formula_sum   'Cs27 Sn14 Pb13 I81'
_cell_volume   6832.73328596
_cell_formula_units_Z   1
loop_
 _symmetry_equiv_pos_site_id
 _symmetry_equiv_pos_as_xyz
  1  'x, y, z'
loop_
 _atom_site_type_symbol
 _atom_site_label
 _atom_site_symmetry_multiplicity
 _atom_site_fract_x
 _atom_site_fract_y
 _atom_site_fract_z
 _atom_site_occupancy
  Cs  Cs0  1  -0.00560973  0.00956983  -0.00721531  1
  Cs  Cs1  1  -0.00322878  0.00129613  0.33121330  1
  Cs  Cs2  1  0.00057891  -0.00862951  0.67474522  1
  Cs  Cs3  1  0.00029724  0.32800466  0.00101621  1
  Cs  Cs4  1  0.00054564  0.33482279  0.33371226  1
  Cs  Cs5  1  -0.00106211  0.33448051  0.66362636  1
  Cs  Cs6  1  0.00185645  0.66597216  -0.00012223  1
  Cs  Cs7  1  0.00204732  0.66440099  0.33479916  1
  Cs  Cs8  1  0.00120760  0.67025757  0.66626162  1
  Cs  Cs9  1  0.33208803  0.00240400  -0.00169769  1
  Cs  Cs10  1  0.33830277  -0.00185567  0.33577944  1
  Cs  Cs11  1  0.33358779  -0.00315239  0.66557827  1
  Cs  Cs12  1  0.33457212  0.33274671  0.00012968  1
  Cs  Cs13  1  0.33240567  0.33291128  0.33377087  1
  Cs  Cs14  1  0.33562419  0.33413724  0.66473511  1
  Cs  Cs15  1  0.33521695  0.66523417  0.00166651  1
  Cs  Cs16  1  0.33146617  0.66719291  0.33045039  1
  Cs  Cs17  1  0.33030737  0.66628384  0.66967330  1
  Cs  Cs18  1  0.67186420  -0.00178659  0.00098123  1
  Cs  Cs19  1  0.66325333  -0.01035399  0.33255564  1
  Cs  Cs20  1  0.66541659  -0.00126259  0.66501015  1
  Cs  Cs21  1  0.66459827  0.33376568  -0.00146830  1
  Cs  Cs22  1  0.66696355  0.33374200  0.33595371  1
  Cs  Cs23  1  0.66562073  0.33426878  0.66498557  1
  Cs  Cs24  1  0.66390727  0.66728397  0.00138450  1
  Cs  Cs25  1  0.66705674  0.67049274  0.33086068  1
  Cs  Cs26  1  0.66929631  0.66412695  0.66931715  1
  Sn  Sn27  1  0.16533360  0.16703980  0.50010343  1
  Sn  Sn28  1  0.16673431  0.49933406  0.50009396  1
  Sn  Sn29  1  0.50004521  0.49908466  0.16790796  1
  Sn  Sn30  1  0.16548947  0.49942737  0.83351622  1
  Sn  Sn31  1  0.83447967  0.16709792  0.49995343  1
  Sn  Sn32  1  0.50019803  0.16734740  0.16616706  1
  Sn  Sn33  1  0.16651272  0.50036734  0.16640563  1
  Sn  Sn34  1  0.16606982  0.83368874  0.16623039  1
  Sn  Sn35  1  0.49999098  0.16544901  0.83405872  1
  Sn  Sn36  1  0.83481405  0.49954014  0.83349173  1
  Sn  Sn37  1  0.83342358  0.49964986  0.49978987  1
  Sn  Sn38  1  0.83342728  0.49966298  0.16659543  1
  Sn  Sn39  1  0.49990850  0.83464950  0.83354550  1
  Sn  Sn40  1  0.49992819  0.50003415  0.49871499  1
  Pb  Pb41  1  0.16856087  0.16911607  0.83062756  1
  Pb  Pb42  1  0.83359211  0.83329713  0.49992730  1
  Pb  Pb43  1  0.83113632  0.83068636  0.83355075  1
  Pb  Pb44  1  0.16838153  0.16693272  0.16871766  1
  Pb  Pb45  1  0.50019863  0.16824243  0.49964277  1
  Pb  Pb46  1  0.49993188  0.49963569  0.83355879  1
  Pb  Pb47  1  0.83671873  0.83104932  0.16640750  1
  Pb  Pb48  1  0.49978638  0.82947498  0.50251177  1
  Pb  Pb49  1  0.83109195  0.16914657  0.83076792  1
  Pb  Pb50  1  0.83057058  0.16893973  0.16922430  1
  Pb  Pb51  1  0.16824887  0.83117081  0.83612254  1
  Pb  Pb52  1  0.49822744  0.83322603  0.16488223  1
  Pb  Pb53  1  0.16655980  0.83346610  0.49781601  1
  I  I54  1  0.17239699  -0.00197560  0.17047326  1
  I  I55  1  0.16374322  0.00320963  0.49751608  1
  I  I56  1  0.16743004  0.00020664  0.83304746  1
  I  I57  1  0.16580815  0.33722998  0.16580600  1
  I  I58  1  0.16671581  0.33595739  0.49768398  1
  I  I59  1  0.16651780  0.33765778  0.83881558  1
  I  I60  1  0.16947080  0.66304405  0.16867787  1
  I  I61  1  0.16637663  0.66259243  0.50178498  1
  I  I62  1  0.16645167  0.66233118  0.82786528  1
  I  I63  1  0.49688798  0.00269580  0.16557547  1
  I  I64  1  0.50010843  0.00003761  0.49755259  1
  I  I65  1  0.49873469  0.00102053  0.83869337  1
  I  I66  1  0.49733391  0.33542874  0.16395995  1
  I  I67  1  0.49970131  0.33681955  0.50156016  1
  I  I68  1  0.49997462  0.33171363  0.83415187  1
  I  I69  1  0.50153552  0.66302833  0.16834876  1
  I  I70  1  0.49979910  0.66102553  0.49516290  1
  I  I71  1  0.49985139  0.66772180  0.83268133  1
  I  I72  1  0.83244760  0.00037811  0.16924588  1
  I  I73  1  0.83710257  0.00339823  0.49998193  1
  I  I74  1  0.83367404  0.00037455  0.83131536  1
  I  I75  1  0.83862249  0.33786726  0.16522483  1
  I  I76  1  0.83374515  0.33592867  0.50000385  1
  I  I77  1  0.83374050  0.33761061  0.83510348  1
  I  I78  1  0.82685215  0.66149588  0.16965432  1
  I  I79  1  0.83371535  0.66204634  0.50011899  1
  I  I80  1  0.83378720  0.66178415  0.82965630  1
  I  I81  1  0.16789776  0.16805604  -0.00001186  1
  I  I82  1  0.16614753  0.17454904  0.33650588  1
  I  I83  1  0.16645359  0.17466395  0.66278626  1
  I  I84  1  0.16645494  0.50542083  0.00069594  1
  I  I85  1  0.16578686  0.50036166  0.33335738  1
  I  I86  1  0.16652336  0.49553450  0.66594261  1
  I  I87  1  0.16955492  0.82383636  0.00347915  1
  I  I88  1  0.16930738  0.82415112  0.33033430  1
  I  I89  1  0.16818254  0.83166907  0.66695915  1
  I  I90  1  0.49839991  0.17161507  0.00050974  1
  I  I91  1  0.49881661  0.17158268  0.33103825  1
  I  I92  1  0.49992543  0.16613629  0.66851777  1
  I  I93  1  0.49962542  0.49977834  0.00254747  1
  I  I94  1  0.49933495  0.49419823  0.33251049  1
  I  I95  1  0.49992068  0.49952495  0.66449372  1
  I  I96  1  0.49827475  0.82948227  -0.00263481  1
  I  I97  1  0.49922897  0.83568408  0.33313036  1
  I  I98  1  0.49903048  0.83829406  0.67013511  1
  I  I99  1  0.83332397  0.16850657  0.00004297  1
  I  I100  1  0.83564255  0.17529204  0.33690150  1
  I  I101  1  0.83376810  0.17577152  0.66310477  1
  I  I102  1  0.83402572  0.50199810  0.00037805  1
  I  I103  1  0.83488676  0.49645154  0.33362835  1
  I  I104  1  0.83337457  0.49668055  0.66588757  1
  I  I105  1  0.83216097  0.83020152  0.00004861  1
  I  I106  1  0.83096644  0.83101366  0.33307551  1
  I  I107  1  0.83288753  0.82933907  0.66678555  1
  I  I108  1  -0.00015730  0.16666087  0.16627738  1
  I  I109  1  0.00021395  0.17823984  0.49808000  1
  I  I110  1  -0.00006072  0.16611645  0.83493961  1
  I  I111  1  0.00043872  0.50547502  0.16928802  1
  I  I112  1  0.00024605  0.49638317  0.49768986  1
  I  I113  1  0.00028832  0.50062812  0.83295507  1
  I  I114  1  0.00428596  0.82477755  0.16868046  1
  I  I115  1  0.00015984  0.82792193  0.50010204  1
  I  I116  1  0.00012717  0.83299075  0.83336499  1
  I  I117  1  0.33629806  0.17406308  0.16576635  1
  I  I118  1  0.33137030  0.17300788  0.49979034  1
  I  I119  1  0.33655034  0.16755359  0.83471954  1
  I  I120  1  0.33329206  0.50050417  0.16865662  1
  I  I121  1  0.33270185  0.49586747  0.49869689  1
  I  I122  1  0.33117710  0.50025454  0.83263806  1
  I  I123  1  0.33084280  0.82424670  0.16639355  1
  I  I124  1  0.33332284  0.83370197  0.50006620  1
  I  I125  1  0.33613179  0.83301068  0.83338276  1
  I  I126  1  0.66267566  0.17367775  0.16449973  1
  I  I127  1  0.66874637  0.17425405  0.50135856  1
  I  I128  1  0.66311699  0.16734301  0.83483841  1
  I  I129  1  0.66617551  0.49502009  0.16864437  1
  I  I130  1  0.66709982  0.49573168  0.49954330  1
  I  I131  1  0.66868568  0.50002097  0.83209969  1
  I  I132  1  0.66664536  0.83214477  0.16606025  1
  I  I133  1  0.66647822  0.83330859  0.49912027  1
  I  I134  1  0.66317838  0.83356231  0.83450181  1
