# generated using pymatgen
data_Cs27Sn14Pb13I81
_symmetry_space_group_name_H-M   'P 1'
_cell_length_a   18.98084318
_cell_length_b   18.97073538
_cell_length_c   18.97568233
_cell_angle_alpha   89.99835856
_cell_angle_beta   90.00142454
_cell_angle_gamma   89.99894823
_symmetry_Int_Tables_number   1
_chemical_formula_structural   Cs27Sn14Pb13I81
_chemical_formula_sum   'Cs27 Sn14 Pb13 I81'
_cell_volume   6832.77418518
_cell_formula_units_Z   1
loop_
 _symmetry_equiv_pos_site_id
 _symmetry_equiv_pos_as_xyz
  1  'x, y, z'
loop_
 _atom_site_type_symbol
 _atom_site_label
 _atom_site_symmetry_multiplicity
 _atom_site_fract_x
 _atom_site_fract_y
 _atom_site_fract_z
 _atom_site_occupancy
  Cs  Cs0  1  0.00083631  -0.00321638  -0.00219472  1
  Cs  Cs1  1  -0.00171392  0.00069895  0.33525143  1
  Cs  Cs2  1  -0.00008547  0.00185583  0.66796930  1
  Cs  Cs3  1  0.00075467  0.33207152  0.00448008  1
  Cs  Cs4  1  -0.00228580  0.33546631  0.33308661  1
  Cs  Cs5  1  0.00289383  0.33106938  0.66454931  1
  Cs  Cs6  1  0.00366261  0.67130447  -0.00072093  1
  Cs  Cs7  1  0.00050269  0.66449521  0.33169760  1
  Cs  Cs8  1  -0.00305689  0.66619380  0.66893597  1
  Cs  Cs9  1  0.33277198  -0.00041679  -0.00065161  1
  Cs  Cs10  1  0.33487432  -0.00061539  0.33675132  1
  Cs  Cs11  1  0.33585869  0.00218665  0.66585086  1
  Cs  Cs12  1  0.33587152  0.33516865  -0.00022050  1
  Cs  Cs13  1  0.33223857  0.33327379  0.33300011  1
  Cs  Cs14  1  0.33147338  0.33203662  0.66683397  1
  Cs  Cs15  1  0.32969645  0.66443958  0.00387001  1
  Cs  Cs16  1  0.33180864  0.66755479  0.33387092  1
  Cs  Cs17  1  0.33510229  0.66454612  0.66386026  1
  Cs  Cs18  1  0.66673059  0.00194000  0.00218873  1
  Cs  Cs19  1  0.66640476  -0.00209991  0.33144874  1
  Cs  Cs20  1  0.66509522  -0.00042541  0.66603841  1
  Cs  Cs21  1  0.66394473  0.33725960  0.00734375  1
  Cs  Cs22  1  0.67013728  0.33365594  0.32593772  1
  Cs  Cs23  1  0.66616325  0.33491027  0.66708051  1
  Cs  Cs24  1  0.66591110  0.66124266  -0.00535425  1
  Cs  Cs25  1  0.66897614  0.67260529  0.33735802  1
  Cs  Cs26  1  0.66818065  0.66306191  0.66752413  1
  Sn  Sn27  1  0.50145509  0.16803319  0.50041586  1
  Sn  Sn28  1  0.83261339  0.83353671  0.16676362  1
  Sn  Sn29  1  0.16737539  0.50106327  0.50106047  1
  Sn  Sn30  1  0.16679678  0.16738727  0.83453761  1
  Sn  Sn31  1  0.49977066  0.83375457  0.83456809  1
  Sn  Sn32  1  0.83273457  0.16683581  0.83287177  1
  Sn  Sn33  1  0.16689099  0.16629418  0.16560628  1
  Sn  Sn34  1  0.83457657  0.83430802  0.49976311  1
  Sn  Sn35  1  0.50065296  0.83341116  0.16502776  1
  Sn  Sn36  1  0.83185895  0.16598535  0.50083915  1
  Sn  Sn37  1  0.49958941  0.49834788  0.49979131  1
  Sn  Sn38  1  0.50070115  0.16625046  0.83285245  1
  Sn  Sn39  1  0.16652556  0.49930819  0.83248759  1
  Sn  Sn40  1  0.16541340  0.83242312  0.50056158  1
  Pb  Pb41  1  0.50048499  0.83355632  0.50045077  1
  Pb  Pb42  1  0.83348261  0.49962325  0.50006267  1
  Pb  Pb43  1  0.83641684  0.49648245  0.83328143  1
  Pb  Pb44  1  0.16892158  0.83361330  0.83088086  1
  Pb  Pb45  1  0.83339272  0.50385951  0.16644813  1
  Pb  Pb46  1  0.49826599  0.16502121  0.16671830  1
  Pb  Pb47  1  0.83095905  0.83529899  0.83297179  1
  Pb  Pb48  1  0.83525126  0.16478643  0.16668335  1
  Pb  Pb49  1  0.49806977  0.49943700  0.83159403  1
  Pb  Pb50  1  0.16675228  0.49757906  0.16688875  1
  Pb  Pb51  1  0.16656297  0.16689788  0.50051307  1
  Pb  Pb52  1  0.50005325  0.50337932  0.17005271  1
  Pb  Pb53  1  0.16664665  0.83532472  0.16905884  1
  I  I54  1  0.16687615  0.00291632  0.16162089  1
  I  I55  1  0.16661487  -0.00172296  0.49930693  1
  I  I56  1  0.16535943  0.00322908  0.83500326  1
  I  I57  1  0.16660311  0.32959477  0.16777942  1
  I  I58  1  0.16797621  0.33537803  0.50112353  1
  I  I59  1  0.16849722  0.33184184  0.82981028  1
  I  I60  1  0.16617605  0.66690918  0.16490850  1
  I  I61  1  0.16870474  0.66618914  0.50427805  1
  I  I62  1  0.16937258  0.66445835  0.82998736  1
  I  I63  1  0.50260836  -0.00285973  0.16901012  1
  I  I64  1  0.49939298  0.00246624  0.50123454  1
  I  I65  1  0.49703617  0.00164465  0.82984351  1
  I  I66  1  0.49810879  0.33328888  0.16489361  1
  I  I67  1  0.49791670  0.33190358  0.50704571  1
  I  I68  1  0.50051996  0.32979558  0.82957723  1
  I  I69  1  0.50250304  0.67143664  0.16175364  1
  I  I70  1  0.49780791  0.66502895  0.49963003  1
  I  I71  1  0.49845423  0.66904090  0.83466602  1
  I  I72  1  0.82984090  -0.00292431  0.16989438  1
  I  I73  1  0.83391319  0.00023249  0.49981220  1
  I  I74  1  0.83918463  0.00351887  0.83120290  1
  I  I75  1  0.83560819  0.33283730  0.16796359  1
  I  I76  1  0.83375919  0.32990313  0.50515214  1
  I  I77  1  0.82866098  0.32804240  0.82511297  1
  I  I78  1  0.83072621  0.67207761  0.17538133  1
  I  I79  1  0.83363650  0.66966644  0.49480503  1
  I  I80  1  0.83282089  0.66686189  0.83339932  1
  I  I81  1  0.16657532  0.17106478  -0.00220651  1
  I  I82  1  0.16705438  0.16495388  0.33214323  1
  I  I83  1  0.16688570  0.16735381  0.66921607  1
  I  I84  1  0.16686982  0.49723747  -0.00302591  1
  I  I85  1  0.17026087  0.50258082  0.33679497  1
  I  I86  1  0.17071255  0.49681020  0.66582372  1
  I  I87  1  0.16462808  0.83114745  -0.00023232  1
  I  I88  1  0.16860636  0.83054163  0.33709974  1
  I  I89  1  0.16289911  0.83498606  0.66289027  1
  I  I90  1  0.50133417  0.16338308  -0.00315419  1
  I  I91  1  0.50160356  0.16770856  0.33651075  1
  I  I92  1  0.49745862  0.16326536  0.66688948  1
  I  I93  1  0.49829340  0.49829991  -0.00003865  1
  I  I94  1  0.49253531  0.49465033  0.33812495  1
  I  I95  1  0.49735549  0.50178611  0.66353043  1
  I  I96  1  0.50429043  0.84087425  -0.00047058  1
  I  I97  1  0.50058653  0.83340154  0.33192802  1
  I  I98  1  0.49854080  0.83575410  0.66864139  1
  I  I99  1  0.83230791  0.16496961  -0.00292353  1
  I  I100  1  0.83109644  0.16441119  0.33643919  1
  I  I101  1  0.83538530  0.16021607  0.66595235  1
  I  I102  1  0.83458004  0.49927217  -0.00031614  1
  I  I103  1  0.83607761  0.49418003  0.33372602  1
  I  I104  1  0.83148365  0.50649654  0.66654713  1
  I  I105  1  0.83149199  0.83585050  0.00217433  1
  I  I106  1  0.83060692  0.83951466  0.33475614  1
  I  I107  1  0.83598026  0.83572398  0.66367468  1
  I  I108  1  0.00299181  0.16416781  0.16387008  1
  I  I109  1  -0.00210172  0.16479330  0.50250634  1
  I  I110  1  0.00031898  0.17065927  0.83166846  1
  I  I111  1  0.00043567  0.50053916  0.16962459  1
  I  I112  1  0.00307596  0.50047957  0.50342150  1
  I  I113  1  0.00459188  0.49617257  0.82531907  1
  I  I114  1  -0.00237659  0.83576255  0.17020719  1
  I  I115  1  -0.00076319  0.83491791  0.49463409  1
  I  I116  1  0.00005803  0.83388396  0.83536830  1
  I  I117  1  0.33050991  0.16357113  0.16407925  1
  I  I118  1  0.33550783  0.16581187  0.50268045  1
  I  I119  1  0.33361615  0.16608305  0.83196103  1
  I  I120  1  0.33333062  0.50296402  0.16624461  1
  I  I121  1  0.33261783  0.50072231  0.50403573  1
  I  I122  1  0.33021861  0.49399469  0.82981015  1
  I  I123  1  0.33571374  0.83531444  0.16515020  1
  I  I124  1  0.33173458  0.83338679  0.49995871  1
  I  I125  1  0.33664137  0.83988094  0.83623025  1
  I  I126  1  0.66671581  0.16673205  0.16511399  1
  I  I127  1  0.66645605  0.16502345  0.50770098  1
  I  I128  1  0.66593318  0.15952473  0.82652677  1
  I  I129  1  0.66641915  0.49488049  0.16761970  1
  I  I130  1  0.66399483  0.50048362  0.50048816  1
  I  I131  1  0.66644819  0.50100081  0.83115484  1
  I  I132  1  0.66676689  0.83616352  0.17165161  1
  I  I133  1  0.66893854  0.83475798  0.49841976  1
  I  I134  1  0.66306369  0.83907660  0.83132557  1
