# generated using pymatgen
data_Cs27Sn14Pb13I81
_symmetry_space_group_name_H-M   'P 1'
_cell_length_a   18.97503667
_cell_length_b   18.97121848
_cell_length_c   18.98042714
_cell_angle_alpha   90.00051762
_cell_angle_beta   90.00086137
_cell_angle_gamma   89.99966629
_symmetry_Int_Tables_number   1
_chemical_formula_structural   Cs27Sn14Pb13I81
_chemical_formula_sum   'Cs27 Sn14 Pb13 I81'
_cell_volume   6832.56592731
_cell_formula_units_Z   1
loop_
 _symmetry_equiv_pos_site_id
 _symmetry_equiv_pos_as_xyz
  1  'x, y, z'
loop_
 _atom_site_type_symbol
 _atom_site_label
 _atom_site_symmetry_multiplicity
 _atom_site_fract_x
 _atom_site_fract_y
 _atom_site_fract_z
 _atom_site_occupancy
  Cs  Cs0  1  0.00019281  0.00910393  -0.00230465  1
  Cs  Cs1  1  0.00367534  0.00151595  0.32955495  1
  Cs  Cs2  1  -0.00405526  -0.00144808  0.67218906  1
  Cs  Cs3  1  0.00465952  0.32732027  0.00039543  1
  Cs  Cs4  1  -0.00200062  0.33414122  0.33482614  1
  Cs  Cs5  1  0.00216619  0.33057520  0.66289938  1
  Cs  Cs6  1  -0.00498026  0.66621599  -0.00019000  1
  Cs  Cs7  1  0.00042871  0.66519462  0.33362311  1
  Cs  Cs8  1  -0.00221333  0.66848965  0.66682074  1
  Cs  Cs9  1  0.33207546  -0.00017508  0.00254000  1
  Cs  Cs10  1  0.33234645  -0.00702049  0.33473151  1
  Cs  Cs11  1  0.33499266  -0.00083450  0.66351128  1
  Cs  Cs12  1  0.33331357  0.33483282  -0.00314387  1
  Cs  Cs13  1  0.33479814  0.33372678  0.33532235  1
  Cs  Cs14  1  0.33416878  0.33383766  0.66735805  1
  Cs  Cs15  1  0.33292834  0.66472464  -0.00113204  1
  Cs  Cs16  1  0.33215535  0.67175934  0.33400777  1
  Cs  Cs17  1  0.33180648  0.66670557  0.66763790  1
  Cs  Cs18  1  0.66791407  -0.00089831  -0.00382664  1
  Cs  Cs19  1  0.66432589  0.00031734  0.33292752  1
  Cs  Cs20  1  0.66769026  -0.00089750  0.67045746  1
  Cs  Cs21  1  0.66286063  0.33628291  0.00377768  1
  Cs  Cs22  1  0.66710320  0.33336489  0.33445586  1
  Cs  Cs23  1  0.66373797  0.33324509  0.65999512  1
  Cs  Cs24  1  0.66887605  0.66619915  0.00063133  1
  Cs  Cs25  1  0.66742418  0.66634849  0.33178710  1
  Cs  Cs26  1  0.66961504  0.66733866  0.66877757  1
  Sn  Sn27  1  0.16748681  0.83316175  0.83372841  1
  Sn  Sn28  1  0.49982868  0.16712615  0.16706495  1
  Sn  Sn29  1  0.49881825  0.83363907  0.83351555  1
  Sn  Sn30  1  0.16763419  0.49958666  0.49923842  1
  Sn  Sn31  1  0.83320216  0.83357385  0.49844519  1
  Sn  Sn32  1  0.49950019  0.49964554  0.16776897  1
  Sn  Sn33  1  0.83341889  0.83324858  0.16768297  1
  Sn  Sn34  1  0.49903076  0.16711918  0.49961697  1
  Sn  Sn35  1  0.49911771  0.50006623  0.49902317  1
  Sn  Sn36  1  0.49989370  0.16592441  0.83331923  1
  Sn  Sn37  1  0.83342560  0.49905081  0.83403820  1
  Sn  Sn38  1  0.16696045  0.50021738  0.16727091  1
  Sn  Sn39  1  0.16751205  0.16707136  0.49992409  1
  Sn  Sn40  1  0.83361350  0.50033025  0.16560988  1
  Pb  Pb41  1  0.83326974  0.83225776  0.83425694  1
  Pb  Pb42  1  0.50138106  0.49982366  0.83304927  1
  Pb  Pb43  1  0.16974537  0.16914928  0.16909782  1
  Pb  Pb44  1  0.50175868  0.83297547  0.50183324  1
  Pb  Pb45  1  0.83064182  0.17044005  0.83332158  1
  Pb  Pb46  1  0.83109551  0.16725217  0.16673505  1
  Pb  Pb47  1  0.16438535  0.50121635  0.83292365  1
  Pb  Pb48  1  0.16928067  0.16456551  0.83082156  1
  Pb  Pb49  1  0.83332380  0.50116102  0.49937182  1
  Pb  Pb50  1  0.83319096  0.16377280  0.49981428  1
  Pb  Pb51  1  0.50164502  0.83286632  0.16446789  1
  Pb  Pb52  1  0.16395205  0.83105353  0.16423761  1
  Pb  Pb53  1  0.16450560  0.83323587  0.50143060  1
  I  I54  1  0.16600091  0.00011167  0.16738336  1
  I  I55  1  0.17137710  0.00251506  0.50227874  1
  I  I56  1  0.16569376  -0.00331021  0.83151416  1
  I  I57  1  0.16042652  0.33751519  0.16633443  1
  I  I58  1  0.16991141  0.33450124  0.49756124  1
  I  I59  1  0.16628484  0.33323241  0.83477759  1
  I  I60  1  0.17207876  0.66264414  0.17327703  1
  I  I61  1  0.16993307  0.66351076  0.49749174  1
  I  I62  1  0.17313055  0.66897754  0.83074558  1
  I  I63  1  0.50268523  0.00259252  0.16900612  1
  I  I64  1  0.49692806  0.00296828  0.49770223  1
  I  I65  1  0.49775024  0.00044346  0.83245810  1
  I  I66  1  0.50271959  0.33457673  0.16513116  1
  I  I67  1  0.49799917  0.33359801  0.50233262  1
  I  I68  1  0.50315053  0.33089152  0.83299830  1
  I  I69  1  0.49961400  0.66314779  0.16976080  1
  I  I70  1  0.49739098  0.66350848  0.49647110  1
  I  I71  1  0.49946398  0.66862667  0.83298928  1
  I  I72  1  0.83065060  -0.00264449  0.17048791  1
  I  I73  1  0.83259511  -0.00402635  0.49622856  1
  I  I74  1  0.83452649  0.00017496  0.83297238  1
  I  I75  1  0.83396095  0.33711457  0.16256516  1
  I  I76  1  0.83290641  0.33328808  0.50081860  1
  I  I77  1  0.83276506  0.33799104  0.83976748  1
  I  I78  1  0.83024246  0.66506335  0.16626837  1
  I  I79  1  0.83282007  0.66886528  0.50018349  1
  I  I80  1  0.82990085  0.66443747  0.83450091  1
  I  I81  1  0.16721954  0.16680508  0.00008300  1
  I  I82  1  0.17185145  0.16669928  0.33693980  1
  I  I83  1  0.17211369  0.17406845  0.66305074  1
  I  I84  1  0.16928932  0.50314030  0.00279989  1
  I  I85  1  0.16469570  0.49706883  0.33360658  1
  I  I86  1  0.17037832  0.49785624  0.66347942  1
  I  I87  1  0.16977322  0.83078807  -0.00332140  1
  I  I88  1  0.16633867  0.83470276  0.33318536  1
  I  I89  1  0.16766860  0.83081947  0.66911621  1
  I  I90  1  0.50291160  0.16763872  0.00030084  1
  I  I91  1  0.49820264  0.17269002  0.33389323  1
  I  I92  1  0.49690804  0.16741470  0.66580440  1
  I  I93  1  0.49904107  0.49741293  0.00278324  1
  I  I94  1  0.50278683  0.49252475  0.33301368  1
  I  I95  1  0.49784460  0.49724355  0.66389030  1
  I  I96  1  0.49989351  0.83636931  -0.00338272  1
  I  I97  1  0.50082934  0.83567180  0.33320297  1
  I  I98  1  0.50051399  0.83618190  0.66969718  1
  I  I99  1  0.83187923  0.16101900  0.00001294  1
  I  I100  1  0.83013418  0.17021574  0.33336421  1
  I  I101  1  0.83067044  0.16576853  0.66655864  1
  I  I102  1  0.83106164  0.50777151  0.00191047  1
  I  I103  1  0.83252572  0.50279467  0.33036551  1
  I  I104  1  0.83177993  0.50400872  0.66801790  1
  I  I105  1  0.83166935  0.82819193  0.00257471  1
  I  I106  1  0.83214670  0.82582324  0.33253291  1
  I  I107  1  0.83312291  0.83083596  0.66544000  1
  I  I108  1  0.00043159  0.16668902  0.16806322  1
  I  I109  1  0.00296983  0.17167943  0.50018451  1
  I  I110  1  0.00032868  0.16423808  0.83150882  1
  I  I111  1  -0.00027748  0.50662174  0.16712903  1
  I  I112  1  0.00261386  0.49737355  0.49791145  1
  I  I113  1  -0.00327664  0.50578877  0.83655923  1
  I  I114  1  -0.00391434  0.82624096  0.16891876  1
  I  I115  1  -0.00307277  0.83104893  0.49993434  1
  I  I116  1  0.00160824  0.82897953  0.83130230  1
  I  I117  1  0.33782767  0.17176652  0.16322843  1
  I  I118  1  0.33481530  0.17120349  0.50096213  1
  I  I119  1  0.33746768  0.16732045  0.83543057  1
  I  I120  1  0.33413675  0.49512309  0.17054394  1
  I  I121  1  0.33390930  0.49694150  0.49368203  1
  I  I122  1  0.33340953  0.49992158  0.83572283  1
  I  I123  1  0.33329687  0.83255544  0.16637106  1
  I  I124  1  0.33335759  0.83295816  0.50095747  1
  I  I125  1  0.33431083  0.83515644  0.83175364  1
  I  I126  1  0.66266907  0.17270817  0.16973328  1
  I  I127  1  0.66286568  0.17128862  0.50014929  1
  I  I128  1  0.66231195  0.15878134  0.83035937  1
  I  I129  1  0.66616928  0.49989881  0.16617924  1
  I  I130  1  0.66386587  0.49638627  0.49812685  1
  I  I131  1  0.66907507  0.50324821  0.83724782  1
  I  I132  1  0.66943571  0.82670496  0.16768619  1
  I  I133  1  0.66939724  0.83155613  0.49949810  1
  I  I134  1  0.66448651  0.83648295  0.83269129  1
