# generated using pymatgen
data_Cs27Sn13Pb14I81
_symmetry_space_group_name_H-M   'P 1'
_cell_length_a   18.98817801
_cell_length_b   18.98868939
_cell_length_c   18.99832117
_cell_angle_alpha   90.00195615
_cell_angle_beta   89.99974055
_cell_angle_gamma   89.99596496
_symmetry_Int_Tables_number   1
_chemical_formula_structural   Cs27Sn13Pb14I81
_chemical_formula_sum   'Cs27 Sn13 Pb14 I81'
_cell_volume   6850.04633321
_cell_formula_units_Z   1
loop_
 _symmetry_equiv_pos_site_id
 _symmetry_equiv_pos_as_xyz
  1  'x, y, z'
loop_
 _atom_site_type_symbol
 _atom_site_label
 _atom_site_symmetry_multiplicity
 _atom_site_fract_x
 _atom_site_fract_y
 _atom_site_fract_z
 _atom_site_occupancy
  Cs  Cs0  1  0.00133785  0.00153020  -0.00070072  1
  Cs  Cs1  1  -0.00250831  -0.00141235  0.33573075  1
  Cs  Cs2  1  -0.00263345  -0.00262839  0.66623653  1
  Cs  Cs3  1  0.00172897  0.33129818  -0.00071725  1
  Cs  Cs4  1  0.00068104  0.33117386  0.33726008  1
  Cs  Cs5  1  -0.00245890  0.33554330  0.66478710  1
  Cs  Cs6  1  0.00006301  0.66735948  -0.00273488  1
  Cs  Cs7  1  -0.00203868  0.67159931  0.33269315  1
  Cs  Cs8  1  0.00094445  0.66550210  0.66967556  1
  Cs  Cs9  1  0.33291216  0.00378454  -0.00452987  1
  Cs  Cs10  1  0.33275023  0.00100341  0.33709397  1
  Cs  Cs11  1  0.33811490  -0.00133454  0.66778529  1
  Cs  Cs12  1  0.33146797  0.33122656  -0.00046469  1
  Cs  Cs13  1  0.33420343  0.33380285  0.33438977  1
  Cs  Cs14  1  0.33438803  0.33464878  0.66545213  1
  Cs  Cs15  1  0.33266489  0.66563215  0.00074142  1
  Cs  Cs16  1  0.33314448  0.66577820  0.33411599  1
  Cs  Cs17  1  0.33160355  0.66498210  0.66591450  1
  Cs  Cs18  1  0.66575770  -0.00038400  -0.00221734  1
  Cs  Cs19  1  0.66961855  -0.00236200  0.33308783  1
  Cs  Cs20  1  0.66393621  -0.00126158  0.66845997  1
  Cs  Cs21  1  0.66830975  0.33445880  0.00247980  1
  Cs  Cs22  1  0.66469219  0.33202661  0.33357944  1
  Cs  Cs23  1  0.66766517  0.33452368  0.66379638  1
  Cs  Cs24  1  0.66775268  0.66708404  0.01052994  1
  Cs  Cs25  1  0.67268820  0.67549179  0.31963699  1
  Cs  Cs26  1  0.66595342  0.66449009  0.66662997  1
  Sn  Sn27  1  0.16748962  0.16714847  0.50052302  1
  Sn  Sn28  1  0.49942347  0.49994356  0.83318607  1
  Sn  Sn29  1  0.16713509  0.83300781  0.16568360  1
  Sn  Sn30  1  0.16755263  0.50037664  0.83346220  1
  Sn  Sn31  1  0.16652670  0.50050283  0.16679706  1
  Sn  Sn32  1  0.83340904  0.16624716  0.83387620  1
  Sn  Sn33  1  0.49903836  0.16736758  0.49918753  1
  Sn  Sn34  1  0.16633192  0.83289856  0.83419172  1
  Sn  Sn35  1  0.83264493  0.16700330  0.16581845  1
  Sn  Sn36  1  0.50042358  0.16670422  0.16726039  1
  Sn  Sn37  1  0.16718104  0.49914963  0.49991973  1
  Sn  Sn38  1  0.49962697  0.49990689  0.49998157  1
  Sn  Sn39  1  0.83374091  0.83388974  0.83328661  1
  Pb  Pb40  1  0.83662232  0.49738538  0.16679242  1
  Pb  Pb41  1  0.16672912  0.16646794  0.16862400  1
  Pb  Pb42  1  0.16498008  0.16674960  0.83054246  1
  Pb  Pb43  1  0.83259232  0.16671886  0.50017784  1
  Pb  Pb44  1  0.49783994  0.49820427  0.16713637  1
  Pb  Pb45  1  0.50007942  0.83230971  0.49982789  1
  Pb  Pb46  1  0.49987234  0.83003258  0.83342197  1
  Pb  Pb47  1  0.83254583  0.50037456  0.49955844  1
  Pb  Pb48  1  0.83305340  0.50034373  0.83342431  1
  Pb  Pb49  1  0.83605485  0.83610002  0.16408673  1
  Pb  Pb50  1  0.50227737  0.16911926  0.83286150  1
  Pb  Pb51  1  0.49679073  0.83663834  0.16648610  1
  Pb  Pb52  1  0.83318055  0.83306488  0.50308465  1
  Pb  Pb53  1  0.16678252  0.83274594  0.50060344  1
  I  I54  1  0.16611518  -0.00217493  0.16240388  1
  I  I55  1  0.17005071  0.00271353  0.49869783  1
  I  I56  1  0.16352520  -0.00246170  0.83761902  1
  I  I57  1  0.16653523  0.33585663  0.16386453  1
  I  I58  1  0.16981807  0.33431945  0.49938987  1
  I  I59  1  0.16875613  0.33636860  0.83618858  1
  I  I60  1  0.16722799  0.66578830  0.16777966  1
  I  I61  1  0.17161616  0.66303577  0.50037661  1
  I  I62  1  0.16381189  0.66586352  0.83173345  1
  I  I63  1  0.50235689  0.00464354  0.17279307  1
  I  I64  1  0.49528832  0.00353086  0.49644420  1
  I  I65  1  0.49787030  0.00010135  0.83291847  1
  I  I66  1  0.50111216  0.33030632  0.16798378  1
  I  I67  1  0.49463903  0.33317837  0.50044619  1
  I  I68  1  0.49350974  0.33660502  0.83212957  1
  I  I69  1  0.50188791  0.66653026  0.16706389  1
  I  I70  1  0.49223728  0.66228894  0.50732440  1
  I  I71  1  0.49929028  0.66220239  0.82549637  1
  I  I72  1  0.83200353  0.00371369  0.16559208  1
  I  I73  1  0.83560827  0.00041386  0.49783299  1
  I  I74  1  0.83999564  0.00010133  0.83710723  1
  I  I75  1  0.83191321  0.32945174  0.15935446  1
  I  I76  1  0.83610785  0.33316910  0.50367218  1
  I  I77  1  0.83397353  0.33085264  0.83653028  1
  I  I78  1  0.83106807  0.66703472  0.16588951  1
  I  I79  1  0.83499778  0.66663599  0.50265192  1
  I  I80  1  0.83678968  0.66931424  0.83121367  1
  I  I81  1  0.16819285  0.16920862  -0.00012419  1
  I  I82  1  0.16574797  0.17075511  0.33624642  1
  I  I83  1  0.17117769  0.17075282  0.66294302  1
  I  I84  1  0.17000954  0.50439567  -0.00074060  1
  I  I85  1  0.17065940  0.49895354  0.33391066  1
  I  I86  1  0.17008105  0.50020036  0.66694700  1
  I  I87  1  0.16280059  0.82539192  -0.00092295  1
  I  I88  1  0.16739087  0.83077970  0.33091532  1
  I  I89  1  0.16176651  0.83015695  0.66995140  1
  I  I90  1  0.50205206  0.16810500  0.00205881  1
  I  I91  1  0.50113380  0.17322211  0.33413888  1
  I  I92  1  0.49681484  0.16873602  0.66382377  1
  I  I93  1  0.49538958  0.49854248  -0.00219014  1
  I  I94  1  0.49317585  0.49511292  0.33637419  1
  I  I95  1  0.49130634  0.49376757  0.66619621  1
  I  I96  1  0.50146637  0.83333255  -0.00010741  1
  I  I97  1  0.49798987  0.82904568  0.33301180  1
  I  I98  1  0.49863540  0.83938292  0.66689719  1
  I  I99  1  0.82893344  0.16350763  -0.00005542  1
  I  I100  1  0.83346922  0.16816017  0.33089794  1
  I  I101  1  0.83488684  0.16256358  0.66934691  1
  I  I102  1  0.83217532  0.50005420  -0.00007779  1
  I  I103  1  0.83404278  0.49717245  0.33308368  1
  I  I104  1  0.83800283  0.49754034  0.66689882  1
  I  I105  1  0.83625360  0.83497399  -0.00346006  1
  I  I106  1  0.83476857  0.83430589  0.33256985  1
  I  I107  1  0.84195795  0.84103867  0.67144293  1
  I  I108  1  -0.00182626  0.16681455  0.16377649  1
  I  I109  1  0.00258243  0.17134997  0.49959768  1
  I  I110  1  -0.00269848  0.16773301  0.83860497  1
  I  I111  1  0.00505661  0.50159970  0.16539257  1
  I  I112  1  0.00391442  0.49472666  0.50183603  1
  I  I113  1  0.00333196  0.50082142  0.83241828  1
  I  I114  1  0.00370103  0.83079974  0.16552557  1
  I  I115  1  0.00052254  0.83518442  0.49703219  1
  I  I116  1  0.00141221  0.83130050  0.83701697  1
  I  I117  1  0.33540288  0.16710323  0.16974693  1
  I  I118  1  0.33366261  0.17071730  0.49387751  1
  I  I119  1  0.33333646  0.16376654  0.83629105  1
  I  I120  1  0.32964552  0.50062452  0.16609549  1
  I  I121  1  0.33213710  0.49471851  0.50158623  1
  I  I122  1  0.33152723  0.50482058  0.83207725  1
  I  I123  1  0.32896324  0.83062014  0.15978368  1
  I  I124  1  0.33306820  0.83625598  0.50270552  1
  I  I125  1  0.32990685  0.83136550  0.83651715  1
  I  I126  1  0.66641022  0.16810958  0.16875700  1
  I  I127  1  0.66328567  0.17252560  0.49928770  1
  I  I128  1  0.67004045  0.16173016  0.83278461  1
  I  I129  1  0.66646420  0.50058215  0.16601242  1
  I  I130  1  0.66243099  0.49228847  0.50919294  1
  I  I131  1  0.66372472  0.49781852  0.82590500  1
  I  I132  1  0.66687177  0.83142475  0.16596004  1
  I  I133  1  0.66659158  0.83453221  0.50223746  1
  I  I134  1  0.66948215  0.83816517  0.83099324  1
