# generated using pymatgen
data_Cs27Sn14Pb13I81
_symmetry_space_group_name_H-M   'P 1'
_cell_length_a   18.97205919
_cell_length_b   18.97621246
_cell_length_c   18.98112570
_cell_angle_alpha   90.00056578
_cell_angle_beta   89.99871255
_cell_angle_gamma   89.99738490
_symmetry_Int_Tables_number   1
_chemical_formula_structural   Cs27Sn14Pb13I81
_chemical_formula_sum   'Cs27 Sn14 Pb13 I81'
_cell_volume   6833.54359832
_cell_formula_units_Z   1
loop_
 _symmetry_equiv_pos_site_id
 _symmetry_equiv_pos_as_xyz
  1  'x, y, z'
loop_
 _atom_site_type_symbol
 _atom_site_label
 _atom_site_symmetry_multiplicity
 _atom_site_fract_x
 _atom_site_fract_y
 _atom_site_fract_z
 _atom_site_occupancy
  Cs  Cs0  1  -0.00067625  0.00036993  0.00040813  1
  Cs  Cs1  1  0.00134469  0.00082476  0.33215523  1
  Cs  Cs2  1  0.00162159  -0.00074026  0.66747085  1
  Cs  Cs3  1  0.00071225  0.33223910  0.00040131  1
  Cs  Cs4  1  -0.00346733  0.33088081  0.33189992  1
  Cs  Cs5  1  -0.00086508  0.33375153  0.66583483  1
  Cs  Cs6  1  -0.00289197  0.66569368  -0.00069853  1
  Cs  Cs7  1  0.00130934  0.66763280  0.33574607  1
  Cs  Cs8  1  0.00349665  0.66745075  0.66488794  1
  Cs  Cs9  1  0.33336004  0.00116089  -0.00023691  1
  Cs  Cs10  1  0.32994248  -0.00193435  0.33060689  1
  Cs  Cs11  1  0.33180124  -0.00058133  0.66730386  1
  Cs  Cs12  1  0.33297633  0.33454830  -0.00060825  1
  Cs  Cs13  1  0.34264161  0.34245494  0.33242744  1
  Cs  Cs14  1  0.33668973  0.33405063  0.66901293  1
  Cs  Cs15  1  0.33391288  0.66349560  0.00070416  1
  Cs  Cs16  1  0.33511147  0.66058413  0.33452211  1
  Cs  Cs17  1  0.33025641  0.66799210  0.66632426  1
  Cs  Cs18  1  0.66696101  -0.00059485  0.00035018  1
  Cs  Cs19  1  0.66507438  -0.00084982  0.33273978  1
  Cs  Cs20  1  0.66559564  -0.00125981  0.66728741  1
  Cs  Cs21  1  0.66858116  0.33247702  -0.00148734  1
  Cs  Cs22  1  0.66367326  0.33458866  0.34476518  1
  Cs  Cs23  1  0.66495062  0.33231447  0.65994759  1
  Cs  Cs24  1  0.66888694  0.66798154  -0.00173828  1
  Cs  Cs25  1  0.66445494  0.66693735  0.33303639  1
  Cs  Cs26  1  0.66681653  0.66899338  0.66975703  1
  Sn  Sn27  1  0.83328424  0.16693009  0.16612097  1
  Sn  Sn28  1  0.16564340  0.16588231  0.83335352  1
  Sn  Sn29  1  0.49869115  0.83274021  0.83295880  1
  Sn  Sn30  1  0.50116961  0.50087354  0.83365303  1
  Sn  Sn31  1  0.83277161  0.83367852  0.49880711  1
  Sn  Sn32  1  0.83329922  0.49960472  0.16623906  1
  Sn  Sn33  1  0.16586776  0.83350800  0.16557120  1
  Sn  Sn34  1  0.16699366  0.16703608  0.49945034  1
  Sn  Sn35  1  0.16760728  0.83396045  0.83463869  1
  Sn  Sn36  1  0.83420770  0.83342897  0.16774346  1
  Sn  Sn37  1  0.83394179  0.16756949  0.83374463  1
  Sn  Sn38  1  0.16634019  0.16621214  0.16685813  1
  Sn  Sn39  1  0.50043216  0.83381644  0.50060779  1
  Sn  Sn40  1  0.83258295  0.49872088  0.83380549  1
  Pb  Pb41  1  0.83355180  0.50272500  0.50043196  1
  Pb  Pb42  1  0.49950665  0.83335655  0.16619784  1
  Pb  Pb43  1  0.50012922  0.50301244  0.50315626  1
  Pb  Pb44  1  0.83476695  0.16427885  0.50006259  1
  Pb  Pb45  1  0.16602921  0.49985461  0.83339084  1
  Pb  Pb46  1  0.16641321  0.49620310  0.49985008  1
  Pb  Pb47  1  0.50024645  0.16672215  0.16669715  1
  Pb  Pb48  1  0.16419498  0.49986309  0.16661671  1
  Pb  Pb49  1  0.49686660  0.16362966  0.49993709  1
  Pb  Pb50  1  0.50030297  0.16635873  0.83348944  1
  Pb  Pb51  1  0.83374295  0.83362471  0.83374670  1
  Pb  Pb52  1  0.50348132  0.49995734  0.16383194  1
  Pb  Pb53  1  0.16686549  0.83446387  0.49951206  1
  I  I54  1  0.15886241  -0.00003293  0.16563586  1
  I  I55  1  0.16598315  0.00233279  0.50095478  1
  I  I56  1  0.16636441  0.00014232  0.83378019  1
  I  I57  1  0.16222832  0.32954421  0.16459060  1
  I  I58  1  0.16357788  0.32797833  0.50187108  1
  I  I59  1  0.16606249  0.32984099  0.83442286  1
  I  I60  1  0.16246688  0.67006812  0.16157311  1
  I  I61  1  0.16686750  0.66709641  0.50087269  1
  I  I62  1  0.16698334  0.66989411  0.83694490  1
  I  I63  1  0.50534283  -0.00033232  0.16408007  1
  I  I64  1  0.50516311  -0.00405924  0.50817269  1
  I  I65  1  0.49906827  -0.00313951  0.82936018  1
  I  I66  1  0.49700169  0.33349723  0.16412390  1
  I  I67  1  0.49848550  0.33343209  0.50052685  1
  I  I68  1  0.50053650  0.33580292  0.83522481  1
  I  I69  1  0.49911068  0.66687198  0.16875562  1
  I  I70  1  0.50299003  0.67083799  0.50100267  1
  I  I71  1  0.50127021  0.66773118  0.82967591  1
  I  I72  1  0.83762723  0.00001195  0.16581185  1
  I  I73  1  0.83031531  -0.00365949  0.49724561  1
  I  I74  1  0.83449046  0.00239473  0.83583531  1
  I  I75  1  0.83882739  0.33232407  0.15963708  1
  I  I76  1  0.83535875  0.33308412  0.49785863  1
  I  I77  1  0.83420121  0.33266519  0.84132356  1
  I  I78  1  0.83671615  0.66744571  0.16520635  1
  I  I79  1  0.83077345  0.67092128  0.49706340  1
  I  I80  1  0.83215024  0.66496218  0.83640692  1
  I  I81  1  0.16183730  0.16160825  -0.00019809  1
  I  I82  1  0.16080765  0.15960044  0.33171578  1
  I  I83  1  0.16267439  0.16144019  0.66842103  1
  I  I84  1  0.16979881  0.49743823  -0.00013921  1
  I  I85  1  0.16492485  0.50283651  0.33301370  1
  I  I86  1  0.16366938  0.50205938  0.66711419  1
  I  I87  1  0.16610176  0.84104126  -0.00027800  1
  I  I88  1  0.16460543  0.83855962  0.33047694  1
  I  I89  1  0.16676532  0.83731606  0.66921014  1
  I  I90  1  0.49624096  0.16353938  -0.00026413  1
  I  I91  1  0.50063748  0.16470142  0.33344602  1
  I  I92  1  0.50031976  0.16843907  0.66691600  1
  I  I93  1  0.50064259  0.50789347  -0.00397427  1
  I  I94  1  0.49974910  0.50048782  0.33346094  1
  I  I95  1  0.50737987  0.50073913  0.67089718  1
  I  I96  1  0.49948162  0.82985857  -0.00325828  1
  I  I97  1  0.50165869  0.83562079  0.33564576  1
  I  I98  1  0.50066788  0.82968844  0.66789807  1
  I  I99  1  0.84041373  0.16517530  0.00004016  1
  I  I100  1  0.83826866  0.16815073  0.33012701  1
  I  I101  1  0.83776753  0.16945679  0.66966758  1
  I  I102  1  0.82978025  0.50204815  -0.00037586  1
  I  I103  1  0.83613020  0.49721612  0.33013463  1
  I  I104  1  0.82945792  0.49611089  0.67030522  1
  I  I105  1  0.83399801  0.83329694  0.00258106  1
  I  I106  1  0.83388472  0.83363231  0.33169235  1
  I  I107  1  0.83287136  0.83363426  0.66528202  1
  I  I108  1  -0.00030259  0.16526003  0.16532545  1
  I  I109  1  0.00268093  0.16173748  0.50081571  1
  I  I110  1  0.00032453  0.16581232  0.83435426  1
  I  I111  1  -0.00394180  0.50065322  0.15807444  1
  I  I112  1  -0.00042095  0.50585414  0.50416563  1
  I  I113  1  -0.00332601  0.49947116  0.83790037  1
  I  I114  1  -0.00067848  0.83452742  0.16623607  1
  I  I115  1  -0.00215076  0.83435116  0.49950114  1
  I  I116  1  0.00248607  0.83446907  0.83342721  1
  I  I117  1  0.32921541  0.15913941  0.16474870  1
  I  I118  1  0.32874205  0.16309698  0.50210581  1
  I  I119  1  0.32999978  0.16538132  0.83409307  1
  I  I120  1  0.33343025  0.50009572  0.16676918  1
  I  I121  1  0.33356336  0.50252860  0.50114427  1
  I  I122  1  0.33567389  0.50134070  0.83089909  1
  I  I123  1  0.32988633  0.84027505  0.16556078  1
  I  I124  1  0.33550788  0.83580524  0.50277088  1
  I  I125  1  0.33267325  0.83375862  0.83217038  1
  I  I126  1  0.67110333  0.16415371  0.15979430  1
  I  I127  1  0.66668726  0.16740055  0.50014422  1
  I  I128  1  0.67003658  0.16624625  0.83901107  1
  I  I129  1  0.67170937  0.50186260  0.16421391  1
  I  I130  1  0.66686268  0.49670829  0.49737499  1
  I  I131  1  0.66763880  0.50210740  0.83840083  1
  I  I132  1  0.67001598  0.83396061  0.16688010  1
  I  I133  1  0.66701220  0.83371716  0.50106635  1
  I  I134  1  0.66500899  0.83256596  0.83224331  1
