# generated using pymatgen
data_Hf1.98Zr1.98Ti1.98Nb1.97964Re10.08
_symmetry_space_group_name_H-M   'P 1'
_cell_length_a   15.76620000
_cell_length_b   15.76620000
_cell_length_c   17.18680000
_cell_angle_alpha   90.00000000
_cell_angle_beta   90.00000000
_cell_angle_gamma   120.00000000
_symmetry_Int_Tables_number   1
_chemical_formula_structural   Hf1.98Zr1.98Ti1.98Nb1.97964Re10.08
_chemical_formula_sum   'Hf1.98 Zr1.98 Ti1.98 Nb1.97964 Re10.08'
_cell_volume   3699.81252069
_cell_formula_units_Z   1
loop_
 _symmetry_equiv_pos_site_id
 _symmetry_equiv_pos_as_xyz
  1  'x, y, z'
loop_
 _atom_type_symbol
 _atom_type_oxidation_number
  Hf0+  0.0
  Zr0+  0.0
  Ti0+  0.0
  Nb0+  0.0
  Re0+  0.0
loop_
 _atom_site_type_symbol
 _atom_site_label
 _atom_site_symmetry_multiplicity
 _atom_site_fract_x
 _atom_site_fract_y
 _atom_site_fract_z
 _atom_site_occupancy
  Hf0+  Hf1  1  0.22222222  0.77777778  0.03190000  1.0
  Hf0+  Hf1  1  0.44444444  0.55555556  0.46810000  1.0
  Zr0+  Hf1  1  0.88888889  0.77777778  0.03190000  1.0
  Zr0+  Hf1  1  0.11111111  0.22222222  0.96810000  1.0
  Ti0+  Hf1  1  0.88888889  0.44444444  0.71810000  1.0
  Ti0+  Hf1  1  0.44444444  0.88888889  0.96810000  1.0
  Nb0+  Nb1  1  0.72411000  0.11488667  0.12500000  1.0
  Nb0+  Nb1  1  0.21844667  0.94255667  0.62500000  1.0
