# generated using pymatgen
data_H2O
_symmetry_space_group_name_H-M   'P 1'
_cell_length_a   13.48440000
_cell_length_b   13.48440000
_cell_length_c   14.65656000
_cell_angle_alpha   90.00000000
_cell_angle_beta   90.00000000
_cell_angle_gamma   120.00000000
_symmetry_Int_Tables_number   1
_chemical_formula_structural   H2O
_chemical_formula_sum   'H144 O72'
_cell_volume   2307.94755451
_cell_formula_units_Z   72
loop_
 _symmetry_equiv_pos_site_id
 _symmetry_equiv_pos_as_xyz
  1  'x, y, z'
loop_
 _atom_type_symbol
 _atom_type_oxidation_number
  H+  1.0
  O2-  -2.0
loop_
 _atom_site_type_symbol
 _atom_site_label
 _atom_site_symmetry_multiplicity
 _atom_site_fract_x
 _atom_site_fract_y
 _atom_site_fract_z
 _atom_site_occupancy
  H+  H1  1  0.96730000  0.81700000  0.25895000  1.0
  H+  H1  1  0.18303333  0.03270000  0.75895000  1.0
  H+  H1  1  0.18303333  0.36603333  0.75895000  1.0
  H+  H1  1  0.30063333  0.15033333  0.25895000  1.0
  H+  H1  1  0.81696667  0.96730000  0.00895000  1.0
  H+  H1  1  0.96730000  0.15033333  0.25895000  1.0
  H+  H1  1  0.30063333  0.48366667  0.75895000  1.0
  H+  H1  1  0.51633333  0.15030000  0.99105000  1.0
  H+  H1  1  0.30063333  0.48366667  0.99105000  1.0
  H+  H1  1  0.36603333  0.51633333  0.74105000  1.0
  H+  H1  1  0.84966667  0.15030000  0.75895000  1.0
  H+  H1  1  0.84966667  0.81696667  0.49105000  1.0
  H+  H1  1  0.84966667  0.81696667  0.25895000  1.0
  H+  H1  1  0.51636667  0.36603333  0.75895000  1.0
  H+  H1  1  0.48366667  0.84970000  0.74105000  1.0
  H+  H1  1  0.84970000  0.36603333  0.25895000  1.0
  H+  H1  1  0.15030000  0.96730000  0.24105000  1.0
  H+  H1  1  0.15033333  0.18303333  0.00895000  1.0
  H+  H1  1  0.96730000  0.15033333  0.49105000  1.0
  H+  H1  1  0.84966667  0.48363333  0.75895000  1.0
  H+  H1  1  0.15030000  0.96730000  0.74105000  1.0
  H+  H1  1  0.48366667  0.51636667  0.00895000  1.0
  H+  H1  1  0.30063333  0.81700000  0.49105000  1.0
  H+  H1  1  0.81696667  0.30063333  0.00895000  1.0
  H+  H1  1  0.84966667  0.81696667  0.99105000  1.0
  H+  H1  1  0.48363333  0.63396667  0.74105000  1.0
  H+  H1  1  0.18300000  0.48363333  0.99105000  1.0
  H+  H1  1  0.36603333  0.84966667  0.00895000  1.0
  H+  H1  1  0.18303333  0.36603333  0.25895000  1.0
  H+  H1  1  0.81700000  0.18303333  0.74105000  1.0
  H+  H1  1  0.15033333  0.18303333  0.74105000  1.0
  H+  H1  1  0.48366667  0.84970000  0.00895000  1.0
  H+  H1  1  0.15030000  0.30063333  0.74105000  1.0
  H+  H1  1  0.15030000  0.63396667  0.74105000  1.0
  H+  H1  1  0.81700000  0.84970000  0.00895000  1.0
  H+  H1  1  0.48366667  0.51636667  0.24105000  1.0
  H+  H1  1  0.18303333  0.36603333  0.99105000  1.0
  H+  H1  1  0.69936667  0.84966667  0.00895000  1.0
  H+  H1  1  0.96730000  0.48366667  0.25895000  1.0
  H+  H1  1  0.63396667  0.15033333  0.49105000  1.0
  H+  H1  1  0.69936667  0.84966667  0.24105000  1.0
  H+  H1  1  0.03270000  0.18300000  0.74105000  1.0
  H+  H1  1  0.15033333  0.84970000  0.24105000  1.0
  H+  H1  1  0.69936667  0.51633333  0.00895000  1.0
  H+  H1  1  0.96730000  0.15033333  0.99105000  1.0
  H+  H1  1  0.18303333  0.03270000  0.49105000  1.0
  H+  H1  1  0.15033333  0.18303333  0.24105000  1.0
  H+  H1  1  0.84970000  0.03270000  0.25895000  1.0
  H+  H1  1  0.84966667  0.48363333  0.25895000  1.0
  H+  H1  1  0.15033333  0.84970000  0.00895000  1.0
  H+  H1  1  0.51636667  0.36603333  0.99105000  1.0
  H+  H1  1  0.96730000  0.48366667  0.75895000  1.0
  H+  H1  1  0.84966667  0.48363333  0.99105000  1.0
  H+  H1  1  0.69936667  0.18300000  0.24105000  1.0
  H+  H1  1  0.48363333  0.30063333  0.24105000  1.0
  H+  H1  1  0.48366667  0.18303333  0.50895000  1.0
  H+  H1  1  0.51633333  0.15030000  0.49105000  1.0
  H+  H1  1  0.15033333  0.51636667  0.74105000  1.0
  H+  H1  1  0.51636667  0.03270000  0.49105000  1.0
  H+  H1  1  0.81700000  0.18303333  0.50895000  1.0
  H+  H1  1  0.84970000  0.36603333  0.49105000  1.0
  H+  H1  1  0.51633333  0.81696667  0.75895000  1.0
  H+  H1  1  0.63396667  0.81700000  0.25895000  1.0
  H+  H1  1  0.51633333  0.15030000  0.25895000  1.0
  H+  H1  1  0.63396667  0.48366667  0.49105000  1.0
  H+  H1  1  0.84966667  0.15030000  0.99105000  1.0
  H+  H1  1  0.30063333  0.15033333  0.99105000  1.0
  H+  H1  1  0.69936667  0.18300000  0.74105000  1.0
  H+  H1  1  0.81700000  0.18303333  0.24105000  1.0
  H+  H1  1  0.84966667  0.15030000  0.49105000  1.0
  H+  H1  1  0.15030000  0.63396667  0.24105000  1.0
  H+  H1  1  0.18300000  0.48363333  0.25895000  1.0
  H+  H1  1  0.48363333  0.96730000  0.74105000  1.0
  H+  H1  1  0.96730000  0.15033333  0.75895000  1.0
  H+  H1  1  0.69936667  0.18300000  0.50895000  1.0
  H+  H1  1  0.15030000  0.30063333  0.50895000  1.0
  H+  H1  1  0.03270000  0.84966667  0.00895000  1.0
  H+  H1  1  0.48366667  0.18303333  0.00895000  1.0
  H+  H1  1  0.81700000  0.51636667  0.50895000  1.0
  H+  H1  1  0.51636667  0.03270000  0.25895000  1.0
  H+  H1  1  0.69936667  0.51633333  0.50895000  1.0
  H+  H1  1  0.69936667  0.51633333  0.24105000  1.0
  H+  H1  1  0.18300000  0.81696667  0.49105000  1.0
  H+  H1  1  0.84970000  0.03270000  0.99105000  1.0
  H+  H1  1  0.96730000  0.81700000  0.75895000  1.0
  H+  H1  1  0.84970000  0.69936667  0.49105000  1.0
  H+  H1  1  0.18303333  0.69936667  0.75895000  1.0
  H+  H1  1  0.51633333  0.81696667  0.49105000  1.0
  H+  H1  1  0.18300000  0.15030000  0.75895000  1.0
  H+  H1  1  0.81696667  0.96730000  0.24105000  1.0
  H+  H1  1  0.48366667  0.18303333  0.74105000  1.0
  H+  H1  1  0.81700000  0.84970000  0.24105000  1.0
  H+  H1  1  0.51636667  0.69936667  0.99105000  1.0
  H+  H1  1  0.03270000  0.18300000  0.00895000  1.0
  H+  H1  1  0.51633333  0.81696667  0.99105000  1.0
  H+  H1  1  0.03270000  0.51633333  0.00895000  1.0
  H+  H1  1  0.36603333  0.84966667  0.74105000  1.0
  H+  H1  1  0.81696667  0.96730000  0.50895000  1.0
  H+  H1  1  0.51636667  0.36603333  0.49105000  1.0
  H+  H1  1  0.84970000  0.69936667  0.99105000  1.0
  H+  H1  1  0.81696667  0.30063333  0.74105000  1.0
  H+  H1  1  0.84970000  0.69936667  0.75895000  1.0
  H+  H1  1  0.63396667  0.81700000  0.49105000  1.0
  H+  H1  1  0.36603333  0.18300000  0.00895000  1.0
  H+  H1  1  0.15030000  0.30063333  0.24105000  1.0
  H+  H1  1  0.30063333  0.81700000  0.75895000  1.0
  H+  H1  1  0.18300000  0.15030000  0.99105000  1.0
  H+  H1  1  0.18300000  0.15030000  0.49105000  1.0
  H+  H2  1  0.77777778  0.55555556  0.09820000  1.0
  H+  H2  1  0.77777778  0.88888889  0.15180000  1.0
  H+  H2  1  0.11111111  0.55555556  0.15180000  1.0
  H+  H2  1  0.22222222  0.44444444  0.34820000  1.0
  H+  H2  1  0.22222222  0.11111111  0.40180000  1.0
  H+  H2  1  0.55555556  0.77777778  0.40180000  1.0
  H+  H2  1  0.88888889  0.77777778  0.40180000  1.0
  H+  H2  1  0.22222222  0.44444444  0.40180000  1.0
  H+  H2  1  0.77777778  0.22222222  0.15180000  1.0
  H+  H2  1  0.88888889  0.44444444  0.84820000  1.0
  H+  H2  1  0.44444444  0.55555556  0.09820000  1.0
  H+  H2  1  0.88888889  0.77777778  0.84820000  1.0
  H+  H2  1  0.55555556  0.11111111  0.84820000  1.0
  H+  H2  1  0.22222222  0.77777778  0.90180000  1.0
  H+  H2  1  0.88888889  0.11111111  0.40180000  1.0
  H+  H2  1  0.22222222  0.77777778  0.84820000  1.0
  H+  H2  1  0.11111111  0.88888889  0.65180000  1.0
  H+  H2  1  0.44444444  0.22222222  0.65180000  1.0
  H+  H2  1  0.88888889  0.11111111  0.34820000  1.0
  H+  H2  1  0.22222222  0.44444444  0.84820000  1.0
  H+  H2  1  0.11111111  0.22222222  0.15180000  1.0
  H+  H2  1  0.22222222  0.11111111  0.84820000  1.0
  H+  H2  1  0.11111111  0.55555556  0.65180000  1.0
  H+  H2  1  0.11111111  0.55555556  0.59820000  1.0
  H+  H2  1  0.77777778  0.55555556  0.65180000  1.0
  H+  H2  1  0.44444444  0.22222222  0.09820000  1.0
  H+  H2  1  0.11111111  0.22222222  0.09820000  1.0
  H+  H2  1  0.55555556  0.11111111  0.34820000  1.0
  H+  H2  1  0.22222222  0.77777778  0.34820000  1.0
  H+  H2  1  0.77777778  0.88888889  0.65180000  1.0
  H+  H2  1  0.44444444  0.22222222  0.15180000  1.0
  H+  H2  1  0.88888889  0.77777778  0.90180000  1.0
  H+  H2  1  0.44444444  0.55555556  0.65180000  1.0
  H+  H2  1  0.11111111  0.88888889  0.15180000  1.0
  H+  H2  1  0.44444444  0.88888889  0.65180000  1.0
  H+  H2  1  0.44444444  0.55555556  0.15180000  1.0
  O2-  O1  1  0.11111111  0.22222222  0.21930000  1.0
  O2-  O1  1  0.11111111  0.22222222  0.71930000  1.0
  O2-  O1  1  0.11111111  0.55555556  0.21930000  1.0
  O2-  O1  1  0.11111111  0.55555556  0.71930000  1.0
  O2-  O1  1  0.11111111  0.88888889  0.21930000  1.0
  O2-  O1  1  0.11111111  0.88888889  0.71930000  1.0
  O2-  O1  1  0.44444444  0.22222222  0.21930000  1.0
  O2-  O1  1  0.44444444  0.22222222  0.71930000  1.0
  O2-  O1  1  0.44444444  0.55555556  0.21930000  1.0
  O2-  O1  1  0.44444444  0.55555556  0.71930000  1.0
  O2-  O1  1  0.44444444  0.88888889  0.21930000  1.0
  O2-  O1  1  0.44444444  0.88888889  0.71930000  1.0
  O2-  O1  1  0.77777778  0.22222222  0.21930000  1.0
  O2-  O1  1  0.77777778  0.22222222  0.71930000  1.0
  O2-  O1  1  0.77777778  0.55555556  0.21930000  1.0
  O2-  O1  1  0.77777778  0.55555556  0.71930000  1.0
  O2-  O1  1  0.77777778  0.88888889  0.21930000  1.0
  O2-  O1  1  0.77777778  0.88888889  0.71930000  1.0
  O2-  O1  1  0.22222222  0.11111111  0.28070000  1.0
  O2-  O1  1  0.22222222  0.11111111  0.78070000  1.0
  O2-  O1  1  0.22222222  0.44444444  0.28070000  1.0
  O2-  O1  1  0.22222222  0.44444444  0.78070000  1.0
  O2-  O1  1  0.22222222  0.77777778  0.28070000  1.0
  O2-  O1  1  0.22222222  0.77777778  0.78070000  1.0
  O2-  O1  1  0.55555556  0.11111111  0.28070000  1.0
  O2-  O1  1  0.55555556  0.11111111  0.78070000  1.0
  O2-  O1  1  0.55555556  0.44444444  0.28070000  1.0
  O2-  O1  1  0.55555556  0.44444444  0.78070000  1.0
  O2-  O1  1  0.55555556  0.77777778  0.28070000  1.0
  O2-  O1  1  0.55555556  0.77777778  0.78070000  1.0
  O2-  O1  1  0.88888889  0.11111111  0.28070000  1.0
  O2-  O1  1  0.88888889  0.11111111  0.78070000  1.0
  O2-  O1  1  0.88888889  0.44444444  0.28070000  1.0
  O2-  O1  1  0.88888889  0.44444444  0.78070000  1.0
  O2-  O1  1  0.88888889  0.77777778  0.28070000  1.0
  O2-  O1  1  0.88888889  0.77777778  0.78070000  1.0
  O2-  O1  1  0.22222222  0.11111111  0.46930000  1.0
  O2-  O1  1  0.22222222  0.11111111  0.96930000  1.0
  O2-  O1  1  0.22222222  0.44444444  0.46930000  1.0
  O2-  O1  1  0.22222222  0.44444444  0.96930000  1.0
  O2-  O1  1  0.22222222  0.77777778  0.46930000  1.0
  O2-  O1  1  0.22222222  0.77777778  0.96930000  1.0
  O2-  O1  1  0.55555556  0.11111111  0.46930000  1.0
  O2-  O1  1  0.55555556  0.11111111  0.96930000  1.0
  O2-  O1  1  0.55555556  0.44444444  0.46930000  1.0
  O2-  O1  1  0.55555556  0.44444444  0.96930000  1.0
  O2-  O1  1  0.55555556  0.77777778  0.46930000  1.0
  O2-  O1  1  0.55555556  0.77777778  0.96930000  1.0
  O2-  O1  1  0.88888889  0.11111111  0.46930000  1.0
  O2-  O1  1  0.88888889  0.11111111  0.96930000  1.0
  O2-  O1  1  0.88888889  0.44444444  0.46930000  1.0
  O2-  O1  1  0.88888889  0.44444444  0.96930000  1.0
  O2-  O1  1  0.88888889  0.77777778  0.46930000  1.0
  O2-  O1  1  0.88888889  0.77777778  0.96930000  1.0
  O2-  O1  1  0.11111111  0.22222222  0.03070000  1.0
  O2-  O1  1  0.11111111  0.22222222  0.53070000  1.0
  O2-  O1  1  0.11111111  0.55555556  0.03070000  1.0
  O2-  O1  1  0.11111111  0.55555556  0.53070000  1.0
  O2-  O1  1  0.11111111  0.88888889  0.03070000  1.0
  O2-  O1  1  0.11111111  0.88888889  0.53070000  1.0
  O2-  O1  1  0.44444444  0.22222222  0.03070000  1.0
  O2-  O1  1  0.44444444  0.22222222  0.53070000  1.0
  O2-  O1  1  0.44444444  0.55555556  0.03070000  1.0
  O2-  O1  1  0.44444444  0.55555556  0.53070000  1.0
  O2-  O1  1  0.44444444  0.88888889  0.03070000  1.0
  O2-  O1  1  0.44444444  0.88888889  0.53070000  1.0
  O2-  O1  1  0.77777778  0.22222222  0.03070000  1.0
  O2-  O1  1  0.77777778  0.22222222  0.53070000  1.0
  O2-  O1  1  0.77777778  0.55555556  0.03070000  1.0
  O2-  O1  1  0.77777778  0.55555556  0.53070000  1.0
  O2-  O1  1  0.77777778  0.88888889  0.03070000  1.0
  O2-  O1  1  0.77777778  0.88888889  0.53070000  1.0
