# generated using pymatgen
data_HfZrTaTiMo
_symmetry_space_group_name_H-M   'P 1'
_cell_length_a   15.18568682
_cell_length_b   15.20486447
_cell_length_c   16.77893339
_cell_angle_alpha   89.95894349
_cell_angle_beta   89.98706406
_cell_angle_gamma   89.95012716
_symmetry_Int_Tables_number   1
_chemical_formula_structural   HfZrTaTiMo
_chemical_formula_sum   'Hf40 Zr40 Ta40 Ti40 Mo40'
_cell_volume   3874.19124635
_cell_formula_units_Z   40
loop_
 _symmetry_equiv_pos_site_id
 _symmetry_equiv_pos_as_xyz
  1  'x, y, z'
loop_
 _atom_site_type_symbol
 _atom_site_label
 _atom_site_symmetry_multiplicity
 _atom_site_fract_x
 _atom_site_fract_y
 _atom_site_fract_z
 _atom_site_occupancy
  Hf  Hf0  1  0.68491610  0.29395468  0.61355034  1
  Hf  Hf1  1  0.70749018  0.72764899  0.11074830  1
  Hf  Hf2  1  0.70330222  0.49630384  0.12956061  1
  Hf  Hf3  1  0.90874202  0.68958671  0.11820504  1
  Hf  Hf4  1  0.10368116  0.31375920  0.88003559  1
  Hf  Hf5  1  -0.01405146  0.38811569  0.50712582  1
  Hf  Hf6  1  0.20487980  0.39787103  0.24647592  1
  Hf  Hf7  1  0.80871779  0.59494346  -0.01394593  1
  Hf  Hf8  1  0.69050415  0.08258131  0.86600573  1
  Hf  Hf9  1  0.32158246  0.92266436  0.13812125  1
  Hf  Hf10  1  0.10540397  0.89871409  0.87001001  1
  Hf  Hf11  1  0.41872836  0.80956091  -0.00061089  1
  Hf  Hf12  1  0.70508045  0.69832196  0.38762426  1
  Hf  Hf13  1  0.57529727  0.80315239  0.49510902  1
  Hf  Hf14  1  0.10407628  0.10703122  0.86741516  1
  Hf  Hf15  1  0.58211028  0.38763918  0.74779128  1
  Hf  Hf16  1  0.08898945  0.50317974  0.61400724  1
  Hf  Hf17  1  0.69635691  0.48781244  0.35755413  1
  Hf  Hf18  1  0.60881730  0.58738903  0.50535814  1
  Hf  Hf19  1  0.31013170  0.69710533  0.88617910  1
  Hf  Hf20  1  0.29983080  0.49457913  0.38464427  1
  Hf  Hf21  1  0.78769301  0.39536260  0.74987190  1
  Hf  Hf22  1  0.20039863  0.60835363  0.24073791  1
  Hf  Hf23  1  0.40114906  0.60093633  0.74077255  1
  Hf  Hf24  1  -0.00660895  0.00069747  0.73241260  1
  Hf  Hf25  1  0.32295561  0.89184290  0.62632695  1
  Hf  Hf26  1  0.78337074  0.18964003  -0.00062053  1
  Hf  Hf27  1  0.53079342  0.91360297  0.86748881  1
  Hf  Hf28  1  0.88723639  0.29881858  0.14201746  1
  Hf  Hf29  1  0.00863760  0.79526427  0.73573142  1
  Hf  Hf30  1  0.28117668  0.49739016  0.88158250  1
  Hf  Hf31  1  0.01027845  0.18325707  0.25496329  1
  Hf  Hf32  1  0.80116069  0.61370471  0.25114743  1
  Hf  Hf33  1  0.19830843  0.01015271  0.01065395  1
  Hf  Hf34  1  0.40581096  0.61252050  0.50651066  1
  Hf  Hf35  1  0.58741767  0.00633271  0.26498328  1
  Hf  Hf36  1  0.80752470  0.80410760  0.73283600  1
  Hf  Hf37  1  0.40022905  0.59507981  0.01494408  1
  Hf  Hf38  1  0.09584931  0.29930075  0.12947687  1
  Hf  Hf39  1  0.40422822  0.38373602  0.24207601  1
  Zr  Zr40  1  0.89158301  0.90200079  0.86808113  1
  Zr  Zr41  1  0.79978910  0.59898876  0.76862531  1
  Zr  Zr42  1  0.00932131  0.58890577  0.75682619  1
  Zr  Zr43  1  0.30251477  0.90804900  0.87174214  1
  Zr  Zr44  1  0.09790588  0.49571644  0.37806235  1
  Zr  Zr45  1  0.40340947  0.01203165  -0.00927209  1
  Zr  Zr46  1  0.70355558  0.69192411  0.62039089  1
  Zr  Zr47  1  0.19937079  0.61552598  0.50770482  1
  Zr  Zr48  1  0.89647036  0.09444301  0.13531811  1
  Zr  Zr49  1  0.21171142  0.78687570  0.73890790  1
  Zr  Zr50  1  0.00949212  0.80068684  0.00831655  1
  Zr  Zr51  1  0.60398142  0.60248999  -0.00172014  1
  Zr  Zr52  1  0.77929432  -0.02466381  0.00514028  1
  Zr  Zr53  1  0.80204780  0.00324763  0.26480362  1
  Zr  Zr54  1  0.78538417  0.40686884  0.49994485  1
  Zr  Zr55  1  -0.00154494  0.19882131  0.00263815  1
  Zr  Zr56  1  0.40512591  -0.00989631  0.49742984  1
  Zr  Zr57  1  0.49767736  0.49327200  0.37796424  1
  Zr  Zr58  1  -0.00620202  0.00238396  0.00104478  1
  Zr  Zr59  1  0.20135810  0.81144331  0.23764745  1
  Zr  Zr60  1  0.60034352  0.59577274  0.75114353  1
  Zr  Zr61  1  0.39809232  0.21619095  0.73236872  1
  Zr  Zr62  1  0.90199778  0.50307364  0.36525486  1
  Zr  Zr63  1  0.00417196  0.20955686  0.73743264  1
  Zr  Zr64  1  0.70022649  0.90786063  0.39505802  1
  Zr  Zr65  1  0.79212982  0.39219998  -0.00804159  1
  Zr  Zr66  1  0.11468977  0.69029122  0.88196013  1
  Zr  Zr67  1  0.39696228  0.59482142  0.23704332  1
  Zr  Zr68  1  0.68255256  0.10746328  0.13326507  1
  Zr  Zr69  1  0.00732878  0.80103126  0.24409545  1
  Zr  Zr70  1  0.41811869  0.80369526  0.75922221  1
  Zr  Zr71  1  0.81157909  0.00674416  0.50244717  1
  Zr  Zr72  1  0.01830342  0.80254094  0.51515003  1
  Zr  Zr73  1  0.59108856  0.60389760  0.24292692  1
  Zr  Zr74  1  0.89210340  0.29114002  0.87139417  1
  Zr  Zr75  1  0.18681333  0.38765661  0.73420213  1
  Zr  Zr76  1  0.92141353  0.90054060  0.38159629  1
  Zr  Zr77  1  0.38737988  0.40639675  0.74145468  1
  Zr  Zr78  1  0.60673332  0.80223837  0.26184329  1
  Zr  Zr79  1  0.90247544  0.48894069  0.14004353  1
  Ta  Ta80  1  0.68586974  0.30613413  0.13370492  1
  Ta  Ta81  1  0.67665982  0.28108047  0.87089276  1
  Ta  Ta82  1  0.80150150  0.20656143  0.48464506  1
  Ta  Ta83  1  0.29826087  0.29904849  0.87973167  1
  Ta  Ta84  1  0.10415150  0.71148654  0.37654814  1
  Ta  Ta85  1  0.89300333  0.11550569  0.61859068  1
  Ta  Ta86  1  0.41378763  0.80131696  0.25960258  1
  Ta  Ta87  1  0.78415824  0.20257588  0.27091810  1
  Ta  Ta88  1  0.78568382  0.19237916  0.74045067  1
  Ta  Ta89  1  0.90036032  0.30411724  0.36158830  1
  Ta  Ta90  1  0.02068454  0.01632248  0.51419374  1
  Ta  Ta91  1  0.49091385  0.29745191  0.39397625  1
  Ta  Ta92  1  0.41679158  0.01895557  0.74564649  1
  Ta  Ta93  1  0.30052520  0.90422498  0.36540596  1
  Ta  Ta94  1  0.39597611  0.19050966  0.25737679  1
  Ta  Ta95  1  0.29694349  0.29233008  0.38688745  1
  Ta  Ta96  1  0.00019560  0.40610595  0.00251458  1
  Ta  Ta97  1  0.51410539  0.70136261  0.87952514  1
  Ta  Ta98  1  0.39061974  0.39148790  0.01057084  1
  Ta  Ta99  1  0.88211941  0.50234853  0.62664930  1
  Ta  Ta100  1  0.38894221  0.19775946  0.51172027  1
  Ta  Ta101  1  0.30100581  0.11443027  0.86467066  1
  Ta  Ta102  1  0.28554976  0.09726877  0.37877123  1
  Ta  Ta103  1  0.90747345  0.70434463  0.87896746  1
  Ta  Ta104  1  0.80350120  0.80470828  0.25638336  1
  Ta  Ta105  1  0.09320084  0.50254960  0.13192099  1
  Ta  Ta106  1  0.28956555  0.09293636  0.62516564  1
  Ta  Ta107  1  0.20744718  0.59235205  0.73460398  1
  Ta  Ta108  1  0.81451621  0.79563746  0.51389771  1
  Ta  Ta109  1  0.50310046  0.28091896  0.11609498  1
  Ta  Ta110  1  0.18333599  0.18329861  0.50379030  1
  Ta  Ta111  1  0.20994165  0.20581653  0.00861239  1
  Ta  Ta112  1  0.12208145  0.91208332  0.62369999  1
  Ta  Ta113  1  0.20030841  0.60176808  0.02357894  1
  Ta  Ta114  1  0.19276705  0.38260161  0.50666193  1
  Ta  Ta115  1  0.48817964  0.49596015  0.88485334  1
  Ta  Ta116  1  0.20832902  0.80636096  0.02110985  1
  Ta  Ta117  1  0.51122917  0.47592608  0.11765883  1
  Ta  Ta118  1  0.48204318  0.09314745  0.13358979  1
  Ta  Ta119  1  0.88934910  0.89205064  0.13002457  1
  Ti  Ti120  1  0.39604765  0.19772906  0.00322546  1
  Ti  Ti121  1  0.58801242  0.18449326  0.73442627  1
  Ti  Ti122  1  0.49389484  0.71644433  0.62665435  1
  Ti  Ti123  1  0.58530096  0.20793397  0.26354528  1
  Ti  Ti124  1  0.30075967  0.49330715  0.61019331  1
  Ti  Ti125  1  0.68525871  0.09614772  0.60752758  1
  Ti  Ti126  1  0.70547625  0.72694584  0.88475662  1
  Ti  Ti127  1  0.81010750  0.59902070  0.49949840  1
  Ti  Ti128  1  0.11374024  0.91983124  0.37972832  1
  Ti  Ti129  1  0.59371059  0.00580921  0.00839852  1
  Ti  Ti130  1  0.61361522  0.80508640  0.74365602  1
  Ti  Ti131  1  -0.01271690  0.39692273  0.73364970  1
  Ti  Ti132  1  0.30300956  0.70411963  0.36949070  1
  Ti  Ti133  1  0.79122533  0.00034709  0.72907877  1
  Ti  Ti134  1  0.20686983  0.00738845  0.74790511  1
  Ti  Ti135  1  0.21641410  0.80640149  0.50177527  1
  Ti  Ti136  1  0.49510124  0.10195699  0.38757015  1
  Ti  Ti137  1  0.90803109  0.70562155  0.37958018  1
  Ti  Ti138  1  0.00911191  0.60475117  0.25420601  1
  Ti  Ti139  1  0.91324741  0.10158535  0.37865769  1
  Ti  Ti140  1  -0.00315870  0.60609939  0.49670114  1
  Ti  Ti141  1  0.50231076  0.11857811  0.87276706  1
  Ti  Ti142  1  0.50849949  0.70847673  0.11912018  1
  Ti  Ti143  1  0.70069166  0.90148188  0.60990023  1
  Ti  Ti144  1  0.31155701  0.71174534  0.12638823  1
  Ti  Ti145  1  0.20974021  0.20050020  0.24463180  1
  Ti  Ti146  1  0.19970006  0.40460630  0.01634061  1
  Ti  Ti147  1  0.51963957  0.89954844  0.12879392  1
  Ti  Ti148  1  0.91514334  0.48927271  0.87347335  1
  Ti  Ti149  1  0.89077110  0.09842538  0.86303279  1
  Ti  Ti150  1  0.49313716  0.30291908  0.88758525  1
  Ti  Ti151  1  0.51862229  0.91814884  0.63202687  1
  Ti  Ti152  1  0.68173994  0.48405684  0.88072066  1
  Ti  Ti153  1  0.18812874  0.01722708  0.24014322  1
  Ti  Ti154  1  0.10074150  0.28931330  0.37325316  1
  Ti  Ti155  1  0.50557720  0.48491382  0.61324493  1
  Ti  Ti156  1  0.91259122  0.68749148  0.62454859  1
  Ti  Ti157  1  0.01043079  0.59047680  -0.00509851  1
  Ti  Ti158  1  -0.00273343  0.20150792  0.50156446  1
  Ti  Ti159  1  0.68370056  0.29950208  0.37961104  1
  Mo  Mo160  1  0.61046783  0.81982178  -0.00083687  1
  Mo  Mo161  1  0.59914428  0.00376084  0.49715080  1
  Mo  Mo162  1  0.79050442  0.39120787  0.25694640  1
  Mo  Mo163  1  0.10423559  0.10182336  0.63169759  1
  Mo  Mo164  1  0.80886105  0.79708580  -0.00331884  1
  Mo  Mo165  1  0.90485459  0.90661176  0.61975008  1
  Mo  Mo166  1  0.49301238  0.69787184  0.37480779  1
  Mo  Mo167  1  0.08866484  0.29295091  0.61666373  1
  Mo  Mo168  1  0.49299052  0.30054341  0.60201970  1
  Mo  Mo169  1  0.49130816  0.90316939  0.37248924  1
  Mo  Mo170  1  0.59555401  0.19312996  0.49044916  1
  Mo  Mo171  1  0.10227219  0.09875441  0.37660257  1
  Mo  Mo172  1  0.00700189  0.39319007  0.25568530  1
  Mo  Mo173  1  0.30140392  0.11280825  0.13107326  1
  Mo  Mo174  1  0.69293663  0.11233699  0.38234406  1
  Mo  Mo175  1  0.49847297  0.10204925  0.61477650  1
  Mo  Mo176  1  0.59116727  0.39513391  0.50147798  1
  Mo  Mo177  1  0.20385385  -0.00786283  0.50080715  1
  Mo  Mo178  1  0.30553066  0.29385769  0.12331769  1
  Mo  Mo179  1  0.60983062  0.00639297  0.73483787  1
  Mo  Mo180  1  0.10508782  0.10212613  0.12445926  1
  Mo  Mo181  1  0.30693772  0.69902902  0.62453056  1
  Mo  Mo182  1  0.70601750  0.89665939  0.85934830  1
  Mo  Mo183  1  0.59223504  0.38232261  0.24942377  1
  Mo  Mo184  1  0.70026009  0.90895727  0.13630200  1
  Mo  Mo185  1  0.88503302  0.29639529  0.62345201  1
  Mo  Mo186  1  0.10300726  0.69717303  0.11954949  1
  Mo  Mo187  1  0.38951561  0.79279955  0.48108699  1
  Mo  Mo188  1  0.28701613  0.29459359  0.60815682  1
  Mo  Mo189  1  0.59291766  0.39037639  -0.00727276  1
  Mo  Mo190  1  0.69573068  0.49634241  0.63115235  1
  Mo  Mo191  1  0.29970495  0.49433287  0.12218415  1
  Mo  Mo192  1  0.10631158  0.69853734  0.62313391  1
  Mo  Mo193  1  0.20588903  0.19833390  0.74720910  1
  Mo  Mo194  1  0.39475435  0.00570220  0.26492870  1
  Mo  Mo195  1  0.58706609  0.19209834  -0.00230432  1
  Mo  Mo196  1  0.38987464  0.39836827  0.50601286  1
  Mo  Mo197  1  0.09838575  0.91114834  0.12662848  1
  Mo  Mo198  1  0.01178481  -0.00816594  0.24671996  1
  Mo  Mo199  1  0.10422872  0.49568903  0.88475438  1
