# generated using pymatgen
data_HfZrTaTiMo
_symmetry_space_group_name_H-M   'P 1'
_cell_length_a   15.22357830
_cell_length_b   15.21024773
_cell_length_c   16.81153682
_cell_angle_alpha   90.01463264
_cell_angle_beta   89.95956564
_cell_angle_gamma   90.01607934
_symmetry_Int_Tables_number   1
_chemical_formula_structural   HfZrTaTiMo
_chemical_formula_sum   'Hf40 Zr40 Ta40 Ti40 Mo40'
_cell_volume   3892.78402596
_cell_formula_units_Z   40
loop_
 _symmetry_equiv_pos_site_id
 _symmetry_equiv_pos_as_xyz
  1  'x, y, z'
loop_
 _atom_site_type_symbol
 _atom_site_label
 _atom_site_symmetry_multiplicity
 _atom_site_fract_x
 _atom_site_fract_y
 _atom_site_fract_z
 _atom_site_occupancy
  Hf  Hf0  1  0.89746509  0.29985625  0.11317722  1
  Hf  Hf1  1  0.50924384  0.70352334  0.87756350  1
  Hf  Hf2  1  0.80629122  0.00940696  0.26299586  1
  Hf  Hf3  1  0.70833510  0.50104730  0.37974095  1
  Hf  Hf4  1  0.08912057  0.08444543  0.13319457  1
  Hf  Hf5  1  0.71121836  0.69053923  0.38597781  1
  Hf  Hf6  1  0.69887979  0.90591605  0.88188140  1
  Hf  Hf7  1  0.58943495  0.58493260  0.51177665  1
  Hf  Hf8  1  0.59950665  0.00258263  0.26867317  1
  Hf  Hf9  1  0.49570014  0.49551502  0.85275476  1
  Hf  Hf10  1  0.21479264  0.39605480  0.49716571  1
  Hf  Hf11  1  0.30531164  0.90595980  0.86713688  1
  Hf  Hf12  1  0.01992047  0.58528548  0.75467875  1
  Hf  Hf13  1  0.58612564  0.40667203  0.00484647  1
  Hf  Hf14  1  0.39802113  -0.00614597  0.01662463  1
  Hf  Hf15  1  0.88657157  0.09010172  0.88041282  1
  Hf  Hf16  1  -0.01089553  -0.01310419  0.75580923  1
  Hf  Hf17  1  0.07360849  0.89486796  0.61412994  1
  Hf  Hf18  1  0.70597024  0.90218158  0.13677415  1
  Hf  Hf19  1  0.30725368  0.50100336  0.14113452  1
  Hf  Hf20  1  0.69563542  0.30254450  0.62119836  1
  Hf  Hf21  1  0.21323993  0.79719854  0.50052319  1
  Hf  Hf22  1  0.80689675  0.80106956  0.75027307  1
  Hf  Hf23  1  0.19685425  0.42102715  0.00158760  1
  Hf  Hf24  1  0.60753166  0.60604879  0.73914413  1
  Hf  Hf25  1  0.70321315  0.70290226  0.89241775  1
  Hf  Hf26  1  0.70930734  0.69663718  0.10927868  1
  Hf  Hf27  1  -0.00166797  0.19451784  0.49022914  1
  Hf  Hf28  1  0.90895008  0.48514949  0.88743744  1
  Hf  Hf29  1  0.80507694  0.40196960  0.50441744  1
  Hf  Hf30  1  0.79866173  0.19541457  0.74506559  1
  Hf  Hf31  1  0.30980413  0.69825025  0.86175626  1
  Hf  Hf32  1  0.00403717  0.59887098  0.25347274  1
  Hf  Hf33  1  0.39099504  0.00326917  0.49344544  1
  Hf  Hf34  1  0.28968937  0.50640122  0.85015157  1
  Hf  Hf35  1  0.31932396  0.50810638  0.37645436  1
  Hf  Hf36  1  0.30951185  0.51028199  0.63306308  1
  Hf  Hf37  1  0.59610043  0.00511570  0.47784805  1
  Hf  Hf38  1  0.39236749  0.39797621  -0.00361291  1
  Hf  Hf39  1  0.91151464  0.90171398  0.12793994  1
  Zr  Zr40  1  0.29564454  0.30685630  0.85390161  1
  Zr  Zr41  1  0.69314181  0.30064506  0.88123603  1
  Zr  Zr42  1  0.68730315  0.10046685  0.87494720  1
  Zr  Zr43  1  0.39755034  0.20094481  0.00340422  1
  Zr  Zr44  1  0.39937408  0.80320186  0.00648922  1
  Zr  Zr45  1  0.31088507  0.70271656  0.63108863  1
  Zr  Zr46  1  0.90814283  0.51109826  0.10748568  1
  Zr  Zr47  1  0.10527131  0.68912714  0.61630516  1
  Zr  Zr48  1  0.19414801  0.00891881  0.74022166  1
  Zr  Zr49  1  0.81008888  0.41415578  0.24029985  1
  Zr  Zr50  1  0.50457279  0.68692915  0.11819861  1
  Zr  Zr51  1  0.29199673  0.10749478  0.86982057  1
  Zr  Zr52  1  0.59164911  0.19860100  0.24576343  1
  Zr  Zr53  1  0.18813892  -0.00384924  0.00063830  1
  Zr  Zr54  1  0.80844988  0.60003672  0.74974709  1
  Zr  Zr55  1  0.19906019  0.80065781  0.00151718  1
  Zr  Zr56  1  0.89320216  0.08147572  0.61724604  1
  Zr  Zr57  1  0.60028483  0.77811082  0.25759979  1
  Zr  Zr58  1  0.68964997  0.09128569  0.61419655  1
  Zr  Zr59  1  0.90762945  0.49839990  0.62355646  1
  Zr  Zr60  1  0.78814207  0.19987119  0.24087238  1
  Zr  Zr61  1  0.20256794  0.20209122  0.50771339  1
  Zr  Zr62  1  0.18904580  0.80618694  0.75183708  1
  Zr  Zr63  1  0.70413644  0.50298384  0.88757601  1
  Zr  Zr64  1  0.09537491  0.89161265  0.38261289  1
  Zr  Zr65  1  0.59851384  0.79700353  0.49360731  1
  Zr  Zr66  1  0.19087566  0.00828305  0.51124700  1
  Zr  Zr67  1  0.09951067  0.31038988  0.13444826  1
  Zr  Zr68  1  0.68406181  0.30048960  0.38075404  1
  Zr  Zr69  1  0.19218216  0.20959054  0.00276118  1
  Zr  Zr70  1  -0.01260612  0.19388080  0.25298424  1
  Zr  Zr71  1  0.89648617  0.28941198  0.88546045  1
  Zr  Zr72  1  0.61000606  0.40583032  0.23735484  1
  Zr  Zr73  1  0.89760294  0.30979201  0.37179191  1
  Zr  Zr74  1  0.42892586  0.40437249  0.51101504  1
  Zr  Zr75  1  0.29424709  0.69201255  0.12668418  1
  Zr  Zr76  1  0.40087522  -0.00094053  0.25391994  1
  Zr  Zr77  1  0.49472762  0.09791500  0.87479492  1
  Zr  Zr78  1  0.19664392  0.40965478  0.26282077  1
  Zr  Zr79  1  0.90850496  0.69055811  0.89242883  1
  Ta  Ta80  1  0.58751592  0.20089032  0.73939598  1
  Ta  Ta81  1  0.19763343  0.19586935  0.25260547  1
  Ta  Ta82  1  0.01347630  0.80556322  -0.00324223  1
  Ta  Ta83  1  0.19209931  0.80339883  0.24848737  1
  Ta  Ta84  1  0.61205573  0.80699027  0.73780171  1
  Ta  Ta85  1  0.10785965  0.29782316  0.37207709  1
  Ta  Ta86  1  0.29517017  0.89819292  0.36844364  1
  Ta  Ta87  1  0.59089413  -0.00768570  0.74074744  1
  Ta  Ta88  1  0.40277139  0.00444162  0.73959657  1
  Ta  Ta89  1  0.51111909  0.50674303  0.36182219  1
  Ta  Ta90  1  0.42225072  0.81260457  0.74705863  1
  Ta  Ta91  1  0.30257295  0.29837021  0.14156043  1
  Ta  Ta92  1  0.50360815  0.90064996  0.61406332  1
  Ta  Ta93  1  0.71344465  0.70249080  0.61118906  1
  Ta  Ta94  1  0.32034262  0.29108888  0.36553650  1
  Ta  Ta95  1  0.82241737  0.80377173  0.49385753  1
  Ta  Ta96  1  0.10837555  0.49868300  0.60595533  1
  Ta  Ta97  1  0.00113422  -0.01057317  0.26013291  1
  Ta  Ta98  1  0.79395686  0.19028021  0.49111604  1
  Ta  Ta99  1  0.08243342  0.11161170  0.63309616  1
  Ta  Ta100  1  0.30996733  0.90433101  0.62677161  1
  Ta  Ta101  1  0.20117576  0.61223700  0.26572366  1
  Ta  Ta102  1  0.48870900  0.30621153  0.13133590  1
  Ta  Ta103  1  0.57998633  0.21435236  0.50187524  1
  Ta  Ta104  1  0.80212369  0.61684059  0.24512690  1
  Ta  Ta105  1  0.78776898  0.17949818  0.01730531  1
  Ta  Ta106  1  0.39216192  0.79146008  0.24816323  1
  Ta  Ta107  1  0.60376248  0.00665071  0.01587466  1
  Ta  Ta108  1  0.08908905  0.30949013  0.86315532  1
  Ta  Ta109  1  0.91002269  0.71143298  0.62169709  1
  Ta  Ta110  1  0.78677310  -0.01182684  0.74608920  1
  Ta  Ta111  1  0.59839003  0.81411649  0.00800920  1
  Ta  Ta112  1  0.09890176  0.09611666  0.36829133  1
  Ta  Ta113  1  0.08519921  0.10905024  0.86818906  1
  Ta  Ta114  1  0.29039620  0.10016855  0.36643998  1
  Ta  Ta115  1  0.00808549  0.39708994  0.49397939  1
  Ta  Ta116  1  0.90706508  0.28981196  0.62530730  1
  Ta  Ta117  1  0.29336850  0.09777693  0.13793157  1
  Ta  Ta118  1  0.48337999  0.13058154  0.37856634  1
  Ta  Ta119  1  0.48887872  0.10047493  0.61745114  1
  Ti  Ti120  1  0.08920563  0.30699607  0.62882207  1
  Ti  Ti121  1  -0.00456977  -0.00348481  -0.00383976  1
  Ti  Ti122  1  -0.00108627  0.18990235  0.00517918  1
  Ti  Ti123  1  0.80237529  0.39810447  0.74670671  1
  Ti  Ti124  1  0.59042219  0.19973708  0.01199753  1
  Ti  Ti125  1  0.49679182  0.10191798  0.13058949  1
  Ti  Ti126  1  0.90017145  0.51841561  0.38239853  1
  Ti  Ti127  1  0.69839757  0.49677761  0.62512296  1
  Ti  Ti128  1  0.10185653  0.69600970  0.38516863  1
  Ti  Ti129  1  0.18669519  0.20693077  0.74052655  1
  Ti  Ti130  1  0.90554972  0.70441492  0.11395767  1
  Ti  Ti131  1  0.03356323  0.59329447  0.00061015  1
  Ti  Ti132  1  0.38992566  0.20821600  0.51238957  1
  Ti  Ti133  1  0.01186734  0.39455376  0.00285044  1
  Ti  Ti134  1  0.09677705  0.69687063  0.12599838  1
  Ti  Ti135  1  0.29943245  0.30692419  0.63865748  1
  Ti  Ti136  1  0.70200468  0.50960315  0.10728319  1
  Ti  Ti137  1  0.70848136  0.89847426  0.61179318  1
  Ti  Ti138  1  0.50036092  0.89647116  0.13654950  1
  Ti  Ti139  1  0.48577378  0.87844379  0.37728140  1
  Ti  Ti140  1  0.69544550  0.30410020  0.11166702  1
  Ti  Ti141  1  0.89951774  0.89636462  0.88370359  1
  Ti  Ti142  1  0.11453111  0.68743761  0.87775159  1
  Ti  Ti143  1  -0.00771168  0.78971889  0.25462384  1
  Ti  Ti144  1  -0.02097725  -0.01075974  0.48485109  1
  Ti  Ti145  1  0.80807316  0.81168477  0.00295570  1
  Ti  Ti146  1  0.39462222  0.19798986  0.73605041  1
  Ti  Ti147  1  0.00520511  0.40947937  0.25783481  1
  Ti  Ti148  1  0.49862697  0.69974977  0.62353000  1
  Ti  Ti149  1  0.50001102  0.50548981  0.13736058  1
  Ti  Ti150  1  0.31448975  0.70358880  0.37908030  1
  Ti  Ti151  1  0.17662804  0.41317576  0.74023708  1
  Ti  Ti152  1  0.70954987  0.88800974  0.36614351  1
  Ti  Ti153  1  0.79664756  -0.00420436  0.47585640  1
  Ti  Ti154  1  -0.00707549  0.60747186  0.49570995  1
  Ti  Ti155  1  0.10290574  0.50632228  0.39268821  1
  Ti  Ti156  1  0.39805895  0.58825447  -0.00617590  1
  Ti  Ti157  1  0.50673190  0.90526067  0.87685107  1
  Ti  Ti158  1  -0.00014788  0.79255787  0.76353108  1
  Ti  Ti159  1  0.49819748  0.29916421  0.85931635  1
  Mo  Mo160  1  0.40795781  0.39955904  0.25246142  1
  Mo  Mo161  1  0.49214303  0.68600583  0.37732956  1
  Mo  Mo162  1  0.81137714  0.79507829  0.25007101  1
  Mo  Mo163  1  0.80982074  0.60177373  0.00262478  1
  Mo  Mo164  1  0.20554110  0.59787401  0.48497200  1
  Mo  Mo165  1  -0.00094874  0.19553487  0.74962097  1
  Mo  Mo166  1  0.00111443  0.79665867  0.49441457  1
  Mo  Mo167  1  0.50000501  0.29637757  0.63437763  1
  Mo  Mo168  1  0.29728113  0.10709543  0.63187898  1
  Mo  Mo169  1  0.59216098  0.60025129  -0.00164917  1
  Mo  Mo170  1  0.88674199  0.89307204  0.62248969  1
  Mo  Mo171  1  0.19522399  -0.00500351  0.25144541  1
  Mo  Mo172  1  0.09662280  0.88623876  0.13550257  1
  Mo  Mo173  1  0.50796462  0.49805882  0.64633149  1
  Mo  Mo174  1  0.40790242  0.39075234  0.73459426  1
  Mo  Mo175  1  0.79741334  0.39277194  0.01030658  1
  Mo  Mo176  1  0.90034869  0.09566698  0.38251671  1
  Mo  Mo177  1  0.29371298  0.90290063  0.14445402  1
  Mo  Mo178  1  0.39590480  0.19919656  0.24410023  1
  Mo  Mo179  1  0.90630285  0.69463700  0.37571191  1
  Mo  Mo180  1  0.89642620  0.88870544  0.36324416  1
  Mo  Mo181  1  0.41054358  0.60757254  0.25631300  1
  Mo  Mo182  1  0.40485052  0.61314485  0.49961367  1
  Mo  Mo183  1  0.68980765  0.09523521  0.12472458  1
  Mo  Mo184  1  0.41238309  0.60772450  0.74785083  1
  Mo  Mo185  1  0.89586687  0.09075767  0.11591820  1
  Mo  Mo186  1  -0.00424927  0.38949851  0.74313262  1
  Mo  Mo187  1  0.08878440  0.90129787  0.87570084  1
  Mo  Mo188  1  0.11321093  0.52144114  0.13253491  1
  Mo  Mo189  1  0.60346670  0.40143325  0.50184646  1
  Mo  Mo190  1  0.20853513  0.60179205  -0.00032130  1
  Mo  Mo191  1  0.49325652  0.31418003  0.36951442  1
  Mo  Mo192  1  0.09848819  0.49586358  0.87463281  1
  Mo  Mo193  1  0.40366020  0.80592446  0.49925789  1
  Mo  Mo194  1  0.79971181  -0.00662354  0.00698226  1
  Mo  Mo195  1  0.61518098  0.59549371  0.24708126  1
  Mo  Mo196  1  0.69274696  0.10299207  0.38501582  1
  Mo  Mo197  1  0.61075867  0.39450941  0.74940226  1
  Mo  Mo198  1  0.19831965  0.60085786  0.74567936  1
  Mo  Mo199  1  0.80506943  0.60382909  0.51123939  1
