# generated using pymatgen
data_HfZrTaTiMo
_symmetry_space_group_name_H-M   'P 1'
_cell_length_a   15.20641656
_cell_length_b   15.19793564
_cell_length_c   16.87182386
_cell_angle_alpha   89.98784266
_cell_angle_beta   89.97438308
_cell_angle_gamma   89.97092911
_symmetry_Int_Tables_number   1
_chemical_formula_structural   HfZrTaTiMo
_chemical_formula_sum   'Hf40 Zr40 Ta40 Ti40 Mo40'
_cell_volume   3899.18110981
_cell_formula_units_Z   40
loop_
 _symmetry_equiv_pos_site_id
 _symmetry_equiv_pos_as_xyz
  1  'x, y, z'
loop_
 _atom_site_type_symbol
 _atom_site_label
 _atom_site_symmetry_multiplicity
 _atom_site_fract_x
 _atom_site_fract_y
 _atom_site_fract_z
 _atom_site_occupancy
  Hf  Hf0  1  0.10219487  0.50621792  0.62048164  1
  Hf  Hf1  1  0.69344404  0.08712214  0.37881204  1
  Hf  Hf2  1  -0.02452744  0.80710610  0.48261770  1
  Hf  Hf3  1  0.79868738  -0.01101125  0.49810913  1
  Hf  Hf4  1  0.21025160  0.17944503  -0.00245429  1
  Hf  Hf5  1  0.58147638  0.59991319  -0.00349270  1
  Hf  Hf6  1  0.21242477  0.81660139  0.00617881  1
  Hf  Hf7  1  0.60394229  0.60450705  0.25825220  1
  Hf  Hf8  1  0.80906242  0.58170213  0.74319091  1
  Hf  Hf9  1  0.41211567  0.79526373  -0.00750359  1
  Hf  Hf10  1  0.70941319  0.28346522  0.37289616  1
  Hf  Hf11  1  0.10227965  0.49805751  0.38356036  1
  Hf  Hf12  1  0.39432397  0.19919697  0.50279581  1
  Hf  Hf13  1  0.69777964  0.30992614  0.87252077  1
  Hf  Hf14  1  0.20474403  0.20137872  0.24458230  1
  Hf  Hf15  1  0.70688784  0.70620485  0.11175191  1
  Hf  Hf16  1  0.08816106  0.29832988  0.61442826  1
  Hf  Hf17  1  -0.01344968  0.79714814  0.26357817  1
  Hf  Hf18  1  0.22156219  0.80512834  0.24356671  1
  Hf  Hf19  1  -0.01383358  0.41782435  0.00883102  1
  Hf  Hf20  1  0.29652568  0.90044057  0.86567272  1
  Hf  Hf21  1  0.68329825  0.29100049  0.12919195  1
  Hf  Hf22  1  -0.01620624  0.21034577  0.24715058  1
  Hf  Hf23  1  0.78778250  0.81558429  0.24831782  1
  Hf  Hf24  1  0.09763865  0.11542727  0.37217266  1
  Hf  Hf25  1  0.29872017  0.89349945  0.63013313  1
  Hf  Hf26  1  0.40458288  0.40249520  0.49562688  1
  Hf  Hf27  1  0.90636136  0.69397983  0.11199527  1
  Hf  Hf28  1  0.71422808  0.90548912  0.87421556  1
  Hf  Hf29  1  0.41065567  0.20144142  0.25505112  1
  Hf  Hf30  1  0.38719372  0.00073463  0.25458353  1
  Hf  Hf31  1  0.80899990  0.60669463  0.25705511  1
  Hf  Hf32  1  0.28070296  0.49076942  0.14360250  1
  Hf  Hf33  1  0.59994555  0.01916910  -0.01453123  1
  Hf  Hf34  1  0.31548115  0.69077721  0.12097152  1
  Hf  Hf35  1  0.09222819  0.29044532  0.88657599  1
  Hf  Hf36  1  0.08685633  0.09680080  0.12966714  1
  Hf  Hf37  1  0.69689654  0.50110590  0.12927038  1
  Hf  Hf38  1  0.20421681  0.40067000  -0.00673769  1
  Hf  Hf39  1  0.90344110  0.91011078  0.12183019  1
  Zr  Zr40  1  0.11106652  0.90642163  0.36469015  1
  Zr  Zr41  1  0.00915276  0.59126331  0.24758200  1
  Zr  Zr42  1  0.10991883  0.69913189  0.38552924  1
  Zr  Zr43  1  0.40155501  0.00877609  0.75260387  1
  Zr  Zr44  1  0.59140698  -0.01973114  0.24551572  1
  Zr  Zr45  1  0.78269209  0.19091822  0.00736225  1
  Zr  Zr46  1  0.10854085  0.30719740  0.11760476  1
  Zr  Zr47  1  0.91678469  0.67980842  0.88245816  1
  Zr  Zr48  1  0.90054676  0.91278974  0.63306944  1
  Zr  Zr49  1  0.58630967  0.60366470  0.49528453  1
  Zr  Zr50  1  0.90202318  0.49479270  0.38751329  1
  Zr  Zr51  1  0.59844989  0.20168277  0.74865465  1
  Zr  Zr52  1  0.11539056  0.70719464  0.88210780  1
  Zr  Zr53  1  0.20731031  0.40849714  0.50414134  1
  Zr  Zr54  1  0.51270528  0.70695694  0.12966192  1
  Zr  Zr55  1  0.60903628  0.00247768  0.75547999  1
  Zr  Zr56  1  0.80948589  0.79277593  0.75792448  1
  Zr  Zr57  1  0.10954849  0.90887663  0.13587878  1
  Zr  Zr58  1  0.80797733  0.39475126  0.24771772  1
  Zr  Zr59  1  0.42200961  0.81101365  0.25705461  1
  Zr  Zr60  1  0.29720222  0.30350786  0.63102260  1
  Zr  Zr61  1  0.19959946  0.79618890  0.74826910  1
  Zr  Zr62  1  0.32147187  0.68646214  0.62447677  1
  Zr  Zr63  1  -0.00090484  0.18501340  0.75658415  1
  Zr  Zr64  1  0.72173372  0.09416702  0.63072406  1
  Zr  Zr65  1  0.11031474  0.69105104  0.11871776  1
  Zr  Zr66  1  0.69326421  0.49340790  0.62036671  1
  Zr  Zr67  1  0.41668976  0.79215905  0.49707705  1
  Zr  Zr68  1  0.48426068  0.49196197  0.13813528  1
  Zr  Zr69  1  0.21192019  0.59277353  0.74980427  1
  Zr  Zr70  1  -0.03135909  0.40192446  0.74842302  1
  Zr  Zr71  1  0.09388776  0.09972295  0.61902147  1
  Zr  Zr72  1  -0.00865878  0.00626587  0.48494062  1
  Zr  Zr73  1  0.70690029  0.69254702  0.88610503  1
  Zr  Zr74  1  0.40627958  -0.00371739  0.50780358  1
  Zr  Zr75  1  0.48254193  0.51153650  0.62893710  1
  Zr  Zr76  1  0.19208014  0.39104146  0.75768965  1
  Zr  Zr77  1  0.79421868  0.61409785  0.50280778  1
  Zr  Zr78  1  0.07602884  0.50998584  0.86979040  1
  Zr  Zr79  1  0.20451190  0.00442114  0.49917426  1
  Ta  Ta80  1  0.49518659  0.31126934  0.86806116  1
  Ta  Ta81  1  -0.01907733  0.00521633  0.26082793  1
  Ta  Ta82  1  0.32160851  0.29255502  0.12176066  1
  Ta  Ta83  1  0.88021892  0.11457206  0.36931315  1
  Ta  Ta84  1  -0.00204867  0.60430826  0.50654438  1
  Ta  Ta85  1  0.40558630  0.39728577  -0.00161894  1
  Ta  Ta86  1  0.29539180  0.10552712  0.63123135  1
  Ta  Ta87  1  0.50553037  0.88589889  0.64091219  1
  Ta  Ta88  1  0.49029673  0.11181291  0.11594498  1
  Ta  Ta89  1  0.59801398  -0.01268160  0.51421342  1
  Ta  Ta90  1  0.59347789  0.40232505  -0.00078246  1
  Ta  Ta91  1  0.38655630  0.01230700  -0.01301866  1
  Ta  Ta92  1  0.69788961  0.49622712  0.87437869  1
  Ta  Ta93  1  0.80923495  0.20994488  0.75270302  1
  Ta  Ta94  1  0.29416290  0.30138967  0.37281631  1
  Ta  Ta95  1  0.30990239  0.29010445  0.87584695  1
  Ta  Ta96  1  0.89037759  0.29937222  0.88586801  1
  Ta  Ta97  1  0.89519691  0.29481291  0.11971000  1
  Ta  Ta98  1  0.49730108  0.91394927  0.10802510  1
  Ta  Ta99  1  0.59844324  0.60792236  0.75344483  1
  Ta  Ta100  1  0.10586506  0.71171864  0.60489764  1
  Ta  Ta101  1  0.50030283  0.90025157  0.87170187  1
  Ta  Ta102  1  0.50645557  0.30431007  0.62673642  1
  Ta  Ta103  1  0.39983646  0.20469508  0.74890512  1
  Ta  Ta104  1  0.60242483  0.19368218  0.50901917  1
  Ta  Ta105  1  0.49425789  0.49191286  0.36512457  1
  Ta  Ta106  1  0.59008354  0.38557627  0.25822837  1
  Ta  Ta107  1  0.09625182  0.30679248  0.38198623  1
  Ta  Ta108  1  0.50571471  0.28852417  0.37918966  1
  Ta  Ta109  1  0.69692877  0.90603609  0.10597986  1
  Ta  Ta110  1  0.39546577  0.60649703  0.26454374  1
  Ta  Ta111  1  0.59848917  0.39147126  0.49247450  1
  Ta  Ta112  1  0.60432692  0.18277619  0.24693294  1
  Ta  Ta113  1  0.00602869  0.81064153  -0.00356585  1
  Ta  Ta114  1  0.49435240  0.50657601  0.86884569  1
  Ta  Ta115  1  0.69388947  0.49153544  0.37733699  1
  Ta  Ta116  1  0.50338720  0.09130730  0.38392418  1
  Ta  Ta117  1  0.09617004  0.89688172  0.61912023  1
  Ta  Ta118  1  0.29173203  0.49874744  0.35710842  1
  Ta  Ta119  1  0.81448560  0.00486105  -0.00707880  1
  Ti  Ti120  1  0.71210075  0.11120737  0.86714017  1
  Ti  Ti121  1  0.57897343  0.21111562  -0.00696240  1
  Ti  Ti122  1  0.30605632  0.89613620  0.38517209  1
  Ti  Ti123  1  0.88766734  0.28930147  0.61625851  1
  Ti  Ti124  1  0.61330485  0.79586696  0.51139582  1
  Ti  Ti125  1  0.83518622  0.01293725  0.76885249  1
  Ti  Ti126  1  0.81312558  0.80645317  -0.00788602  1
  Ti  Ti127  1  0.81310311  0.57796626  0.00127792  1
  Ti  Ti128  1  0.00327087  0.61847815  0.72807619  1
  Ti  Ti129  1  0.70572502  0.70604330  0.37656976  1
  Ti  Ti130  1  0.70338195  0.88242819  0.63392451  1
  Ti  Ti131  1  0.29646270  0.69966161  0.37948952  1
  Ti  Ti132  1  0.90486451  0.30286073  0.38247032  1
  Ti  Ti133  1  0.70092756  0.29848886  0.62295956  1
  Ti  Ti134  1  0.20469928  0.59306324  -0.00502666  1
  Ti  Ti135  1  0.89491295  0.71088353  0.62003770  1
  Ti  Ti136  1  0.29416799  0.08059388  0.12489113  1
  Ti  Ti137  1  0.79068919  0.39654739  0.00968478  1
  Ti  Ti138  1  0.60165149  0.79446402  0.75882737  1
  Ti  Ti139  1  0.18650820  0.00539867  0.74865901  1
  Ti  Ti140  1  0.20206301  0.19148652  0.76168787  1
  Ti  Ti141  1  0.38852134  0.59176981  0.48192512  1
  Ti  Ti142  1  0.50177406  0.10139531  0.62449822  1
  Ti  Ti143  1  0.51132328  0.71073656  0.37124006  1
  Ti  Ti144  1  0.00409982  0.80918956  0.75230101  1
  Ti  Ti145  1  -0.01492343  0.20268271  0.49742370  1
  Ti  Ti146  1  0.39472183  0.40660683  0.74896234  1
  Ti  Ti147  1  0.09752364  0.91061841  0.87299100  1
  Ti  Ti148  1  0.79568191  0.38762328  0.49796712  1
  Ti  Ti149  1  0.30783994  0.49510808  0.87687446  1
  Ti  Ti150  1  0.00777727  0.00480326  -0.00951370  1
  Ti  Ti151  1  0.68682783  0.89089883  0.38084023  1
  Ti  Ti152  1  0.78899481  0.02018477  0.23459552  1
  Ti  Ti153  1  0.89980481  0.48908668  0.60803070  1
  Ti  Ti154  1  0.00913136  0.40343406  0.23684360  1
  Ti  Ti155  1  -0.01362215  0.18999091  0.00134215  1
  Ti  Ti156  1  0.29573194  0.10179903  0.37762302  1
  Ti  Ti157  1  0.60508785  0.80875150  -0.01165777  1
  Ti  Ti158  1  0.32449604  0.68634540  0.87556746  1
  Ti  Ti159  1  0.59928809  0.40761667  0.74740329  1
  Mo  Mo160  1  0.79496331  0.19360045  0.23843148  1
  Mo  Mo161  1  0.39074847  0.58452865  -0.00418135  1
  Mo  Mo162  1  0.69660130  0.70418047  0.63477797  1
  Mo  Mo163  1  0.89606108  0.49531232  0.12853167  1
  Mo  Mo164  1  0.20069578  0.00632010  0.25823230  1
  Mo  Mo165  1  0.87444480  0.91606948  0.36105744  1
  Mo  Mo166  1  0.30153548  0.50110021  0.62606322  1
  Mo  Mo167  1  0.31675307  0.90867510  0.11860731  1
  Mo  Mo168  1  0.51881262  0.70784483  0.63419583  1
  Mo  Mo169  1  0.68484730  0.08822409  0.11930490  1
  Mo  Mo170  1  0.91323317  0.89677503  0.88125879  1
  Mo  Mo171  1  0.78704969  0.80254759  0.50122239  1
  Mo  Mo172  1  0.00278911  0.60195669  0.00294267  1
  Mo  Mo173  1  0.89322499  0.70515710  0.37800882  1
  Mo  Mo174  1  0.90463305  0.10379531  0.88325155  1
  Mo  Mo175  1  0.20815667  0.60559902  0.50182152  1
  Mo  Mo176  1  0.19937766  0.20428822  0.49231319  1
  Mo  Mo177  1  0.40838778  0.59770046  0.75837191  1
  Mo  Mo178  1  0.20501414  0.80279083  0.50286797  1
  Mo  Mo179  1  0.19209089  0.39392491  0.25534184  1
  Mo  Mo180  1  0.49755288  0.29978087  0.12503337  1
  Mo  Mo181  1  0.79036210  0.39047254  0.74293773  1
  Mo  Mo182  1  0.51228428  0.90217231  0.38665690  1
  Mo  Mo183  1  0.10047753  0.50420568  0.12131078  1
  Mo  Mo184  1  0.79941736  0.19904076  0.50157366  1
  Mo  Mo185  1  0.20581222  0.60473563  0.25329521  1
  Mo  Mo186  1  0.61023018  0.79959219  0.24753567  1
  Mo  Mo187  1  0.01010076  -0.00777379  0.75583794  1
  Mo  Mo188  1  0.89556939  0.09860997  0.12344760  1
  Mo  Mo189  1  -0.00824600  0.39718047  0.50712331  1
  Mo  Mo190  1  0.39598015  0.38998629  0.26032543  1
  Mo  Mo191  1  0.87476757  0.48462031  0.87995365  1
  Mo  Mo192  1  0.41432460  0.79322356  0.76199516  1
  Mo  Mo193  1  0.48944973  0.11607468  0.87815623  1
  Mo  Mo194  1  0.50399616  0.70349480  0.87352369  1
  Mo  Mo195  1  0.90065701  0.10777881  0.62539064  1
  Mo  Mo196  1  0.19635100  -0.00121698  -0.00592064  1
  Mo  Mo197  1  0.29578175  0.10138647  0.86265842  1
  Mo  Mo198  1  0.40281265  0.19940727  -0.00499657  1
  Mo  Mo199  1  0.10389314  0.09361292  0.87916639  1
