# generated using pymatgen
data_HfZrTaTiMo
_symmetry_space_group_name_H-M   'P 1'
_cell_length_a   15.20954809
_cell_length_b   15.21865815
_cell_length_c   16.87246430
_cell_angle_alpha   89.98258147
_cell_angle_beta   90.00291406
_cell_angle_gamma   90.09752380
_symmetry_Int_Tables_number   1
_chemical_formula_structural   HfZrTaTiMo
_chemical_formula_sum   'Hf40 Zr40 Ta40 Ti40 Mo40'
_cell_volume   3905.44512912
_cell_formula_units_Z   40
loop_
 _symmetry_equiv_pos_site_id
 _symmetry_equiv_pos_as_xyz
  1  'x, y, z'
loop_
 _atom_site_type_symbol
 _atom_site_label
 _atom_site_symmetry_multiplicity
 _atom_site_fract_x
 _atom_site_fract_y
 _atom_site_fract_z
 _atom_site_occupancy
  Hf  Hf0  1  0.30002507  0.28483053  0.88201272  1
  Hf  Hf1  1  0.58295705  0.82098826  0.75136140  1
  Hf  Hf2  1  0.00290556  -0.00284739  0.75833271  1
  Hf  Hf3  1  0.10916434  0.50429370  0.37273875  1
  Hf  Hf4  1  0.00446617  0.40026225  0.25902203  1
  Hf  Hf5  1  0.69732213  0.27127356  0.87749969  1
  Hf  Hf6  1  0.78598535  0.78892246  -0.01294537  1
  Hf  Hf7  1  0.90898767  0.48841186  0.63009159  1
  Hf  Hf8  1  0.10373143  0.10786956  0.87736201  1
  Hf  Hf9  1  0.19894013  0.80962396  0.00772198  1
  Hf  Hf10  1  0.38444759  -0.01435337  0.48825677  1
  Hf  Hf11  1  0.89000584  0.11237724  0.37510098  1
  Hf  Hf12  1  0.08090511  0.90800980  0.13241428  1
  Hf  Hf13  1  0.01259849  0.59886348  0.50000894  1
  Hf  Hf14  1  0.69664785  0.31140734  0.11330038  1
  Hf  Hf15  1  0.09117450  0.49625226  0.11951997  1
  Hf  Hf16  1  0.30865949  0.09368294  0.88477369  1
  Hf  Hf17  1  0.20618622  0.40785145  0.49878710  1
  Hf  Hf18  1  0.62312409  0.61654421  -0.02941020  1
  Hf  Hf19  1  0.19262280  0.20520581  0.49865806  1
  Hf  Hf20  1  0.40206880  0.61034743  0.76673273  1
  Hf  Hf21  1  0.41858498  0.59679745  -0.00222102  1
  Hf  Hf22  1  0.20214122  0.60674809  0.01117397  1
  Hf  Hf23  1  0.50806084  0.49677713  0.63702186  1
  Hf  Hf24  1  0.58799463  0.19912358  0.23543035  1
  Hf  Hf25  1  0.69314074  0.67319571  0.38786015  1
  Hf  Hf26  1  0.00102375  0.81629081  0.50205561  1
  Hf  Hf27  1  0.92517483  0.49058928  0.87011866  1
  Hf  Hf28  1  0.79378990  0.79322617  0.74557535  1
  Hf  Hf29  1  0.49347819  0.30254743  0.37462034  1
  Hf  Hf30  1  0.58351988  0.20314799  0.01544659  1
  Hf  Hf31  1  0.79898405  0.40599789  -0.01169680  1
  Hf  Hf32  1  0.90279169  0.09689220  0.61714383  1
  Hf  Hf33  1  0.29385619  0.30314736  0.36238186  1
  Hf  Hf34  1  -0.00473772  0.79112081  -0.00656232  1
  Hf  Hf35  1  0.43120364  0.59978019  0.23328987  1
  Hf  Hf36  1  0.49146850  0.10319572  0.37555429  1
  Hf  Hf37  1  0.60843637  0.61073112  0.76578305  1
  Hf  Hf38  1  0.40033840  -0.01116786  0.74611456  1
  Hf  Hf39  1  0.80843351  -0.01747553  0.49447872  1
  Zr  Zr40  1  0.57625784  0.78254316  0.49237894  1
  Zr  Zr41  1  0.79295454  0.19700226  0.23778186  1
  Zr  Zr42  1  0.10179235  0.10117345  0.62458777  1
  Zr  Zr43  1  0.91378908  0.30565488  0.11677759  1
  Zr  Zr44  1  0.69627439  0.10700138  0.60837024  1
  Zr  Zr45  1  0.69761087  0.68921307  0.62046633  1
  Zr  Zr46  1  0.80034133  0.78993059  0.25919904  1
  Zr  Zr47  1  0.59068520  -0.00044094  0.00961900  1
  Zr  Zr48  1  0.18157371  0.00540956  0.25805964  1
  Zr  Zr49  1  0.89500095  0.52456022  0.11263822  1
  Zr  Zr50  1  0.60280576  -0.00485692  0.25468659  1
  Zr  Zr51  1  0.21633964  0.80645986  0.74188037  1
  Zr  Zr52  1  0.59969846  0.41443543  0.24509256  1
  Zr  Zr53  1  0.20016092  0.60024874  0.74928367  1
  Zr  Zr54  1  0.20543714  0.20410519  0.74378274  1
  Zr  Zr55  1  0.79904827  0.40796384  0.24654897  1
  Zr  Zr56  1  0.10030364  0.69948109  0.87154507  1
  Zr  Zr57  1  0.51836085  0.50635210  0.37975941  1
  Zr  Zr58  1  -0.01124083  0.20932556  0.75843824  1
  Zr  Zr59  1  0.50390658  0.10908915  0.87728453  1
  Zr  Zr60  1  0.79664759  -0.00887859  0.25542734  1
  Zr  Zr61  1  0.89383483  0.89942270  0.87699567  1
  Zr  Zr62  1  0.40592916  0.37863575  0.00813465  1
  Zr  Zr63  1  0.29688423  0.49145064  0.88531642  1
  Zr  Zr64  1  0.49154684  0.89255878  0.13944217  1
  Zr  Zr65  1  0.31640593  0.50329479  0.36673051  1
  Zr  Zr66  1  0.19584523  0.00205407  0.48280296  1
  Zr  Zr67  1  0.00127854  0.79954806  0.74039955  1
  Zr  Zr68  1  0.68443870  0.89934916  0.61164116  1
  Zr  Zr69  1  0.50299572  0.08686736  0.61585282  1
  Zr  Zr70  1  0.79434899  -0.00459901  0.74417860  1
  Zr  Zr71  1  0.38855861  0.20322502  0.51310209  1
  Zr  Zr72  1  0.08747530  0.31622437  0.62777504  1
  Zr  Zr73  1  0.19660636  0.01094276  0.01420923  1
  Zr  Zr74  1  0.89640222  0.70559967  0.39486977  1
  Zr  Zr75  1  0.20576850  0.60505590  0.23945177  1
  Zr  Zr76  1  0.60552724  0.39588013  0.76901039  1
  Zr  Zr77  1  0.30919920  0.50817043  0.62820969  1
  Zr  Zr78  1  0.59215937  0.41475891  -0.02663325  1
  Zr  Zr79  1  0.91209911  0.08320892  0.12678099  1
  Ta  Ta80  1  0.41001358  0.61361582  0.50083255  1
  Ta  Ta81  1  0.72047913  0.69927275  0.12325481  1
  Ta  Ta82  1  0.69703331  0.29881895  0.37519316  1
  Ta  Ta83  1  0.20405810  -0.00174906  0.75265036  1
  Ta  Ta84  1  0.30595838  0.70925118  0.88709159  1
  Ta  Ta85  1  0.40377594  0.39138846  0.22895995  1
  Ta  Ta86  1  0.31647541  0.70689487  0.36286078  1
  Ta  Ta87  1  0.59832704  0.77853409  0.25837030  1
  Ta  Ta88  1  0.21832467  0.61712522  0.49863798  1
  Ta  Ta89  1  0.68836630  0.51839450  0.11151535  1
  Ta  Ta90  1  0.89089266  0.67977400  0.86617088  1
  Ta  Ta91  1  0.00125583  0.80678076  0.26212817  1
  Ta  Ta92  1  0.00570812  0.19728804  -0.00037569  1
  Ta  Ta93  1  0.69611456  0.88411285  0.38674642  1
  Ta  Ta94  1  0.08334368  0.70201089  0.12994962  1
  Ta  Ta95  1  0.11652415  0.71378583  0.37269182  1
  Ta  Ta96  1  0.61244602  0.39264121  0.50787937  1
  Ta  Ta97  1  -0.00424852  0.20977100  0.48920653  1
  Ta  Ta98  1  0.79450372  0.18349021  0.01019405  1
  Ta  Ta99  1  0.89377798  0.50325051  0.38138494  1
  Ta  Ta100  1  0.69114510  0.10272262  0.38709535  1
  Ta  Ta101  1  0.30769810  0.49797141  0.12128751  1
  Ta  Ta102  1  0.21131554  0.80772643  0.50227041  1
  Ta  Ta103  1  0.50770805  0.29896936  0.63431703  1
  Ta  Ta104  1  0.48920316  0.69740338  0.63331440  1
  Ta  Ta105  1  0.89075755  0.29701846  0.62179737  1
  Ta  Ta106  1  0.69380246  0.88634486  0.12269082  1
  Ta  Ta107  1  0.00540615  0.00910353  0.47946200  1
  Ta  Ta108  1  0.09742580  0.31455644  0.88211140  1
  Ta  Ta109  1  0.79054954  0.19259986  0.75017396  1
  Ta  Ta110  1  0.30694578  0.89847015  0.88375184  1
  Ta  Ta111  1  -0.00877890  0.61009820  0.25891236  1
  Ta  Ta112  1  0.53114409  0.69721423  0.11331698  1
  Ta  Ta113  1  0.88992397  0.87988781  0.12120777  1
  Ta  Ta114  1  0.29524375  0.90028328  0.14184459  1
  Ta  Ta115  1  0.46969019  0.88233139  0.61553838  1
  Ta  Ta116  1  0.40606881  0.19651891  0.73928332  1
  Ta  Ta117  1  0.48081756  0.87879781  0.36145905  1
  Ta  Ta118  1  0.19182338  0.20565729  0.23500957  1
  Ta  Ta119  1  0.11111205  0.70148666  0.61726708  1
  Ti  Ti120  1  0.79375973  0.21091263  0.49805800  1
  Ti  Ti121  1  0.79824055  0.39692322  0.50031048  1
  Ti  Ti122  1  0.29515257  0.11135222  0.36086454  1
  Ti  Ti123  1  0.59533817  0.20810482  0.49823671  1
  Ti  Ti124  1  0.30342063  0.31003924  0.63110888  1
  Ti  Ti125  1  0.40020182  0.39452237  0.76143763  1
  Ti  Ti126  1  0.89433049  0.30725068  0.37397914  1
  Ti  Ti127  1  0.19629923  0.20345747  0.02713062  1
  Ti  Ti128  1  -0.00054310  0.39596127  0.48776261  1
  Ti  Ti129  1  0.10626840  0.49939287  0.88790065  1
  Ti  Ti130  1  0.10684521  0.50383512  0.62213450  1
  Ti  Ti131  1  0.40702705  0.81066549  0.00746049  1
  Ti  Ti132  1  0.79238071  -0.00427204  0.00648865  1
  Ti  Ti133  1  0.09849896  0.90795668  0.62110960  1
  Ti  Ti134  1  -0.00720598  -0.00051766  0.27456533  1
  Ti  Ti135  1  0.60220921  0.57940183  0.51331565  1
  Ti  Ti136  1  0.19773782  0.40285869  0.75314414  1
  Ti  Ti137  1  -0.00141200  -0.00327290  -0.01064345  1
  Ti  Ti138  1  0.70117527  0.29972512  0.63471055  1
  Ti  Ti139  1  0.79463257  0.59576294  0.25542747  1
  Ti  Ti140  1  0.67974557  0.90494429  0.88027079  1
  Ti  Ti141  1  0.90242721  0.70081430  0.61624971  1
  Ti  Ti142  1  0.58832078  -0.01125971  0.48388871  1
  Ti  Ti143  1  0.73648855  0.52067393  0.85688754  1
  Ti  Ti144  1  0.88389072  0.10245043  0.88256215  1
  Ti  Ti145  1  0.90308711  0.29247177  0.88710623  1
  Ti  Ti146  1  0.31350147  0.70851596  0.12750544  1
  Ti  Ti147  1  0.79994199  0.58435954  0.51053676  1
  Ti  Ti148  1  0.28699889  0.88432436  0.35039895  1
  Ti  Ti149  1  0.00860155  0.20056192  0.25655180  1
  Ti  Ti150  1  0.19999495  0.39646653  0.23601316  1
  Ti  Ti151  1  0.38905933  0.17873341  0.03688732  1
  Ti  Ti152  1  0.71331765  0.48808512  0.64067590  1
  Ti  Ti153  1  0.60311359  0.01920725  0.75658949  1
  Ti  Ti154  1  0.00392460  0.59678054  0.73890440  1
  Ti  Ti155  1  0.49960395  0.73090355  0.88137322  1
  Ti  Ti156  1  0.81850399  0.38538452  0.75756625  1
  Ti  Ti157  1  0.41265746  0.40452184  0.50709518  1
  Ti  Ti158  1  0.19708242  0.38907777  0.01449247  1
  Ti  Ti159  1  0.39467686  0.00784907  0.25263668  1
  Mo  Mo160  1  0.62240107  0.60303291  0.24355316  1
  Mo  Mo161  1  0.49755434  0.30251620  0.12670232  1
  Mo  Mo162  1  0.90733533  0.89680057  0.62131129  1
  Mo  Mo163  1  0.69972339  0.09172258  0.12196992  1
  Mo  Mo164  1  0.49361505  0.50313898  0.86536353  1
  Mo  Mo165  1  0.90701846  0.70650341  0.12953476  1
  Mo  Mo166  1  0.11147234  0.91143447  0.87723708  1
  Mo  Mo167  1  0.38919375  -0.00664993  0.01448315  1
  Mo  Mo168  1  0.00823377  0.39588753  -0.00311833  1
  Mo  Mo169  1  0.49046035  0.09295216  0.13605725  1
  Mo  Mo170  1  0.48750242  0.90949692  0.88338851  1
  Mo  Mo171  1  0.00563081  0.60359211  -0.00483851  1
  Mo  Mo172  1  0.81056332  0.60355387  -0.00895439  1
  Mo  Mo173  1  0.49080966  0.29505473  0.85884129  1
  Mo  Mo174  1  0.71238695  0.48747704  0.38717650  1
  Mo  Mo175  1  0.09850968  0.89576590  0.37159073  1
  Mo  Mo176  1  0.60101363  0.19446925  0.74488106  1
  Mo  Mo177  1  0.50856744  0.50433669  0.11508188  1
  Mo  Mo178  1  0.70455362  0.71385840  0.85832738  1
  Mo  Mo179  1  0.29977050  0.09999415  0.62825333  1
  Mo  Mo180  1  0.09683848  0.30274827  0.37306714  1
  Mo  Mo181  1  0.29102128  0.91328626  0.62169012  1
  Mo  Mo182  1  0.38296026  0.79257603  0.49245565  1
  Mo  Mo183  1  0.59632482  0.80370375  -0.00159268  1
  Mo  Mo184  1  0.81622755  0.59793545  0.73624696  1
  Mo  Mo185  1  0.70882818  0.09136282  0.88149778  1
  Mo  Mo186  1  0.39898443  0.79094991  0.23952144  1
  Mo  Mo187  1  0.39617992  0.80184413  0.75642983  1
  Mo  Mo188  1  0.09651623  0.11694403  0.37229714  1
  Mo  Mo189  1  0.19518302  0.79489844  0.23804656  1
  Mo  Mo190  1  0.09400759  0.29819250  0.12361312  1
  Mo  Mo191  1  0.31238407  0.71450466  0.62031932  1
  Mo  Mo192  1  0.01254350  0.40189436  0.75201562  1
  Mo  Mo193  1  0.39201210  0.19661819  0.23841552  1
  Mo  Mo194  1  0.29359272  0.30136746  0.13158149  1
  Mo  Mo195  1  0.49869170  0.69160300  0.37162701  1
  Mo  Mo196  1  0.89805696  0.90143786  0.37669457  1
  Mo  Mo197  1  0.08544135  0.10537592  0.12711708  1
  Mo  Mo198  1  0.29378565  0.09341564  0.14229149  1
  Mo  Mo199  1  0.79701461  0.79195840  0.50688695  1
