# generated using pymatgen
data_HfZrTaTiMo
_symmetry_space_group_name_H-M   'P 1'
_cell_length_a   15.22623367
_cell_length_b   15.21481866
_cell_length_c   16.84293949
_cell_angle_alpha   90.06102508
_cell_angle_beta   90.05286276
_cell_angle_gamma   90.00064898
_symmetry_Int_Tables_number   1
_chemical_formula_structural   HfZrTaTiMo
_chemical_formula_sum   'Hf40 Zr40 Ta40 Ti40 Mo40'
_cell_volume   3901.90532907
_cell_formula_units_Z   40
loop_
 _symmetry_equiv_pos_site_id
 _symmetry_equiv_pos_as_xyz
  1  'x, y, z'
loop_
 _atom_site_type_symbol
 _atom_site_label
 _atom_site_symmetry_multiplicity
 _atom_site_fract_x
 _atom_site_fract_y
 _atom_site_fract_z
 _atom_site_occupancy
  Hf  Hf0  1  0.47906150  0.49272837  0.37691429  1
  Hf  Hf1  1  0.68549633  0.29098249  0.61422997  1
  Hf  Hf2  1  0.79662252  -0.00265261  0.76574655  1
  Hf  Hf3  1  0.11257299  0.51120907  0.13112808  1
  Hf  Hf4  1  0.29470129  0.28503715  0.88285074  1
  Hf  Hf5  1  0.29549629  0.87773377  0.87928266  1
  Hf  Hf6  1  0.79642114  0.79893958  0.75107892  1
  Hf  Hf7  1  0.79057116  0.00421601  -0.00903872  1
  Hf  Hf8  1  0.90636903  0.29973319  0.61656862  1
  Hf  Hf9  1  0.38373480  0.59847961  0.50251732  1
  Hf  Hf10  1  0.59328057  0.20024682  0.46798491  1
  Hf  Hf11  1  0.60366070  -0.01322023  0.47997184  1
  Hf  Hf12  1  0.50441026  0.90231241  0.62947010  1
  Hf  Hf13  1  0.80752240  0.60633736  0.00022916  1
  Hf  Hf14  1  0.70941021  0.48728344  0.12993983  1
  Hf  Hf15  1  0.89720671  0.11204734  0.88778839  1
  Hf  Hf16  1  0.58491823  0.62167221  0.49848163  1
  Hf  Hf17  1  0.38975425  0.59569032  -0.00163356  1
  Hf  Hf18  1  0.39705460  0.79658144  0.24339890  1
  Hf  Hf19  1  0.70825205  0.89842322  0.12543252  1
  Hf  Hf20  1  0.01405450  0.61067799  0.74790441  1
  Hf  Hf21  1  0.00324388  0.00555184  0.75895450  1
  Hf  Hf22  1  0.29612960  0.09256604  0.36990177  1
  Hf  Hf23  1  0.60505450  0.60757177  0.75783510  1
  Hf  Hf24  1  0.69780519  0.50481017  0.61326490  1
  Hf  Hf25  1  0.00648501  0.41160074  0.74111722  1
  Hf  Hf26  1  0.88395766  0.31176468  0.89039972  1
  Hf  Hf27  1  -0.00205289  0.80205031  0.74827260  1
  Hf  Hf28  1  0.80297333  0.21310589  0.23972917  1
  Hf  Hf29  1  0.59990700  -0.00270944  0.25426934  1
  Hf  Hf30  1  0.59643595  0.02111009  0.76781891  1
  Hf  Hf31  1  0.00642339  0.39548142  0.24091597  1
  Hf  Hf32  1  0.01167389  0.20117006  0.49377755  1
  Hf  Hf33  1  0.10257081  0.89754247  0.61485418  1
  Hf  Hf34  1  0.80615954  0.19170070  0.48761052  1
  Hf  Hf35  1  0.91930075  0.90477457  0.38494687  1
  Hf  Hf36  1  0.00096910  0.18940725  0.24187453  1
  Hf  Hf37  1  0.11375227  0.11470095  0.88624859  1
  Hf  Hf38  1  0.49584413  0.49179248  0.87746468  1
  Hf  Hf39  1  -0.00630673  0.60903182  0.26309100  1
  Zr  Zr40  1  0.91853605  0.49894285  0.88440227  1
  Zr  Zr41  1  0.61724646  0.79527977  0.26459723  1
  Zr  Zr42  1  0.48566773  0.90645543  0.87365835  1
  Zr  Zr43  1  0.89651895  0.90564912  0.61203159  1
  Zr  Zr44  1  0.51276343  0.27703244  0.88927615  1
  Zr  Zr45  1  0.91297125  0.30724948  0.37260048  1
  Zr  Zr46  1  0.59534163  0.01214242  -0.00465895  1
  Zr  Zr47  1  0.60092467  0.38504907  0.75434448  1
  Zr  Zr48  1  0.19363954  -0.00979430  0.24830025  1
  Zr  Zr49  1  0.79896324  0.39826594  0.49956226  1
  Zr  Zr50  1  -0.00864382  0.21547746  0.02112080  1
  Zr  Zr51  1  0.71237943  0.09443088  0.36248780  1
  Zr  Zr52  1  0.21396857  -0.00784451  0.74985559  1
  Zr  Zr53  1  0.70050570  0.51242745  0.38126944  1
  Zr  Zr54  1  0.48569220  0.30502649  0.61618018  1
  Zr  Zr55  1  0.49420397  0.29835923  0.12001278  1
  Zr  Zr56  1  0.59210609  0.39711547  0.25368917  1
  Zr  Zr57  1  0.28640051  0.68622039  0.13397910  1
  Zr  Zr58  1  0.70131454  0.70596470  0.11717379  1
  Zr  Zr59  1  0.70977425  0.48426398  0.88549475  1
  Zr  Zr60  1  0.50825602  0.10360547  0.61407833  1
  Zr  Zr61  1  0.78211138  0.20085498  0.75414204  1
  Zr  Zr62  1  0.10120947  0.09569418  0.11920186  1
  Zr  Zr63  1  0.70692514  0.09025379  0.61539781  1
  Zr  Zr64  1  0.29470969  0.48802616  0.63403735  1
  Zr  Zr65  1  0.81214593  0.60486706  0.74507609  1
  Zr  Zr66  1  0.01935148  0.60432776  -0.00379251  1
  Zr  Zr67  1  0.09427306  0.32021122  0.88910188  1
  Zr  Zr68  1  0.39835405  0.20814522  0.25591753  1
  Zr  Zr69  1  0.80509850  0.40530317  0.73723733  1
  Zr  Zr70  1  -0.00018539  0.20716036  0.75087854  1
  Zr  Zr71  1  0.30434262  0.08860874  0.61380791  1
  Zr  Zr72  1  0.20349780  -0.00508110  -0.00132240  1
  Zr  Zr73  1  0.59363681  0.60042037  -0.00325987  1
  Zr  Zr74  1  0.90541821  0.89746300  0.11932398  1
  Zr  Zr75  1  0.49407592  0.50701882  0.63109775  1
  Zr  Zr76  1  0.69385129  0.71711631  0.61209170  1
  Zr  Zr77  1  0.40542553  0.18272933  0.75234640  1
  Zr  Zr78  1  0.59177699  0.60275654  0.25063699  1
  Zr  Zr79  1  0.41373701  0.79501332  0.50842405  1
  Ta  Ta80  1  0.29281507  0.70215853  0.36821327  1
  Ta  Ta81  1  0.39565558  0.20551807  0.48060489  1
  Ta  Ta82  1  0.09858331  0.89024391  0.12054412  1
  Ta  Ta83  1  0.39949799  -0.00293515  0.23725486  1
  Ta  Ta84  1  0.00292137  0.79903632  -0.00708545  1
  Ta  Ta85  1  0.49170350  0.90158660  0.36762467  1
  Ta  Ta86  1  0.08839190  0.08813540  0.37294642  1
  Ta  Ta87  1  0.90252125  0.50856100  0.38563259  1
  Ta  Ta88  1  0.30143738  0.31608515  0.37176053  1
  Ta  Ta89  1  0.50408598  0.89079296  0.12358548  1
  Ta  Ta90  1  0.09577250  0.71047372  0.13403056  1
  Ta  Ta91  1  0.59412689  0.19808002  0.26044632  1
  Ta  Ta92  1  0.19974767  0.39503445  0.49545797  1
  Ta  Ta93  1  0.39771751  0.79305861  0.00906520  1
  Ta  Ta94  1  0.19966347  0.20096089  0.74429694  1
  Ta  Ta95  1  0.91272563  0.70253618  0.59742167  1
  Ta  Ta96  1  0.11130556  0.89410122  0.38717643  1
  Ta  Ta97  1  0.21151256  0.79342060  0.50643860  1
  Ta  Ta98  1  0.90392138  0.70646416  0.12605722  1
  Ta  Ta99  1  0.29869012  0.10826367  0.12885258  1
  Ta  Ta100  1  -0.00059102  -0.00369646  -0.00911184  1
  Ta  Ta101  1  0.77501705  0.21442985  0.01889121  1
  Ta  Ta102  1  0.39144985  0.39430630  0.00086067  1
  Ta  Ta103  1  0.19393825  0.78431958  0.74380776  1
  Ta  Ta104  1  0.29284123  0.49023783  0.86941627  1
  Ta  Ta105  1  0.88843566  0.70817461  0.39578308  1
  Ta  Ta106  1  0.59894974  0.80755209  0.75954946  1
  Ta  Ta107  1  0.09951488  0.50694410  0.61153360  1
  Ta  Ta108  1  0.79999376  0.61299520  0.25475648  1
  Ta  Ta109  1  0.82057152  -0.00605203  0.25359967  1
  Ta  Ta110  1  0.90468209  0.50548582  0.12692673  1
  Ta  Ta111  1  0.39753254  -0.00688781  0.01928873  1
  Ta  Ta112  1  0.29312240  0.29036109  0.61854286  1
  Ta  Ta113  1  0.38987468  0.80193455  0.73747920  1
  Ta  Ta114  1  0.48783489  0.70644449  0.86933838  1
  Ta  Ta115  1  0.10212960  0.10328217  0.62083382  1
  Ta  Ta116  1  0.28760254  0.50208309  0.36635386  1
  Ta  Ta117  1  0.29212876  0.69104803  0.62941035  1
  Ta  Ta118  1  0.18989953  0.60051366  0.49057071  1
  Ta  Ta119  1  0.29274830  0.89088382  0.12530820  1
  Ti  Ti120  1  0.19463493  0.21377548  0.25434750  1
  Ti  Ti121  1  0.70247758  0.71224834  0.88272372  1
  Ti  Ti122  1  0.39236846  0.60392956  0.75832926  1
  Ti  Ti123  1  0.20380757  0.60376764  -0.01791234  1
  Ti  Ti124  1  0.80733707  -0.00231201  0.48666967  1
  Ti  Ti125  1  0.00233141  0.81062274  0.25605301  1
  Ti  Ti126  1  0.10744162  0.30302734  0.62048437  1
  Ti  Ti127  1  0.61591207  0.38074243  0.00892794  1
  Ti  Ti128  1  0.49167306  0.70264635  0.36983277  1
  Ti  Ti129  1  0.19530187  0.78586214  -0.00275746  1
  Ti  Ti130  1  0.58361080  0.39905984  0.48927173  1
  Ti  Ti131  1  0.89260665  0.89332397  0.88454953  1
  Ti  Ti132  1  0.70441068  0.31214480  0.36391621  1
  Ti  Ti133  1  0.90612891  0.70608142  0.87844156  1
  Ti  Ti134  1  0.09656196  0.89355678  0.87536996  1
  Ti  Ti135  1  0.30184379  0.48100919  0.13595192  1
  Ti  Ti136  1  0.09613003  0.48112414  0.37877796  1
  Ti  Ti137  1  0.30029110  0.89150502  0.37149291  1
  Ti  Ti138  1  0.18934722  0.60243322  0.26512195  1
  Ti  Ti139  1  0.19646821  0.39505846  0.75029073  1
  Ti  Ti140  1  0.20060489  0.41041567  0.00192456  1
  Ti  Ti141  1  0.69664976  0.10187493  0.13641499  1
  Ti  Ti142  1  0.90741931  0.09607991  0.62322727  1
  Ti  Ti143  1  0.39849437  -0.00376313  0.49108653  1
  Ti  Ti144  1  0.09303214  0.70913843  0.38221033  1
  Ti  Ti145  1  0.49406621  0.49746523  0.12090987  1
  Ti  Ti146  1  0.50042770  0.09627085  0.13091705  1
  Ti  Ti147  1  0.39537296  0.59103336  0.24695280  1
  Ti  Ti148  1  0.49818751  0.69736117  0.12354783  1
  Ti  Ti149  1  0.19869197  0.59656363  0.76030735  1
  Ti  Ti150  1  0.59958101  0.80626894  -0.01046345  1
  Ti  Ti151  1  0.31493200  0.08609441  0.87922005  1
  Ti  Ti152  1  0.69763264  0.90433501  0.62157154  1
  Ti  Ti153  1  0.90996274  0.50966892  0.59935306  1
  Ti  Ti154  1  0.39199302  0.38866618  0.75746806  1
  Ti  Ti155  1  0.89289429  0.09464013  0.11793251  1
  Ti  Ti156  1  0.20100928  -0.00313965  0.49755453  1
  Ti  Ti157  1  0.11910924  0.30586783  0.11980928  1
  Ti  Ti158  1  0.39699638  0.18669768  0.00782861  1
  Ti  Ti159  1  0.20128087  0.19853618  0.48874911  1
  Mo  Mo160  1  0.71904743  0.88943239  0.36853969  1
  Mo  Mo161  1  0.20100540  0.40026674  0.25280061  1
  Mo  Mo162  1  0.19105889  0.79396053  0.25706400  1
  Mo  Mo163  1  0.60166398  0.19985824  0.74997705  1
  Mo  Mo164  1  0.30393461  0.69443984  0.86885327  1
  Mo  Mo165  1  0.88847547  0.31809148  0.12685974  1
  Mo  Mo166  1  0.10310695  0.69308840  0.61682272  1
  Mo  Mo167  1  0.00764357  0.40989668  0.02272080  1
  Mo  Mo168  1  0.80959154  0.41917898  0.25951042  1
  Mo  Mo169  1  0.79424875  0.81212153  0.50025566  1
  Mo  Mo170  1  0.38648950  0.39633469  0.49824192  1
  Mo  Mo171  1  0.39626210  -0.00864850  0.74953051  1
  Mo  Mo172  1  0.01029156  0.00944929  0.50362704  1
  Mo  Mo173  1  0.49290547  0.69835135  0.65184213  1
  Mo  Mo174  1  0.11293412  0.29375029  0.37124743  1
  Mo  Mo175  1  0.39260539  0.40661121  0.24338676  1
  Mo  Mo176  1  0.10966268  0.71068266  0.87260190  1
  Mo  Mo177  1  0.59771744  0.19421803  0.01903935  1
  Mo  Mo178  1  0.48959670  0.09121095  0.36826840  1
  Mo  Mo179  1  0.70138332  0.29782258  0.88410783  1
  Mo  Mo180  1  0.49584683  0.30250046  0.37564310  1
  Mo  Mo181  1  0.30124006  0.89459236  0.61678261  1
  Mo  Mo182  1  0.82087686  0.79030887  0.25502427  1
  Mo  Mo183  1  0.80680609  0.40010315  0.01413182  1
  Mo  Mo184  1  0.01253845  0.79859090  0.50023107  1
  Mo  Mo185  1  0.00632411  0.59889023  0.48393745  1
  Mo  Mo186  1  0.69734443  0.89532662  0.87683423  1
  Mo  Mo187  1  0.00179620  -0.00422026  0.24684733  1
  Mo  Mo188  1  0.69459616  0.29775780  0.14318663  1
  Mo  Mo189  1  0.48550499  0.09970644  0.88761168  1
  Mo  Mo190  1  0.60205849  0.80979381  0.47688333  1
  Mo  Mo191  1  0.80231209  0.79997829  -0.01033095  1
  Mo  Mo192  1  0.70579465  0.70601629  0.38847215  1
  Mo  Mo193  1  0.68864142  0.12522541  0.88430381  1
  Mo  Mo194  1  0.01410667  0.40259761  0.50122246  1
  Mo  Mo195  1  0.79994024  0.60542492  0.50377596  1
  Mo  Mo196  1  0.21319323  0.20744345  0.00661021  1
  Mo  Mo197  1  0.90817958  0.09740091  0.36961851  1
  Mo  Mo198  1  0.11126082  0.49877168  0.87422647  1
  Mo  Mo199  1  0.29333372  0.29836363  0.11742783  1
