# generated using pymatgen
data_HfZrTaTiMo
_symmetry_space_group_name_H-M   'P 1'
_cell_length_a   15.21794046
_cell_length_b   15.20569412
_cell_length_c   16.87188936
_cell_angle_alpha   89.98929247
_cell_angle_beta   90.03425933
_cell_angle_gamma   89.89793653
_symmetry_Int_Tables_number   1
_chemical_formula_structural   HfZrTaTiMo
_chemical_formula_sum   'Hf40 Zr40 Ta40 Ti40 Mo40'
_cell_volume   3904.13723196
_cell_formula_units_Z   40
loop_
 _symmetry_equiv_pos_site_id
 _symmetry_equiv_pos_as_xyz
  1  'x, y, z'
loop_
 _atom_site_type_symbol
 _atom_site_label
 _atom_site_symmetry_multiplicity
 _atom_site_fract_x
 _atom_site_fract_y
 _atom_site_fract_z
 _atom_site_occupancy
  Hf  Hf0  1  0.49677503  0.09701801  0.11637368  1
  Hf  Hf1  1  0.59187456  -0.03417083  0.50227169  1
  Hf  Hf2  1  0.09663264  0.09872761  0.12821165  1
  Hf  Hf3  1  0.79341716  0.79121164  0.75278687  1
  Hf  Hf4  1  0.90942853  0.31491923  0.87375599  1
  Hf  Hf5  1  0.50107472  0.70483089  0.87697923  1
  Hf  Hf6  1  0.20019827  0.19850024  0.51835210  1
  Hf  Hf7  1  0.49691297  0.49815168  0.63284571  1
  Hf  Hf8  1  0.91249908  0.50317396  0.13845250  1
  Hf  Hf9  1  0.50525604  0.09849654  0.63419231  1
  Hf  Hf10  1  0.40351024  0.41149813  0.26387504  1
  Hf  Hf11  1  0.00510799  0.40092328  0.50040536  1
  Hf  Hf12  1  0.69670605  0.88372080  0.36171306  1
  Hf  Hf13  1  0.80580789  0.19102277  0.75691667  1
  Hf  Hf14  1  0.29802851  0.10042660  0.37805676  1
  Hf  Hf15  1  0.08423726  0.89320901  0.13315614  1
  Hf  Hf16  1  0.70248706  0.89463804  0.13415701  1
  Hf  Hf17  1  0.89002435  0.70122847  0.35385192  1
  Hf  Hf18  1  -0.00453584  -0.00047708  -0.00766361  1
  Hf  Hf19  1  0.81642574  0.59027952  0.74325587  1
  Hf  Hf20  1  0.89473177  0.68602362  0.88213559  1
  Hf  Hf21  1  0.80977769  0.39095661  0.50357459  1
  Hf  Hf22  1  0.89325800  0.10509623  0.61490376  1
  Hf  Hf23  1  0.18820535  0.79464050  0.00999415  1
  Hf  Hf24  1  0.49408870  0.90524195  0.85509216  1
  Hf  Hf25  1  0.30764618  0.90097084  0.12857599  1
  Hf  Hf26  1  0.80374911  0.59362480  0.49901388  1
  Hf  Hf27  1  0.29460432  0.30954862  0.37937157  1
  Hf  Hf28  1  0.01367617  0.21225737  0.73475302  1
  Hf  Hf29  1  0.60488527  0.41373767  0.24283348  1
  Hf  Hf30  1  0.70959670  0.27384528  0.62158344  1
  Hf  Hf31  1  0.51179338  0.30393854  0.63580265  1
  Hf  Hf32  1  -0.00288260  0.20960228  0.00129331  1
  Hf  Hf33  1  0.20117788  0.00028273  0.00111429  1
  Hf  Hf34  1  0.60638838  0.20829067  0.24375108  1
  Hf  Hf35  1  0.30312114  0.69443050  0.88374231  1
  Hf  Hf36  1  0.88553620  0.89539332  0.62189673  1
  Hf  Hf37  1  0.10224625  0.09104282  0.37685060  1
  Hf  Hf38  1  0.20297115  0.20379838  0.24344911  1
  Hf  Hf39  1  0.01167209  0.39817543  0.25051532  1
  Zr  Zr40  1  0.48615831  0.50018557  0.88896708  1
  Zr  Zr41  1  0.31474833  0.31290579  0.62598546  1
  Zr  Zr42  1  0.00680226  -0.00748250  0.49823849  1
  Zr  Zr43  1  0.79057434  0.79851076  0.49922831  1
  Zr  Zr44  1  0.60343389  0.18413033  0.49502980  1
  Zr  Zr45  1  0.59265957  0.00161140  0.25056465  1
  Zr  Zr46  1  0.78634690  -0.00398697  0.76158568  1
  Zr  Zr47  1  0.09935084  0.29418733  0.37532745  1
  Zr  Zr48  1  0.79382454  -0.01528321  -0.01265625  1
  Zr  Zr49  1  0.39099866  0.00934367  0.50729097  1
  Zr  Zr50  1  0.59804891  0.81899291  0.00253317  1
  Zr  Zr51  1  0.69095816  0.49002149  0.62411206  1
  Zr  Zr52  1  0.70916481  0.29677372  0.37273960  1
  Zr  Zr53  1  0.49111796  0.51120824  0.11180606  1
  Zr  Zr54  1  0.71616617  0.49894014  0.88440323  1
  Zr  Zr55  1  -0.00674838  -0.00300592  0.75135790  1
  Zr  Zr56  1  0.81270474  0.38773040  0.02133495  1
  Zr  Zr57  1  0.41056740  0.20071935  0.25709099  1
  Zr  Zr58  1  0.19511156  0.80696603  0.75334511  1
  Zr  Zr59  1  0.09172813  0.69957080  0.88212199  1
  Zr  Zr60  1  0.00024719  0.60137814  0.48868151  1
  Zr  Zr61  1  0.58804438  0.39625933  0.48365102  1
  Zr  Zr62  1  0.29339697  0.90527810  0.87404480  1
  Zr  Zr63  1  0.80487290  0.39265337  0.74259971  1
  Zr  Zr64  1  0.30177371  0.70529324  0.37676721  1
  Zr  Zr65  1  0.21434204  0.40014131  -0.01860632  1
  Zr  Zr66  1  0.50792042  0.71457957  0.63650589  1
  Zr  Zr67  1  0.09719897  0.51058804  0.62589048  1
  Zr  Zr68  1  0.10004294  0.71407799  0.37264952  1
  Zr  Zr69  1  0.40510269  0.81329365  0.50932440  1
  Zr  Zr70  1  0.77703279  0.59526782  0.23444454  1
  Zr  Zr71  1  0.20724424  0.20186644  -0.00115435  1
  Zr  Zr72  1  0.70461036  0.09324967  0.37519647  1
  Zr  Zr73  1  0.19956106  0.78495738  0.23707377  1
  Zr  Zr74  1  0.10926410  0.31329098  0.12620233  1
  Zr  Zr75  1  0.39336790  0.59799657  0.74876003  1
  Zr  Zr76  1  0.60734456  0.39644054  0.00734400  1
  Zr  Zr77  1  0.20604273  0.39647868  0.75973546  1
  Zr  Zr78  1  0.39957639  0.60020696  0.50046320  1
  Zr  Zr79  1  0.18851130  0.60334333  0.75082225  1
  Ta  Ta80  1  0.49102428  0.70492098  0.11953041  1
  Ta  Ta81  1  0.30720229  0.10886668  0.87616203  1
  Ta  Ta82  1  0.80741928  0.00583979  0.25326768  1
  Ta  Ta83  1  0.90008186  0.49331934  0.35663612  1
  Ta  Ta84  1  0.89728124  0.71552827  0.13659969  1
  Ta  Ta85  1  0.10569030  0.10127819  0.86739790  1
  Ta  Ta86  1  0.28405982  0.90417432  0.36994813  1
  Ta  Ta87  1  0.70017027  0.69630719  0.62487484  1
  Ta  Ta88  1  0.50717781  0.70376290  0.37287940  1
  Ta  Ta89  1  0.41088035  0.21376291  0.49449698  1
  Ta  Ta90  1  0.60075916  0.60549687  0.49606704  1
  Ta  Ta91  1  0.69859912  0.69934780  0.89126970  1
  Ta  Ta92  1  0.28700815  0.71353605  0.62270237  1
  Ta  Ta93  1  0.61240853  0.60330882  0.75848608  1
  Ta  Ta94  1  0.90151879  0.10721962  0.38006428  1
  Ta  Ta95  1  0.11982796  0.50405895  0.36717336  1
  Ta  Ta96  1  0.70153903  0.28969741  0.87808681  1
  Ta  Ta97  1  0.89252875  0.90379891  0.13561461  1
  Ta  Ta98  1  -0.02347194  0.80414729  0.00184247  1
  Ta  Ta99  1  0.89524001  0.09681423  0.12155413  1
  Ta  Ta100  1  0.19389933  0.58921510  0.00418814  1
  Ta  Ta101  1  0.80056253  0.60004250  0.01843214  1
  Ta  Ta102  1  0.01240172  0.41393019  0.00397209  1
  Ta  Ta103  1  0.21487466  0.19026638  0.74302336  1
  Ta  Ta104  1  0.38422484  0.01769076  0.74692157  1
  Ta  Ta105  1  0.70251443  0.09613396  0.11759812  1
  Ta  Ta106  1  0.20496343  0.41282602  0.50299058  1
  Ta  Ta107  1  0.39550177  0.80259883  0.00443195  1
  Ta  Ta108  1  0.80008497  0.38644737  0.23333842  1
  Ta  Ta109  1  0.70303470  0.50311746  0.37243392  1
  Ta  Ta110  1  0.09496311  0.88928302  0.62748133  1
  Ta  Ta111  1  0.28741344  0.91831606  0.63401325  1
  Ta  Ta112  1  0.48508022  0.88997127  0.36325600  1
  Ta  Ta113  1  -0.00734448  0.78666084  0.74659819  1
  Ta  Ta114  1  0.31599785  0.30599374  0.12639922  1
  Ta  Ta115  1  0.90040443  0.29399750  0.36959198  1
  Ta  Ta116  1  0.60425312  0.19262235  -0.00288873  1
  Ta  Ta117  1  0.90307562  0.10430235  0.87742234  1
  Ta  Ta118  1  0.00105453  0.60382587  0.01602133  1
  Ta  Ta119  1  0.40083818  0.60932414  0.25395002  1
  Ti  Ti120  1  -0.00292572  0.79946176  0.49780617  1
  Ti  Ti121  1  0.40872988  0.00051086  -0.00552416  1
  Ti  Ti122  1  0.49893667  0.29961514  0.87812993  1
  Ti  Ti123  1  -0.00207394  0.00137304  0.25599130  1
  Ti  Ti124  1  0.30180943  0.68583233  0.12059012  1
  Ti  Ti125  1  -0.00156189  0.20783908  0.51202861  1
  Ti  Ti126  1  0.79923398  0.19575703  0.00011385  1
  Ti  Ti127  1  0.80517556  0.19842104  0.23704963  1
  Ti  Ti128  1  0.39339583  -0.00202511  0.25293002  1
  Ti  Ti129  1  0.90738702  0.89743075  0.36456075  1
  Ti  Ti130  1  0.08152317  0.50173486  0.87024655  1
  Ti  Ti131  1  0.69045426  0.69284643  0.36845654  1
  Ti  Ti132  1  0.02223942  0.61104597  0.24186488  1
  Ti  Ti133  1  0.91326654  0.69159339  0.62280680  1
  Ti  Ti134  1  0.10465032  0.29616744  0.87096991  1
  Ti  Ti135  1  0.19799857  -0.00151051  0.24593389  1
  Ti  Ti136  1  -0.00930362  0.19567629  0.24483647  1
  Ti  Ti137  1  0.68798234  0.89790756  0.87086196  1
  Ti  Ti138  1  0.11917708  0.08114041  0.62963069  1
  Ti  Ti139  1  0.29797382  0.49364241  0.12473475  1
  Ti  Ti140  1  0.19269770  0.81925845  0.50140509  1
  Ti  Ti141  1  0.70112249  0.07733814  0.62056048  1
  Ti  Ti142  1  0.08513984  0.90053495  0.87265911  1
  Ti  Ti143  1  0.60977646  0.18877750  0.76377283  1
  Ti  Ti144  1  0.59919268  0.39758190  0.76529620  1
  Ti  Ti145  1  -0.00510726  0.41447246  0.73732030  1
  Ti  Ti146  1  0.50099032  0.30131017  0.11781119  1
  Ti  Ti147  1  0.79940108  -0.00276393  0.49085742  1
  Ti  Ti148  1  0.40672581  0.21163204  0.75842674  1
  Ti  Ti149  1  0.40275114  0.21034693  -0.00622845  1
  Ti  Ti150  1  0.30571522  0.10346498  0.12130684  1
  Ti  Ti151  1  0.66941773  0.88508182  0.63996960  1
  Ti  Ti152  1  0.59181252  0.78295434  0.24192662  1
  Ti  Ti153  1  0.40200343  0.41100301  0.48286585  1
  Ti  Ti154  1  0.19951684  0.60831138  0.50323268  1
  Ti  Ti155  1  0.49663994  0.89965913  0.13147312  1
  Ti  Ti156  1  0.50800782  0.09832664  0.87522684  1
  Ti  Ti157  1  0.49870610  0.09430840  0.37810280  1
  Ti  Ti158  1  0.68654959  0.69454763  0.11518118  1
  Ti  Ti159  1  0.30106095  0.50636234  0.62412319  1
  Mo  Mo160  1  0.69788362  0.50287444  0.11633320  1
  Mo  Mo161  1  0.31657419  0.29858450  0.86520723  1
  Mo  Mo162  1  0.91095902  0.30162389  0.62401451  1
  Mo  Mo163  1  0.19948573  -0.00690785  0.50232416  1
  Mo  Mo164  1  0.58641749  0.60146153  0.25071134  1
  Mo  Mo165  1  0.90636529  0.28970771  0.13140230  1
  Mo  Mo166  1  0.40385538  0.80140791  0.24517136  1
  Mo  Mo167  1  -0.00764441  0.80638780  0.24924642  1
  Mo  Mo168  1  0.79873053  0.79240362  0.00334663  1
  Mo  Mo169  1  0.59342629  0.00474600  -0.00038618  1
  Mo  Mo170  1  0.19057819  0.00781276  0.75701151  1
  Mo  Mo171  1  0.38708194  0.60281603  0.00596587  1
  Mo  Mo172  1  0.91168855  0.50164532  0.88682071  1
  Mo  Mo173  1  0.29535174  0.50405982  0.87953634  1
  Mo  Mo174  1  0.39865215  0.39054566  0.00341776  1
  Mo  Mo175  1  0.81263491  0.19231493  0.49780298  1
  Mo  Mo176  1  0.21155186  0.40805889  0.24891295  1
  Mo  Mo177  1  0.59651789  0.00492850  0.75066983  1
  Mo  Mo178  1  0.30549784  0.10823275  0.62893392  1
  Mo  Mo179  1  0.40767972  0.39870026  0.75848986  1
  Mo  Mo180  1  0.11295055  0.50717980  0.12810748  1
  Mo  Mo181  1  0.39182858  0.80655696  0.73875853  1
  Mo  Mo182  1  0.79252514  0.80376258  0.25111791  1
  Mo  Mo183  1  0.50654878  0.51390619  0.37138728  1
  Mo  Mo184  1  0.29727191  0.50853397  0.37952910  1
  Mo  Mo185  1  0.59790093  0.79124010  0.49836886  1
  Mo  Mo186  1  0.10561297  0.30191244  0.62394058  1
  Mo  Mo187  1  0.90109145  0.88796071  0.87219008  1
  Mo  Mo188  1  0.60225475  0.60935262  -0.00007071  1
  Mo  Mo189  1  0.10154011  0.90171247  0.36529642  1
  Mo  Mo190  1  -0.00398563  0.60184992  0.74731252  1
  Mo  Mo191  1  0.90120089  0.50093115  0.62034539  1
  Mo  Mo192  1  0.60536145  0.79388591  0.76071466  1
  Mo  Mo193  1  0.50013306  0.29883131  0.37523672  1
  Mo  Mo194  1  0.20979473  0.58703463  0.24220805  1
  Mo  Mo195  1  0.70083408  0.28680676  0.12325102  1
  Mo  Mo196  1  0.09812525  0.71324879  0.61361385  1
  Mo  Mo197  1  0.69474412  0.10117728  0.88443733  1
  Mo  Mo198  1  0.48984864  0.90367975  0.65234875  1
  Mo  Mo199  1  0.09287162  0.69340437  0.12084031  1
