# generated using pymatgen
data_HfZrTaTiMo
_symmetry_space_group_name_H-M   'P 1'
_cell_length_a   15.20910075
_cell_length_b   15.21156517
_cell_length_c   16.87361194
_cell_angle_alpha   90.00987748
_cell_angle_beta   90.02966537
_cell_angle_gamma   90.08150250
_symmetry_Int_Tables_number   1
_chemical_formula_structural   HfZrTaTiMo
_chemical_formula_sum   'Hf40 Zr40 Ta40 Ti40 Mo40'
_cell_volume   3903.77691889
_cell_formula_units_Z   40
loop_
 _symmetry_equiv_pos_site_id
 _symmetry_equiv_pos_as_xyz
  1  'x, y, z'
loop_
 _atom_site_type_symbol
 _atom_site_label
 _atom_site_symmetry_multiplicity
 _atom_site_fract_x
 _atom_site_fract_y
 _atom_site_fract_z
 _atom_site_occupancy
  Hf  Hf0  1  0.80006447  0.78735797  0.00579853  1
  Hf  Hf1  1  0.90328267  0.89608377  0.13098506  1
  Hf  Hf2  1  0.89848227  0.89414759  0.37051875  1
  Hf  Hf3  1  0.60511991  0.41476269  0.22893921  1
  Hf  Hf4  1  0.11872722  0.09536375  0.64085812  1
  Hf  Hf5  1  0.37649683  0.79939837  0.27484820  1
  Hf  Hf6  1  0.12631812  0.09955160  0.12138493  1
  Hf  Hf7  1  0.88871371  0.49438577  0.39121686  1
  Hf  Hf8  1  0.80022377  0.20581226  -0.00584931  1
  Hf  Hf9  1  0.19042180  0.62771109  0.26413167  1
  Hf  Hf10  1  0.01089026  0.19486905  0.51183084  1
  Hf  Hf11  1  -0.00145533  0.00135303  0.75764318  1
  Hf  Hf12  1  0.30799774  0.28835269  0.88001724  1
  Hf  Hf13  1  0.89134164  0.47438633  0.11368947  1
  Hf  Hf14  1  0.10448177  0.90333979  0.36191826  1
  Hf  Hf15  1  0.78536223  0.78888169  0.24688037  1
  Hf  Hf16  1  0.00528658  0.39239616  0.51016529  1
  Hf  Hf17  1  0.18709337  0.80009433  0.49001654  1
  Hf  Hf18  1  0.49221779  0.49347640  0.87766508  1
  Hf  Hf19  1  0.00381620  0.77985289  0.25189440  1
  Hf  Hf20  1  0.50021142  0.08451469  0.12083052  1
  Hf  Hf21  1  0.70826656  0.48838058  0.85320019  1
  Hf  Hf22  1  0.29834672  0.29725886  0.36428559  1
  Hf  Hf23  1  0.69065592  0.49359172  0.37874991  1
  Hf  Hf24  1  0.11115215  0.88685158  0.86135879  1
  Hf  Hf25  1  0.00733860  0.41255564  0.73566545  1
  Hf  Hf26  1  0.60622911  0.82070459  0.75765221  1
  Hf  Hf27  1  0.18535572  0.58229645  0.74737528  1
  Hf  Hf28  1  0.19448072  0.78172440  0.00172198  1
  Hf  Hf29  1  0.39764567  0.60830976  0.24427196  1
  Hf  Hf30  1  0.39330144  0.81806184  -0.01941930  1
  Hf  Hf31  1  0.61170921  0.40361255  0.00240598  1
  Hf  Hf32  1  0.01485055  -0.00922799  0.50480528  1
  Hf  Hf33  1  0.59913959  0.40934973  0.51449464  1
  Hf  Hf34  1  0.31597542  0.90208086  0.12627720  1
  Hf  Hf35  1  0.42922932  0.20868390  0.74808357  1
  Hf  Hf36  1  0.50585423  0.11239224  0.38151840  1
  Hf  Hf37  1  0.09597079  0.51928990  0.12521306  1
  Hf  Hf38  1  0.91500848  0.10755797  0.12000801  1
  Hf  Hf39  1  0.89055210  0.88573162  0.86969558  1
  Zr  Zr40  1  0.02084570  0.21211442  -0.01762198  1
  Zr  Zr41  1  0.87326265  0.49462197  0.61705551  1
  Zr  Zr42  1  0.08053052  0.30196004  0.12934546  1
  Zr  Zr43  1  0.29769909  0.90014260  0.61390219  1
  Zr  Zr44  1  0.40796570  -0.00365209  0.26595703  1
  Zr  Zr45  1  0.51442909  0.31812944  0.36896205  1
  Zr  Zr46  1  0.37680730  0.61035611  -0.00579988  1
  Zr  Zr47  1  0.68066290  0.89805034  0.13028841  1
  Zr  Zr48  1  0.19900511  0.59629778  0.49715081  1
  Zr  Zr49  1  0.60094146  0.81880812  -0.01761798  1
  Zr  Zr50  1  -0.00865621  0.60841885  0.50217692  1
  Zr  Zr51  1  0.50649632  0.70584478  0.63906166  1
  Zr  Zr52  1  0.08918001  0.71177931  0.62951712  1
  Zr  Zr53  1  0.39472133  0.82354538  0.75399141  1
  Zr  Zr54  1  0.41156209  0.20965882  0.50703044  1
  Zr  Zr55  1  0.00121443  0.60634484  -0.00879021  1
  Zr  Zr56  1  0.48634888  0.72330628  0.11734339  1
  Zr  Zr57  1  0.20893044  0.20266574  0.50487473  1
  Zr  Zr58  1  0.91885378  0.09697756  0.36787005  1
  Zr  Zr59  1  0.29076581  0.28630483  0.11790408  1
  Zr  Zr60  1  0.69573505  0.29870674  0.64202064  1
  Zr  Zr61  1  0.71755204  0.11296409  0.37399312  1
  Zr  Zr62  1  -0.01908138  0.60249404  0.74252434  1
  Zr  Zr63  1  0.90284453  0.09348744  0.88067227  1
  Zr  Zr64  1  0.89444023  0.31948744  0.85941744  1
  Zr  Zr65  1  0.79079218  0.58547109  -0.00443342  1
  Zr  Zr66  1  0.60864004  -0.00131793  0.26473685  1
  Zr  Zr67  1  0.39462659  0.40825321  0.50205158  1
  Zr  Zr68  1  0.22390322  -0.00040729  -0.00863809  1
  Zr  Zr69  1  0.70477150  0.88511684  0.61335718  1
  Zr  Zr70  1  0.19029039  0.40023873  0.00060752  1
  Zr  Zr71  1  0.49088316  0.50228519  0.64270823  1
  Zr  Zr72  1  0.90568077  0.89350605  0.62972637  1
  Zr  Zr73  1  -0.01593972  0.39402453  0.25709358  1
  Zr  Zr74  1  0.40140275  0.40358982  0.23267591  1
  Zr  Zr75  1  0.30443785  0.50162035  0.37063295  1
  Zr  Zr76  1  0.79818098  0.17529503  0.75236228  1
  Zr  Zr77  1  0.01270453  -0.00930807  -0.00358953  1
  Zr  Zr78  1  0.79578838  0.58878594  0.24616982  1
  Zr  Zr79  1  0.60725568  0.21220371  0.23884847  1
  Ta  Ta80  1  0.70222788  0.88921357  0.38798398  1
  Ta  Ta81  1  0.11973302  0.30448663  0.64246419  1
  Ta  Ta82  1  0.50147670  0.94088255  0.87234811  1
  Ta  Ta83  1  0.70232933  0.70067135  0.85874182  1
  Ta  Ta84  1  0.90296842  0.28871217  0.63662121  1
  Ta  Ta85  1  0.28700666  0.49437728  0.62801591  1
  Ta  Ta86  1  0.09703912  0.49429206  0.37493288  1
  Ta  Ta87  1  0.50382533  0.89307771  0.40032432  1
  Ta  Ta88  1  0.01094749  0.20011958  0.75007761  1
  Ta  Ta89  1  0.50276200  0.91343321  0.60707337  1
  Ta  Ta90  1  0.68251862  0.69288526  0.37765343  1
  Ta  Ta91  1  0.90589414  0.68584281  0.12639823  1
  Ta  Ta92  1  0.89292069  0.28933080  0.38297516  1
  Ta  Ta93  1  0.60608119  0.01592432  0.74279810  1
  Ta  Ta94  1  0.50446335  0.51697043  0.10902339  1
  Ta  Ta95  1  0.79271996  -0.00897559  0.00574718  1
  Ta  Ta96  1  0.80841700  -0.00243292  0.49739611  1
  Ta  Ta97  1  0.32879365  0.08410533  0.85878150  1
  Ta  Ta98  1  0.28227515  0.70585445  0.85887980  1
  Ta  Ta99  1  0.38681165  0.59982088  0.75948480  1
  Ta  Ta100  1  0.31900046  0.09734665  0.63811079  1
  Ta  Ta101  1  0.69239603  0.08289124  0.88338041  1
  Ta  Ta102  1  0.68277692  0.28614636  0.86607751  1
  Ta  Ta103  1  0.40569831  0.61156863  0.50261016  1
  Ta  Ta104  1  0.60930000  0.00618717  0.49487892  1
  Ta  Ta105  1  0.59599785  0.60971085  -0.01569976  1
  Ta  Ta106  1  0.59391879  0.60967356  0.24422586  1
  Ta  Ta107  1  0.87091450  0.70742808  0.62190445  1
  Ta  Ta108  1  0.51916758  0.10909603  0.61570909  1
  Ta  Ta109  1  0.11323518  0.10377643  0.36823181  1
  Ta  Ta110  1  0.19379932  0.40891974  0.24698367  1
  Ta  Ta111  1  0.09571633  0.29576630  0.36799717  1
  Ta  Ta112  1  0.11332437  0.30565554  0.85363152  1
  Ta  Ta113  1  0.11368867  0.88726198  0.13695856  1
  Ta  Ta114  1  0.71026365  0.10308921  0.12342792  1
  Ta  Ta115  1  0.29947340  0.69486727  0.63255289  1
  Ta  Ta116  1  0.49459426  0.70538063  0.86497484  1
  Ta  Ta117  1  0.80928264  0.19486001  0.51156245  1
  Ta  Ta118  1  0.81674028  0.20935041  0.24062236  1
  Ta  Ta119  1  0.57965253  0.79840955  0.26407208  1
  Ti  Ti120  1  0.68425294  0.51435455  0.65279992  1
  Ti  Ti121  1  0.39738074  0.19424868  0.24098963  1
  Ti  Ti122  1  0.30056847  0.10049337  0.37421465  1
  Ti  Ti123  1  0.71039159  0.08991774  0.61947383  1
  Ti  Ti124  1  0.59925970  0.77830203  0.50236979  1
  Ti  Ti125  1  -0.00015870  0.79680903  0.00670253  1
  Ti  Ti126  1  0.60273915  0.20242920  0.01017892  1
  Ti  Ti127  1  0.19675757  0.39463687  0.49947542  1
  Ti  Ti128  1  0.68617687  0.68877092  0.12113164  1
  Ti  Ti129  1  0.79165132  0.38072507  0.50305787  1
  Ti  Ti130  1  0.90389395  0.09068333  0.62989985  1
  Ti  Ti131  1  0.80408765  0.00247508  0.24603970  1
  Ti  Ti132  1  0.29218156  0.51507129  0.12125694  1
  Ti  Ti133  1  0.30769818  0.30035604  0.63682043  1
  Ti  Ti134  1  0.40114961  0.00654698  0.49491792  1
  Ti  Ti135  1  0.39310654  0.18461303  0.00398483  1
  Ti  Ti136  1  0.08597090  0.49457468  0.87988485  1
  Ti  Ti137  1  0.61806722  0.21227133  0.49864893  1
  Ti  Ti138  1  0.39863787  0.40273873  0.00674015  1
  Ti  Ti139  1  0.13204450  0.10898456  0.86177857  1
  Ti  Ti140  1  0.09105815  0.69756423  0.86185029  1
  Ti  Ti141  1  0.19984975  0.19788739  0.25006970  1
  Ti  Ti142  1  0.50505062  0.52204725  0.37582813  1
  Ti  Ti143  1  0.72047909  0.31153283  0.11714936  1
  Ti  Ti144  1  0.38751052  0.40166481  0.75707409  1
  Ti  Ti145  1  0.10283822  0.89754378  0.64200051  1
  Ti  Ti146  1  0.79251446  0.39028174  0.25550376  1
  Ti  Ti147  1  0.01291707  0.00587014  0.24063461  1
  Ti  Ti148  1  0.39219970  0.79620376  0.49384122  1
  Ti  Ti149  1  0.88280156  0.69982499  0.38768259  1
  Ti  Ti150  1  0.21700652  -0.00297953  0.25213471  1
  Ti  Ti151  1  0.76358838  0.60531113  0.51034770  1
  Ti  Ti152  1  0.51271771  0.12472664  0.88561297  1
  Ti  Ti153  1  0.28365595  0.49703920  0.87847960  1
  Ti  Ti154  1  0.49658439  0.29954181  0.11462159  1
  Ti  Ti155  1  -0.00780546  0.59322201  0.26283207  1
  Ti  Ti156  1  0.22495274  -0.01302241  0.75370279  1
  Ti  Ti157  1  0.20785390  0.00729227  0.49803239  1
  Ti  Ti158  1  0.57929179  0.38151864  0.75619453  1
  Ti  Ti159  1  0.89331369  0.69104491  0.86545101  1
  Mo  Mo160  1  0.19598261  0.59741901  -0.01400426  1
  Mo  Mo161  1  0.79789824  0.39229983  -0.00955669  1
  Mo  Mo162  1  0.60377569  0.19371444  0.75267755  1
  Mo  Mo163  1  0.79216154  0.60117359  0.74735161  1
  Mo  Mo164  1  0.70336956  0.90550335  0.87522111  1
  Mo  Mo165  1  0.29896002  0.91402372  0.39463002  1
  Mo  Mo166  1  0.69358013  0.69349992  0.64269659  1
  Mo  Mo167  1  0.30325663  0.90233251  0.86998999  1
  Mo  Mo168  1  0.58649661  0.60278243  0.77124942  1
  Mo  Mo169  1  0.50009677  0.89554663  0.13163074  1
  Mo  Mo170  1  0.30432948  0.10094747  0.13129786  1
  Mo  Mo171  1  0.20076190  0.79151912  0.74457896  1
  Mo  Mo172  1  0.19772274  0.80933648  0.25843343  1
  Mo  Mo173  1  0.69332721  0.50571500  0.12085886  1
  Mo  Mo174  1  0.71220475  0.30505558  0.37776817  1
  Mo  Mo175  1  0.07914752  0.69925491  0.38321351  1
  Mo  Mo176  1  -0.00260081  0.79561587  0.75314949  1
  Mo  Mo177  1  -0.00911838  0.80079956  0.49166654  1
  Mo  Mo178  1  0.49660554  0.69774700  0.38153852  1
  Mo  Mo179  1  -0.00678925  0.40338588  -0.01357006  1
  Mo  Mo180  1  0.10238302  0.49418537  0.61509043  1
  Mo  Mo181  1  0.79470731  0.78988763  0.49326157  1
  Mo  Mo182  1  0.79715935  0.39629038  0.74097379  1
  Mo  Mo183  1  0.21754452  0.19489701  0.74934486  1
  Mo  Mo184  1  0.80336443  0.79495844  0.75292988  1
  Mo  Mo185  1  0.27405841  0.70398361  0.12625540  1
  Mo  Mo186  1  0.41544144  0.00501704  -0.00288370  1
  Mo  Mo187  1  0.00678941  0.19517080  0.25319107  1
  Mo  Mo188  1  0.90059782  0.50091980  0.87258642  1
  Mo  Mo189  1  0.60444826  0.01319611  0.00350790  1
  Mo  Mo190  1  0.09526982  0.70079850  0.12608442  1
  Mo  Mo191  1  0.29607003  0.70312888  0.38953832  1
  Mo  Mo192  1  0.89524332  0.29303401  0.11830884  1
  Mo  Mo193  1  0.21005148  0.39860502  0.75460750  1
  Mo  Mo194  1  0.42087318  0.00649186  0.73748202  1
  Mo  Mo195  1  0.49994811  0.30228173  0.62444764  1
  Mo  Mo196  1  0.78595400  -0.01343257  0.75228349  1
  Mo  Mo197  1  0.50179570  0.30018446  0.89419465  1
  Mo  Mo198  1  0.59262740  0.59836861  0.50812226  1
  Mo  Mo199  1  0.20748385  0.19179524  -0.01777765  1
