# generated using pymatgen
data_HfZrTaTiMo
_symmetry_space_group_name_H-M   'P 1'
_cell_length_a   15.22268014
_cell_length_b   15.20721114
_cell_length_c   16.83296556
_cell_angle_alpha   89.99463363
_cell_angle_beta   89.97622103
_cell_angle_gamma   90.04944910
_symmetry_Int_Tables_number   1
_chemical_formula_structural   HfZrTaTiMo
_chemical_formula_sum   'Hf40 Zr40 Ta40 Ti40 Mo40'
_cell_volume   3896.73732800
_cell_formula_units_Z   40
loop_
 _symmetry_equiv_pos_site_id
 _symmetry_equiv_pos_as_xyz
  1  'x, y, z'
loop_
 _atom_site_type_symbol
 _atom_site_label
 _atom_site_symmetry_multiplicity
 _atom_site_fract_x
 _atom_site_fract_y
 _atom_site_fract_z
 _atom_site_occupancy
  Hf  Hf0  1  0.08361881  0.89874734  0.62042137  1
  Hf  Hf1  1  0.91557814  0.30158751  0.10868055  1
  Hf  Hf2  1  0.49790081  0.29912421  0.13975424  1
  Hf  Hf3  1  0.01378310  0.19849463  0.24751059  1
  Hf  Hf4  1  0.70806643  0.30097773  0.12454364  1
  Hf  Hf5  1  0.71931919  0.29629476  0.37817680  1
  Hf  Hf6  1  0.30192354  0.29182516  0.12291696  1
  Hf  Hf7  1  0.79903848  0.80119156  0.74512216  1
  Hf  Hf8  1  0.29254658  0.30985545  0.62356278  1
  Hf  Hf9  1  0.10501277  0.48257594  0.62902380  1
  Hf  Hf10  1  0.49381582  0.90492908  0.35795693  1
  Hf  Hf11  1  0.38239894  0.00367688  0.76137216  1
  Hf  Hf12  1  0.30162484  0.30329975  0.88187201  1
  Hf  Hf13  1  0.59191096  -0.00207988  0.00351221  1
  Hf  Hf14  1  0.39808783  0.79687468  0.01049855  1
  Hf  Hf15  1  0.29992628  0.68660195  0.61394391  1
  Hf  Hf16  1  0.69281772  0.88546011  0.87661594  1
  Hf  Hf17  1  0.81268785  0.79139209  0.24665279  1
  Hf  Hf18  1  0.60199711  0.40444074  0.00718080  1
  Hf  Hf19  1  0.69619728  0.30955562  0.87606736  1
  Hf  Hf20  1  0.48208325  0.49164090  0.61722204  1
  Hf  Hf21  1  0.40674063  0.59654147  0.01464894  1
  Hf  Hf22  1  0.49145208  0.50614205  0.35837385  1
  Hf  Hf23  1  0.29130918  0.90686237  0.13086183  1
  Hf  Hf24  1  0.49634446  0.89568778  0.87313490  1
  Hf  Hf25  1  0.90160192  0.50223733  0.10095603  1
  Hf  Hf26  1  0.59397460  0.80307769  0.50766783  1
  Hf  Hf27  1  0.00622901  0.80531765  0.76213889  1
  Hf  Hf28  1  0.49692812  0.11218620  0.61263212  1
  Hf  Hf29  1  0.91173934  0.71201459  0.62124926  1
  Hf  Hf30  1  0.30503318  0.51660842  0.87635373  1
  Hf  Hf31  1  0.91200286  0.70145091  0.11170800  1
  Hf  Hf32  1  0.48916414  0.69282534  0.87777899  1
  Hf  Hf33  1  0.70765365  0.70040964  0.37393179  1
  Hf  Hf34  1  0.69253508  0.10116746  0.13161546  1
  Hf  Hf35  1  0.80303109  -0.00562758  0.00870683  1
  Hf  Hf36  1  0.51117521  0.49183490  0.87249316  1
  Hf  Hf37  1  0.69403340  0.90749780  0.36322975  1
  Hf  Hf38  1  0.59092447  0.78802388  0.73200560  1
  Hf  Hf39  1  0.18047065  0.58921173  0.26301119  1
  Zr  Zr40  1  0.47311523  0.10499459  0.37606331  1
  Zr  Zr41  1  0.70575788  0.50298580  0.38484729  1
  Zr  Zr42  1  0.29887349  0.90949952  0.36360001  1
  Zr  Zr43  1  0.88130655  0.49532651  0.88755145  1
  Zr  Zr44  1  0.59443784  0.60057197  0.50713207  1
  Zr  Zr45  1  0.90376340  0.09720442  0.62409213  1
  Zr  Zr46  1  0.19758890  0.57361554  0.48572217  1
  Zr  Zr47  1  0.69917405  0.67517982  0.87642149  1
  Zr  Zr48  1  0.70728812  0.09179836  0.86541886  1
  Zr  Zr49  1  0.60253429  0.58505617  0.73392841  1
  Zr  Zr50  1  0.80455988  0.81898023  0.50639173  1
  Zr  Zr51  1  0.82018657  0.20874252  0.76098328  1
  Zr  Zr52  1  0.27671319  0.89211636  0.87973436  1
  Zr  Zr53  1  0.60099821  0.20635532  0.48435274  1
  Zr  Zr54  1  0.40623502  0.21044078  0.75725836  1
  Zr  Zr55  1  0.69234479  0.88939025  0.13358422  1
  Zr  Zr56  1  0.50418519  0.70812777  0.35214413  1
  Zr  Zr57  1  0.80634314  0.00877341  0.24682904  1
  Zr  Zr58  1  0.82242796  0.40613966  0.24863513  1
  Zr  Zr59  1  0.38773094  0.79188826  0.74405922  1
  Zr  Zr60  1  0.80230831  0.19234374  -0.00441707  1
  Zr  Zr61  1  0.89399054  0.91648215  0.87202276  1
  Zr  Zr62  1  0.70160630  0.11018558  0.63201050  1
  Zr  Zr63  1  0.92895292  0.31457841  0.38393083  1
  Zr  Zr64  1  0.30019996  0.09820534  0.62408835  1
  Zr  Zr65  1  0.59501063  0.00209365  0.74659156  1
  Zr  Zr66  1  0.09392068  0.08720959  0.38528949  1
  Zr  Zr67  1  0.30194311  0.69860739  0.36574901  1
  Zr  Zr68  1  0.39870237  0.00702712  -0.00869904  1
  Zr  Zr69  1  0.91133415  0.30667032  0.62177246  1
  Zr  Zr70  1  0.29588711  0.70003066  0.14438668  1
  Zr  Zr71  1  0.19879474  0.40783164  0.00071139  1
  Zr  Zr72  1  0.47972711  0.91148066  0.62003294  1
  Zr  Zr73  1  0.19337496  0.38092976  0.26182774  1
  Zr  Zr74  1  -0.00299738  0.38883669  0.76100894  1
  Zr  Zr75  1  0.61576211  0.40068765  0.25431654  1
  Zr  Zr76  1  0.91205556  0.51777562  0.39396494  1
  Zr  Zr77  1  0.90941623  0.91066802  0.37226272  1
  Zr  Zr78  1  0.30517976  0.49264125  0.14218898  1
  Zr  Zr79  1  0.29075066  0.10102959  0.11075503  1
  Ta  Ta80  1  0.09805680  0.88610662  0.38441296  1
  Ta  Ta81  1  0.60074572  0.00189046  0.49419233  1
  Ta  Ta82  1  0.09045231  0.89867685  0.12280950  1
  Ta  Ta83  1  0.01410585  0.60934202  -0.01303565  1
  Ta  Ta84  1  0.10213206  0.10671324  0.62285750  1
  Ta  Ta85  1  0.01037038  0.79716397  0.25027647  1
  Ta  Ta86  1  0.80656799  0.59807534  0.24680282  1
  Ta  Ta87  1  0.19671040  0.79367471  0.50329130  1
  Ta  Ta88  1  0.20194137  0.61283357  0.00243369  1
  Ta  Ta89  1  0.20361473  0.59991703  0.74889258  1
  Ta  Ta90  1  0.59205036  0.38188649  0.74269829  1
  Ta  Ta91  1  -0.00641884  0.60386782  0.24807001  1
  Ta  Ta92  1  0.17667185  -0.00385264  0.25026175  1
  Ta  Ta93  1  0.80949665  0.20354773  0.25010428  1
  Ta  Ta94  1  0.10002636  0.50295941  0.87426693  1
  Ta  Ta95  1  0.00650040  0.80764744  -0.01480664  1
  Ta  Ta96  1  0.49313370  0.90559051  0.14992510  1
  Ta  Ta97  1  0.39064575  0.80800304  0.50146150  1
  Ta  Ta98  1  0.90116479  0.69832345  0.88013717  1
  Ta  Ta99  1  0.70562797  0.69600517  0.62191724  1
  Ta  Ta100  1  0.18746207  0.37791633  0.48236162  1
  Ta  Ta101  1  0.19734058  0.79779989  0.73712218  1
  Ta  Ta102  1  0.18875240  0.79782081  0.00678299  1
  Ta  Ta103  1  0.02051203  0.21277371  0.50355774  1
  Ta  Ta104  1  0.49129289  0.10113672  0.14102526  1
  Ta  Ta105  1  0.50895227  0.70380993  0.14622852  1
  Ta  Ta106  1  0.20636862  -0.01134146  0.50656108  1
  Ta  Ta107  1  0.38572591  0.40169618  0.48221292  1
  Ta  Ta108  1  0.58971026  0.19882130  0.00073678  1
  Ta  Ta109  1  0.09877285  0.68871041  0.62078911  1
  Ta  Ta110  1  0.21436854  0.17988490  0.25891879  1
  Ta  Ta111  1  0.89468106  0.11359475  0.38117925  1
  Ta  Ta112  1  0.91467162  0.09743407  0.12525250  1
  Ta  Ta113  1  0.39847602  0.60045907  0.49387229  1
  Ta  Ta114  1  0.50819978  0.50612961  0.14592687  1
  Ta  Ta115  1  0.90533465  0.50940588  0.62102083  1
  Ta  Ta116  1  0.00256157  0.60089892  0.75730569  1
  Ta  Ta117  1  0.39576288  0.40808186  0.75029018  1
  Ta  Ta118  1  0.79942329  0.79178397  0.00080445  1
  Ta  Ta119  1  0.60396390  0.19334607  0.26739157  1
  Ti  Ti120  1  0.39926430  0.59982586  0.74033104  1
  Ti  Ti121  1  0.70940711  0.50566037  0.12115879  1
  Ti  Ti122  1  0.40772454  0.20412606  -0.00755692  1
  Ti  Ti123  1  0.40930016  0.39952228  0.00275700  1
  Ti  Ti124  1  0.90819887  0.70955043  0.38726090  1
  Ti  Ti125  1  0.09912634  0.29108502  0.88841101  1
  Ti  Ti126  1  0.70325043  0.69104845  0.12669725  1
  Ti  Ti127  1  0.00471431  0.00281564  -0.00588271  1
  Ti  Ti128  1  0.78834119  0.40940911  0.74275720  1
  Ti  Ti129  1  0.91357750  0.29493351  0.89865406  1
  Ti  Ti130  1  0.08583315  0.69126520  0.38845331  1
  Ti  Ti131  1  0.58961628  0.39802157  0.49170201  1
  Ti  Ti132  1  0.20070478  0.39746084  0.75944722  1
  Ti  Ti133  1  0.09355799  0.50770615  0.11561240  1
  Ti  Ti134  1  0.80512015  0.59597253  0.74241012  1
  Ti  Ti135  1  0.79166178  0.01258903  0.49478575  1
  Ti  Ti136  1  0.10644050  0.29193816  0.11005266  1
  Ti  Ti137  1  0.69342183  0.30230403  0.62011695  1
  Ti  Ti138  1  0.10218130  0.09704395  0.11503262  1
  Ti  Ti139  1  0.18595929  -0.00388552  0.74722819  1
  Ti  Ti140  1  0.19008386  0.19750218  0.75672562  1
  Ti  Ti141  1  0.28153437  0.10309537  0.88609933  1
  Ti  Ti142  1  0.50872987  0.11673710  0.86914945  1
  Ti  Ti143  1  0.90888339  0.90019806  0.12372044  1
  Ti  Ti144  1  0.80449606  0.40145824  0.50832480  1
  Ti  Ti145  1  0.80415942  0.60603870  0.51043171  1
  Ti  Ti146  1  0.70567876  0.91173992  0.62602719  1
  Ti  Ti147  1  0.09331811  0.09758520  0.88047564  1
  Ti  Ti148  1  -0.00910794  -0.00115553  0.50521282  1
  Ti  Ti149  1  0.31575491  0.28373647  0.37242183  1
  Ti  Ti150  1  0.80777239  0.20279898  0.50174763  1
  Ti  Ti151  1  0.18716707  0.79622529  0.25131727  1
  Ti  Ti152  1  0.49479538  0.30048554  0.61578547  1
  Ti  Ti153  1  0.59580772  0.79179544  0.00939991  1
  Ti  Ti154  1  0.01039236  0.41066264  0.24421772  1
  Ti  Ti155  1  -0.00443953  0.01458757  0.75365872  1
  Ti  Ti156  1  0.11827259  0.70534553  0.87010802  1
  Ti  Ti157  1  0.70191225  0.49154945  0.61599927  1
  Ti  Ti158  1  0.21271004  0.19305400  0.49226813  1
  Ti  Ti159  1  0.60376828  0.59943716  0.00959950  1
  Mo  Mo160  1  0.08597449  0.48496456  0.37404701  1
  Mo  Mo161  1  0.10985511  0.28700877  0.63013796  1
  Mo  Mo162  1  0.39500389  0.20293935  0.24937105  1
  Mo  Mo163  1  0.37798988  0.01740713  0.24483260  1
  Mo  Mo164  1  0.39317603  0.80526112  0.24116908  1
  Mo  Mo165  1  0.29014027  0.09765779  0.38273495  1
  Mo  Mo166  1  0.39966417  0.39318939  0.26528995  1
  Mo  Mo167  1  0.29850783  0.48936459  0.36512570  1
  Mo  Mo168  1  0.01827766  0.19656890  0.75740017  1
  Mo  Mo169  1  0.89428302  0.91246681  0.63289884  1
  Mo  Mo170  1  0.80462223  -0.00438840  0.74618470  1
  Mo  Mo171  1  0.69765215  0.49558967  0.86782829  1
  Mo  Mo172  1  0.01107489  0.40308099  -0.00835106  1
  Mo  Mo173  1  0.09599007  0.69890583  0.12437939  1
  Mo  Mo174  1  0.49986741  0.30719360  0.36719398  1
  Mo  Mo175  1  0.91329308  0.10756575  0.87590117  1
  Mo  Mo176  1  0.59976608  0.21079713  0.74407062  1
  Mo  Mo177  1  0.61715203  0.60179334  0.24145063  1
  Mo  Mo178  1  0.19905278  0.19442347  -0.00849971  1
  Mo  Mo179  1  0.59273797  0.00943913  0.25200506  1
  Mo  Mo180  1  0.79594252  0.39968237  0.00000771  1
  Mo  Mo181  1  0.11041186  0.28317865  0.37249954  1
  Mo  Mo182  1  0.29690683  0.49341304  0.62787495  1
  Mo  Mo183  1  0.70531651  0.10056101  0.37472127  1
  Mo  Mo184  1  0.09795250  0.90531074  0.87040465  1
  Mo  Mo185  1  0.29394103  0.69574075  0.87584141  1
  Mo  Mo186  1  0.01331531  0.40595081  0.50796455  1
  Mo  Mo187  1  0.00487286  0.60509664  0.50888374  1
  Mo  Mo188  1  0.00299230  -0.00199129  0.24426606  1
  Mo  Mo189  1  0.39455976  -0.00095905  0.50039543  1
  Mo  Mo190  1  0.01088897  0.19196558  0.00454447  1
  Mo  Mo191  1  0.28373659  0.89747021  0.62458513  1
  Mo  Mo192  1  0.39268945  0.21486935  0.50077388  1
  Mo  Mo193  1  0.00669128  0.80407275  0.49924001  1
  Mo  Mo194  1  0.60865817  0.80072100  0.24527475  1
  Mo  Mo195  1  0.79446790  0.60583968  0.00175867  1
  Mo  Mo196  1  0.18058741  -0.00759604  -0.00283993  1
  Mo  Mo197  1  0.39864509  0.59673945  0.24418745  1
  Mo  Mo198  1  0.49984255  0.29969021  0.87940772  1
  Mo  Mo199  1  0.49431588  0.69677215  0.61295915  1
