# generated using pymatgen
data_HfZrTaTiMo
_symmetry_space_group_name_H-M   'P 1'
_cell_length_a   15.19852885
_cell_length_b   15.21451741
_cell_length_c   16.86680915
_cell_angle_alpha   90.00497054
_cell_angle_beta   90.01569468
_cell_angle_gamma   89.92003754
_symmetry_Int_Tables_number   1
_chemical_formula_structural   HfZrTaTiMo
_chemical_formula_sum   'Hf40 Zr40 Ta40 Ti40 Mo40'
_cell_volume   3900.24800731
_cell_formula_units_Z   40
loop_
 _symmetry_equiv_pos_site_id
 _symmetry_equiv_pos_as_xyz
  1  'x, y, z'
loop_
 _atom_site_type_symbol
 _atom_site_label
 _atom_site_symmetry_multiplicity
 _atom_site_fract_x
 _atom_site_fract_y
 _atom_site_fract_z
 _atom_site_occupancy
  Hf  Hf0  1  0.78844497  0.80825268  0.74699422  1
  Hf  Hf1  1  0.30819377  0.89634017  0.63542007  1
  Hf  Hf2  1  0.80151450  0.79609660  -0.00897662  1
  Hf  Hf3  1  0.40554669  -0.01636835  0.50253245  1
  Hf  Hf4  1  0.81035567  0.59942014  0.76578752  1
  Hf  Hf5  1  0.61909254  -0.01057866  0.50761706  1
  Hf  Hf6  1  0.19193084  0.21970187  0.49862065  1
  Hf  Hf7  1  0.00431705  0.19560751  0.00548751  1
  Hf  Hf8  1  0.39179232  0.19044466  0.74394386  1
  Hf  Hf9  1  0.59551450  0.38770800  0.24956311  1
  Hf  Hf10  1  0.00167376  0.81340647  0.49434278  1
  Hf  Hf11  1  0.49742071  0.10621303  0.36887831  1
  Hf  Hf12  1  0.68442430  0.68435441  0.64129105  1
  Hf  Hf13  1  0.49067349  0.49868358  0.37473772  1
  Hf  Hf14  1  0.29016045  0.08596101  0.39427568  1
  Hf  Hf15  1  0.30035564  0.91263701  0.86903280  1
  Hf  Hf16  1  0.70164979  0.08248177  0.35822180  1
  Hf  Hf17  1  0.19013856  0.59540577  0.76291490  1
  Hf  Hf18  1  0.60059459  0.78780645  0.50928385  1
  Hf  Hf19  1  0.69979677  0.48581249  0.11967927  1
  Hf  Hf20  1  0.39395170  0.60124116  0.76262274  1
  Hf  Hf21  1  0.39622888  0.01151952  -0.00035107  1
  Hf  Hf22  1  0.60799489  0.39467386  0.50017845  1
  Hf  Hf23  1  0.60338510  0.59397934  0.24660250  1
  Hf  Hf24  1  0.10672721  0.49116620  0.90034690  1
  Hf  Hf25  1  0.31042482  0.49890736  0.10918954  1
  Hf  Hf26  1  0.60574709  0.37617535  -0.00020494  1
  Hf  Hf27  1  0.62222783  0.38236878  0.75433574  1
  Hf  Hf28  1  0.51399051  0.50404081  0.63430752  1
  Hf  Hf29  1  0.20419751  0.18849979  0.25609313  1
  Hf  Hf30  1  0.29510100  0.09786369  0.60881500  1
  Hf  Hf31  1  0.88081713  0.12349425  0.87906966  1
  Hf  Hf32  1  0.09008248  0.10789808  0.38537695  1
  Hf  Hf33  1  0.89789406  0.10518287  0.13243016  1
  Hf  Hf34  1  0.01105565  0.00729921  0.25552915  1
  Hf  Hf35  1  0.80851776  0.38445933  0.49051613  1
  Hf  Hf36  1  0.89569179  0.90918393  0.86209643  1
  Hf  Hf37  1  0.50803028  0.29243032  0.62407054  1
  Hf  Hf38  1  0.82455533  0.38658639  0.76825477  1
  Hf  Hf39  1  0.78930648  0.00197755  0.00551410  1
  Zr  Zr40  1  0.19454771  0.01082112  0.74738783  1
  Zr  Zr41  1  0.09621311  0.68713904  0.62304726  1
  Zr  Zr42  1  0.18199100  0.20968360  0.73940011  1
  Zr  Zr43  1  0.47455729  0.10925445  0.13804697  1
  Zr  Zr44  1  0.08989348  0.70102178  0.88084070  1
  Zr  Zr45  1  0.59908102  0.59973906  -0.00169717  1
  Zr  Zr46  1  0.19929227  0.60194990  0.24332830  1
  Zr  Zr47  1  0.36911647  0.00099614  0.24998982  1
  Zr  Zr48  1  0.89580406  0.70836610  0.61855979  1
  Zr  Zr49  1  0.50531961  0.89998564  0.86997111  1
  Zr  Zr50  1  0.07662752  0.11076816  0.61256414  1
  Zr  Zr51  1  0.30083771  0.70427726  0.12399380  1
  Zr  Zr52  1  -0.01169543  0.62790674  0.24298607  1
  Zr  Zr53  1  0.21297198  0.80318134  0.49786649  1
  Zr  Zr54  1  0.09617510  0.72723193  0.11459338  1
  Zr  Zr55  1  0.49881328  0.90098112  0.36725782  1
  Zr  Zr56  1  0.50540285  0.27727062  0.87140481  1
  Zr  Zr57  1  0.39769658  0.39343976  0.75243690  1
  Zr  Zr58  1  0.59847924  0.18256877  0.01573657  1
  Zr  Zr59  1  0.51035276  0.69968119  0.36685628  1
  Zr  Zr60  1  0.49523155  0.68906336  0.12589879  1
  Zr  Zr61  1  0.71803233  0.69516899  0.12876560  1
  Zr  Zr62  1  0.00800822  0.40818408  0.23383608  1
  Zr  Zr63  1  0.88966166  0.51110279  0.12179834  1
  Zr  Zr64  1  -0.02281837  0.22069295  0.48281613  1
  Zr  Zr65  1  0.89999174  0.89016838  0.13492448  1
  Zr  Zr66  1  0.92762866  0.51172091  0.63570476  1
  Zr  Zr67  1  0.79773259  0.59678670  0.50201804  1
  Zr  Zr68  1  0.01593057  0.42072574  0.49060400  1
  Zr  Zr69  1  0.30654638  0.68727330  0.37052338  1
  Zr  Zr70  1  0.77816190  0.01864574  0.74234493  1
  Zr  Zr71  1  0.50429348  0.49338020  0.87712559  1
  Zr  Zr72  1  0.11141662  0.51075713  0.10595316  1
  Zr  Zr73  1  0.29397070  0.50480325  0.62431808  1
  Zr  Zr74  1  0.19808764  0.82334349  0.26173333  1
  Zr  Zr75  1  0.91731476  0.30970288  0.62892636  1
  Zr  Zr76  1  0.69964290  0.87871788  0.35624778  1
  Zr  Zr77  1  0.90765806  0.91652840  0.63152415  1
  Zr  Zr78  1  0.89898615  0.51028822  0.36430865  1
  Zr  Zr79  1  0.28881201  0.90468422  0.10892172  1
  Ta  Ta80  1  0.60591073  0.19232609  0.49940248  1
  Ta  Ta81  1  0.39646600  0.79621512  0.75754074  1
  Ta  Ta82  1  0.39746582  0.78833102  -0.01363099  1
  Ta  Ta83  1  0.40247016  0.59958700  0.50719019  1
  Ta  Ta84  1  0.80162464  0.59796220  -0.01838485  1
  Ta  Ta85  1  0.00339169  0.39173525  0.01658454  1
  Ta  Ta86  1  0.68825742  0.70240969  0.86632913  1
  Ta  Ta87  1  0.87396889  0.12059025  0.61919706  1
  Ta  Ta88  1  0.17945646  0.01798074  -0.01584425  1
  Ta  Ta89  1  0.11049172  0.51014978  0.36464275  1
  Ta  Ta90  1  0.70650119  0.49006083  0.87754192  1
  Ta  Ta91  1  0.40042654  0.39874738  0.50264617  1
  Ta  Ta92  1  0.91799935  0.49941612  0.88409649  1
  Ta  Ta93  1  0.32433801  0.29500469  0.13489824  1
  Ta  Ta94  1  0.21480810  0.39646790  0.24351290  1
  Ta  Ta95  1  0.70171680  0.09021819  0.14397614  1
  Ta  Ta96  1  0.60035936  0.80385064  0.00437167  1
  Ta  Ta97  1  0.61416790  0.18114838  0.74323977  1
  Ta  Ta98  1  -0.00606294  0.00122197  -0.00546810  1
  Ta  Ta99  1  0.28882676  0.12142002  0.87763805  1
  Ta  Ta100  1  0.09097329  0.90998947  0.86249991  1
  Ta  Ta101  1  0.19742577  0.79773996  0.75382393  1
  Ta  Ta102  1  -0.00417567  0.81454066  -0.01030296  1
  Ta  Ta103  1  0.68147697  0.09729858  0.88039917  1
  Ta  Ta104  1  0.50317324  0.08724259  0.62890591  1
  Ta  Ta105  1  0.59938343  0.59120646  0.50075597  1
  Ta  Ta106  1  0.80067302  0.38333678  0.24889696  1
  Ta  Ta107  1  0.19825919  0.39969814  0.75862470  1
  Ta  Ta108  1  0.49155389  0.48290730  0.12033672  1
  Ta  Ta109  1  0.60076251  0.20262329  0.24226320  1
  Ta  Ta110  1  0.29717826  0.30555927  0.61840532  1
  Ta  Ta111  1  0.11579594  0.28657995  0.12675616  1
  Ta  Ta112  1  0.49369638  0.89158112  0.12431303  1
  Ta  Ta113  1  0.71467120  0.48574429  0.63330637  1
  Ta  Ta114  1  0.10914484  0.28989275  0.88675229  1
  Ta  Ta115  1  0.80856268  0.38123598  -0.00661820  1
  Ta  Ta116  1  0.40319111  0.79915691  0.24914344  1
  Ta  Ta117  1  0.89143041  0.91384512  0.37140185  1
  Ta  Ta118  1  0.10569665  0.31547481  0.36057293  1
  Ta  Ta119  1  0.68893168  0.90333697  0.87420426  1
  Ti  Ti120  1  0.10246371  0.90302145  0.62775819  1
  Ti  Ti121  1  0.21778813  0.37220611  0.00492494  1
  Ti  Ti122  1  0.30034460  0.69956811  0.62888948  1
  Ti  Ti123  1  0.70788846  0.28239223  0.37231946  1
  Ti  Ti124  1  0.00301419  0.81279588  0.26787068  1
  Ti  Ti125  1  0.70808330  0.68562602  0.37098684  1
  Ti  Ti126  1  0.19423419  0.81650618  -0.01682765  1
  Ti  Ti127  1  0.09573633  0.69976325  0.38161634  1
  Ti  Ti128  1  0.19436105  0.59362066  0.49747418  1
  Ti  Ti129  1  0.39157990  0.21692510  -0.00277623  1
  Ti  Ti130  1  -0.01754838  0.00913604  0.49576094  1
  Ti  Ti131  1  0.27214888  0.10798633  0.11582183  1
  Ti  Ti132  1  -0.01364267  0.61772706  0.00446202  1
  Ti  Ti133  1  0.22032555  0.62286974  -0.01150290  1
  Ti  Ti134  1  0.51181439  0.89119734  0.64419899  1
  Ti  Ti135  1  0.11399279  0.91916512  0.38893475  1
  Ti  Ti136  1  0.30133294  0.49388413  0.37199552  1
  Ti  Ti137  1  0.49181627  0.08550089  0.86165814  1
  Ti  Ti138  1  0.09898612  0.92323833  0.11917828  1
  Ti  Ti139  1  0.49984457  0.29881258  0.37817300  1
  Ti  Ti140  1  0.49250184  0.69665952  0.63675337  1
  Ti  Ti141  1  0.81238016  0.77980377  0.25340459  1
  Ti  Ti142  1  -0.00739385  0.21520372  0.24844260  1
  Ti  Ti143  1  -0.00207166  0.78661208  0.75282793  1
  Ti  Ti144  1  0.40615626  0.20328755  0.50201914  1
  Ti  Ti145  1  0.79289597  0.82171309  0.50716588  1
  Ti  Ti146  1  0.59584450  -0.00873643  0.01473924  1
  Ti  Ti147  1  0.30467996  0.49255205  0.89354705  1
  Ti  Ti148  1  0.71938368  0.28039080  0.62029124  1
  Ti  Ti149  1  -0.01187789  0.22075566  0.76080181  1
  Ti  Ti150  1  0.89499950  0.71157092  0.38888610  1
  Ti  Ti151  1  0.50154712  0.69902711  0.87175084  1
  Ti  Ti152  1  0.20616467  0.40709029  0.49362289  1
  Ti  Ti153  1  0.88571202  0.11036962  0.36122654  1
  Ti  Ti154  1  0.31067667  0.30181559  0.37290304  1
  Ti  Ti155  1  0.69843292  0.49255985  0.37099669  1
  Ti  Ti156  1  0.69710752  0.89167224  0.13937223  1
  Ti  Ti157  1  0.40737188  0.79000125  0.50281370  1
  Ti  Ti158  1  0.58857874  -0.01002868  0.23784534  1
  Ti  Ti159  1  -0.00531085  0.02642521  0.75083645  1
  Mo  Mo160  1  0.11002040  0.49409164  0.62619292  1
  Mo  Mo161  1  0.29944465  0.70785026  0.87372174  1
  Mo  Mo162  1  0.59993520  0.79891250  0.23615125  1
  Mo  Mo163  1  0.71695658  0.27790830  0.87849615  1
  Mo  Mo164  1  0.89634858  0.70369590  0.87354649  1
  Mo  Mo165  1  0.91788803  0.30709181  0.88650814  1
  Mo  Mo166  1  0.19238538  0.00071002  0.25359486  1
  Mo  Mo167  1  0.40014452  0.59986823  -0.01564783  1
  Mo  Mo168  1  0.29814320  0.30351163  0.87553254  1
  Mo  Mo169  1  0.90098362  0.30140178  0.12506956  1
  Mo  Mo170  1  0.59370155  0.79163607  0.74955603  1
  Mo  Mo171  1  0.40528578  0.39103195  -0.00407513  1
  Mo  Mo172  1  0.90075912  0.70657327  0.11965761  1
  Mo  Mo173  1  0.40003461  0.00325827  0.74625220  1
  Mo  Mo174  1  0.79636713  0.59288127  0.25872992  1
  Mo  Mo175  1  0.50065498  0.30247403  0.12773816  1
  Mo  Mo176  1  0.01183504  0.61197026  0.48774554  1
  Mo  Mo177  1  0.39872490  0.21337441  0.26530486  1
  Mo  Mo178  1  0.80874656  0.00328880  0.49678505  1
  Mo  Mo179  1  0.90224069  0.30255024  0.36121540  1
  Mo  Mo180  1  0.39887180  0.58531267  0.24689740  1
  Mo  Mo181  1  0.20346349  0.19879635  0.00195956  1
  Mo  Mo182  1  0.80286245  -0.00918256  0.24424416  1
  Mo  Mo183  1  0.08419670  0.10196465  0.86783184  1
  Mo  Mo184  1  0.39885831  0.40372790  0.25475354  1
  Mo  Mo185  1  0.10759229  0.32445474  0.62312750  1
  Mo  Mo186  1  0.18522880  -0.00461194  0.51430965  1
  Mo  Mo187  1  0.69278647  0.10092433  0.61763182  1
  Mo  Mo188  1  0.70070241  0.89333316  0.62278116  1
  Mo  Mo189  1  0.60529562  0.59066384  0.76151164  1
  Mo  Mo190  1  0.79423130  0.21014760  0.75244897  1
  Mo  Mo191  1  0.78799345  0.19189749  0.48669975  1
  Mo  Mo192  1  0.71149919  0.28602211  0.13009625  1
  Mo  Mo193  1  0.79877211  0.19973476  0.24937022  1
  Mo  Mo194  1  0.59666125  -0.00682800  0.74406904  1
  Mo  Mo195  1  0.09883664  0.09752378  0.12701220  1
  Mo  Mo196  1  0.00299622  0.59349949  0.76272916  1
  Mo  Mo197  1  0.02549722  0.40312433  0.76393298  1
  Mo  Mo198  1  0.30385038  0.89268857  0.38492558  1
  Mo  Mo199  1  0.79118483  0.20186780  0.00920196  1
