# generated using pymatgen
data_HfZrTaTiMo
_symmetry_space_group_name_H-M   'P 1'
_cell_length_a   15.21528979
_cell_length_b   15.20920168
_cell_length_c   16.84215173
_cell_angle_alpha   90.07745221
_cell_angle_beta   89.94976680
_cell_angle_gamma   90.04208740
_symmetry_Int_Tables_number   1
_chemical_formula_structural   HfZrTaTiMo
_chemical_formula_sum   'Hf40 Zr40 Ta40 Ti40 Mo40'
_cell_volume   3897.47683215
_cell_formula_units_Z   40
loop_
 _symmetry_equiv_pos_site_id
 _symmetry_equiv_pos_as_xyz
  1  'x, y, z'
loop_
 _atom_site_type_symbol
 _atom_site_label
 _atom_site_symmetry_multiplicity
 _atom_site_fract_x
 _atom_site_fract_y
 _atom_site_fract_z
 _atom_site_occupancy
  Hf  Hf0  1  0.31429648  0.70364686  0.61869019  1
  Hf  Hf1  1  0.71988177  0.90097345  0.88226635  1
  Hf  Hf2  1  0.30497173  0.10474987  0.37489768  1
  Hf  Hf3  1  0.08456222  0.30344949  0.38068390  1
  Hf  Hf4  1  0.71790415  0.92150811  0.61299604  1
  Hf  Hf5  1  0.90022557  0.50074166  0.13003142  1
  Hf  Hf6  1  0.59757791  0.41392306  0.73532012  1
  Hf  Hf7  1  -0.00855369  -0.01484163  0.74743921  1
  Hf  Hf8  1  0.89732249  0.08988748  0.37376794  1
  Hf  Hf9  1  0.81361015  0.80826834  0.75199419  1
  Hf  Hf10  1  0.79763916  0.00647009  0.23071129  1
  Hf  Hf11  1  0.89868107  0.89195319  0.35455143  1
  Hf  Hf12  1  0.09533818  0.09014395  0.62333177  1
  Hf  Hf13  1  0.11233750  0.89847903  0.88342114  1
  Hf  Hf14  1  0.10130730  0.29817212  0.11443096  1
  Hf  Hf15  1  0.39669012  0.19860434  0.73660118  1
  Hf  Hf16  1  0.01320486  0.57530651  0.49011298  1
  Hf  Hf17  1  0.09566631  0.29371565  0.87376453  1
  Hf  Hf18  1  0.01857427  0.79201300  0.75999360  1
  Hf  Hf19  1  0.78742289  0.19317096  0.00796806  1
  Hf  Hf20  1  0.20381204  -0.00954915  0.74001499  1
  Hf  Hf21  1  0.29203511  0.29682503  0.86801175  1
  Hf  Hf22  1  0.00990781  0.78370992  0.48823696  1
  Hf  Hf23  1  0.18775330  0.40829776  0.73827144  1
  Hf  Hf24  1  0.68114850  0.10162328  0.87358628  1
  Hf  Hf25  1  0.00101488  -0.01396804  0.50075404  1
  Hf  Hf26  1  0.58670540  0.22197126  -0.00049762  1
  Hf  Hf27  1  0.89058029  0.08053786  0.87245763  1
  Hf  Hf28  1  0.78047311  0.39354436  -0.00041838  1
  Hf  Hf29  1  0.48948508  0.50882188  0.13806996  1
  Hf  Hf30  1  0.30902931  0.50350227  0.88032679  1
  Hf  Hf31  1  0.88525124  0.30046607  0.12892180  1
  Hf  Hf32  1  0.91042351  0.47976922  0.62404901  1
  Hf  Hf33  1  0.01532642  0.79802216  0.00613444  1
  Hf  Hf34  1  -0.01306941  0.20012478  0.50587040  1
  Hf  Hf35  1  0.50033431  0.32075299  0.86355521  1
  Hf  Hf36  1  0.51309359  0.92677667  0.87993764  1
  Hf  Hf37  1  0.79329199  0.59608404  0.75159247  1
  Hf  Hf38  1  0.59797638  0.61227639  0.74470250  1
  Hf  Hf39  1  0.29036448  0.31428742  0.38782447  1
  Zr  Zr40  1  0.92139057  0.89179780  0.14817891  1
  Zr  Zr41  1  0.70131823  0.50402489  0.59933208  1
  Zr  Zr42  1  0.12455878  0.91042825  0.14353876  1
  Zr  Zr43  1  0.69298857  0.69319084  0.13853551  1
  Zr  Zr44  1  0.69752087  0.71074861  0.60608341  1
  Zr  Zr45  1  0.69427396  0.49469507  0.38527052  1
  Zr  Zr46  1  0.69123176  0.49213705  0.13124385  1
  Zr  Zr47  1  0.00770852  0.58749545  0.76934301  1
  Zr  Zr48  1  0.28955582  0.09549723  0.13519964  1
  Zr  Zr49  1  0.80499789  0.79450866  0.01822690  1
  Zr  Zr50  1  0.40761414  0.60796875  0.74927753  1
  Zr  Zr51  1  0.39381056  0.41089975  0.72534166  1
  Zr  Zr52  1  0.30838806  0.90742537  0.36575555  1
  Zr  Zr53  1  0.40302395  -0.00319415  0.01471178  1
  Zr  Zr54  1  0.50076086  0.09381029  0.61062328  1
  Zr  Zr55  1  0.81136130  -0.00272076  0.02495548  1
  Zr  Zr56  1  0.69339096  0.29633273  0.61061245  1
  Zr  Zr57  1  0.90191748  0.68856934  0.62200480  1
  Zr  Zr58  1  0.39204547  0.20039063  -0.00236272  1
  Zr  Zr59  1  0.20867802  0.59957633  0.48771932  1
  Zr  Zr60  1  0.60843882  0.00827064  0.02668256  1
  Zr  Zr61  1  0.60862250  0.81199101  0.74690358  1
  Zr  Zr62  1  0.20278633  0.60727218  0.76334013  1
  Zr  Zr63  1  0.30029943  0.08828122  0.87024266  1
  Zr  Zr64  1  0.50440500  0.70880706  0.88823839  1
  Zr  Zr65  1  0.19751459  0.21105550  0.24899111  1
  Zr  Zr66  1  0.41688154  0.79981878  0.48571611  1
  Zr  Zr67  1  0.40957827  0.81124168  0.74922620  1
  Zr  Zr68  1  0.87936037  0.49677817  0.87903723  1
  Zr  Zr69  1  0.41208480  0.40678348  0.00672814  1
  Zr  Zr70  1  0.10301183  0.89610541  0.35334895  1
  Zr  Zr71  1  0.90360202  0.48255969  0.36633505  1
  Zr  Zr72  1  0.10785618  0.69969692  0.62432011  1
  Zr  Zr73  1  0.11616811  0.69680167  0.14253169  1
  Zr  Zr74  1  0.31215858  0.91248559  0.61270455  1
  Zr  Zr75  1  0.59128944  0.21059782  0.27043983  1
  Zr  Zr76  1  -0.00623405  0.18620018  0.24052730  1
  Zr  Zr77  1  -0.00270979  0.40047984  -0.00958396  1
  Zr  Zr78  1  0.17734428  0.40862846  0.51991962  1
  Zr  Zr79  1  0.91069632  0.69143951  0.35180170  1
  Ta  Ta80  1  0.38622722  0.41524983  0.51428994  1
  Ta  Ta81  1  0.19130113  0.19704307  0.73689223  1
  Ta  Ta82  1  0.70647251  0.90527321  0.36778266  1
  Ta  Ta83  1  0.67414394  0.50153118  0.88277749  1
  Ta  Ta84  1  -0.00895492  0.38980807  0.76119290  1
  Ta  Ta85  1  0.00343340  0.60266823  -0.00576651  1
  Ta  Ta86  1  0.49942731  0.30355693  0.60190741  1
  Ta  Ta87  1  0.60300083  0.01005689  0.24042601  1
  Ta  Ta88  1  0.00777374  0.39605442  0.24447487  1
  Ta  Ta89  1  0.10481533  0.09475826  0.37783209  1
  Ta  Ta90  1  0.78673802  0.18541339  0.74411492  1
  Ta  Ta91  1  0.30700871  0.69661094  0.35757583  1
  Ta  Ta92  1  0.69641263  0.09574824  0.37341288  1
  Ta  Ta93  1  0.21488061  0.57297675  0.25707428  1
  Ta  Ta94  1  0.48669747  0.71356408  0.14285366  1
  Ta  Ta95  1  0.70512711  0.70905811  0.36647311  1
  Ta  Ta96  1  0.22566953  0.79048480  0.00600891  1
  Ta  Ta97  1  0.31653846  0.87622590  0.14877625  1
  Ta  Ta98  1  0.58804664  0.61622013  0.48230034  1
  Ta  Ta99  1  0.18870485  0.18845424  -0.00036300  1
  Ta  Ta100  1  0.20270390  0.80073223  0.48670224  1
  Ta  Ta101  1  0.87791506  0.08109230  0.62483589  1
  Ta  Ta102  1  0.88731754  0.28350561  0.86780004  1
  Ta  Ta103  1  -0.01034275  0.19184899  0.74598118  1
  Ta  Ta104  1  0.10730251  0.49810797  0.12246797  1
  Ta  Ta105  1  0.78549447  0.19804385  0.24536205  1
  Ta  Ta106  1  0.50046084  0.12383698  0.13404044  1
  Ta  Ta107  1  0.37726886  0.41102485  0.25110810  1
  Ta  Ta108  1  0.90006851  0.70866408  0.88297084  1
  Ta  Ta109  1  0.09742711  0.09895248  0.86944897  1
  Ta  Ta110  1  0.38580749  0.61748770  0.01120984  1
  Ta  Ta111  1  0.01281294  0.00537742  0.00609272  1
  Ta  Ta112  1  0.78618235  0.17924388  0.50109166  1
  Ta  Ta113  1  0.40115865  0.21826939  0.25534475  1
  Ta  Ta114  1  -0.00992399  0.19062536  0.00026270  1
  Ta  Ta115  1  0.69698349  0.30476175  0.86476692  1
  Ta  Ta116  1  0.90905368  0.68866401  0.14402560  1
  Ta  Ta117  1  0.70497840  0.69522565  0.88699446  1
  Ta  Ta118  1  0.41510184  0.00938350  0.24482789  1
  Ta  Ta119  1  0.88295606  0.28879286  0.36795553  1
  Ti  Ti120  1  0.20720619  -0.00672197  0.00332373  1
  Ti  Ti121  1  0.51239909  0.89632748  0.61152027  1
  Ti  Ti122  1  0.80795969  0.80397086  0.49024095  1
  Ti  Ti123  1  0.60845354  0.81030373  0.48513183  1
  Ti  Ti124  1  0.78115141  0.38962567  0.25539926  1
  Ti  Ti125  1  0.49991177  0.51828390  0.60667815  1
  Ti  Ti126  1  0.31260283  0.89297918  0.87881097  1
  Ti  Ti127  1  0.59257940  0.20486474  0.74316628  1
  Ti  Ti128  1  0.48078610  0.50125269  0.37768413  1
  Ti  Ti129  1  0.57765466  0.39878001  0.26582145  1
  Ti  Ti130  1  0.81316509  0.38430229  0.49720335  1
  Ti  Ti131  1  0.40882873  0.80414609  0.00906365  1
  Ti  Ti132  1  0.79500101  0.59088599  0.25422019  1
  Ti  Ti133  1  0.30095720  0.31295605  0.12346101  1
  Ti  Ti134  1  0.88979811  0.28546438  0.63283682  1
  Ti  Ti135  1  0.41303819  0.00512310  0.74724396  1
  Ti  Ti136  1  0.60162610  0.80517494  0.01725385  1
  Ti  Ti137  1  0.60978646  0.01267981  0.49375230  1
  Ti  Ti138  1  0.59472050  0.59602127  0.26455291  1
  Ti  Ti139  1  0.39134319  0.19255482  0.50565976  1
  Ti  Ti140  1  0.51180385  0.92322979  0.37304384  1
  Ti  Ti141  1  0.60259160  0.81626046  0.24942901  1
  Ti  Ti142  1  0.29157465  0.29418307  0.61809920  1
  Ti  Ti143  1  0.58659940  0.60018754  0.00664598  1
  Ti  Ti144  1  0.19248423  0.19472804  0.50919148  1
  Ti  Ti145  1  0.48774305  0.30552156  0.39950622  1
  Ti  Ti146  1  0.20560978  -0.00037607  0.50313086  1
  Ti  Ti147  1  0.61027764  0.01224251  0.73941272  1
  Ti  Ti148  1  0.50460012  0.70797456  0.35780241  1
  Ti  Ti149  1  0.07848709  0.30348671  0.62958630  1
  Ti  Ti150  1  0.69260720  0.29906223  0.39259661  1
  Ti  Ti151  1  0.40128718  0.60542794  0.49201904  1
  Ti  Ti152  1  0.79810161  0.60056270  0.00549438  1
  Ti  Ti153  1  0.21324512  0.79731637  0.75757199  1
  Ti  Ti154  1  0.79386991  0.39207143  0.74890242  1
  Ti  Ti155  1  0.91376224  0.88694434  0.61812183  1
  Ti  Ti156  1  0.20409182  0.40305418  -0.00329601  1
  Ti  Ti157  1  0.67063438  0.30177280  0.13373396  1
  Ti  Ti158  1  0.80771736  0.60638903  0.48661119  1
  Ti  Ti159  1  0.19613296  0.60264735  -0.00628993  1
  Mo  Mo160  1  0.41615273  0.80545885  0.26479886  1
  Mo  Mo161  1  0.79700419  -0.00313173  0.75088052  1
  Mo  Mo162  1  0.01229373  0.58348346  0.24944468  1
  Mo  Mo163  1  0.30870679  0.68832450  0.14220256  1
  Mo  Mo164  1  0.20819819  0.00887779  0.25378157  1
  Mo  Mo165  1  0.69327385  0.11674616  0.13145869  1
  Mo  Mo166  1  0.10574607  0.48960929  0.36324505  1
  Mo  Mo167  1  0.40966706  0.00282762  0.49319139  1
  Mo  Mo168  1  0.00963280  0.78911731  0.24898645  1
  Mo  Mo169  1  0.69734760  0.89342009  0.13863437  1
  Mo  Mo170  1  0.50242651  0.10956487  0.86009493  1
  Mo  Mo171  1  0.48924671  0.30881050  0.13860418  1
  Mo  Mo172  1  0.51084762  0.70580244  0.60835114  1
  Mo  Mo173  1  0.79298034  0.79273160  0.24353283  1
  Mo  Mo174  1  0.50076543  0.51363175  0.88153948  1
  Mo  Mo175  1  0.30032105  0.51048590  0.62331666  1
  Mo  Mo176  1  0.59256533  0.20114098  0.48291004  1
  Mo  Mo177  1  0.10907116  0.88845839  0.61590859  1
  Mo  Mo178  1  0.09138812  0.49797845  0.63205841  1
  Mo  Mo179  1  0.30231630  0.71213299  0.88576874  1
  Mo  Mo180  1  0.59463489  0.40720175  0.00236893  1
  Mo  Mo181  1  0.49507310  0.10097538  0.38208455  1
  Mo  Mo182  1  0.91112260  0.89300890  0.88371784  1
  Mo  Mo183  1  0.21314354  0.78969682  0.25956711  1
  Mo  Mo184  1  0.90522418  0.10362673  0.12135053  1
  Mo  Mo185  1  0.09910379  0.09897145  0.11562769  1
  Mo  Mo186  1  0.28837938  0.50434860  0.11600206  1
  Mo  Mo187  1  0.50281071  0.90210386  0.13372171  1
  Mo  Mo188  1  0.19662012  0.39624677  0.24527680  1
  Mo  Mo189  1  0.40652069  0.59638079  0.25734164  1
  Mo  Mo190  1  0.10170262  0.49325420  0.88961680  1
  Mo  Mo191  1  0.58429590  0.40862112  0.49307611  1
  Mo  Mo192  1  0.69493061  0.10432405  0.62135069  1
  Mo  Mo193  1  0.29427273  0.10669991  0.61786981  1
  Mo  Mo194  1  0.00917688  0.00753499  0.25153261  1
  Mo  Mo195  1  0.30378681  0.49577690  0.38156637  1
  Mo  Mo196  1  0.80114922  -0.00850233  0.49019354  1
  Mo  Mo197  1  0.11202939  0.69062624  0.35556539  1
  Mo  Mo198  1  -0.01285289  0.38434893  0.50057574  1
  Mo  Mo199  1  0.10925414  0.70013600  0.88980216  1
