# generated using pymatgen
data_HfZrTaTiMo
_symmetry_space_group_name_H-M   'P 1'
_cell_length_a   15.22114297
_cell_length_b   15.21199854
_cell_length_c   16.84648551
_cell_angle_alpha   89.97319288
_cell_angle_beta   90.00529855
_cell_angle_gamma   89.89777543
_symmetry_Int_Tables_number   1
_chemical_formula_structural   HfZrTaTiMo
_chemical_formula_sum   'Hf40 Zr40 Ta40 Ti40 Mo40'
_cell_volume   3900.69606717
_cell_formula_units_Z   40
loop_
 _symmetry_equiv_pos_site_id
 _symmetry_equiv_pos_as_xyz
  1  'x, y, z'
loop_
 _atom_site_type_symbol
 _atom_site_label
 _atom_site_symmetry_multiplicity
 _atom_site_fract_x
 _atom_site_fract_y
 _atom_site_fract_z
 _atom_site_occupancy
  Hf  Hf0  1  0.29702518  0.08044199  0.37063628  1
  Hf  Hf1  1  0.39578180  0.01177953  0.74153454  1
  Hf  Hf2  1  0.40839450  0.60194161  -0.00713733  1
  Hf  Hf3  1  0.48727190  0.30649574  0.38015197  1
  Hf  Hf4  1  0.11020837  0.50239347  0.13631424  1
  Hf  Hf5  1  0.60135295  0.58789558  0.50705335  1
  Hf  Hf6  1  0.70278457  0.90417625  0.61896535  1
  Hf  Hf7  1  0.19426455  0.20209548  0.26082272  1
  Hf  Hf8  1  0.18347201  0.60615431  0.75482549  1
  Hf  Hf9  1  0.79484566  0.39488889  0.25967759  1
  Hf  Hf10  1  0.49984789  0.10673893  0.60448590  1
  Hf  Hf11  1  0.69734945  0.49553240  0.87510565  1
  Hf  Hf12  1  0.91546971  0.49129113  0.13987798  1
  Hf  Hf13  1  0.08521392  0.30935495  0.14230248  1
  Hf  Hf14  1  0.60904048  0.20223040  0.25321623  1
  Hf  Hf15  1  0.89306178  0.09109642  0.88994674  1
  Hf  Hf16  1  0.59865216  0.01292943  0.74863348  1
  Hf  Hf17  1  0.09559336  0.71083115  0.12452187  1
  Hf  Hf18  1  0.69497905  0.10235890  0.89039766  1
  Hf  Hf19  1  0.59507923  -0.00669993  0.00913734  1
  Hf  Hf20  1  0.00656626  0.18422863  0.49985576  1
  Hf  Hf21  1  -0.01031649  0.21141510  0.00284604  1
  Hf  Hf22  1  0.31066130  0.49835411  0.12856332  1
  Hf  Hf23  1  0.70793836  0.90340788  0.87858572  1
  Hf  Hf24  1  0.81498289  0.80833432  0.01179851  1
  Hf  Hf25  1  0.49692964  0.09738523  0.13340838  1
  Hf  Hf26  1  0.60683577  0.39307013  0.49256501  1
  Hf  Hf27  1  0.69962005  0.10387201  0.60976309  1
  Hf  Hf28  1  0.79514019  0.19614296  0.75148210  1
  Hf  Hf29  1  0.00790513  0.77898693  0.74520631  1
  Hf  Hf30  1  0.00744588  0.19238172  0.74893609  1
  Hf  Hf31  1  0.88950455  0.09897099  0.12299094  1
  Hf  Hf32  1  0.59090001  0.40774190  0.26382028  1
  Hf  Hf33  1  0.21420074  0.61831106  0.25016774  1
  Hf  Hf34  1  0.70921978  0.29916329  0.62165668  1
  Hf  Hf35  1  0.89946808  0.49447070  0.61912536  1
  Hf  Hf36  1  0.50200969  0.69600349  0.85942637  1
  Hf  Hf37  1  0.29500832  0.09214162  0.13730234  1
  Hf  Hf38  1  0.59200357  0.79125256  0.01056896  1
  Hf  Hf39  1  0.90594425  0.30904990  0.86478494  1
  Zr  Zr40  1  0.81565559  0.80245178  0.25224844  1
  Zr  Zr41  1  0.20082381  0.40600557  0.49361757  1
  Zr  Zr42  1  0.38335202  0.61294474  0.52078373  1
  Zr  Zr43  1  0.90041803  0.89605622  0.62385809  1
  Zr  Zr44  1  0.49935208  0.09364765  0.37673454  1
  Zr  Zr45  1  0.19914824  0.59658529  -0.01223851  1
  Zr  Zr46  1  0.71241538  0.69022123  0.37721966  1
  Zr  Zr47  1  0.09253853  0.09804998  0.13298574  1
  Zr  Zr48  1  0.59760910  0.60991188  0.25053408  1
  Zr  Zr49  1  0.80171304  0.60357499  0.00399080  1
  Zr  Zr50  1  0.39480758  0.21208238  0.25466267  1
  Zr  Zr51  1  0.09679300  0.88798326  0.87013461  1
  Zr  Zr52  1  0.17529617  -0.00210327  0.50009583  1
  Zr  Zr53  1  0.39174331  -0.00296688  0.00084336  1
  Zr  Zr54  1  0.81116122  0.79445667  0.49322359  1
  Zr  Zr55  1  0.40402453  0.40990618  0.51518720  1
  Zr  Zr56  1  0.00341784  0.39079214  0.49562889  1
  Zr  Zr57  1  0.20317556  0.82663390  0.24523327  1
  Zr  Zr58  1  0.69742309  0.50164640  0.12239654  1
  Zr  Zr59  1  0.30074497  0.90581247  0.86440057  1
  Zr  Zr60  1  0.32329661  0.50741933  0.36743198  1
  Zr  Zr61  1  0.59643661  0.39250005  0.74533639  1
  Zr  Zr62  1  0.30051035  0.70851091  0.86174482  1
  Zr  Zr63  1  0.48759171  0.89561652  0.36592549  1
  Zr  Zr64  1  0.48829088  0.31575001  0.11955702  1
  Zr  Zr65  1  0.70602091  0.70263148  0.87462701  1
  Zr  Zr66  1  0.70613294  0.29500794  0.11401057  1
  Zr  Zr67  1  0.40651807  0.20726834  0.74915963  1
  Zr  Zr68  1  0.81762328  0.39651656  0.00143886  1
  Zr  Zr69  1  0.60993548  0.80080001  0.73866885  1
  Zr  Zr70  1  0.49887831  0.89594470  0.86843021  1
  Zr  Zr71  1  0.49172841  0.69327765  0.38009975  1
  Zr  Zr72  1  -0.00468305  0.60653518  -0.01764841  1
  Zr  Zr73  1  0.18908049  0.01497661  0.75050002  1
  Zr  Zr74  1  0.59729942  0.80054188  0.50377560  1
  Zr  Zr75  1  0.22013947  0.79317016  0.51814397  1
  Zr  Zr76  1  0.19769120  0.20113583  -0.00523092  1
  Zr  Zr77  1  0.89851828  0.50991073  0.37566982  1
  Zr  Zr78  1  0.20357786  0.80662712  0.00564498  1
  Zr  Zr79  1  0.28131852  0.11255522  0.61232497  1
  Ta  Ta80  1  0.48799902  0.88664801  0.13734267  1
  Ta  Ta81  1  0.20243419  0.39959080  -0.00460285  1
  Ta  Ta82  1  0.32270903  0.71100698  0.11882042  1
  Ta  Ta83  1  0.79745505  0.40178458  0.48641573  1
  Ta  Ta84  1  0.70004425  0.09647452  0.11783172  1
  Ta  Ta85  1  0.01389683  0.60349508  0.49743464  1
  Ta  Ta86  1  0.38564402  -0.02092997  0.50701256  1
  Ta  Ta87  1  0.80171335  0.60187751  0.74973303  1
  Ta  Ta88  1  0.80369220  0.20690285  0.49068395  1
  Ta  Ta89  1  0.29643206  0.30332613  0.62576966  1
  Ta  Ta90  1  0.10116496  0.90065574  0.63511543  1
  Ta  Ta91  1  0.01190947  0.40541747  -0.00130024  1
  Ta  Ta92  1  0.60341833  0.59197453  0.73715773  1
  Ta  Ta93  1  0.58998237  0.20154084  0.00181591  1
  Ta  Ta94  1  0.49857210  0.30539754  0.88555516  1
  Ta  Ta95  1  0.10656663  0.51041926  0.36682287  1
  Ta  Ta96  1  0.90284098  0.29137784  0.36612941  1
  Ta  Ta97  1  0.79993327  0.00029471  0.74974660  1
  Ta  Ta98  1  0.08567389  0.08440573  0.35918739  1
  Ta  Ta99  1  0.80738646  0.00272776  0.48718825  1
  Ta  Ta100  1  0.20700837  0.20508413  0.76302278  1
  Ta  Ta101  1  -0.01162104  0.58656418  0.76084638  1
  Ta  Ta102  1  0.79723658  0.00247293  0.25486643  1
  Ta  Ta103  1  0.30666071  0.30920040  0.87533070  1
  Ta  Ta104  1  0.10914224  0.29212035  0.62884302  1
  Ta  Ta105  1  0.50185482  0.69807107  0.63124122  1
  Ta  Ta106  1  -0.00687023  -0.02241933  0.00915967  1
  Ta  Ta107  1  0.00425312  0.61248956  0.25784801  1
  Ta  Ta108  1  0.90006687  0.09499054  0.36719433  1
  Ta  Ta109  1  0.19309387  0.00246064  -0.00135282  1
  Ta  Ta110  1  0.69904247  0.90382547  0.36804108  1
  Ta  Ta111  1  0.69806982  0.29728763  0.88672944  1
  Ta  Ta112  1  0.70089875  0.10308932  0.38157165  1
  Ta  Ta113  1  -0.00092055  -0.02398449  0.24168041  1
  Ta  Ta114  1  0.89962808  0.89038471  0.87063569  1
  Ta  Ta115  1  0.28969344  0.30733566  0.12376939  1
  Ta  Ta116  1  0.89896476  0.09749286  0.62032246  1
  Ta  Ta117  1  0.01962920  0.80381460  0.50462931  1
  Ta  Ta118  1  -0.01027476  -0.00100591  0.75093899  1
  Ta  Ta119  1  0.39999053  0.59095354  0.73713478  1
  Ti  Ti120  1  0.49620263  0.90300426  0.62150697  1
  Ti  Ti121  1  0.59889787  -0.00271144  0.49182726  1
  Ti  Ti122  1  0.39111303  0.80109136  0.72653968  1
  Ti  Ti123  1  0.21281686  0.39767085  0.26393046  1
  Ti  Ti124  1  0.28465408  0.50365455  0.63139673  1
  Ti  Ti125  1  0.60014927  0.59999316  0.00259297  1
  Ti  Ti126  1  0.48690461  0.10857108  0.88267393  1
  Ti  Ti127  1  0.69777462  0.70737209  0.13429857  1
  Ti  Ti128  1  0.90748136  0.68737817  0.61787255  1
  Ti  Ti129  1  0.40133011  0.78945784  0.24841652  1
  Ti  Ti130  1  0.80310758  0.59896551  0.24712508  1
  Ti  Ti131  1  0.30412760  0.71550085  0.37817858  1
  Ti  Ti132  1  0.39875863  0.40027988  0.73859810  1
  Ti  Ti133  1  0.91774520  0.70459121  0.37855264  1
  Ti  Ti134  1  0.70660179  0.49795384  0.62514623  1
  Ti  Ti135  1  0.50426276  0.29540297  0.61459560  1
  Ti  Ti136  1  0.90715119  0.70418236  0.13216593  1
  Ti  Ti137  1  0.19690863  0.39718187  0.74901264  1
  Ti  Ti138  1  0.49669285  0.51062428  0.12671358  1
  Ti  Ti139  1  0.71405021  0.69236907  0.61996799  1
  Ti  Ti140  1  0.09464971  0.09646657  0.88360785  1
  Ti  Ti141  1  0.38847017  0.20352994  0.49319685  1
  Ti  Ti142  1  0.10961285  0.71007261  0.37782629  1
  Ti  Ti143  1  0.92095345  0.90245707  0.37853967  1
  Ti  Ti144  1  0.80834178  0.79473606  0.74595575  1
  Ti  Ti145  1  0.70556559  0.90373842  0.13333644  1
  Ti  Ti146  1  0.49309266  0.49434164  0.86689682  1
  Ti  Ti147  1  0.90603304  0.29752746  0.62868229  1
  Ti  Ti148  1  0.09228142  0.30132496  0.36294064  1
  Ti  Ti149  1  0.60143252  -0.00573451  0.24727405  1
  Ti  Ti150  1  0.10366908  0.30188375  0.86977717  1
  Ti  Ti151  1  0.09054773  0.48541978  0.86679335  1
  Ti  Ti152  1  0.19546275  0.20789137  0.48053870  1
  Ti  Ti153  1  0.80844441  0.40696037  0.75240651  1
  Ti  Ti154  1  0.30263198  0.49298176  0.86641225  1
  Ti  Ti155  1  0.59679177  0.20221676  0.75731156  1
  Ti  Ti156  1  0.58658329  0.40743850  -0.00293457  1
  Ti  Ti157  1  0.39112442  0.20750534  0.00169159  1
  Ti  Ti158  1  0.09482868  0.49946206  0.62745939  1
  Ti  Ti159  1  0.80013278  0.19772973  0.25283342  1
  Mo  Mo160  1  -0.00726213  -0.00613884  0.50040775  1
  Mo  Mo161  1  0.50414351  0.69597907  0.12623798  1
  Mo  Mo162  1  0.60818947  0.80973317  0.24169255  1
  Mo  Mo163  1  0.39735592  0.40761923  0.24936828  1
  Mo  Mo164  1  0.29565885  0.11205122  0.88061520  1
  Mo  Mo165  1  0.30046100  0.89041127  0.37976088  1
  Mo  Mo166  1  0.38782874  -0.01831491  0.24563659  1
  Mo  Mo167  1  0.09747838  0.90491798  0.11821904  1
  Mo  Mo168  1  0.19590928  0.00079380  0.25546930  1
  Mo  Mo169  1  0.20048525  0.80108021  0.73188135  1
  Mo  Mo170  1  0.70466349  0.29233441  0.37691838  1
  Mo  Mo171  1  0.00659658  0.79350638  0.25820010  1
  Mo  Mo172  1  0.40614446  0.79877827  0.00265419  1
  Mo  Mo173  1  0.90469949  0.89599251  0.13121391  1
  Mo  Mo174  1  0.79782186  -0.00341510  0.00889888  1
  Mo  Mo175  1  0.29315728  0.29775782  0.38070288  1
  Mo  Mo176  1  0.29414430  0.69559769  0.64272079  1
  Mo  Mo177  1  0.40386359  0.60543763  0.24274223  1
  Mo  Mo178  1  0.89706275  0.70579275  0.86729469  1
  Mo  Mo179  1  -0.00139409  0.79599296  -0.00332477  1
  Mo  Mo180  1  0.09467973  0.68681857  0.61945634  1
  Mo  Mo181  1  0.00654785  0.40397655  0.26757090  1
  Mo  Mo182  1  0.90544282  0.29776337  0.14105583  1
  Mo  Mo183  1  -0.01247733  0.19568810  0.25426013  1
  Mo  Mo184  1  0.70177281  0.50022287  0.37766662  1
  Mo  Mo185  1  0.89682286  0.49723413  0.86586304  1
  Mo  Mo186  1  0.09934126  0.89461044  0.37933653  1
  Mo  Mo187  1  0.79437005  0.20211635  0.00132691  1
  Mo  Mo188  1  0.50319937  0.49664128  0.63315745  1
  Mo  Mo189  1  0.29849207  0.90624968  0.63666549  1
  Mo  Mo190  1  0.30166523  0.90375322  0.12258035  1
  Mo  Mo191  1  0.59924346  0.19845076  0.49152380  1
  Mo  Mo192  1  0.80607357  0.59456561  0.50897642  1
  Mo  Mo193  1  0.19092849  0.59923066  0.49966616  1
  Mo  Mo194  1  0.00974640  0.39715482  0.74048598  1
  Mo  Mo195  1  0.39246561  0.40418805  -0.00836447  1
  Mo  Mo196  1  0.50488691  0.50565741  0.37638226  1
  Mo  Mo197  1  0.09717761  0.69695104  0.87460440  1
  Mo  Mo198  1  0.08640077  0.10465844  0.62788724  1
  Mo  Mo199  1  0.40464068  0.80406190  0.52014270  1
