# generated using pymatgen
data_HfZrTaTiMo
_symmetry_space_group_name_H-M   'P 1'
_cell_length_a   15.21164514
_cell_length_b   15.21087893
_cell_length_c   16.82210958
_cell_angle_alpha   90.04741885
_cell_angle_beta   90.01697915
_cell_angle_gamma   90.05390413
_symmetry_Int_Tables_number   1
_chemical_formula_structural   HfZrTaTiMo
_chemical_formula_sum   'Hf40 Zr40 Ta40 Ti40 Mo40'
_cell_volume   3892.33841926
_cell_formula_units_Z   40
loop_
 _symmetry_equiv_pos_site_id
 _symmetry_equiv_pos_as_xyz
  1  'x, y, z'
loop_
 _atom_site_type_symbol
 _atom_site_label
 _atom_site_symmetry_multiplicity
 _atom_site_fract_x
 _atom_site_fract_y
 _atom_site_fract_z
 _atom_site_occupancy
  Hf  Hf0  1  0.29759417  0.10639605  0.38276680  1
  Hf  Hf1  1  0.79230992  0.78080440  -0.01392647  1
  Hf  Hf2  1  0.50002274  0.69941975  0.12024732  1
  Hf  Hf3  1  0.78446414  0.79798700  0.76227758  1
  Hf  Hf4  1  0.30815030  0.11488269  0.62629491  1
  Hf  Hf5  1  0.09904898  0.89939742  0.38974510  1
  Hf  Hf6  1  0.50419017  0.30297111  0.86970958  1
  Hf  Hf7  1  0.39391719  0.39850180  0.75591176  1
  Hf  Hf8  1  0.21203589  0.79846767  0.75699388  1
  Hf  Hf9  1  0.00772113  0.39231158  0.49499690  1
  Hf  Hf10  1  0.40115366  0.80373547  0.25164870  1
  Hf  Hf11  1  0.41497302  0.59776002  0.76043087  1
  Hf  Hf12  1  0.00533849  0.19585256  0.23157745  1
  Hf  Hf13  1  0.70979524  0.70229767  0.13719210  1
  Hf  Hf14  1  0.70241701  0.11229022  0.87734522  1
  Hf  Hf15  1  0.39715540  0.21109311  0.25349681  1
  Hf  Hf16  1  0.48968905  0.29260058  0.61019632  1
  Hf  Hf17  1  0.60043807  0.21536111  0.00813798  1
  Hf  Hf18  1  -0.00764686  0.40758574  0.23567002  1
  Hf  Hf19  1  0.49376397  0.71145553  0.62037269  1
  Hf  Hf20  1  0.39453002  0.20891346  -0.00364435  1
  Hf  Hf21  1  0.30146269  0.69630064  0.37625668  1
  Hf  Hf22  1  0.49732257  0.49674462  0.61057214  1
  Hf  Hf23  1  0.20226988  0.18549223  -0.01011095  1
  Hf  Hf24  1  0.59174170  0.60602651  0.25957604  1
  Hf  Hf25  1  0.89812227  0.09983235  0.63230415  1
  Hf  Hf26  1  0.20730697  0.60014902  -0.01022545  1
  Hf  Hf27  1  0.29123398  0.32390558  0.61416039  1
  Hf  Hf28  1  0.89172165  0.69650024  0.62708249  1
  Hf  Hf29  1  0.30174151  0.89938811  0.39627525  1
  Hf  Hf30  1  0.09173041  0.69610264  0.87344255  1
  Hf  Hf31  1  0.70401945  0.49287642  0.36871561  1
  Hf  Hf32  1  0.49122201  0.10411492  0.12563066  1
  Hf  Hf33  1  0.31211054  0.88718026  0.61369478  1
  Hf  Hf34  1  0.09681808  0.89424243  0.62093248  1
  Hf  Hf35  1  0.38266863  -0.00052647  -0.01230979  1
  Hf  Hf36  1  0.71076317  0.50751179  0.61578931  1
  Hf  Hf37  1  0.18947095  0.20652009  0.50342043  1
  Hf  Hf38  1  0.20016939  0.00130309  0.74362080  1
  Hf  Hf39  1  -0.00204566  0.79949744  0.25021889  1
  Zr  Zr40  1  0.20737310  0.81081225  -0.01054905  1
  Zr  Zr41  1  0.20989034  0.59144270  0.76633972  1
  Zr  Zr42  1  0.68999679  0.30415489  0.61383872  1
  Zr  Zr43  1  0.50319917  0.90585616  0.11412360  1
  Zr  Zr44  1  0.48472292  0.50012471  0.38663396  1
  Zr  Zr45  1  0.07894627  0.29655231  0.88964654  1
  Zr  Zr46  1  0.60423421  0.61136267  0.48939760  1
  Zr  Zr47  1  0.80441974  0.00740466  0.00094296  1
  Zr  Zr48  1  0.27762452  0.50060878  0.37824307  1
  Zr  Zr49  1  -0.02171857  0.58538804  0.00336013  1
  Zr  Zr50  1  0.10681653  0.68748048  0.37572737  1
  Zr  Zr51  1  0.19894396  0.79391327  0.24359826  1
  Zr  Zr52  1  0.53153498  0.69957728  0.87474105  1
  Zr  Zr53  1  0.41482814  0.00800571  0.50752692  1
  Zr  Zr54  1  0.89635159  0.31640637  0.63304530  1
  Zr  Zr55  1  0.10914818  0.30338070  0.11133119  1
  Zr  Zr56  1  0.60469362  0.81350249  0.26422515  1
  Zr  Zr57  1  -0.00437937  0.57331527  0.74720819  1
  Zr  Zr58  1  0.79566811  -0.01248436  0.24768062  1
  Zr  Zr59  1  0.50816662  0.09205766  0.87553483  1
  Zr  Zr60  1  0.70759828  0.32284582  0.87148804  1
  Zr  Zr61  1  0.68933880  0.29182748  0.37949836  1
  Zr  Zr62  1  0.89802846  0.08837214  0.36930889  1
  Zr  Zr63  1  0.19083891  0.40041332  0.76971356  1
  Zr  Zr64  1  0.09802948  0.10169736  0.37598721  1
  Zr  Zr65  1  0.89024993  0.88633420  0.12346930  1
  Zr  Zr66  1  0.88827404  0.89829831  0.63084835  1
  Zr  Zr67  1  0.00832823  -0.00079875  0.00331384  1
  Zr  Zr68  1  0.67149800  0.90234857  0.88932138  1
  Zr  Zr69  1  0.40643099  0.59068928  -0.01376300  1
  Zr  Zr70  1  0.90018792  0.30300510  0.36539682  1
  Zr  Zr71  1  0.41039622  -0.01447329  0.74794155  1
  Zr  Zr72  1  -0.00285849  0.79210563  -0.00255441  1
  Zr  Zr73  1  0.00380361  0.59128943  0.50872226  1
  Zr  Zr74  1  0.19990795  0.00043744  0.25072203  1
  Zr  Zr75  1  0.51061192  0.10909234  0.37727096  1
  Zr  Zr76  1  0.61408758  0.58484912  0.01100893  1
  Zr  Zr77  1  0.79953724  0.18955203  0.49977036  1
  Zr  Zr78  1  0.69276028  0.09517321  0.12590617  1
  Zr  Zr79  1  0.80886398  0.21900246  0.01261925  1
  Ta  Ta80  1  0.10453445  0.49707411  0.10808511  1
  Ta  Ta81  1  -0.00999359  0.19219307  0.01600729  1
  Ta  Ta82  1  0.09789666  0.09863337  0.62339402  1
  Ta  Ta83  1  0.00880873  0.59862470  0.23686820  1
  Ta  Ta84  1  0.00323276  0.20080872  0.75191539  1
  Ta  Ta85  1  0.10043599  0.90554820  0.86969922  1
  Ta  Ta86  1  0.30263861  0.70153402  0.12007833  1
  Ta  Ta87  1  0.09593754  0.29484888  0.63295537  1
  Ta  Ta88  1  0.11449379  0.48638671  0.62412966  1
  Ta  Ta89  1  0.29468297  0.10243738  0.13014781  1
  Ta  Ta90  1  0.49442673  0.30548506  0.39730180  1
  Ta  Ta91  1  0.70150613  0.51852646  0.86953483  1
  Ta  Ta92  1  0.69947215  0.09580876  0.63139402  1
  Ta  Ta93  1  0.79716911  0.42179298  0.01181816  1
  Ta  Ta94  1  0.69696388  0.71259534  0.62017409  1
  Ta  Ta95  1  0.79602579  0.80636297  0.48048576  1
  Ta  Ta96  1  0.80055607  0.20323716  0.23688244  1
  Ta  Ta97  1  0.40196797  0.79778761  -0.01887294  1
  Ta  Ta98  1  0.30075881  0.30836483  0.38586989  1
  Ta  Ta99  1  0.11212650  0.30242229  0.36054552  1
  Ta  Ta100  1  0.30393917  0.30211577  0.12335315  1
  Ta  Ta101  1  -0.00756196  0.79472603  0.49947489  1
  Ta  Ta102  1  0.60191976  0.42013772  0.74539988  1
  Ta  Ta103  1  0.79842544  0.20661398  0.75105021  1
  Ta  Ta104  1  0.81045004  0.41526906  0.49281020  1
  Ta  Ta105  1  0.20391371  0.20545891  0.75524299  1
  Ta  Ta106  1  0.69861032  0.90222152  0.62024928  1
  Ta  Ta107  1  0.30730542  0.49409385  0.11904816  1
  Ta  Ta108  1  0.80683355  0.60958887  0.48558472  1
  Ta  Ta109  1  -0.00132886  -0.00061278  0.75430967  1
  Ta  Ta110  1  0.90674322  0.11059586  0.87051234  1
  Ta  Ta111  1  0.80092068  0.79288423  0.27592802  1
  Ta  Ta112  1  0.70318683  0.49984635  0.14720355  1
  Ta  Ta113  1  0.90138284  0.90114735  0.87015235  1
  Ta  Ta114  1  0.20040165  0.78146477  0.51030820  1
  Ta  Ta115  1  -0.00282525  0.79620197  0.75668691  1
  Ta  Ta116  1  0.39433302  0.40508746  0.25032482  1
  Ta  Ta117  1  0.30142920  0.90472406  0.12142321  1
  Ta  Ta118  1  -0.00973546  -0.00159118  0.50349945  1
  Ta  Ta119  1  0.59634284  0.20397624  0.74503925  1
  Ti  Ti120  1  0.10383378  0.69604061  0.11651008  1
  Ti  Ti121  1  0.91069574  0.69299727  0.37409755  1
  Ti  Ti122  1  0.10734558  0.89756301  0.12111665  1
  Ti  Ti123  1  0.38207179  0.60546157  0.50687144  1
  Ti  Ti124  1  0.20068749  0.39848610  0.24087554  1
  Ti  Ti125  1  0.30243468  0.10198145  0.85902016  1
  Ti  Ti126  1  0.09068931  0.49623365  0.36871384  1
  Ti  Ti127  1  0.51429652  0.90098732  0.61498331  1
  Ti  Ti128  1  0.70130490  0.09871701  0.36802134  1
  Ti  Ti129  1  0.60814255  -0.00203739  0.74561182  1
  Ti  Ti130  1  0.79150021  0.59314990  0.74512334  1
  Ti  Ti131  1  0.59597959  0.00223659  0.25537953  1
  Ti  Ti132  1  0.69661434  0.31624896  0.13454424  1
  Ti  Ti133  1  0.58789152  0.80552119  0.74540486  1
  Ti  Ti134  1  0.51271550  0.10237452  0.62571097  1
  Ti  Ti135  1  0.60513387  0.80815996  0.48735003  1
  Ti  Ti136  1  0.89615449  0.68848747  0.13173967  1
  Ti  Ti137  1  0.89306883  0.47020227  0.87184785  1
  Ti  Ti138  1  0.10100983  0.69383886  0.63370869  1
  Ti  Ti139  1  0.88882874  0.67873398  0.86763073  1
  Ti  Ti140  1  0.50192534  0.90747474  0.38367061  1
  Ti  Ti141  1  0.09999714  0.09437257  0.87305889  1
  Ti  Ti142  1  0.62329913  0.00472409  0.49714833  1
  Ti  Ti143  1  0.81549962  0.59209447  0.26493754  1
  Ti  Ti144  1  0.39439780  0.59719249  0.24296186  1
  Ti  Ti145  1  0.22352674  0.39623708  -0.01422536  1
  Ti  Ti146  1  0.39924451  -0.00055989  0.25393931  1
  Ti  Ti147  1  0.79746112  0.00413102  0.76037949  1
  Ti  Ti148  1  0.59789490  0.20731912  0.24454738  1
  Ti  Ti149  1  0.69074044  0.89371433  0.11057969  1
  Ti  Ti150  1  0.49231924  0.70913318  0.38328251  1
  Ti  Ti151  1  0.58643219  0.39902871  0.25390643  1
  Ti  Ti152  1  0.41798448  0.40429811  -0.00636477  1
  Ti  Ti153  1  0.49866334  0.32061194  0.12484757  1
  Ti  Ti154  1  -0.00201407  -0.00564150  0.24072557  1
  Ti  Ti155  1  0.29805348  0.69008021  0.63020026  1
  Ti  Ti156  1  -0.00317986  0.19912289  0.50159869  1
  Ti  Ti157  1  0.08720686  0.48770406  0.89624953  1
  Ti  Ti158  1  0.11003243  0.09216388  0.12453425  1
  Ti  Ti159  1  0.20115022  0.59100491  0.23168274  1
  Mo  Mo160  1  0.41105112  0.79468110  0.49709888  1
  Mo  Mo161  1  0.59227502  0.00431002  0.00410786  1
  Mo  Mo162  1  0.52078693  0.48958182  0.86982172  1
  Mo  Mo163  1  0.80213615  0.41068254  0.74895357  1
  Mo  Mo164  1  0.39482552  0.20442565  0.49683420  1
  Mo  Mo165  1  0.49894342  0.49335192  0.13666653  1
  Mo  Mo166  1  0.70571958  0.69629347  0.86840192  1
  Mo  Mo167  1  0.29809896  0.90518069  0.86919970  1
  Mo  Mo168  1  0.90497978  0.09832461  0.13431358  1
  Mo  Mo169  1  -0.02132992  0.38866358  0.01328857  1
  Mo  Mo170  1  0.89169738  0.30610830  0.13127222  1
  Mo  Mo171  1  0.60454927  0.40492919  0.00972836  1
  Mo  Mo172  1  0.20715920  0.21210534  0.24623965  1
  Mo  Mo173  1  0.31162759  0.49018796  0.88479480  1
  Mo  Mo174  1  0.19894205  0.00230923  -0.00018254  1
  Mo  Mo175  1  0.19747305  0.59847413  0.51421788  1
  Mo  Mo176  1  0.30211039  0.29147444  0.87346066  1
  Mo  Mo177  1  0.90119066  0.50149635  0.62278299  1
  Mo  Mo178  1  0.39832512  0.20063054  0.75100664  1
  Mo  Mo179  1  0.80053448  0.59691197  0.00214385  1
  Mo  Mo180  1  0.49429028  0.89611794  0.87589889  1
  Mo  Mo181  1  -0.00094974  0.39326698  0.75102191  1
  Mo  Mo182  1  0.69889049  0.91237785  0.38139726  1
  Mo  Mo183  1  0.89108633  0.50518561  0.13389052  1
  Mo  Mo184  1  0.89476804  0.29685465  0.87076246  1
  Mo  Mo185  1  0.79946753  -0.00515820  0.49911419  1
  Mo  Mo186  1  0.90705948  0.50482132  0.36952422  1
  Mo  Mo187  1  0.79281601  0.39677014  0.24737210  1
  Mo  Mo188  1  0.31017786  0.70235887  0.87133275  1
  Mo  Mo189  1  0.59506032  0.18545552  0.50552246  1
  Mo  Mo190  1  0.70303522  0.69976911  0.37230435  1
  Mo  Mo191  1  0.90807444  0.89410567  0.37886138  1
  Mo  Mo192  1  0.60556093  0.39954964  0.49655920  1
  Mo  Mo193  1  0.61245888  0.61000564  0.73561530  1
  Mo  Mo194  1  0.39307964  0.40885511  0.49847513  1
  Mo  Mo195  1  0.19145931  -0.00371972  0.51712591  1
  Mo  Mo196  1  0.40187294  0.79451779  0.76351823  1
  Mo  Mo197  1  0.29985478  0.50984498  0.62194501  1
  Mo  Mo198  1  0.18688305  0.40493045  0.49530798  1
  Mo  Mo199  1  0.59731100  0.79578427  0.00728870  1
