# generated using pymatgen
data_HfZrTaTiMo
_symmetry_space_group_name_H-M   'P 1'
_cell_length_a   15.21971110
_cell_length_b   15.20325828
_cell_length_c   16.88357981
_cell_angle_alpha   89.99185182
_cell_angle_beta   90.01178962
_cell_angle_gamma   89.86549927
_symmetry_Int_Tables_number   1
_chemical_formula_structural   HfZrTaTiMo
_chemical_formula_sum   'Hf40 Zr40 Ta40 Ti40 Mo40'
_cell_volume   3906.66711659
_cell_formula_units_Z   40
loop_
 _symmetry_equiv_pos_site_id
 _symmetry_equiv_pos_as_xyz
  1  'x, y, z'
loop_
 _atom_site_type_symbol
 _atom_site_label
 _atom_site_symmetry_multiplicity
 _atom_site_fract_x
 _atom_site_fract_y
 _atom_site_fract_z
 _atom_site_occupancy
  Hf  Hf0  1  0.49415507  0.69545667  0.61172630  1
  Hf  Hf1  1  0.70647484  0.50193689  0.35725953  1
  Hf  Hf2  1  0.39113686  0.79910307  0.25135077  1
  Hf  Hf3  1  0.77949490  0.79298364  0.23241624  1
  Hf  Hf4  1  0.71654406  0.08779239  0.64280890  1
  Hf  Hf5  1  0.28607197  0.90457299  0.37961113  1
  Hf  Hf6  1  0.39328004  0.79797716  0.74672477  1
  Hf  Hf7  1  0.49532172  0.49574391  0.13323206  1
  Hf  Hf8  1  0.10772758  0.29188741  0.12900656  1
  Hf  Hf9  1  0.19669039  0.40373175  0.49764925  1
  Hf  Hf10  1  0.71264885  0.09408171  0.87369116  1
  Hf  Hf11  1  0.19777647  0.60995656  0.24739723  1
  Hf  Hf12  1  0.71989409  0.09617581  0.10809442  1
  Hf  Hf13  1  0.40106634  0.00968270  0.24946099  1
  Hf  Hf14  1  0.60382896  0.40076815  0.48584634  1
  Hf  Hf15  1  0.39072084  0.81089718  0.00945966  1
  Hf  Hf16  1  0.00571358  0.19917596  0.50239959  1
  Hf  Hf17  1  0.50929972  0.49311111  0.62799124  1
  Hf  Hf18  1  0.69730303  0.27269719  0.36797513  1
  Hf  Hf19  1  -0.00436571  0.40407519  0.48983835  1
  Hf  Hf20  1  0.30901552  0.09804147  0.39116711  1
  Hf  Hf21  1  0.88973070  0.91359372  0.36310354  1
  Hf  Hf22  1  0.29571072  0.48717100  0.86251213  1
  Hf  Hf23  1  0.10761101  0.08998710  0.38050423  1
  Hf  Hf24  1  0.70259354  0.49406669  0.14670978  1
  Hf  Hf25  1  0.81048111  0.19096897  0.50327692  1
  Hf  Hf26  1  0.31569565  0.29866480  0.12424324  1
  Hf  Hf27  1  0.52260075  0.10650120  0.38154134  1
  Hf  Hf28  1  0.91209508  0.28892381  0.11255714  1
  Hf  Hf29  1  0.40051495  0.59048114  0.00417948  1
  Hf  Hf30  1  -0.00926605  0.79359644  0.74859355  1
  Hf  Hf31  1  0.51270697  0.48980785  0.87158969  1
  Hf  Hf32  1  0.89049471  0.69450766  0.88988721  1
  Hf  Hf33  1  0.18118032  0.60806766  0.75395198  1
  Hf  Hf34  1  0.39635980  0.60281358  0.25175185  1
  Hf  Hf35  1  0.89359191  0.90461362  0.89065228  1
  Hf  Hf36  1  0.79872653  0.59983962  0.49264694  1
  Hf  Hf37  1  0.40318057  0.40252758  0.50391616  1
  Hf  Hf38  1  0.31382340  0.28141182  0.86962996  1
  Hf  Hf39  1  -0.00289811  0.01935619  0.01147565  1
  Zr  Zr40  1  0.70407870  0.31668947  0.63604368  1
  Zr  Zr41  1  0.48725531  0.10428827  0.87655794  1
  Zr  Zr42  1  0.29821775  0.89320560  0.61282525  1
  Zr  Zr43  1  0.88256243  0.71160445  0.36528240  1
  Zr  Zr44  1  0.42685391  0.21337255  0.25729483  1
  Zr  Zr45  1  0.80786808  0.62004336  0.74501190  1
  Zr  Zr46  1  0.28863693  0.70367505  0.88461745  1
  Zr  Zr47  1  0.10564554  0.31386455  0.63351682  1
  Zr  Zr48  1  0.60845813  0.21183679  -0.01220450  1
  Zr  Zr49  1  0.60750449  0.19640460  0.51717740  1
  Zr  Zr50  1  0.40265349  0.59981827  0.75129471  1
  Zr  Zr51  1  0.50136142  0.69911497  0.88324874  1
  Zr  Zr52  1  0.69410740  0.72507367  0.60731855  1
  Zr  Zr53  1  0.20104231  0.59748587  0.49801606  1
  Zr  Zr54  1  0.18847679  0.58805851  -0.00142810  1
  Zr  Zr55  1  0.08208218  0.49692278  0.13816607  1
  Zr  Zr56  1  0.08688680  0.70948453  0.37578180  1
  Zr  Zr57  1  0.59671862  0.79338665  0.75703057  1
  Zr  Zr58  1  0.18879427  0.38801028  -0.01030769  1
  Zr  Zr59  1  0.60107737  0.62188799  0.25840570  1
  Zr  Zr60  1  0.59245198  0.21499578  0.74844740  1
  Zr  Zr61  1  0.91524147  0.50859581  0.34662973  1
  Zr  Zr62  1  0.29571812  0.90304011  0.87237847  1
  Zr  Zr63  1  0.27964165  0.91106519  0.13352656  1
  Zr  Zr64  1  0.00376328  0.19907115  0.74584885  1
  Zr  Zr65  1  0.70737449  0.51101416  0.62107328  1
  Zr  Zr66  1  0.28807650  0.49619841  0.64031487  1
  Zr  Zr67  1  0.31159418  0.30206290  0.37832107  1
  Zr  Zr68  1  0.51889989  0.30276558  0.11967320  1
  Zr  Zr69  1  -0.00263384  0.60229417  0.50331235  1
  Zr  Zr70  1  0.59922378  -0.01306996  0.75513790  1
  Zr  Zr71  1  0.39849729  0.17893926  0.73095535  1
  Zr  Zr72  1  0.09617461  0.71083024  0.61992503  1
  Zr  Zr73  1  0.80630075  0.40355409  0.00702046  1
  Zr  Zr74  1  0.00216406  0.20835104  0.26458316  1
  Zr  Zr75  1  -0.00515653  0.00352043  0.24161173  1
  Zr  Zr76  1  0.21331487  0.18079781  0.00048047  1
  Zr  Zr77  1  0.08440244  0.70074872  0.88832685  1
  Zr  Zr78  1  0.81844548  0.37249201  0.25428749  1
  Zr  Zr79  1  0.71429889  0.31415872  0.86280614  1
  Ta  Ta80  1  0.69504873  0.88720861  0.37427700  1
  Ta  Ta81  1  0.58599126  0.81428827  0.24668420  1
  Ta  Ta82  1  0.41985076  0.38047933  0.74790033  1
  Ta  Ta83  1  0.20881738  0.39412047  0.25199311  1
  Ta  Ta84  1  0.58949740  0.00048659  -0.00200829  1
  Ta  Ta85  1  0.88342219  0.91155963  0.12036342  1
  Ta  Ta86  1  0.90418544  0.11115886  0.88149007  1
  Ta  Ta87  1  0.79334202  0.82752945  0.75120105  1
  Ta  Ta88  1  0.92611525  0.31177999  0.88520684  1
  Ta  Ta89  1  0.49578733  0.91123388  0.12487349  1
  Ta  Ta90  1  0.08342154  0.91900397  0.61350984  1
  Ta  Ta91  1  0.69753435  0.89588659  0.89419731  1
  Ta  Ta92  1  0.20280972  0.19244755  0.74330056  1
  Ta  Ta93  1  0.09747270  0.70755589  0.11689591  1
  Ta  Ta94  1  0.18947618  0.00306047  0.74010340  1
  Ta  Ta95  1  0.81104973  0.16646252  0.25369463  1
  Ta  Ta96  1  0.71049901  0.51633184  0.87510345  1
  Ta  Ta97  1  0.19201126  -0.01299067  0.00136877  1
  Ta  Ta98  1  0.59301264  0.79943348  0.00567811  1
  Ta  Ta99  1  0.40858245  0.20109270  0.51488776  1
  Ta  Ta100  1  0.29073912  0.70107396  0.11898482  1
  Ta  Ta101  1  0.79397781  0.59648877  0.01709107  1
  Ta  Ta102  1  0.11619182  0.09134526  0.13420935  1
  Ta  Ta103  1  0.61534840  -0.01430378  0.50558110  1
  Ta  Ta104  1  0.89987720  0.31365575  0.62496037  1
  Ta  Ta105  1  -0.00644056  -0.00572207  0.75534467  1
  Ta  Ta106  1  0.81168393  -0.01544917  0.50910446  1
  Ta  Ta107  1  0.50513476  0.08315997  0.61965086  1
  Ta  Ta108  1  0.07208674  0.48520088  0.86087523  1
  Ta  Ta109  1  0.18093199  0.81079448  0.25003377  1
  Ta  Ta110  1  0.90206604  0.68937334  0.12538770  1
  Ta  Ta111  1  0.60724721  0.60059425  0.00958294  1
  Ta  Ta112  1  0.38829047  0.01902986  0.01180635  1
  Ta  Ta113  1  0.58986498  0.60840428  0.47417889  1
  Ta  Ta114  1  0.30465189  0.29941519  0.62974339  1
  Ta  Ta115  1  0.09663062  0.90307242  0.87591447  1
  Ta  Ta116  1  0.10213757  0.09966886  0.87368091  1
  Ta  Ta117  1  0.68676975  0.90281972  0.11330991  1
  Ta  Ta118  1  0.20547201  0.19961701  0.51153994  1
  Ta  Ta119  1  0.21592695  0.18637807  0.25077980  1
  Ti  Ti120  1  0.50058729  0.90394597  0.37691994  1
  Ti  Ti121  1  -0.00758728  0.80186775  0.23564097  1
  Ti  Ti122  1  0.29704585  0.49475515  0.12785932  1
  Ti  Ti123  1  0.29521129  0.08618226  0.86741718  1
  Ti  Ti124  1  0.29757431  0.49997964  0.36812990  1
  Ti  Ti125  1  0.79114056  0.79240147  0.01601980  1
  Ti  Ti126  1  0.70884004  0.28679248  0.13291397  1
  Ti  Ti127  1  0.19067889  0.80506065  0.49990138  1
  Ti  Ti128  1  0.80612413  0.39466239  0.48670168  1
  Ti  Ti129  1  -0.02894320  0.82085905  0.50456983  1
  Ti  Ti130  1  0.00063099  0.81154143  0.01383082  1
  Ti  Ti131  1  0.18985833  0.81088492  0.74315675  1
  Ti  Ti132  1  0.49815566  0.70625571  0.12229488  1
  Ti  Ti133  1  0.61207777  0.00839699  0.24516951  1
  Ti  Ti134  1  0.69965017  0.70478528  0.88404962  1
  Ti  Ti135  1  0.39811468  0.59729888  0.48626948  1
  Ti  Ti136  1  0.10999257  0.30108765  0.37279057  1
  Ti  Ti137  1  0.60715748  0.59942852  0.75106480  1
  Ti  Ti138  1  0.41053599  0.38641006  -0.00986314  1
  Ti  Ti139  1  0.49289165  0.90343033  0.88387971  1
  Ti  Ti140  1  -0.01607420  0.57477133  0.00480648  1
  Ti  Ti141  1  0.29735128  0.69794007  0.61606817  1
  Ti  Ti142  1  0.82108486  0.41955578  0.75395100  1
  Ti  Ti143  1  0.29223586  0.70298399  0.37775695  1
  Ti  Ti144  1  0.40250985  0.79379804  0.48640831  1
  Ti  Ti145  1  0.50876259  0.10748365  0.12288862  1
  Ti  Ti146  1  0.58993709  0.37934859  0.26171571  1
  Ti  Ti147  1  0.81633414  0.20459820  0.74959495  1
  Ti  Ti148  1  0.41191549  -0.00623583  0.50229526  1
  Ti  Ti149  1  0.61017623  0.41076794  0.00005108  1
  Ti  Ti150  1  0.07527253  0.50246507  0.64446519  1
  Ti  Ti151  1  0.89324350  0.70725315  0.61772740  1
  Ti  Ti152  1  0.91668741  0.08408291  0.62865674  1
  Ti  Ti153  1  0.08923146  0.90217623  0.38658739  1
  Ti  Ti154  1  0.71798287  0.07389615  0.37585680  1
  Ti  Ti155  1  0.49106795  0.49100123  0.36389343  1
  Ti  Ti156  1  0.39596661  -0.01135345  0.73881667  1
  Ti  Ti157  1  0.29371432  0.08718862  0.61155995  1
  Ti  Ti158  1  0.50833226  0.88979690  0.61577428  1
  Ti  Ti159  1  0.10459021  0.50089935  0.35862458  1
  Mo  Mo160  1  0.50283378  0.30563308  0.88090562  1
  Mo  Mo161  1  0.89627659  0.09960532  0.38275339  1
  Mo  Mo162  1  0.90247939  0.29372378  0.38264548  1
  Mo  Mo163  1  0.00416783  0.61502699  0.24279422  1
  Mo  Mo164  1  0.61028777  0.41295158  0.75380983  1
  Mo  Mo165  1  0.79862298  -0.00437907  -0.00196955  1
  Mo  Mo166  1  0.62029911  0.18853814  0.24550898  1
  Mo  Mo167  1  0.69612097  0.90575094  0.62600421  1
  Mo  Mo168  1  0.00672021  0.40254310  -0.00037938  1
  Mo  Mo169  1  0.01841885  0.20774235  -0.00871985  1
  Mo  Mo170  1  0.40810392  0.19566216  0.00257098  1
  Mo  Mo171  1  0.89577890  0.49557329  0.61793585  1
  Mo  Mo172  1  0.80058447  0.60083797  0.23422605  1
  Mo  Mo173  1  0.49989076  0.30001823  0.62290580  1
  Mo  Mo174  1  0.78947963  0.80792425  0.49649708  1
  Mo  Mo175  1  0.50779782  0.30040684  0.37999858  1
  Mo  Mo176  1  0.69094277  0.70625273  0.37750620  1
  Mo  Mo177  1  0.30681829  0.10382677  0.13125815  1
  Mo  Mo178  1  0.90064419  0.49820826  0.14089110  1
  Mo  Mo179  1  0.78862490  -0.00890161  0.24370645  1
  Mo  Mo180  1  -0.00661150  0.00480245  0.49792729  1
  Mo  Mo181  1  0.58496036  0.80629401  0.48902828  1
  Mo  Mo182  1  0.19579961  0.00084574  0.50630451  1
  Mo  Mo183  1  0.89294833  0.89793573  0.63035393  1
  Mo  Mo184  1  0.89098107  0.50135769  0.87901314  1
  Mo  Mo185  1  0.10429407  0.09954903  0.62371335  1
  Mo  Mo186  1  -0.01642183  0.59650110  0.74560280  1
  Mo  Mo187  1  0.19993191  0.39200115  0.76067413  1
  Mo  Mo188  1  0.11085541  0.29582685  0.86279675  1
  Mo  Mo189  1  0.39980145  0.40869963  0.25186868  1
  Mo  Mo190  1  0.19633823  0.00017463  0.25680614  1
  Mo  Mo191  1  -0.00762437  0.40048979  0.74772457  1
  Mo  Mo192  1  0.18848975  0.80252456  0.00466899  1
  Mo  Mo193  1  0.01623334  0.39441414  0.25951067  1
  Mo  Mo194  1  0.81249426  0.00505169  0.75710657  1
  Mo  Mo195  1  0.08807402  0.89721028  0.12536149  1
  Mo  Mo196  1  0.69096834  0.70276046  0.11751360  1
  Mo  Mo197  1  0.90725954  0.10673235  0.12023100  1
  Mo  Mo198  1  0.81890850  0.19671713  -0.00895439  1
  Mo  Mo199  1  0.48804295  0.70957230  0.37706271  1
