# generated using pymatgen
data_HfZrTaTiMo
_symmetry_space_group_name_H-M   'P 1'
_cell_length_a   15.19804577
_cell_length_b   15.22830989
_cell_length_c   16.84324897
_cell_angle_alpha   90.09688728
_cell_angle_beta   90.01309596
_cell_angle_gamma   90.18718803
_symmetry_Int_Tables_number   1
_chemical_formula_structural   HfZrTaTiMo
_chemical_formula_sum   'Hf40 Zr40 Ta40 Ti40 Mo40'
_cell_volume   3898.18433561
_cell_formula_units_Z   40
loop_
 _symmetry_equiv_pos_site_id
 _symmetry_equiv_pos_as_xyz
  1  'x, y, z'
loop_
 _atom_site_type_symbol
 _atom_site_label
 _atom_site_symmetry_multiplicity
 _atom_site_fract_x
 _atom_site_fract_y
 _atom_site_fract_z
 _atom_site_occupancy
  Hf  Hf0  1  0.51489767  0.52765377  0.86681871  1
  Hf  Hf1  1  0.19413063  0.79507627  -0.00114061  1
  Hf  Hf2  1  0.60328721  -0.00256378  -0.01168517  1
  Hf  Hf3  1  0.69490210  0.29518300  0.13174465  1
  Hf  Hf4  1  0.80562700  0.22975117  0.73482677  1
  Hf  Hf5  1  0.71196190  0.31819413  0.60163668  1
  Hf  Hf6  1  -0.02633562  0.58813345  0.74381548  1
  Hf  Hf7  1  0.19647998  0.59612846  0.51136710  1
  Hf  Hf8  1  0.90924007  0.49470775  0.13069626  1
  Hf  Hf9  1  0.81124886  -0.00240371  0.26484431  1
  Hf  Hf10  1  0.49945776  0.10328862  0.87406015  1
  Hf  Hf11  1  0.19451372  -0.00466174  0.25229045  1
  Hf  Hf12  1  0.62307794  0.42177742  0.74095260  1
  Hf  Hf13  1  0.19359425  0.20166379  0.25336438  1
  Hf  Hf14  1  0.08388723  0.08033264  0.11893579  1
  Hf  Hf15  1  0.59929273  0.60122602  0.01191761  1
  Hf  Hf16  1  0.38411238  0.41479408  0.76643244  1
  Hf  Hf17  1  0.49849747  0.71814758  0.39205831  1
  Hf  Hf18  1  0.69574650  0.08743178  0.13062707  1
  Hf  Hf19  1  0.38602531  -0.00918626  0.76675412  1
  Hf  Hf20  1  0.31149406  0.50616582  0.12510575  1
  Hf  Hf21  1  0.09996070  0.09452943  0.88066268  1
  Hf  Hf22  1  0.90261931  0.32183544  0.88328173  1
  Hf  Hf23  1  0.31360061  0.70598874  0.61665008  1
  Hf  Hf24  1  0.40445274  0.80297393  0.24766165  1
  Hf  Hf25  1  0.70256595  0.30454817  0.87548406  1
  Hf  Hf26  1  0.08692661  0.68929162  0.86210433  1
  Hf  Hf27  1  0.09053207  0.88217054  0.36399445  1
  Hf  Hf28  1  0.62113557  0.61061742  0.50947242  1
  Hf  Hf29  1  0.09873960  0.09047590  0.62516099  1
  Hf  Hf30  1  0.79856997  0.40193169  0.01145198  1
  Hf  Hf31  1  0.30377741  0.69831587  0.87439442  1
  Hf  Hf32  1  0.29984381  0.09932862  0.37415680  1
  Hf  Hf33  1  0.18859117  -0.00104934  0.49257541  1
  Hf  Hf34  1  0.30380353  0.30870657  0.37114071  1
  Hf  Hf35  1  0.69932720  0.10237539  0.85574779  1
  Hf  Hf36  1  0.07821615  0.49257351  0.88335720  1
  Hf  Hf37  1  0.68471610  0.49288093  0.14538645  1
  Hf  Hf38  1  0.80837121  0.80217514  0.25507342  1
  Hf  Hf39  1  0.78643782  -0.01689634  0.49510511  1
  Zr  Zr40  1  0.88909024  0.29783885  0.39676493  1
  Zr  Zr41  1  0.29665859  0.10317454  0.11576084  1
  Zr  Zr42  1  0.89194673  0.88396806  0.62602484  1
  Zr  Zr43  1  0.43280434  0.41612400  0.26333810  1
  Zr  Zr44  1  0.79576600  0.19682550  0.25568120  1
  Zr  Zr45  1  0.89091519  0.08846710  0.85811906  1
  Zr  Zr46  1  0.48981418  0.10180439  0.63762809  1
  Zr  Zr47  1  0.21610231  0.79950534  0.74504796  1
  Zr  Zr48  1  0.50228938  0.32104761  0.11832440  1
  Zr  Zr49  1  0.30685223  0.89952923  0.12059486  1
  Zr  Zr50  1  0.49647481  0.31837583  0.62885378  1
  Zr  Zr51  1  0.09871185  0.29782772  0.11423540  1
  Zr  Zr52  1  0.50470423  0.90506354  0.63266687  1
  Zr  Zr53  1  0.50720283  0.31027943  0.87212330  1
  Zr  Zr54  1  0.39964412  0.20717119  0.50211488  1
  Zr  Zr55  1  0.29148370  0.30593497  0.62296127  1
  Zr  Zr56  1  0.80279311  0.61039046  0.00926159  1
  Zr  Zr57  1  0.58108046  0.60433503  0.24804311  1
  Zr  Zr58  1  0.10395744  0.68248425  0.37081663  1
  Zr  Zr59  1  0.00359792  0.20385973  0.75172568  1
  Zr  Zr60  1  0.09365813  0.30856636  0.37699351  1
  Zr  Zr61  1  0.68790584  0.29400900  0.38748227  1
  Zr  Zr62  1  -0.00843780  0.17258876  0.26172425  1
  Zr  Zr63  1  0.08752110  0.30384542  0.61396456  1
  Zr  Zr64  1  0.90999441  0.90790569  0.12566349  1
  Zr  Zr65  1  0.51239348  0.90631004  0.11812027  1
  Zr  Zr66  1  0.30148915  0.30844286  0.12175329  1
  Zr  Zr67  1  0.31024935  0.89512042  0.37975479  1
  Zr  Zr68  1  0.70213255  0.70466966  0.36963461  1
  Zr  Zr69  1  0.38959282  0.20415795  0.75904212  1
  Zr  Zr70  1  0.90951136  0.70326027  0.12871555  1
  Zr  Zr71  1  0.91507400  0.49924006  0.37721227  1
  Zr  Zr72  1  0.20170391  0.19898286  0.75518040  1
  Zr  Zr73  1  -0.02002991  0.18483689  0.00138061  1
  Zr  Zr74  1  0.40793360  0.61392721  0.74412088  1
  Zr  Zr75  1  0.09776841  0.88829830  0.86232319  1
  Zr  Zr76  1  0.29963463  0.70442562  0.38463325  1
  Zr  Zr77  1  0.68661479  0.08725668  0.38034549  1
  Zr  Zr78  1  0.89614257  0.09350493  0.62487110  1
  Zr  Zr79  1  0.69121315  0.08194651  0.63817835  1
  Ta  Ta80  1  0.49788694  0.10937439  0.37809930  1
  Ta  Ta81  1  0.30113942  0.49603345  0.62379537  1
  Ta  Ta82  1  0.19247571  0.80078238  0.51169652  1
  Ta  Ta83  1  0.18625212  0.39942835  0.76311411  1
  Ta  Ta84  1  0.80364486  0.59818538  0.24868331  1
  Ta  Ta85  1  0.41811473  0.01210550  0.24942616  1
  Ta  Ta86  1  0.58654588  0.41518699  0.48833692  1
  Ta  Ta87  1  0.20362671  0.40621720  -0.00737784  1
  Ta  Ta88  1  0.09249776  0.69636321  0.63542414  1
  Ta  Ta89  1  0.69760777  0.68808915  0.86990936  1
  Ta  Ta90  1  0.61514158  0.82491377  0.50706242  1
  Ta  Ta91  1  0.49565885  0.10920606  0.11520669  1
  Ta  Ta92  1  0.19933147  0.59792525  -0.00156304  1
  Ta  Ta93  1  0.70187498  0.50188343  0.36882962  1
  Ta  Ta94  1  0.39980619  0.20798139  -0.00560003  1
  Ta  Ta95  1  0.09766937  0.89414096  0.63119030  1
  Ta  Ta96  1  0.60911257  0.79472012  -0.01145030  1
  Ta  Ta97  1  0.40105881  0.20490766  0.24951473  1
  Ta  Ta98  1  0.10423230  0.50060622  0.11691041  1
  Ta  Ta99  1  0.19850551  0.40901111  0.49355194  1
  Ta  Ta100  1  0.81442839  0.78135713  0.76020776  1
  Ta  Ta101  1  0.60731280  0.79435583  0.75586132  1
  Ta  Ta102  1  0.39951960  0.42108215  -0.01633302  1
  Ta  Ta103  1  0.19752664  -0.01002751  -0.00139873  1
  Ta  Ta104  1  -0.00142586  0.18169268  0.49100427  1
  Ta  Ta105  1  0.00076235  0.78761127  0.50621434  1
  Ta  Ta106  1  0.19994072  -0.00017337  0.75011422  1
  Ta  Ta107  1  0.71157025  0.89901998  0.86612569  1
  Ta  Ta108  1  0.09873338  0.29712481  0.89397390  1
  Ta  Ta109  1  0.29745690  0.51008872  0.37350975  1
  Ta  Ta110  1  0.30139384  0.90740666  0.61536997  1
  Ta  Ta111  1  0.89821270  0.29133037  0.12765974  1
  Ta  Ta112  1  0.88752989  0.47943121  0.60629143  1
  Ta  Ta113  1  0.51758038  0.91805319  0.37704735  1
  Ta  Ta114  1  0.80660462  0.00165072  -0.00365053  1
  Ta  Ta115  1  0.58217146  0.19929763  0.25145852  1
  Ta  Ta116  1  -0.00475833  -0.02393273  -0.01030387  1
  Ta  Ta117  1  0.19392249  0.19861117  0.49164181  1
  Ta  Ta118  1  0.91013636  0.70185782  0.37486522  1
  Ta  Ta119  1  0.20125261  0.58575585  0.74546469  1
  Ti  Ti120  1  0.40187811  0.61241553  -0.00528944  1
  Ti  Ti121  1  0.80652217  0.80657589  -0.01511482  1
  Ti  Ti122  1  0.00897797  0.59277145  0.24991127  1
  Ti  Ti123  1  0.29483090  0.09615755  0.89441215  1
  Ti  Ti124  1  -0.00873550  -0.02054256  0.75221425  1
  Ti  Ti125  1  -0.00687318  -0.01565897  0.49056472  1
  Ti  Ti126  1  0.40998413  0.59559568  0.50278012  1
  Ti  Ti127  1  0.39647906  0.60932549  0.25194296  1
  Ti  Ti128  1  0.49284792  0.70860185  0.11737844  1
  Ti  Ti129  1  0.00189840  0.59151615  0.50650087  1
  Ti  Ti130  1  0.41280827  0.80469504  0.76329854  1
  Ti  Ti131  1  0.59861975  0.40974875  -0.00325417  1
  Ti  Ti132  1  0.29438692  0.09614057  0.61946800  1
  Ti  Ti133  1  0.19878322  0.41342384  0.25193456  1
  Ti  Ti134  1  0.09813296  0.88273657  0.13641435  1
  Ti  Ti135  1  0.29077017  0.29883387  0.88794293  1
  Ti  Ti136  1  0.20497745  0.60304255  0.24276650  1
  Ti  Ti137  1  0.30058151  0.70252910  0.11861966  1
  Ti  Ti138  1  0.40953485  0.81567475  -0.01742759  1
  Ti  Ti139  1  0.78039220  0.58797153  0.73852336  1
  Ti  Ti140  1  -0.01566533  0.39410424  0.74313777  1
  Ti  Ti141  1  0.10310620  0.69525422  0.12949569  1
  Ti  Ti142  1  0.71965956  0.50051551  0.87594703  1
  Ti  Ti143  1  0.59552170  0.19491247  0.51021514  1
  Ti  Ti144  1  0.88861255  0.68314952  0.61589176  1
  Ti  Ti145  1  0.00610565  0.39247748  0.24621730  1
  Ti  Ti146  1  0.60049241  0.21206211  0.74070186  1
  Ti  Ti147  1  0.69589096  0.70773332  0.13357502  1
  Ti  Ti148  1  0.50448952  0.51117853  0.62658946  1
  Ti  Ti149  1  0.09690169  0.49440483  0.63062018  1
  Ti  Ti150  1  0.39970168  0.41207463  0.49163337  1
  Ti  Ti151  1  0.80021499  0.78688814  0.49630968  1
  Ti  Ti152  1  0.40974730  -0.00047644  0.49944325  1
  Ti  Ti153  1  0.70845605  0.89356860  0.11733471  1
  Ti  Ti154  1  0.80343467  0.39750050  0.25491699  1
  Ti  Ti155  1  -0.00560878  0.78253087  -0.00718178  1
  Ti  Ti156  1  0.60328805  0.81838289  0.25045862  1
  Ti  Ti157  1  0.60097110  0.20476059  -0.00046836  1
  Ti  Ti158  1  0.79083333  0.19223486  0.00413929  1
  Ti  Ti159  1  0.51386796  0.71238401  0.61780250  1
  Mo  Mo160  1  0.81289328  0.60690729  0.49473231  1
  Mo  Mo161  1  0.70274951  0.51126347  0.61353408  1
  Mo  Mo162  1  0.89910677  0.88397659  0.38577895  1
  Mo  Mo163  1  0.71198227  0.71524765  0.62811151  1
  Mo  Mo164  1  0.30049307  0.90501097  0.88599696  1
  Mo  Mo165  1  0.60805132  0.61431079  0.73327035  1
  Mo  Mo166  1  0.70099627  0.88884874  0.64231194  1
  Mo  Mo167  1  0.79621197  -0.02066605  0.74971094  1
  Mo  Mo168  1  0.00599814  0.78950370  0.24889049  1
  Mo  Mo169  1  0.90009109  0.08654870  0.39240691  1
  Mo  Mo170  1  0.00772281  0.40390112  0.50287391  1
  Mo  Mo171  1  0.29107211  0.50597788  0.87814702  1
  Mo  Mo172  1  0.89377738  0.68748130  0.87552842  1
  Mo  Mo173  1  0.81431748  0.41623248  0.74635951  1
  Mo  Mo174  1  0.50783748  0.89710211  0.87502348  1
  Mo  Mo175  1  0.59522121  -0.01136498  0.76797487  1
  Mo  Mo176  1  0.49829738  0.29816560  0.38394020  1
  Mo  Mo177  1  0.19961306  0.19788910  -0.00405329  1
  Mo  Mo178  1  0.39937647  0.00414636  -0.01109745  1
  Mo  Mo179  1  0.09554621  0.09126515  0.37935507  1
  Mo  Mo180  1  0.20331674  0.78749473  0.23436075  1
  Mo  Mo181  1  -0.00297117  0.78623333  0.73703077  1
  Mo  Mo182  1  0.89177541  0.09650729  0.12020516  1
  Mo  Mo183  1  0.90158760  0.88533938  0.87409750  1
  Mo  Mo184  1  0.49055401  0.51616471  0.11136970  1
  Mo  Mo185  1  0.01007161  0.60343629  0.00587795  1
  Mo  Mo186  1  0.79146344  0.41464999  0.48705102  1
  Mo  Mo187  1  0.59898216  0.00311100  0.24392510  1
  Mo  Mo188  1  0.50861371  0.70830799  0.87914106  1
  Mo  Mo189  1  0.69528714  0.89058482  0.37363871  1
  Mo  Mo190  1  -0.00171275  0.40095038  0.01175032  1
  Mo  Mo191  1  0.80012576  0.19184572  0.51094579  1
  Mo  Mo192  1  0.90099045  0.29717003  0.59879724  1
  Mo  Mo193  1  0.11181787  0.49811574  0.36669387  1
  Mo  Mo194  1  0.49921003  0.51569714  0.38632936  1
  Mo  Mo195  1  0.59228335  0.00445001  0.50543573  1
  Mo  Mo196  1  0.40881380  0.80847653  0.50520830  1
  Mo  Mo197  1  0.60942127  0.39481774  0.27202712  1
  Mo  Mo198  1  0.89243399  0.51296848  0.87986465  1
  Mo  Mo199  1  -0.00357483  -0.01283606  0.25773817  1
