# generated using pymatgen
data_HfZrTaTiMo
_symmetry_space_group_name_H-M   'P 1'
_cell_length_a   15.21810338
_cell_length_b   15.21103272
_cell_length_c   16.84826862
_cell_angle_alpha   90.02058943
_cell_angle_beta   89.97256238
_cell_angle_gamma   90.03506104
_symmetry_Int_Tables_number   1
_chemical_formula_structural   HfZrTaTiMo
_chemical_formula_sum   'Hf40 Zr40 Ta40 Ti40 Mo40'
_cell_volume   3900.08748975
_cell_formula_units_Z   40
loop_
 _symmetry_equiv_pos_site_id
 _symmetry_equiv_pos_as_xyz
  1  'x, y, z'
loop_
 _atom_site_type_symbol
 _atom_site_label
 _atom_site_symmetry_multiplicity
 _atom_site_fract_x
 _atom_site_fract_y
 _atom_site_fract_z
 _atom_site_occupancy
  Hf  Hf0  1  0.09693202  0.71944226  0.37226236  1
  Hf  Hf1  1  -0.00144612  0.59251084  0.00175491  1
  Hf  Hf2  1  0.01195339  0.39204464  -0.00308917  1
  Hf  Hf3  1  0.50014316  0.70039432  0.12344806  1
  Hf  Hf4  1  0.29616769  0.08878167  0.37882702  1
  Hf  Hf5  1  0.49127327  0.70118487  0.87417701  1
  Hf  Hf6  1  0.70680815  0.50347720  0.86442739  1
  Hf  Hf7  1  0.38802733  0.58832236  0.00826549  1
  Hf  Hf8  1  0.59826263  0.59879001  -0.00564620  1
  Hf  Hf9  1  0.88874220  0.70054673  0.38081289  1
  Hf  Hf10  1  0.49957322  0.28781548  0.88287871  1
  Hf  Hf11  1  0.41076777  0.80439063  0.25460808  1
  Hf  Hf12  1  0.89650050  0.10864676  0.61426111  1
  Hf  Hf13  1  0.39156551  0.81059158  0.74397552  1
  Hf  Hf14  1  0.79759510  0.78166567  0.51802964  1
  Hf  Hf15  1  0.21325908  0.41791063  0.01236732  1
  Hf  Hf16  1  0.10833362  0.50484310  0.60740085  1
  Hf  Hf17  1  0.29007545  0.69489726  0.87221851  1
  Hf  Hf18  1  0.30289326  0.69495312  0.36707702  1
  Hf  Hf19  1  0.00577086  0.19680572  0.73733569  1
  Hf  Hf20  1  0.30292165  0.90054185  0.88274475  1
  Hf  Hf21  1  0.60093261  0.79954046  0.50214384  1
  Hf  Hf22  1  0.00362357  0.81872688  0.51815860  1
  Hf  Hf23  1  0.29388749  0.10339564  0.88633487  1
  Hf  Hf24  1  -0.01110988  -0.00516066  0.01491266  1
  Hf  Hf25  1  0.71205004  0.27587151  0.87606632  1
  Hf  Hf26  1  0.59716608  0.59965960  0.24310868  1
  Hf  Hf27  1  -0.00544856  0.59125966  0.26091531  1
  Hf  Hf28  1  0.70277084  0.71205046  0.12009298  1
  Hf  Hf29  1  0.09639574  0.69880546  0.86630628  1
  Hf  Hf30  1  0.29433561  0.70265721  0.14122217  1
  Hf  Hf31  1  0.40595354  0.38732718  0.49376981  1
  Hf  Hf32  1  0.30755701  0.31633036  0.88288534  1
  Hf  Hf33  1  0.40448316  -0.00302711  0.02130489  1
  Hf  Hf34  1  0.40789324  0.01111888  0.24031603  1
  Hf  Hf35  1  0.01683501  0.79598856  0.00518040  1
  Hf  Hf36  1  0.92594603  0.09476078  0.39497406  1
  Hf  Hf37  1  0.50075085  0.08291952  0.87643128  1
  Hf  Hf38  1  0.00352255  -0.00845244  0.72793669  1
  Hf  Hf39  1  0.18859986  0.20206139  0.01127310  1
  Zr  Zr40  1  0.29911001  0.30237400  0.13606627  1
  Zr  Zr41  1  0.51575853  0.49543366  0.62195559  1
  Zr  Zr42  1  0.10394471  0.89696505  0.87148318  1
  Zr  Zr43  1  0.80018209  0.81338929  -0.00787259  1
  Zr  Zr44  1  0.69688253  0.30689907  0.61470747  1
  Zr  Zr45  1  0.70857772  0.29452572  0.12727222  1
  Zr  Zr46  1  0.61029929  0.18280341  0.74286581  1
  Zr  Zr47  1  -0.02159503  0.19011865  -0.00628194  1
  Zr  Zr48  1  0.90755100  0.29262422  0.13198520  1
  Zr  Zr49  1  0.59927541  0.39309896  0.75741097  1
  Zr  Zr50  1  0.50242932  0.28771205  0.13019966  1
  Zr  Zr51  1  0.10899241  0.29702789  0.87195346  1
  Zr  Zr52  1  0.89513561  0.70425396  0.85851988  1
  Zr  Zr53  1  0.58538031  0.21729441  0.48020735  1
  Zr  Zr54  1  0.28501673  0.69860859  0.61778882  1
  Zr  Zr55  1  0.91187957  0.50406485  0.85729167  1
  Zr  Zr56  1  0.18898786  0.38947823  0.26133105  1
  Zr  Zr57  1  0.90400444  0.70495407  0.12749738  1
  Zr  Zr58  1  0.49426588  0.69879132  0.62539281  1
  Zr  Zr59  1  0.50928840  0.69551238  0.37831198  1
  Zr  Zr60  1  -0.03154557  0.00054476  0.23876454  1
  Zr  Zr61  1  0.70911784  0.91727591  0.13483300  1
  Zr  Zr62  1  0.20322335  0.21008803  0.73299078  1
  Zr  Zr63  1  -0.01420033  0.39888316  0.49858624  1
  Zr  Zr64  1  0.59947549  0.39751376  -0.00061310  1
  Zr  Zr65  1  0.50186748  0.09234746  0.60516691  1
  Zr  Zr66  1  0.10272598  0.89379840  0.14680911  1
  Zr  Zr67  1  0.38369959  0.80585989  0.49185267  1
  Zr  Zr68  1  0.21295122  0.00396928  0.74298956  1
  Zr  Zr69  1  0.79177774  0.02812994  -0.00812870  1
  Zr  Zr70  1  0.39786503  0.18782307  0.74556971  1
  Zr  Zr71  1  0.09777039  0.49317610  0.13406948  1
  Zr  Zr72  1  0.71017163  0.89460431  0.37849747  1
  Zr  Zr73  1  0.81737173  -0.02001756  0.50557802  1
  Zr  Zr74  1  0.02167402  0.40321560  0.73676416  1
  Zr  Zr75  1  0.59834083  0.19068316  0.26630020  1
  Zr  Zr76  1  0.81025583  0.40289052  -0.00464967  1
  Zr  Zr77  1  0.51054945  0.49268830  0.37924444  1
  Zr  Zr78  1  0.69811515  0.32512411  0.37634577  1
  Zr  Zr79  1  0.89795762  0.91311624  0.85932368  1
  Ta  Ta80  1  0.48956855  0.29591469  0.62322549  1
  Ta  Ta81  1  0.30847304  0.49403142  0.61036135  1
  Ta  Ta82  1  0.81567396  0.22307155  0.48709253  1
  Ta  Ta83  1  0.79828831  0.40873065  0.25041829  1
  Ta  Ta84  1  0.68680365  0.90674920  0.62624191  1
  Ta  Ta85  1  0.70106609  0.10296389  0.59666465  1
  Ta  Ta86  1  0.69436531  0.70907964  0.85874521  1
  Ta  Ta87  1  0.90030210  0.30051496  0.85385510  1
  Ta  Ta88  1  0.08966897  0.92137384  0.36379131  1
  Ta  Ta89  1  0.90039026  0.69371462  0.63864691  1
  Ta  Ta90  1  0.19403390  -0.00598909  0.01043976  1
  Ta  Ta91  1  0.70111505  0.50503431  0.12393638  1
  Ta  Ta92  1  0.48990722  0.90783962  0.61267365  1
  Ta  Ta93  1  0.21993373  0.41000318  0.73762196  1
  Ta  Ta94  1  0.89222224  0.31447887  0.63341103  1
  Ta  Ta95  1  0.79332051  0.81182363  0.73940247  1
  Ta  Ta96  1  0.62630269  0.59897147  0.50714851  1
  Ta  Ta97  1  0.69645919  0.69158106  0.64549160  1
  Ta  Ta98  1  0.81604771  0.81530031  0.25238807  1
  Ta  Ta99  1  0.10408615  0.69980365  0.14622143  1
  Ta  Ta100  1  0.70765159  0.51895322  0.37476518  1
  Ta  Ta101  1  0.30626047  0.09682526  0.60482363  1
  Ta  Ta102  1  0.09007408  0.08985485  0.87646823  1
  Ta  Ta103  1  0.19375500  0.61596442  0.00912532  1
  Ta  Ta104  1  0.61056413  0.80205212  0.25912298  1
  Ta  Ta105  1  0.19288673  -0.01765208  0.49985829  1
  Ta  Ta106  1  -0.00713750  0.39112518  0.26530038  1
  Ta  Ta107  1  0.38855309  0.58344457  0.74830051  1
  Ta  Ta108  1  0.89255989  0.49880757  0.13042605  1
  Ta  Ta109  1  0.81170602  0.19322432  0.27195090  1
  Ta  Ta110  1  0.12463320  0.50557234  0.87217896  1
  Ta  Ta111  1  0.79443148  0.60747363  0.24850408  1
  Ta  Ta112  1  0.30554451  0.49578097  0.37292980  1
  Ta  Ta113  1  0.00893465  0.19880862  0.25504680  1
  Ta  Ta114  1  0.48230675  0.49398478  0.87228661  1
  Ta  Ta115  1  0.68763749  0.90782910  0.86232394  1
  Ta  Ta116  1  0.19504002  0.18653993  0.25369806  1
  Ta  Ta117  1  0.49722079  0.91791967  0.38293645  1
  Ta  Ta118  1  0.70525310  0.09704616  0.39483062  1
  Ta  Ta119  1  0.20091815  0.59326772  0.26034278  1
  Ti  Ti120  1  0.81001045  0.58633701  0.51463853  1
  Ti  Ti121  1  0.60336101  0.00242720  0.26050920  1
  Ti  Ti122  1  0.58685102  -0.00693565  0.74287094  1
  Ti  Ti123  1  0.79808856  0.60452602  -0.00293501  1
  Ti  Ti124  1  0.89005159  0.49265089  0.37759873  1
  Ti  Ti125  1  0.59596663  0.80602597  -0.00630065  1
  Ti  Ti126  1  0.18338728  0.79823492  0.73628989  1
  Ti  Ti127  1  0.09241472  0.10329332  0.12852509  1
  Ti  Ti128  1  0.29755369  0.90634925  0.61838834  1
  Ti  Ti129  1  0.40039681  0.20176131  0.25965673  1
  Ti  Ti130  1  0.10024179  0.50208912  0.38531982  1
  Ti  Ti131  1  0.28373466  0.89761383  0.36238146  1
  Ti  Ti132  1  0.39282160  0.19923843  0.48708197  1
  Ti  Ti133  1  0.39822689  0.39303708  0.74247236  1
  Ti  Ti134  1  0.60078066  -0.00569048  0.00169170  1
  Ti  Ti135  1  0.51322531  0.89834069  0.12975229  1
  Ti  Ti136  1  -0.00255432  0.60829985  0.50485610  1
  Ti  Ti137  1  0.01203360  0.60452242  0.73586499  1
  Ti  Ti138  1  0.08809540  0.28103731  0.38821325  1
  Ti  Ti139  1  0.29359280  0.09810502  0.12897885  1
  Ti  Ti140  1  0.78197781  0.01528630  0.73716064  1
  Ti  Ti141  1  0.10608042  0.09657094  0.60824789  1
  Ti  Ti142  1  0.20343855  0.39172887  0.49494654  1
  Ti  Ti143  1  0.59159733  0.80520682  0.74447203  1
  Ti  Ti144  1  0.87978943  0.11265300  0.85432259  1
  Ti  Ti145  1  0.39171989  0.79944951  0.00908039  1
  Ti  Ti146  1  0.40549775  0.59569201  0.49980447  1
  Ti  Ti147  1  0.20233814  0.60597951  0.48952517  1
  Ti  Ti148  1  0.40500211  0.19217087  0.01265695  1
  Ti  Ti149  1  0.20095819  0.59425947  0.73988234  1
  Ti  Ti150  1  0.29674284  0.29688693  0.36966315  1
  Ti  Ti151  1  0.49610189  0.89438058  0.87595485  1
  Ti  Ti152  1  0.29286732  0.89825417  0.13479166  1
  Ti  Ti153  1  0.70747601  0.10734699  0.13689310  1
  Ti  Ti154  1  0.59261411  0.40420339  0.24054955  1
  Ti  Ti155  1  0.40707153  0.40344218  0.01418128  1
  Ti  Ti156  1  0.19818109  0.20220365  0.50234584  1
  Ti  Ti157  1  0.60874521  0.17820286  0.00280811  1
  Ti  Ti158  1  0.59080135  0.59908009  0.75689169  1
  Ti  Ti159  1  0.72212829  0.49763384  0.64105701  1
  Mo  Mo160  1  0.60192109  -0.00147507  0.49559733  1
  Mo  Mo161  1  0.79737865  0.20348428  -0.00294601  1
  Mo  Mo162  1  0.10660046  0.10016589  0.38475420  1
  Mo  Mo163  1  0.30007501  0.50288918  0.87335337  1
  Mo  Mo164  1  0.09979629  0.69474141  0.61853932  1
  Mo  Mo165  1  0.39130045  -0.00079901  0.49103773  1
  Mo  Mo166  1  0.19611157  0.80175962  0.49162409  1
  Mo  Mo167  1  0.78992102  0.01263671  0.26686127  1
  Mo  Mo168  1  -0.00056071  0.79683806  0.73107389  1
  Mo  Mo169  1  0.49735897  0.09824686  0.38000902  1
  Mo  Mo170  1  0.00756729  0.20735266  0.51353718  1
  Mo  Mo171  1  0.80496864  0.39479027  0.75243705  1
  Mo  Mo172  1  0.11262810  0.89464116  0.62631360  1
  Mo  Mo173  1  0.90055570  0.30125244  0.37027131  1
  Mo  Mo174  1  0.91431148  0.88958766  0.37786383  1
  Mo  Mo175  1  0.40248093  -0.00552279  0.74578425  1
  Mo  Mo176  1  0.10615338  0.29999499  0.60917022  1
  Mo  Mo177  1  0.20801668  0.80046627  0.00723738  1
  Mo  Mo178  1  0.51525118  0.09025513  0.12330291  1
  Mo  Mo179  1  0.69278681  0.08700850  0.86738254  1
  Mo  Mo180  1  0.20080456  0.80395932  0.25992227  1
  Mo  Mo181  1  0.40035975  0.39689210  0.25837206  1
  Mo  Mo182  1  0.09861828  0.28932997  0.13438013  1
  Mo  Mo183  1  0.80146108  0.19766978  0.73720870  1
  Mo  Mo184  1  0.48748750  0.30503248  0.36072415  1
  Mo  Mo185  1  0.60576643  0.41365511  0.50452413  1
  Mo  Mo186  1  0.79387845  0.41677199  0.50127698  1
  Mo  Mo187  1  0.90190961  0.50494890  0.63351035  1
  Mo  Mo188  1  0.19824275  0.00892521  0.24433583  1
  Mo  Mo189  1  0.88080174  0.10378408  0.13327431  1
  Mo  Mo190  1  0.79677442  0.60319237  0.74731844  1
  Mo  Mo191  1  0.49911116  0.49577927  0.12885119  1
  Mo  Mo192  1  -0.00447176  0.79801184  0.25625069  1
  Mo  Mo193  1  0.30132651  0.30097492  0.61336949  1
  Mo  Mo194  1  0.39865371  0.58525395  0.24440911  1
  Mo  Mo195  1  0.70380293  0.69642461  0.37387926  1
  Mo  Mo196  1  0.88964288  0.89904376  0.12128444  1
  Mo  Mo197  1  0.89198953  0.89964549  0.64079396  1
  Mo  Mo198  1  0.30522425  0.50581906  0.14353793  1
  Mo  Mo199  1  0.01096578  0.00082796  0.51563434  1
