# generated using pymatgen
data_HfZrTaTiMo
_symmetry_space_group_name_H-M   'P 1'
_cell_length_a   15.21170279
_cell_length_b   15.21560392
_cell_length_c   16.85068807
_cell_angle_alpha   89.96536992
_cell_angle_beta   89.99517600
_cell_angle_gamma   89.98674099
_symmetry_Int_Tables_number   1
_chemical_formula_structural   HfZrTaTiMo
_chemical_formula_sum   'Hf40 Zr40 Ta40 Ti40 Mo40'
_cell_volume   3900.17929890
_cell_formula_units_Z   40
loop_
 _symmetry_equiv_pos_site_id
 _symmetry_equiv_pos_as_xyz
  1  'x, y, z'
loop_
 _atom_site_type_symbol
 _atom_site_label
 _atom_site_symmetry_multiplicity
 _atom_site_fract_x
 _atom_site_fract_y
 _atom_site_fract_z
 _atom_site_occupancy
  Hf  Hf0  1  0.80895177  0.38177868  0.01103681  1
  Hf  Hf1  1  0.79567033  0.40423735  0.50388848  1
  Hf  Hf2  1  0.69121977  0.12223616  0.88553629  1
  Hf  Hf3  1  0.80664352  0.81453471  0.51155712  1
  Hf  Hf4  1  0.40646076  0.80038362  0.25330220  1
  Hf  Hf5  1  0.30251133  0.29362597  0.63109520  1
  Hf  Hf6  1  0.20487179  0.41232314  0.74428563  1
  Hf  Hf7  1  0.00354248  0.39730641  0.73961641  1
  Hf  Hf8  1  0.09349806  0.09524808  0.40536021  1
  Hf  Hf9  1  0.90327156  0.70577719  0.37144070  1
  Hf  Hf10  1  0.67436658  0.30263953  0.35480398  1
  Hf  Hf11  1  0.79928853  -0.00537463  0.75098383  1
  Hf  Hf12  1  0.90790841  0.50078649  0.12238265  1
  Hf  Hf13  1  -0.00012882  0.38945905  0.26085523  1
  Hf  Hf14  1  0.20082705  0.58864123  0.25719434  1
  Hf  Hf15  1  0.00712706  -0.00607547  0.75097707  1
  Hf  Hf16  1  0.39907834  -0.01427585  0.74375448  1
  Hf  Hf17  1  0.70302916  0.29586112  0.14389603  1
  Hf  Hf18  1  0.69779109  0.10662198  0.13740401  1
  Hf  Hf19  1  0.10481075  0.09661372  0.60946318  1
  Hf  Hf20  1  0.41033195  0.18746378  0.00184966  1
  Hf  Hf21  1  0.50537265  0.70685228  0.86409034  1
  Hf  Hf22  1  0.70721145  0.90945619  0.11885305  1
  Hf  Hf23  1  0.80042157  0.41534003  0.25222892  1
  Hf  Hf24  1  0.70577633  0.70265155  0.12386811  1
  Hf  Hf25  1  0.80307591  0.60121792  0.51197050  1
  Hf  Hf26  1  0.19983923  0.18307455  -0.00277822  1
  Hf  Hf27  1  0.51861319  0.28443371  0.87523089  1
  Hf  Hf28  1  0.39039418  0.59118086  0.74413992  1
  Hf  Hf29  1  0.50734460  0.29548603  0.63418940  1
  Hf  Hf30  1  0.89814388  0.28759822  0.86640158  1
  Hf  Hf31  1  0.49088250  0.51006616  0.11767167  1
  Hf  Hf32  1  0.41657540  0.20838544  0.49233642  1
  Hf  Hf33  1  0.69983880  0.90163342  0.37091246  1
  Hf  Hf34  1  0.29864706  0.29150402  0.86580351  1
  Hf  Hf35  1  0.37478689  0.00180306  0.00959385  1
  Hf  Hf36  1  0.18015907  0.00643359  0.26515927  1
  Hf  Hf37  1  0.30292710  0.70194122  0.86482922  1
  Hf  Hf38  1  0.90689258  0.11164668  0.12688830  1
  Hf  Hf39  1  0.57939199  0.02108190  0.00984808  1
  Zr  Zr40  1  0.80675658  0.81327325  0.24956764  1
  Zr  Zr41  1  0.40803062  0.18179296  0.75297296  1
  Zr  Zr42  1  0.90995763  0.70348234  0.12970047  1
  Zr  Zr43  1  0.39926067  0.59705752  0.50360373  1
  Zr  Zr44  1  0.39488423  0.39106547  0.00431145  1
  Zr  Zr45  1  0.59636962  0.82478101  0.74542199  1
  Zr  Zr46  1  0.59526545  0.39557181  0.49889832  1
  Zr  Zr47  1  0.70594799  0.69645959  0.37571636  1
  Zr  Zr48  1  0.49612878  0.49959659  0.88039491  1
  Zr  Zr49  1  0.68943024  0.91284893  0.88568557  1
  Zr  Zr50  1  0.60601526  0.59601791  0.24408936  1
  Zr  Zr51  1  0.09320856  0.28727938  0.12815325  1
  Zr  Zr52  1  0.20573599  0.79657639  0.26471389  1
  Zr  Zr53  1  0.60198405  0.00792615  0.48882915  1
  Zr  Zr54  1  0.18835562  0.80882904  -0.01504786  1
  Zr  Zr55  1  0.90077732  0.49265035  0.87482008  1
  Zr  Zr56  1  0.29271655  0.90212661  0.61278251  1
  Zr  Zr57  1  0.27018419  0.90213932  0.12873155  1
  Zr  Zr58  1  0.91582840  0.91012939  0.11338175  1
  Zr  Zr59  1  0.10465210  0.49827638  0.12411077  1
  Zr  Zr60  1  -0.00813606  0.79401742  0.76744920  1
  Zr  Zr61  1  0.69424651  0.50385599  0.87441168  1
  Zr  Zr62  1  0.50184773  0.50350269  0.63110496  1
  Zr  Zr63  1  0.39147093  0.00547393  0.24738731  1
  Zr  Zr64  1  0.10342868  0.70714176  0.12408153  1
  Zr  Zr65  1  0.29636074  0.70027788  0.63347858  1
  Zr  Zr66  1  0.80558944  0.61077807  -0.00710743  1
  Zr  Zr67  1  0.20505005  0.40383444  0.51014231  1
  Zr  Zr68  1  0.40395113  0.79540009  0.00247042  1
  Zr  Zr69  1  0.79875894  0.40198536  0.73518918  1
  Zr  Zr70  1  0.10211984  0.70542420  0.63582279  1
  Zr  Zr71  1  -0.00529670  0.19920131  -0.00697418  1
  Zr  Zr72  1  0.39696037  0.39144527  0.23957936  1
  Zr  Zr73  1  0.70980602  0.10477758  0.35240227  1
  Zr  Zr74  1  0.90476120  0.28785071  0.61070657  1
  Zr  Zr75  1  0.31110087  0.68010271  0.11620847  1
  Zr  Zr76  1  0.30143256  0.49120855  0.37292040  1
  Zr  Zr77  1  0.50876379  0.69894109  0.38164499  1
  Zr  Zr78  1  0.79556106  0.18973000  0.73841743  1
  Zr  Zr79  1  0.89957882  0.29187455  0.39381940  1
  Ta  Ta80  1  0.89063297  0.89783675  0.88657910  1
  Ta  Ta81  1  0.59617045  0.02887074  0.74883339  1
  Ta  Ta82  1  0.40885959  0.80751210  0.49412236  1
  Ta  Ta83  1  0.20040669  0.59230082  -0.01692453  1
  Ta  Ta84  1  0.40210101  0.60071564  0.25392117  1
  Ta  Ta85  1  0.80766321  0.01798497  -0.00353727  1
  Ta  Ta86  1  0.80745760  0.60847885  0.74698852  1
  Ta  Ta87  1  0.90063056  0.50820635  0.37781280  1
  Ta  Ta88  1  0.19994796  0.79333885  0.49083825  1
  Ta  Ta89  1  0.59529372  0.80409943  0.24135947  1
  Ta  Ta90  1  0.30581674  0.90639106  0.38858195  1
  Ta  Ta91  1  0.49996041  0.71378207  0.62990147  1
  Ta  Ta92  1  0.89632003  0.07903498  0.60678812  1
  Ta  Ta93  1  0.01456337  0.81981859  0.25718414  1
  Ta  Ta94  1  0.70028590  0.50126343  0.12047515  1
  Ta  Ta95  1  0.70754721  0.71328128  0.87447318  1
  Ta  Ta96  1  0.28131740  0.08739478  0.86287268  1
  Ta  Ta97  1  0.01201910  0.60237844  -0.02000807  1
  Ta  Ta98  1  0.60216200  0.80144591  0.00427092  1
  Ta  Ta99  1  0.01992521  0.18445939  0.26300180  1
  Ta  Ta100  1  0.51050318  0.10145800  0.61435031  1
  Ta  Ta101  1  0.19457142  0.60092609  0.49769699  1
  Ta  Ta102  1  0.70046565  0.50623481  0.63093698  1
  Ta  Ta103  1  0.69531362  0.70609207  0.62766423  1
  Ta  Ta104  1  0.19297437  0.39081176  -0.00801996  1
  Ta  Ta105  1  0.30438365  0.09678879  0.60539168  1
  Ta  Ta106  1  0.29491817  0.10022917  0.39509339  1
  Ta  Ta107  1  0.09775687  0.69483830  0.37791575  1
  Ta  Ta108  1  0.10135978  0.51169005  0.62692154  1
  Ta  Ta109  1  0.79699455  0.80215055  0.74294610  1
  Ta  Ta110  1  0.19470324  0.81996923  0.75931203  1
  Ta  Ta111  1  0.00077107  0.79454147  0.50174740  1
  Ta  Ta112  1  0.58971880  -0.00433057  0.24843923  1
  Ta  Ta113  1  0.60372433  0.39450066  0.01214005  1
  Ta  Ta114  1  0.50904378  0.48509845  0.36570663  1
  Ta  Ta115  1  0.90472246  0.69526082  0.63031705  1
  Ta  Ta116  1  0.59092138  0.61015078  0.00366946  1
  Ta  Ta117  1  0.00116677  0.59709331  0.50215052  1
  Ta  Ta118  1  0.10520646  0.29184355  0.39240524  1
  Ta  Ta119  1  -0.00561724  0.79394113  -0.02049229  1
  Ti  Ti120  1  0.70526557  0.30837856  0.87827087  1
  Ti  Ti121  1  0.60821888  0.60782733  0.74711243  1
  Ti  Ti122  1  0.90193799  0.09319452  0.39117485  1
  Ti  Ti123  1  0.10321166  0.29312486  0.86308445  1
  Ti  Ti124  1  0.29226613  0.48936565  0.11706244  1
  Ti  Ti125  1  0.60210179  0.59965695  0.50646087  1
  Ti  Ti126  1  0.29649306  0.49626122  0.87844916  1
  Ti  Ti127  1  0.49767210  0.89831040  0.12322982  1
  Ti  Ti128  1  0.09555868  0.89885476  0.39198005  1
  Ti  Ti129  1  0.40211930  0.40273428  0.49999954  1
  Ti  Ti130  1  0.10490189  0.07986387  0.12709969  1
  Ti  Ti131  1  0.40482389  0.39691062  0.75395378  1
  Ti  Ti132  1  0.82996898  0.20739071  0.25475602  1
  Ti  Ti133  1  0.02198750  -0.00283792  -0.01630367  1
  Ti  Ti134  1  0.60383317  0.39921355  0.75042092  1
  Ti  Ti135  1  0.49080228  0.90995213  0.87894702  1
  Ti  Ti136  1  0.00804249  0.39965512  -0.00661727  1
  Ti  Ti137  1  0.00749003  0.18935197  0.74374862  1
  Ti  Ti138  1  0.50546659  0.28575102  0.12894779  1
  Ti  Ti139  1  0.38730149  0.19483622  0.25237372  1
  Ti  Ti140  1  0.29798020  0.29146833  0.37586261  1
  Ti  Ti141  1  0.19487288  0.38009307  0.25606256  1
  Ti  Ti142  1  0.77875932  0.18588287  0.50167060  1
  Ti  Ti143  1  0.10420842  0.29151696  0.61868541  1
  Ti  Ti144  1  0.90435170  0.91432984  0.37532473  1
  Ti  Ti145  1  0.29602835  0.90494869  0.86941279  1
  Ti  Ti146  1  0.90334037  0.09572980  0.87447445  1
  Ti  Ti147  1  0.28980122  0.28468535  0.12851919  1
  Ti  Ti148  1  0.70276597  0.92078516  0.62042550  1
  Ti  Ti149  1  0.09288226  0.90069606  0.61511776  1
  Ti  Ti150  1  0.30284990  0.69725733  0.38070736  1
  Ti  Ti151  1  -0.00081047  0.59865276  0.25723113  1
  Ti  Ti152  1  0.09466794  0.49508218  0.38122055  1
  Ti  Ti153  1  0.50031492  0.10643286  0.37026862  1
  Ti  Ti154  1  0.00719284  0.59277972  0.76483023  1
  Ti  Ti155  1  0.70073554  0.50578321  0.37291815  1
  Ti  Ti156  1  0.49926343  0.90733916  0.61731358  1
  Ti  Ti157  1  0.00103537  0.40811722  0.50861397  1
  Ti  Ti158  1  0.69238820  0.28852319  0.62072305  1
  Ti  Ti159  1  0.60053113  0.80362060  0.50536815  1
  Mo  Mo160  1  -0.00421935  0.19905528  0.50498834  1
  Mo  Mo161  1  0.39348444  0.59723500  -0.00714234  1
  Mo  Mo162  1  0.50554587  0.70471003  0.12448612  1
  Mo  Mo163  1  0.90898801  0.30086209  0.13573504  1
  Mo  Mo164  1  0.48516150  0.30185035  0.36431426  1
  Mo  Mo165  1  0.19230819  0.00405514  -0.00553068  1
  Mo  Mo166  1  0.60525157  0.21181347  0.01032770  1
  Mo  Mo167  1  0.89344350  0.69929212  0.86982762  1
  Mo  Mo168  1  0.10463948  0.91182649  0.86989583  1
  Mo  Mo169  1  0.59426469  0.40173982  0.23418881  1
  Mo  Mo170  1  0.19998498  0.00760839  0.74058131  1
  Mo  Mo171  1  0.79887714  -0.00143543  0.49768834  1
  Mo  Mo172  1  0.90134751  0.89043499  0.62891462  1
  Mo  Mo173  1  0.50211115  0.90077721  0.37363833  1
  Mo  Mo174  1  0.28615806  0.11031798  0.13286624  1
  Mo  Mo175  1  0.60556426  0.20662390  0.74909433  1
  Mo  Mo176  1  0.08860604  0.90100104  0.12410084  1
  Mo  Mo177  1  0.19230644  0.19714705  0.74454630  1
  Mo  Mo178  1  0.29519560  0.49970302  0.62349194  1
  Mo  Mo179  1  0.49211335  0.10010543  0.13819270  1
  Mo  Mo180  1  0.57058828  0.19423190  0.24780907  1
  Mo  Mo181  1  0.69788546  0.10196644  0.61953257  1
  Mo  Mo182  1  0.81109141  0.01017742  0.25181249  1
  Mo  Mo183  1  0.09689537  0.10798058  0.86111238  1
  Mo  Mo184  1  0.49433617  0.08922578  0.87580072  1
  Mo  Mo185  1  -0.01112663  -0.01882111  0.50713988  1
  Mo  Mo186  1  0.20085267  0.19913875  0.26206530  1
  Mo  Mo187  1  0.40120791  0.80628802  0.74866722  1
  Mo  Mo188  1  0.20142227  -0.01041458  0.49711783  1
  Mo  Mo189  1  0.90931203  0.50703604  0.62862881  1
  Mo  Mo190  1  0.20842348  0.20422920  0.50324803  1
  Mo  Mo191  1  0.79767308  0.20037715  0.00238549  1
  Mo  Mo192  1  0.19097314  0.60004582  0.76562140  1
  Mo  Mo193  1  0.10326019  0.69597033  0.86664502  1
  Mo  Mo194  1  -0.01007123  0.00522746  0.25894785  1
  Mo  Mo195  1  0.40755030  0.00245636  0.49513812  1
  Mo  Mo196  1  0.10468143  0.48698565  0.87656605  1
  Mo  Mo197  1  0.60322524  0.20331384  0.49245996  1
  Mo  Mo198  1  0.79875984  0.80811188  -0.00389213  1
  Mo  Mo199  1  0.81040905  0.59604364  0.25034595  1
