# generated using pymatgen
data_HfZrTaTiMo
_symmetry_space_group_name_H-M   'P 1'
_cell_length_a   15.19914271
_cell_length_b   15.21877280
_cell_length_c   16.86673192
_cell_angle_alpha   90.03260545
_cell_angle_beta   89.96442231
_cell_angle_gamma   90.03838227
_symmetry_Int_Tables_number   1
_chemical_formula_structural   HfZrTaTiMo
_chemical_formula_sum   'Hf40 Zr40 Ta40 Ti40 Mo40'
_cell_volume   3901.48028988
_cell_formula_units_Z   40
loop_
 _symmetry_equiv_pos_site_id
 _symmetry_equiv_pos_as_xyz
  1  'x, y, z'
loop_
 _atom_site_type_symbol
 _atom_site_label
 _atom_site_symmetry_multiplicity
 _atom_site_fract_x
 _atom_site_fract_y
 _atom_site_fract_z
 _atom_site_occupancy
  Hf  Hf0  1  0.09613182  0.89467360  0.88233547  1
  Hf  Hf1  1  0.00400745  0.38081756  0.74639577  1
  Hf  Hf2  1  0.09978934  0.50302595  0.12644415  1
  Hf  Hf3  1  0.69699839  0.69053848  0.87136775  1
  Hf  Hf4  1  0.89922075  0.49398055  0.86255345  1
  Hf  Hf5  1  0.81359821  0.00133715  0.24526531  1
  Hf  Hf6  1  0.08524485  0.10096611  0.87642301  1
  Hf  Hf7  1  0.50727190  0.89347750  0.63403295  1
  Hf  Hf8  1  0.00343440  0.40081905  0.24939728  1
  Hf  Hf9  1  0.30846791  0.50754524  0.13162541  1
  Hf  Hf10  1  0.50283400  0.89483546  0.87188238  1
  Hf  Hf11  1  0.18761870  0.21159810  0.75179683  1
  Hf  Hf12  1  0.48725003  0.08953065  0.36626292  1
  Hf  Hf13  1  0.41198308  0.79492780  0.50191287  1
  Hf  Hf14  1  0.80894665  0.81014685  0.75925382  1
  Hf  Hf15  1  -0.01234362  0.60172470  0.26026098  1
  Hf  Hf16  1  0.48851115  0.08882358  0.63701807  1
  Hf  Hf17  1  0.00013280  0.80013488  0.51570649  1
  Hf  Hf18  1  0.30660183  0.29156765  0.11448342  1
  Hf  Hf19  1  0.60736112  0.39808345  0.73335467  1
  Hf  Hf20  1  0.59901255  0.20411127  0.74135307  1
  Hf  Hf21  1  0.09970823  0.30031951  0.89285545  1
  Hf  Hf22  1  0.30362619  0.70122749  0.37469587  1
  Hf  Hf23  1  0.69246547  0.70991652  0.36963340  1
  Hf  Hf24  1  0.30883330  0.30564733  0.61464718  1
  Hf  Hf25  1  0.20749925  0.00742243  0.75366744  1
  Hf  Hf26  1  0.70423537  0.70832364  0.62833106  1
  Hf  Hf27  1  0.19260167  0.59744651  0.26246150  1
  Hf  Hf28  1  0.81198194  0.38976135  0.26643351  1
  Hf  Hf29  1  0.20623993  0.41275266  0.49433006  1
  Hf  Hf30  1  0.68806421  0.09532266  0.35884261  1
  Hf  Hf31  1  0.20302092  0.61729855  0.00256082  1
  Hf  Hf32  1  0.60438949  0.00688091  -0.00678829  1
  Hf  Hf33  1  0.71127495  0.91289607  0.63350600  1
  Hf  Hf34  1  0.38379865  0.20554981  0.75704383  1
  Hf  Hf35  1  0.29930338  0.29403789  0.38346928  1
  Hf  Hf36  1  0.30176128  0.90020214  0.87631648  1
  Hf  Hf37  1  0.79340092  0.58812849  0.27175984  1
  Hf  Hf38  1  0.70358368  0.50534471  0.61176682  1
  Hf  Hf39  1  0.80936662  0.80243349  0.50171759  1
  Zr  Zr40  1  0.61367313  0.41675157  0.27259169  1
  Zr  Zr41  1  -0.00651777  0.00580288  0.50397366  1
  Zr  Zr42  1  0.49121664  0.10772666  0.13200023  1
  Zr  Zr43  1  -0.01134980  0.19764168  0.24437997  1
  Zr  Zr44  1  0.90615360  0.50356906  0.62795599  1
  Zr  Zr45  1  0.10763365  0.28718927  0.11722092  1
  Zr  Zr46  1  0.12032886  0.89284826  0.11411781  1
  Zr  Zr47  1  0.69719375  0.69517100  0.12995930  1
  Zr  Zr48  1  0.71294931  0.29062819  0.38738153  1
  Zr  Zr49  1  0.21263034  0.40318541  0.75475525  1
  Zr  Zr50  1  0.00465188  0.78260084  0.00568931  1
  Zr  Zr51  1  0.59737720  0.19052428  0.51003696  1
  Zr  Zr52  1  0.58614132  0.21144953  0.00657044  1
  Zr  Zr53  1  0.31182936  0.50390175  0.87912063  1
  Zr  Zr54  1  0.48791953  0.69351148  0.14310686  1
  Zr  Zr55  1  0.00086209  0.79996822  0.23679243  1
  Zr  Zr56  1  0.50205260  0.90115996  0.12834716  1
  Zr  Zr57  1  0.71170378  0.30356875  0.60543999  1
  Zr  Zr58  1  0.89663177  0.10862956  0.37301923  1
  Zr  Zr59  1  0.90729022  0.91529438  0.10644195  1
  Zr  Zr60  1  0.70568661  0.90160302  0.11576225  1
  Zr  Zr61  1  -0.00715969  0.59720216  0.48847466  1
  Zr  Zr62  1  -0.00806376  0.58859651  -0.00116260  1
  Zr  Zr63  1  0.60442292  0.59141166  -0.00019602  1
  Zr  Zr64  1  -0.00372388  0.79201378  0.74140082  1
  Zr  Zr65  1  0.57818890  0.60262154  0.73285046  1
  Zr  Zr66  1  0.88985514  0.28855946  0.88127120  1
  Zr  Zr67  1  0.89014211  0.09692475  0.62860418  1
  Zr  Zr68  1  0.40521567  0.40077994  0.25306380  1
  Zr  Zr69  1  0.10174701  0.90554732  0.37656388  1
  Zr  Zr70  1  0.20108911  0.80004217  0.73798888  1
  Zr  Zr71  1  0.50211412  0.30602471  0.87141186  1
  Zr  Zr72  1  0.38906163  0.79179497  0.00136523  1
  Zr  Zr73  1  0.41980899  0.39847922  0.00896904  1
  Zr  Zr74  1  0.50879878  0.89457429  0.36221375  1
  Zr  Zr75  1  0.58132169  0.61463993  0.50118393  1
  Zr  Zr76  1  0.50061808  0.29151873  0.37878403  1
  Zr  Zr77  1  0.20865564  -0.00015090  0.50269952  1
  Zr  Zr78  1  0.39980714  0.78065586  0.74407114  1
  Zr  Zr79  1  0.70579639  0.11962906  0.87285415  1
  Ta  Ta80  1  0.30353887  0.68790867  0.61142098  1
  Ta  Ta81  1  0.39627790  0.01018269  -0.00107513  1
  Ta  Ta82  1  0.29494387  0.09867927  0.62641359  1
  Ta  Ta83  1  0.78850284  0.20218279  0.01470157  1
  Ta  Ta84  1  0.28321539  0.09906481  0.11990166  1
  Ta  Ta85  1  0.20558130  0.80821957  0.25735673  1
  Ta  Ta86  1  0.20747428  0.60433629  0.74929087  1
  Ta  Ta87  1  0.09316387  0.10941214  0.63267100  1
  Ta  Ta88  1  0.59778613  0.79387487  -0.00651580  1
  Ta  Ta89  1  -0.00616969  -0.00376325  0.74820110  1
  Ta  Ta90  1  0.28467887  0.70960860  0.13956989  1
  Ta  Ta91  1  -0.00685703  0.39529668  0.00760867  1
  Ta  Ta92  1  0.19262688  0.19537535  0.50441433  1
  Ta  Ta93  1  0.78728352  -0.00414405  0.49282892  1
  Ta  Ta94  1  0.88813665  0.30487605  0.12109614  1
  Ta  Ta95  1  0.60498706  -0.00225771  0.76242281  1
  Ta  Ta96  1  0.37970631  0.19608048  0.24885180  1
  Ta  Ta97  1  0.31146274  0.90574070  0.37515323  1
  Ta  Ta98  1  0.58460746  0.41082708  0.49623847  1
  Ta  Ta99  1  0.10282456  0.90881682  0.62646749  1
  Ta  Ta100  1  0.91277895  0.29889819  0.60703870  1
  Ta  Ta101  1  0.10398678  0.68670352  0.62034492  1
  Ta  Ta102  1  0.20107717  0.00827697  0.25008711  1
  Ta  Ta103  1  0.10153100  0.29149019  0.38034820  1
  Ta  Ta104  1  0.10985789  0.69467890  0.87023018  1
  Ta  Ta105  1  0.20347968  0.38797293  0.25669728  1
  Ta  Ta106  1  0.79688255  0.40844591  0.00089360  1
  Ta  Ta107  1  -0.01738851  0.18080776  0.01046854  1
  Ta  Ta108  1  0.61017284  0.81060107  0.49980359  1
  Ta  Ta109  1  0.90095264  0.89591725  0.36975566  1
  Ta  Ta110  1  0.39438733  0.18409982  0.50491891  1
  Ta  Ta111  1  0.50992423  0.50287119  0.87007881  1
  Ta  Ta112  1  0.48529634  0.09559099  0.86628080  1
  Ta  Ta113  1  0.71954632  0.50000551  0.12828923  1
  Ta  Ta114  1  0.08769531  0.08527125  0.12618670  1
  Ta  Ta115  1  0.59487633  -0.00451981  0.50024686  1
  Ta  Ta116  1  0.80686448  0.22207557  0.74289876  1
  Ta  Ta117  1  0.70400013  0.48809878  0.86332707  1
  Ta  Ta118  1  0.48588243  0.68834222  0.87536961  1
  Ta  Ta119  1  0.52051618  0.49765319  0.13749673  1
  Ti  Ti120  1  0.30334693  0.50541111  0.62287211  1
  Ti  Ti121  1  0.92032697  0.30584427  0.40056974  1
  Ti  Ti122  1  0.31171643  0.90705036  0.62308301  1
  Ti  Ti123  1  0.60490552  0.80601357  0.24387164  1
  Ti  Ti124  1  0.81104583  0.41552283  0.48764452  1
  Ti  Ti125  1  0.70862255  0.90219273  0.88574481  1
  Ti  Ti126  1  0.39243696  -0.00472661  0.24342503  1
  Ti  Ti127  1  0.69017945  0.30963548  0.13287462  1
  Ti  Ti128  1  0.70399645  0.90308305  0.36494031  1
  Ti  Ti129  1  0.70183264  0.10093926  0.13188498  1
  Ti  Ti130  1  0.59370507  0.20847595  0.24240807  1
  Ti  Ti131  1  0.41284165  0.40869636  0.73988245  1
  Ti  Ti132  1  0.39336630  0.57866597  0.48902581  1
  Ti  Ti133  1  0.10097864  0.50142431  0.87562973  1
  Ti  Ti134  1  0.61237477  0.40059918  0.00133243  1
  Ti  Ti135  1  0.69833645  0.09781840  0.63178596  1
  Ti  Ti136  1  0.88889287  0.67593843  0.11983696  1
  Ti  Ti137  1  0.09957578  0.10582700  0.36817682  1
  Ti  Ti138  1  0.20210391  0.79957982  0.50705246  1
  Ti  Ti139  1  0.20020860  0.00769421  -0.00552303  1
  Ti  Ti140  1  0.89981284  0.91634972  0.89463951  1
  Ti  Ti141  1  0.09290540  0.71196113  0.37953461  1
  Ti  Ti142  1  0.90312678  0.69404325  0.87598235  1
  Ti  Ti143  1  0.60476483  0.79826501  0.75664101  1
  Ti  Ti144  1  0.79863398  0.78502256  -0.00630511  1
  Ti  Ti145  1  0.10830004  0.49929652  0.62429259  1
  Ti  Ti146  1  0.80414903  0.00898910  0.76444938  1
  Ti  Ti147  1  0.20257935  0.40615167  -0.00004594  1
  Ti  Ti148  1  0.80912817  0.79269149  0.24706410  1
  Ti  Ti149  1  0.19690253  0.60411462  0.48887497  1
  Ti  Ti150  1  0.09971598  0.30264232  0.61123166  1
  Ti  Ti151  1  0.30474103  0.90359679  0.12256576  1
  Ti  Ti152  1  0.40596291  0.59858790  0.00573611  1
  Ti  Ti153  1  0.80458445  0.60237072  0.74588914  1
  Ti  Ti154  1  0.09668573  0.48851233  0.37649900  1
  Ti  Ti155  1  0.49584780  0.69700290  0.35276518  1
  Ti  Ti156  1  0.80674061  0.18809118  0.50231517  1
  Ti  Ti157  1  0.29221679  0.09791315  0.37473267  1
  Ti  Ti158  1  0.80036765  0.60871075  0.48521494  1
  Ti  Ti159  1  0.00867624  0.59929136  0.74850772  1
  Mo  Mo160  1  0.00156909  0.00134264  -0.00391709  1
  Mo  Mo161  1  0.29732605  0.69614180  0.87393635  1
  Mo  Mo162  1  0.00735813  0.19841696  0.49916825  1
  Mo  Mo163  1  -0.00381519  0.19909797  0.74464502  1
  Mo  Mo164  1  0.49440797  0.30099134  0.61578633  1
  Mo  Mo165  1  0.78585766  0.20248805  0.22800227  1
  Mo  Mo166  1  0.89650589  0.09984566  0.86930492  1
  Mo  Mo167  1  0.59993342  0.59871607  0.25615080  1
  Mo  Mo168  1  0.29586788  0.29346336  0.89950522  1
  Mo  Mo169  1  0.49074690  0.51179274  0.37243390  1
  Mo  Mo170  1  0.90419599  0.49592942  0.38361533  1
  Mo  Mo171  1  0.89979828  0.71297256  0.37174635  1
  Mo  Mo172  1  0.10347954  0.69515849  0.13396211  1
  Mo  Mo173  1  0.48320595  0.49249443  0.61613888  1
  Mo  Mo174  1  0.70326592  0.31339265  0.87443640  1
  Mo  Mo175  1  0.20477646  0.80132868  -0.00089577  1
  Mo  Mo176  1  0.89455675  0.10487263  0.12620690  1
  Mo  Mo177  1  0.40335574  0.39953214  0.49710232  1
  Mo  Mo178  1  0.69710062  0.50466147  0.39954442  1
  Mo  Mo179  1  0.39861600  -0.00104653  0.75535948  1
  Mo  Mo180  1  0.29372625  0.10723636  0.88465442  1
  Mo  Mo181  1  0.29411936  0.49899362  0.37002661  1
  Mo  Mo182  1  0.89362854  0.49442028  0.12621103  1
  Mo  Mo183  1  0.38835879  0.80548663  0.25078212  1
  Mo  Mo184  1  0.60444389  0.00141520  0.24506184  1
  Mo  Mo185  1  0.19583088  0.19285044  -0.00110121  1
  Mo  Mo186  1  0.19941743  0.19686578  0.25303461  1
  Mo  Mo187  1  0.39826519  0.59675888  0.25801367  1
  Mo  Mo188  1  0.01099289  0.40079745  0.50350287  1
  Mo  Mo189  1  0.38876253  0.58942428  0.74431034  1
  Mo  Mo190  1  0.00949998  -0.00118155  0.25295339  1
  Mo  Mo191  1  0.89747970  0.69529904  0.63198032  1
  Mo  Mo192  1  0.49311786  0.69886364  0.61736247  1
  Mo  Mo193  1  0.40479340  -0.00037907  0.50012494  1
  Mo  Mo194  1  0.50461717  0.30447906  0.13577825  1
  Mo  Mo195  1  0.39190421  0.19323023  -0.00968316  1
  Mo  Mo196  1  0.80643138  0.01919847  -0.00904462  1
  Mo  Mo197  1  0.90051901  0.90459562  0.63134954  1
  Mo  Mo198  1  0.80151013  0.40169773  0.74114324  1
  Mo  Mo199  1  0.80076178  0.59829740  -0.00702790  1
