# generated using pymatgen
data_HfZrTaTiMo
_symmetry_space_group_name_H-M   'P 1'
_cell_length_a   15.21902856
_cell_length_b   15.21462139
_cell_length_c   16.88099079
_cell_angle_alpha   90.04388580
_cell_angle_beta   90.07130818
_cell_angle_gamma   89.92236059
_symmetry_Int_Tables_number   1
_chemical_formula_structural   HfZrTaTiMo
_chemical_formula_sum   'Hf40 Zr40 Ta40 Ti40 Mo40'
_cell_volume   3908.81532549
_cell_formula_units_Z   40
loop_
 _symmetry_equiv_pos_site_id
 _symmetry_equiv_pos_as_xyz
  1  'x, y, z'
loop_
 _atom_site_type_symbol
 _atom_site_label
 _atom_site_symmetry_multiplicity
 _atom_site_fract_x
 _atom_site_fract_y
 _atom_site_fract_z
 _atom_site_occupancy
  Hf  Hf0  1  0.59867821  0.59738302  0.50208806  1
  Hf  Hf1  1  0.71086885  0.88949905  0.87065150  1
  Hf  Hf2  1  0.80573782  0.19136296  -0.00777997  1
  Hf  Hf3  1  0.58710389  0.79764635  0.50578824  1
  Hf  Hf4  1  0.81246736  0.01061231  0.25174100  1
  Hf  Hf5  1  0.49389708  0.10078130  0.12510396  1
  Hf  Hf6  1  0.40316367  0.59458482  0.74413368  1
  Hf  Hf7  1  0.08827238  0.70398310  0.12645843  1
  Hf  Hf8  1  0.01171395  0.18098726  0.76074313  1
  Hf  Hf9  1  0.30055374  0.48345378  0.86532942  1
  Hf  Hf10  1  0.60465535  0.79276512  0.24822609  1
  Hf  Hf11  1  0.00465529  0.60239698  0.75848727  1
  Hf  Hf12  1  0.89622638  0.69651189  0.63369050  1
  Hf  Hf13  1  0.80188603  0.39900662  0.23805888  1
  Hf  Hf14  1  0.11742361  0.50950653  0.11224264  1
  Hf  Hf15  1  0.28342576  0.10084253  0.87085883  1
  Hf  Hf16  1  0.59215088  0.20162443  0.49871287  1
  Hf  Hf17  1  0.10800766  0.71553332  0.63343438  1
  Hf  Hf18  1  0.88183746  0.71887549  0.86960911  1
  Hf  Hf19  1  0.48482665  0.48529054  0.13579226  1
  Hf  Hf20  1  -0.02390322  0.21030202  0.48636986  1
  Hf  Hf21  1  -0.00655195  0.82370307  0.75084903  1
  Hf  Hf22  1  0.02212007  0.40119839  0.23681579  1
  Hf  Hf23  1  0.60329835  -0.00888960  -0.00798233  1
  Hf  Hf24  1  0.82485130  0.38636756  0.49087500  1
  Hf  Hf25  1  0.29838467  0.48689815  0.37151890  1
  Hf  Hf26  1  0.59518307  0.19862158  0.26441342  1
  Hf  Hf27  1  0.50156900  0.89798397  0.12421675  1
  Hf  Hf28  1  0.69490128  0.50456244  0.87026834  1
  Hf  Hf29  1  -0.01608401  -0.00056364  -0.00789607  1
  Hf  Hf30  1  0.09060821  0.90176353  0.12792665  1
  Hf  Hf31  1  0.58866200  0.20596823  -0.01126494  1
  Hf  Hf32  1  0.69983702  0.10453007  0.12143030  1
  Hf  Hf33  1  0.20417993  0.60669707  0.50409684  1
  Hf  Hf34  1  0.72909462  0.11420166  0.38477669  1
  Hf  Hf35  1  0.81527000  0.80455769  0.25336738  1
  Hf  Hf36  1  0.39628310  0.00815075  0.51027498  1
  Hf  Hf37  1  0.70934926  0.48787342  0.63855140  1
  Hf  Hf38  1  0.49270310  0.09752810  0.86099471  1
  Hf  Hf39  1  0.10348585  0.28942436  0.61331257  1
  Zr  Zr40  1  0.60500384  0.19778448  0.74951404  1
  Zr  Zr41  1  0.10488695  0.71189077  0.87291133  1
  Zr  Zr42  1  0.70332833  0.90165056  0.38233194  1
  Zr  Zr43  1  0.89554315  0.50423089  0.88060365  1
  Zr  Zr44  1  0.09174963  0.10487611  0.13561339  1
  Zr  Zr45  1  0.79945405  0.58423978  0.50034019  1
  Zr  Zr46  1  0.28805928  0.68892459  0.11642133  1
  Zr  Zr47  1  0.29418237  0.12270296  0.12132540  1
  Zr  Zr48  1  0.40630958  0.39484176  0.51209186  1
  Zr  Zr49  1  0.40023373  0.59446653  0.50551244  1
  Zr  Zr50  1  0.90889257  0.51695643  0.11948780  1
  Zr  Zr51  1  0.77942461  0.61978836  0.00502552  1
  Zr  Zr52  1  0.01174089  0.39838954  -0.00205987  1
  Zr  Zr53  1  0.02753768  0.39787608  0.76572374  1
  Zr  Zr54  1  0.79264238  0.79229668  0.50840895  1
  Zr  Zr55  1  0.29760367  0.69598105  0.87563573  1
  Zr  Zr56  1  0.70021884  0.69073845  0.37579594  1
  Zr  Zr57  1  0.39401311  0.19479982  0.71821353  1
  Zr  Zr58  1  0.19672707  0.21062197  0.26420497  1
  Zr  Zr59  1  0.80085256  0.19411078  0.75920144  1
  Zr  Zr60  1  0.90065155  0.30379254  0.64121636  1
  Zr  Zr61  1  0.09141108  0.32476476  0.38482683  1
  Zr  Zr62  1  0.59808282  0.00271820  0.26004095  1
  Zr  Zr63  1  0.39820946  0.58260218  -0.00272237  1
  Zr  Zr64  1  0.90368644  0.90093943  0.39372686  1
  Zr  Zr65  1  0.50535740  0.68928319  0.12340880  1
  Zr  Zr66  1  0.38560368  0.80230369  0.25057429  1
  Zr  Zr67  1  0.38369764  -0.00786456  0.73637128  1
  Zr  Zr68  1  0.60170559  0.00490573  0.49666949  1
  Zr  Zr69  1  0.61321679  0.40451017  0.49420240  1
  Zr  Zr70  1  0.59311359  0.40893020  -0.00202609  1
  Zr  Zr71  1  0.91178031  0.28351987  0.12292027  1
  Zr  Zr72  1  0.90420213  0.30225557  0.87742461  1
  Zr  Zr73  1  0.72026710  0.89291454  0.11471767  1
  Zr  Zr74  1  0.48638715  0.90147595  0.37456557  1
  Zr  Zr75  1  0.29526929  0.90655370  0.12018991  1
  Zr  Zr76  1  0.91767238  0.49373565  0.36170607  1
  Zr  Zr77  1  0.89856468  0.90796730  0.61305537  1
  Zr  Zr78  1  0.00591616  0.58910399  0.50651352  1
  Zr  Zr79  1  0.39697620  0.00401089  -0.00630154  1
  Ta  Ta80  1  0.30150262  0.70540338  0.63365374  1
  Ta  Ta81  1  0.69174150  0.30023764  0.12688848  1
  Ta  Ta82  1  0.28652037  0.89161141  0.61104405  1
  Ta  Ta83  1  0.38689445  0.79185284  0.49936057  1
  Ta  Ta84  1  0.40775108  0.79896999  -0.00882511  1
  Ta  Ta85  1  0.61110998  0.77996929  -0.00242202  1
  Ta  Ta86  1  0.40085081  0.37625471  -0.00027970  1
  Ta  Ta87  1  0.20294043  0.58962754  0.74256713  1
  Ta  Ta88  1  0.00688397  -0.00832477  0.26610814  1
  Ta  Ta89  1  0.20438969  -0.00118913  0.26464319  1
  Ta  Ta90  1  0.19013022  0.59154176  0.25585642  1
  Ta  Ta91  1  0.12886066  0.29969042  0.11632024  1
  Ta  Ta92  1  0.60086420  0.59127385  0.25645778  1
  Ta  Ta93  1  0.10506703  0.92212736  0.62193374  1
  Ta  Ta94  1  0.49357019  0.29075145  0.13368950  1
  Ta  Ta95  1  0.90673570  0.49157301  0.64085854  1
  Ta  Ta96  1  0.48879437  0.69267007  0.36991754  1
  Ta  Ta97  1  0.79366948  0.39890365  0.01321429  1
  Ta  Ta98  1  0.29515136  0.89913626  0.87891916  1
  Ta  Ta99  1  0.31166569  0.29164684  0.86751726  1
  Ta  Ta100  1  0.00915930  0.01076366  0.49382190  1
  Ta  Ta101  1  0.09668606  0.69710369  0.36925505  1
  Ta  Ta102  1  0.18509078  0.01424773  -0.00200921  1
  Ta  Ta103  1  0.70107901  0.30945899  0.87514554  1
  Ta  Ta104  1  0.02197232  0.19037983  -0.01096837  1
  Ta  Ta105  1  0.59834519  0.39855701  0.25451686  1
  Ta  Ta106  1  0.68791325  0.50930354  0.12595801  1
  Ta  Ta107  1  0.81023834  -0.00411941  0.75100323  1
  Ta  Ta108  1  0.39803329  0.79781112  0.75355793  1
  Ta  Ta109  1  0.80030819  0.60519472  0.24278344  1
  Ta  Ta110  1  0.91039120  0.69730911  0.37204446  1
  Ta  Ta111  1  0.20155063  0.20506950  0.74199395  1
  Ta  Ta112  1  0.39086343  0.59098609  0.25232294  1
  Ta  Ta113  1  0.28735986  0.90150046  0.38909014  1
  Ta  Ta114  1  0.69240577  0.70148343  0.63919989  1
  Ta  Ta115  1  0.89715258  0.72273859  0.12091894  1
  Ta  Ta116  1  0.68983516  0.91112654  0.63673047  1
  Ta  Ta117  1  0.20197951  0.40652991  0.51046074  1
  Ta  Ta118  1  0.10342478  0.92260926  0.86787212  1
  Ta  Ta119  1  0.70627846  0.30764247  0.36928565  1
  Ti  Ti120  1  0.29240044  0.70131622  0.37151100  1
  Ti  Ti121  1  0.22170808  0.40243536  0.00376934  1
  Ti  Ti122  1  0.70367183  0.09010367  0.87499347  1
  Ti  Ti123  1  0.79750091  0.59936184  0.75071655  1
  Ti  Ti124  1  0.50404106  0.49696866  0.36779664  1
  Ti  Ti125  1  0.50943212  0.30133998  0.62654423  1
  Ti  Ti126  1  0.10728454  0.10118693  0.38072621  1
  Ti  Ti127  1  0.38797162  0.19728708  0.51321783  1
  Ti  Ti128  1  0.39229441  0.01329530  0.26216665  1
  Ti  Ti129  1  0.39337585  0.20296348  0.26304525  1
  Ti  Ti130  1  -0.01610381  0.19135339  0.26446220  1
  Ti  Ti131  1  0.49138141  0.89197745  0.62939686  1
  Ti  Ti132  1  0.68981742  0.70062018  0.85901064  1
  Ti  Ti133  1  0.11626400  0.50714038  0.88683824  1
  Ti  Ti134  1  0.52875027  0.08113573  0.63811647  1
  Ti  Ti135  1  0.10248984  0.89009523  0.38277418  1
  Ti  Ti136  1  0.70666099  0.28975336  0.62523410  1
  Ti  Ti137  1  0.89849520  0.10265542  0.62087396  1
  Ti  Ti138  1  -0.00874558  0.80958470  -0.01017248  1
  Ti  Ti139  1  0.01112061  0.79504888  0.50467913  1
  Ti  Ti140  1  0.59961983  0.39790873  0.75002765  1
  Ti  Ti141  1  0.49012780  0.30298101  0.37673485  1
  Ti  Ti142  1  0.50040170  0.89158845  0.87010959  1
  Ti  Ti143  1  0.50552924  0.49735637  0.63004679  1
  Ti  Ti144  1  0.90004609  0.08772427  0.12357914  1
  Ti  Ti145  1  0.19571489  0.80880212  -0.00383960  1
  Ti  Ti146  1  0.50461027  0.69467344  0.87575918  1
  Ti  Ti147  1  0.25541426  0.09443042  0.61114900  1
  Ti  Ti148  1  0.49836617  0.49541355  0.86775309  1
  Ti  Ti149  1  0.59557375  0.60050199  0.74549067  1
  Ti  Ti150  1  0.00334025  0.61481869  -0.01050534  1
  Ti  Ti151  1  0.59301822  0.80255512  0.74798280  1
  Ti  Ti152  1  0.49576798  0.70302256  0.62922594  1
  Ti  Ti153  1  0.12969749  0.29696894  0.88283038  1
  Ti  Ti154  1  0.19076588  0.80293874  0.25326189  1
  Ti  Ti155  1  0.10627398  0.49407694  0.63270442  1
  Ti  Ti156  1  0.49373714  0.30338143  0.86007305  1
  Ti  Ti157  1  0.38627785  0.39124320  0.72662613  1
  Ti  Ti158  1  0.29706686  0.29053260  0.39143108  1
  Ti  Ti159  1  0.20652387  0.81871620  0.75081112  1
  Mo  Mo160  1  0.29859836  0.48813194  0.13481804  1
  Mo  Mo161  1  0.19788377  0.59785166  -0.00354835  1
  Mo  Mo162  1  0.71241510  0.09518808  0.62220013  1
  Mo  Mo163  1  -0.00221633  0.61000966  0.24701996  1
  Mo  Mo164  1  0.78850809  0.79953444  0.73754076  1
  Mo  Mo165  1  0.00885379  0.41396909  0.51351053  1
  Mo  Mo166  1  0.40315224  0.38661795  0.26292662  1
  Mo  Mo167  1  0.29330340  0.29399271  0.61073037  1
  Mo  Mo168  1  0.70304950  0.69581685  0.13081562  1
  Mo  Mo169  1  0.91409447  0.90362134  0.12922090  1
  Mo  Mo170  1  0.31454496  0.31264750  0.13256216  1
  Mo  Mo171  1  0.19428376  0.19544938  0.48646372  1
  Mo  Mo172  1  0.59020692  0.60272985  -0.00710687  1
  Mo  Mo173  1  0.19504909  -0.00173704  0.48788475  1
  Mo  Mo174  1  0.19566552  0.79662370  0.49818351  1
  Mo  Mo175  1  0.30236274  0.09981676  0.38212507  1
  Mo  Mo176  1  0.21213459  0.40220296  0.24636072  1
  Mo  Mo177  1  0.10321616  0.10648110  0.87692880  1
  Mo  Mo178  1  0.80706854  0.81110205  0.00044391  1
  Mo  Mo179  1  0.88505592  0.28560786  0.35352908  1
  Mo  Mo180  1  0.29540078  0.49861934  0.63161952  1
  Mo  Mo181  1  0.89829979  0.08995785  0.87544660  1
  Mo  Mo182  1  0.08460636  0.10163674  0.61337312  1
  Mo  Mo183  1  0.80633244  0.01287194  0.51336415  1
  Mo  Mo184  1  0.00553620  0.80189403  0.25826145  1
  Mo  Mo185  1  0.10859789  0.50817208  0.37335772  1
  Mo  Mo186  1  0.70183297  0.49546667  0.36103243  1
  Mo  Mo187  1  0.79106824  0.20312327  0.50901970  1
  Mo  Mo188  1  0.79255221  0.40055118  0.75542006  1
  Mo  Mo189  1  0.79938447  0.00166387  -0.00445995  1
  Mo  Mo190  1  0.79735942  0.20191627  0.24024870  1
  Mo  Mo191  1  0.20735709  0.39123302  0.74451394  1
  Mo  Mo192  1  0.91011132  0.09795320  0.37703166  1
  Mo  Mo193  1  0.40411066  0.20496155  -0.00790470  1
  Mo  Mo194  1  0.47823522  0.11517043  0.38148518  1
  Mo  Mo195  1  0.60337760  -0.00798247  0.75568497  1
  Mo  Mo196  1  0.89909257  0.90620530  0.86800731  1
  Mo  Mo197  1  0.18565526  0.00750519  0.74524480  1
  Mo  Mo198  1  -0.00118805  0.00617104  0.74682913  1
  Mo  Mo199  1  0.21123200  0.21345312  -0.00121325  1
