# generated using pymatgen
data_HfZrTaTiMo
_symmetry_space_group_name_H-M   'P 1'
_cell_length_a   15.21704540
_cell_length_b   15.20601719
_cell_length_c   16.86831860
_cell_angle_alpha   89.99722293
_cell_angle_beta   89.98095966
_cell_angle_gamma   89.98223804
_symmetry_Int_Tables_number   1
_chemical_formula_structural   HfZrTaTiMo
_chemical_formula_sum   'Hf40 Zr40 Ta40 Ti40 Mo40'
_cell_volume   3903.17086405
_cell_formula_units_Z   40
loop_
 _symmetry_equiv_pos_site_id
 _symmetry_equiv_pos_as_xyz
  1  'x, y, z'
loop_
 _atom_site_type_symbol
 _atom_site_label
 _atom_site_symmetry_multiplicity
 _atom_site_fract_x
 _atom_site_fract_y
 _atom_site_fract_z
 _atom_site_occupancy
  Hf  Hf0  1  0.60516018  0.79736017  0.50907355  1
  Hf  Hf1  1  0.80872702  0.39992459  -0.01472648  1
  Hf  Hf2  1  0.61980323  0.59598119  0.25368694  1
  Hf  Hf3  1  0.61448342  0.59448615  0.50002790  1
  Hf  Hf4  1  0.29527731  0.69214423  0.87457837  1
  Hf  Hf5  1  -0.00934816  0.82592586  0.73633739  1
  Hf  Hf6  1  0.49450833  0.68658882  0.13352682  1
  Hf  Hf7  1  0.78755612  -0.01753740  -0.00657204  1
  Hf  Hf8  1  0.39062561  0.21301404  0.74940788  1
  Hf  Hf9  1  0.59390908  0.00502215  0.49820464  1
  Hf  Hf10  1  0.50242709  0.90310473  0.13170619  1
  Hf  Hf11  1  0.60336172  0.21018250  0.73564024  1
  Hf  Hf12  1  0.60922181  0.80138179  0.24665015  1
  Hf  Hf13  1  0.19005720  0.01107701  0.24414810  1
  Hf  Hf14  1  -0.01010599  0.40520372  0.49876521  1
  Hf  Hf15  1  0.60192307  0.60589505  -0.01034623  1
  Hf  Hf16  1  0.19569059  0.20745924  0.23855018  1
  Hf  Hf17  1  0.70048640  0.28638359  0.87502251  1
  Hf  Hf18  1  0.80163665  0.77481226  0.23766484  1
  Hf  Hf19  1  0.10792475  0.70225282  0.63887984  1
  Hf  Hf20  1  0.11620511  0.29736035  0.38923187  1
  Hf  Hf21  1  -0.00751790  -0.00364192  0.24423628  1
  Hf  Hf22  1  0.59839483  0.61048481  0.75808917  1
  Hf  Hf23  1  0.29307952  0.30989173  0.88505468  1
  Hf  Hf24  1  0.49859839  0.68617365  0.37147037  1
  Hf  Hf25  1  0.39450327  0.20370327  0.00338957  1
  Hf  Hf26  1  0.08315553  0.88956172  0.88762342  1
  Hf  Hf27  1  -0.00944137  -0.01543720  0.50755388  1
  Hf  Hf28  1  0.62124267  0.80577448  0.01417715  1
  Hf  Hf29  1  0.00645654  0.78635410  0.23056946  1
  Hf  Hf30  1  0.71062079  0.90119657  0.38510632  1
  Hf  Hf31  1  0.59487700  0.20999542  0.24989988  1
  Hf  Hf32  1  0.89081932  0.89407363  0.11789417  1
  Hf  Hf33  1  0.10077198  0.51183334  0.37972539  1
  Hf  Hf34  1  0.70596174  0.30206006  0.12284173  1
  Hf  Hf35  1  0.38994147  0.80008610  0.50055348  1
  Hf  Hf36  1  0.80591183  0.18586996  0.74747669  1
  Hf  Hf37  1  0.60425968  0.40582381  0.50834308  1
  Hf  Hf38  1  0.90159571  0.87739083  0.37381344  1
  Hf  Hf39  1  0.07804742  0.11588462  0.11593311  1
  Zr  Zr40  1  0.40996005  0.78857382  0.75877397  1
  Zr  Zr41  1  0.31211818  0.50139964  0.37080789  1
  Zr  Zr42  1  0.60346990  0.40484924  -0.00339357  1
  Zr  Zr43  1  0.41836106  0.39813129  0.24351890  1
  Zr  Zr44  1  0.49105945  0.10332421  0.12307230  1
  Zr  Zr45  1  0.72427318  0.10028435  0.60204444  1
  Zr  Zr46  1  0.00452062  0.21061904  0.74066243  1
  Zr  Zr47  1  0.40030390  0.00071129  -0.01779020  1
  Zr  Zr48  1  0.49921471  0.69283250  0.62243905  1
  Zr  Zr49  1  0.19153069  -0.00105214  0.50035019  1
  Zr  Zr50  1  0.28428173  0.88775112  0.64249334  1
  Zr  Zr51  1  0.28520316  0.11122406  0.62584818  1
  Zr  Zr52  1  0.40700555  0.79242628  -0.00835397  1
  Zr  Zr53  1  0.17691840  -0.00380674  0.75714185  1
  Zr  Zr54  1  0.19646257  0.01086836  -0.00197007  1
  Zr  Zr55  1  0.39285954  0.20520533  0.24764961  1
  Zr  Zr56  1  0.19892392  0.40447968  0.24528956  1
  Zr  Zr57  1  0.60448439  0.00433210  0.73360683  1
  Zr  Zr58  1  -0.01050944  0.19061616  0.49970987  1
  Zr  Zr59  1  0.01628667  0.39350856  -0.01120875  1
  Zr  Zr60  1  0.19720928  0.38839412  0.74647829  1
  Zr  Zr61  1  0.90557463  0.49377977  0.64410155  1
  Zr  Zr62  1  0.18707041  0.79523626  0.50088036  1
  Zr  Zr63  1  0.19498410  0.81120200  0.24158973  1
  Zr  Zr64  1  0.69863685  0.31039672  0.38000193  1
  Zr  Zr65  1  0.90347415  0.73094298  0.88517033  1
  Zr  Zr66  1  0.59589732  0.01600987  0.26742627  1
  Zr  Zr67  1  -0.00697424  0.20059237  0.26629829  1
  Zr  Zr68  1  0.50434843  0.11114394  0.86874813  1
  Zr  Zr69  1  0.80491615  -0.02498411  0.75254470  1
  Zr  Zr70  1  0.29936753  0.90672960  0.11543828  1
  Zr  Zr71  1  0.28952653  0.69931548  0.37139043  1
  Zr  Zr72  1  0.91120734  0.28703681  0.12127160  1
  Zr  Zr73  1  0.38991259  0.00462715  0.49078470  1
  Zr  Zr74  1  0.30913337  0.51696622  0.13408683  1
  Zr  Zr75  1  0.49374575  0.89270705  0.37486356  1
  Zr  Zr76  1  0.38357498  0.00476879  0.26662912  1
  Zr  Zr77  1  0.00641342  0.60525549  0.76702612  1
  Zr  Zr78  1  0.52396913  0.89545926  0.86917063  1
  Zr  Zr79  1  0.48904829  0.10887158  0.62029021  1
  Ta  Ta80  1  0.00858307  0.60147577  0.51150959  1
  Ta  Ta81  1  0.10829354  0.49570910  0.62699928  1
  Ta  Ta82  1  0.39811593  0.41036422  0.75003486  1
  Ta  Ta83  1  0.60250847  0.00496833  0.00278304  1
  Ta  Ta84  1  0.71857655  0.51214855  0.12206526  1
  Ta  Ta85  1  0.39161694  0.00130354  0.75905911  1
  Ta  Ta86  1  -0.01341691  0.00426576  0.00432365  1
  Ta  Ta87  1  0.89886880  0.67890695  0.10628616  1
  Ta  Ta88  1  0.79457567  -0.00251493  0.25060240  1
  Ta  Ta89  1  0.39343141  0.79471892  0.25107338  1
  Ta  Ta90  1  0.80824811  0.39102243  0.75989201  1
  Ta  Ta91  1  0.21555038  0.59082242  0.75232592  1
  Ta  Ta92  1  0.60287907  0.19804481  0.00451179  1
  Ta  Ta93  1  0.71635959  0.69779147  0.38279550  1
  Ta  Ta94  1  -0.01313824  0.78604573  0.51457634  1
  Ta  Ta95  1  0.19390330  0.60769016  0.00005643  1
  Ta  Ta96  1  0.80115021  0.59746886  -0.01895531  1
  Ta  Ta97  1  0.09703377  0.89401568  0.37348608  1
  Ta  Ta98  1  0.62315935  0.80666222  0.73526674  1
  Ta  Ta99  1  0.50010744  0.30940912  0.87369712  1
  Ta  Ta100  1  -0.00065822  0.40186657  0.25517976  1
  Ta  Ta101  1  0.18562416  0.61298529  0.24129365  1
  Ta  Ta102  1  0.60056168  0.40218920  0.74763981  1
  Ta  Ta103  1  0.08641424  0.11513956  0.88212687  1
  Ta  Ta104  1  0.49166918  0.50344127  0.86920552  1
  Ta  Ta105  1  0.28532900  0.12490718  0.38399947  1
  Ta  Ta106  1  0.11726693  0.49885555  0.87403947  1
  Ta  Ta107  1  0.81750825  0.59322371  0.50966858  1
  Ta  Ta108  1  0.70513075  0.09393231  0.12612169  1
  Ta  Ta109  1  0.70762696  0.50239619  0.64015618  1
  Ta  Ta110  1  0.90526097  0.49261731  0.11768834  1
  Ta  Ta111  1  0.39999814  0.59236001  -0.00566440  1
  Ta  Ta112  1  0.79704611  0.19233113  0.25479342  1
  Ta  Ta113  1  0.10711259  0.29815373  0.61203441  1
  Ta  Ta114  1  -0.00838897  0.59180732  0.24396434  1
  Ta  Ta115  1  0.91204608  0.28806898  0.87532112  1
  Ta  Ta116  1  0.30838397  0.49795861  0.62223892  1
  Ta  Ta117  1  0.90365072  0.67487427  0.37588666  1
  Ta  Ta118  1  0.00248145  0.59655001  -0.01776931  1
  Ta  Ta119  1  0.40614839  0.40405440  0.00670849  1
  Ti  Ti120  1  0.19455275  0.19921099  0.75220021  1
  Ti  Ti121  1  0.69701584  0.08772681  0.87385033  1
  Ti  Ti122  1  0.72451286  0.70357184  0.62490594  1
  Ti  Ti123  1  0.81061765  0.40439218  0.24833866  1
  Ti  Ti124  1  0.21598876  0.39471500  0.50655624  1
  Ti  Ti125  1  0.80676773  0.18233985  -0.00184525  1
  Ti  Ti126  1  0.09270602  0.09353002  0.37933219  1
  Ti  Ti127  1  0.28812732  0.89266567  0.87045212  1
  Ti  Ti128  1  0.08676626  0.09462170  0.62617787  1
  Ti  Ti129  1  0.70064338  0.72004848  0.87224453  1
  Ti  Ti130  1  0.88744710  0.30477050  0.38125329  1
  Ti  Ti131  1  0.61463871  0.40294793  0.24499189  1
  Ti  Ti132  1  0.40436237  0.40444826  0.49972062  1
  Ti  Ti133  1  0.29861549  0.30297025  0.11677881  1
  Ti  Ti134  1  0.86971074  0.89077836  0.61062806  1
  Ti  Ti135  1  0.20703450  0.41272764  0.00848874  1
  Ti  Ti136  1  0.40301100  0.59324596  0.50030650  1
  Ti  Ti137  1  0.70329637  0.49754126  0.86169808  1
  Ti  Ti138  1  0.20544299  0.59535552  0.50866569  1
  Ti  Ti139  1  0.59120208  0.20953643  0.50299151  1
  Ti  Ti140  1  0.90205662  0.09013679  0.87414399  1
  Ti  Ti141  1  0.89458402  0.29287706  0.61935451  1
  Ti  Ti142  1  0.09383803  0.50569198  0.12123375  1
  Ti  Ti143  1  0.18343229  0.21802304  0.00820245  1
  Ti  Ti144  1  0.50207168  0.50286184  0.63181500  1
  Ti  Ti145  1  0.28961627  0.10402114  0.87005908  1
  Ti  Ti146  1  0.30432320  0.68827926  0.63520181  1
  Ti  Ti147  1  0.08659692  0.70322196  0.37579142  1
  Ti  Ti148  1  0.51434969  0.49283875  0.37106031  1
  Ti  Ti149  1  0.49048257  0.31271987  0.62363616  1
  Ti  Ti150  1  0.70011639  0.11206804  0.38879468  1
  Ti  Ti151  1  0.71077173  0.30986148  0.61882771  1
  Ti  Ti152  1  0.88361914  0.08936494  0.38255192  1
  Ti  Ti153  1  0.29499084  0.70453270  0.11999502  1
  Ti  Ti154  1  0.49165796  0.29835947  0.38295447  1
  Ti  Ti155  1  0.80376240  0.60901630  0.76156868  1
  Ti  Ti156  1  0.49322200  0.90125436  0.62950095  1
  Ti  Ti157  1  0.51375577  0.49536449  0.12597154  1
  Ti  Ti158  1  0.38355054  0.21877030  0.49961160  1
  Ti  Ti159  1  0.73167294  0.50287775  0.37676794  1
  Mo  Mo160  1  0.90345104  0.09411501  0.62383121  1
  Mo  Mo161  1  0.80433644  0.78427060  0.49679966  1
  Mo  Mo162  1  0.30256338  0.49647720  0.88351333  1
  Mo  Mo163  1  0.09398924  0.89939591  0.10506359  1
  Mo  Mo164  1  0.40250674  0.60498714  0.24783723  1
  Mo  Mo165  1  0.69727039  0.90569537  0.13772475  1
  Mo  Mo166  1  0.81099796  0.58544981  0.24686929  1
  Mo  Mo167  1  -0.00736549  0.19603325  -0.00627408  1
  Mo  Mo168  1  0.79814898  0.78667280  0.01173804  1
  Mo  Mo169  1  0.30183264  0.30869360  0.62093916  1
  Mo  Mo170  1  0.89945560  0.69168315  0.63073465  1
  Mo  Mo171  1  0.90008584  0.90536069  0.88609958  1
  Mo  Mo172  1  0.00918988  0.79316209  0.01707532  1
  Mo  Mo173  1  0.30559655  0.30601411  0.38048427  1
  Mo  Mo174  1  0.70751833  0.68968702  0.11966876  1
  Mo  Mo175  1  0.79927030  0.79070736  0.74574222  1
  Mo  Mo176  1  0.28595009  0.90917943  0.36941146  1
  Mo  Mo177  1  0.70742975  0.89264849  0.87314144  1
  Mo  Mo178  1  0.28832889  0.11184836  0.11798099  1
  Mo  Mo179  1  0.90007603  0.49789886  0.86356166  1
  Mo  Mo180  1  0.08718028  0.90286611  0.62600424  1
  Mo  Mo181  1  0.19508969  0.79663704  0.00619140  1
  Mo  Mo182  1  0.19316544  0.78986848  0.75468885  1
  Mo  Mo183  1  0.10494531  0.29667519  0.87602058  1
  Mo  Mo184  1  0.79843047  0.40620029  0.51065843  1
  Mo  Mo185  1  0.80187669  -0.00281853  0.48910758  1
  Mo  Mo186  1  0.50928160  0.30618771  0.11702504  1
  Mo  Mo187  1  0.79923450  0.20999653  0.49327836  1
  Mo  Mo188  1  0.00322262  0.39866046  0.75898813  1
  Mo  Mo189  1  0.10745949  0.70146422  0.87041623  1
  Mo  Mo190  1  0.90411715  0.49354091  0.37617449  1
  Mo  Mo191  1  0.40063012  0.59063723  0.75196707  1
  Mo  Mo192  1  0.69551234  0.89540450  0.60927477  1
  Mo  Mo193  1  0.49612254  0.12387421  0.39212610  1
  Mo  Mo194  1  0.19536219  0.20148904  0.50447772  1
  Mo  Mo195  1  0.10006672  0.31633245  0.12556131  1
  Mo  Mo196  1  0.88321433  0.09851218  0.12757539  1
  Mo  Mo197  1  0.10007320  0.68910500  0.11640743  1
  Mo  Mo198  1  -0.01138753  0.01551151  0.74661623  1
  Mo  Mo199  1  0.50964727  0.69672596  0.87560476  1
