# generated using pymatgen
data_HfZrTaTiMo
_symmetry_space_group_name_H-M   'P 1'
_cell_length_a   15.22785476
_cell_length_b   15.20513283
_cell_length_c   16.86097672
_cell_angle_alpha   90.03147435
_cell_angle_beta   90.04686742
_cell_angle_gamma   90.04594882
_symmetry_Int_Tables_number   1
_chemical_formula_structural   HfZrTaTiMo
_chemical_formula_sum   'Hf40 Zr40 Ta40 Ti40 Mo40'
_cell_volume   3904.01360372
_cell_formula_units_Z   40
loop_
 _symmetry_equiv_pos_site_id
 _symmetry_equiv_pos_as_xyz
  1  'x, y, z'
loop_
 _atom_site_type_symbol
 _atom_site_label
 _atom_site_symmetry_multiplicity
 _atom_site_fract_x
 _atom_site_fract_y
 _atom_site_fract_z
 _atom_site_occupancy
  Hf  Hf0  1  0.29845881  0.70033940  0.37988861  1
  Hf  Hf1  1  0.60722413  0.20169232  -0.00770349  1
  Hf  Hf2  1  0.90060117  0.09387378  0.61396125  1
  Hf  Hf3  1  0.49018350  0.50349767  0.63028349  1
  Hf  Hf4  1  0.61144274  0.40427300  0.51147383  1
  Hf  Hf5  1  0.89427137  0.68226725  0.61940416  1
  Hf  Hf6  1  0.60401080  0.79434816  0.24359294  1
  Hf  Hf7  1  0.00834300  0.61310653  0.25300676  1
  Hf  Hf8  1  0.70437573  0.88328470  0.88140114  1
  Hf  Hf9  1  0.09741825  0.28526665  0.11921564  1
  Hf  Hf10  1  0.60164946  0.60415808  0.74803117  1
  Hf  Hf11  1  0.88494762  0.09862477  0.39379741  1
  Hf  Hf12  1  0.70985069  0.89961492  0.37741932  1
  Hf  Hf13  1  0.79345665  0.59942228  0.25388858  1
  Hf  Hf14  1  0.30827341  0.50672521  0.10651235  1
  Hf  Hf15  1  0.39922437  0.79746131  0.23741640  1
  Hf  Hf16  1  0.09255165  0.90540788  0.12645000  1
  Hf  Hf17  1  0.41759592  0.01275261  0.74932525  1
  Hf  Hf18  1  0.30485566  0.10176283  0.87702594  1
  Hf  Hf19  1  0.49715883  0.50748053  0.37049199  1
  Hf  Hf20  1  0.17796833  0.41593198  0.49491989  1
  Hf  Hf21  1  0.70138896  0.27090956  0.37927418  1
  Hf  Hf22  1  0.71595934  0.09231038  0.11159568  1
  Hf  Hf23  1  0.19102133  0.39263200  0.76057746  1
  Hf  Hf24  1  0.09479732  0.91047768  0.61369153  1
  Hf  Hf25  1  0.30155804  0.31296654  0.37700697  1
  Hf  Hf26  1  0.30909103  0.11230174  0.61804096  1
  Hf  Hf27  1  0.39719855  0.21470626  0.75199635  1
  Hf  Hf28  1  0.51087850  0.90131230  0.36945015  1
  Hf  Hf29  1  0.28648517  0.50519692  0.62740793  1
  Hf  Hf30  1  0.58701206  0.40308396  -0.00196177  1
  Hf  Hf31  1  0.40381431  0.22267435  0.24198858  1
  Hf  Hf32  1  0.69544741  0.68643962  0.11189515  1
  Hf  Hf33  1  0.09342468  0.28357429  0.89005266  1
  Hf  Hf34  1  0.19698300  0.20898914  0.48593985  1
  Hf  Hf35  1  0.60588109  0.39655810  0.74231469  1
  Hf  Hf36  1  0.90717321  0.48748915  0.37298540  1
  Hf  Hf37  1  0.50360204  0.71075319  0.87788677  1
  Hf  Hf38  1  0.91550369  0.09502129  0.11672432  1
  Hf  Hf39  1  0.51878290  0.11769301  0.13150885  1
  Zr  Zr40  1  0.20553265  0.00374729  0.48756868  1
  Zr  Zr41  1  0.21525047  -0.00462632  0.74132663  1
  Zr  Zr42  1  0.49687818  0.70795562  0.63767729  1
  Zr  Zr43  1  0.20764671  0.59968448  0.23729502  1
  Zr  Zr44  1  0.50144305  0.30360456  0.38870219  1
  Zr  Zr45  1  0.20661624  0.18787266  0.00068217  1
  Zr  Zr46  1  0.39683072  0.60340893  0.49754987  1
  Zr  Zr47  1  0.28636599  0.71768469  0.87882802  1
  Zr  Zr48  1  0.18397585  0.79087478  0.24342752  1
  Zr  Zr49  1  0.80292954  0.19585023  0.74877676  1
  Zr  Zr50  1  0.88963670  0.50366255  0.12759077  1
  Zr  Zr51  1  0.17532703  0.19586287  0.27245150  1
  Zr  Zr52  1  -0.01541802  0.39239594  0.00103634  1
  Zr  Zr53  1  -0.01542105  0.39374616  0.76322543  1
  Zr  Zr54  1  0.80441932  0.79865476  0.24412503  1
  Zr  Zr55  1  0.19518551  0.00135460  0.26647331  1
  Zr  Zr56  1  0.48942702  0.29213168  0.61733677  1
  Zr  Zr57  1  0.89860003  0.70133688  0.38922050  1
  Zr  Zr58  1  0.50689175  0.50638049  0.12836724  1
  Zr  Zr59  1  -0.00853128  0.80074341  0.73889332  1
  Zr  Zr60  1  0.19549564  0.60161410  0.75878600  1
  Zr  Zr61  1  0.29603487  0.11210297  0.13547456  1
  Zr  Zr62  1  0.00581561  0.20303860  0.74345682  1
  Zr  Zr63  1  0.30584162  0.90021798  0.36697802  1
  Zr  Zr64  1  0.88682879  0.70086123  0.86850387  1
  Zr  Zr65  1  0.40167088  0.81596661  0.51127453  1
  Zr  Zr66  1  0.80014314  -0.01895309  0.74462710  1
  Zr  Zr67  1  0.49909980  0.70450022  0.10604375  1
  Zr  Zr68  1  0.12776892  0.88393514  0.87084325  1
  Zr  Zr69  1  -0.00153366  0.39394129  0.23790363  1
  Zr  Zr70  1  0.01376426  0.79505242  -0.00696095  1
  Zr  Zr71  1  0.00954704  0.00587863  0.75900183  1
  Zr  Zr72  1  -0.00336008  0.59263779  0.75564402  1
  Zr  Zr73  1  0.78419610  0.39073944  0.00702561  1
  Zr  Zr74  1  0.39037790  0.81538677  0.75120832  1
  Zr  Zr75  1  0.69465230  0.48860588  0.36872194  1
  Zr  Zr76  1  0.41545008  0.02018986  0.50056099  1
  Zr  Zr77  1  0.52288556  0.10874712  0.36240626  1
  Zr  Zr78  1  0.40935631  0.02121386  0.00892501  1
  Zr  Zr79  1  0.20317064  0.39828506  0.23622408  1
  Ta  Ta80  1  0.19939292  0.79757765  0.50879610  1
  Ta  Ta81  1  0.09441906  0.50874173  0.10770676  1
  Ta  Ta82  1  0.70372694  0.29486909  0.86699446  1
  Ta  Ta83  1  0.88510747  0.47726045  0.62314364  1
  Ta  Ta84  1  0.51884742  0.92060459  0.63305891  1
  Ta  Ta85  1  0.81276548  0.37663395  0.49702573  1
  Ta  Ta86  1  -0.00548498  0.79965044  0.51104254  1
  Ta  Ta87  1  0.61291588  -0.00056590  0.50438462  1
  Ta  Ta88  1  0.51032641  0.91198890  0.88326056  1
  Ta  Ta89  1  0.90592195  0.11147197  0.88494357  1
  Ta  Ta90  1  0.10327459  0.11445579  0.60953084  1
  Ta  Ta91  1  0.78996376  0.58371000  0.74476754  1
  Ta  Ta92  1  0.50040761  0.30466898  0.87012318  1
  Ta  Ta93  1  0.68704823  0.28892150  0.13153570  1
  Ta  Ta94  1  0.71671669  0.29640840  0.62675053  1
  Ta  Ta95  1  0.60391566  0.60763697  0.50894684  1
  Ta  Ta96  1  0.39258354  0.81755851  0.00039467  1
  Ta  Ta97  1  0.70144667  0.89701819  0.10841535  1
  Ta  Ta98  1  0.90733623  0.70446310  0.12191883  1
  Ta  Ta99  1  0.18928486  0.62099033  0.00380972  1
  Ta  Ta100  1  0.19739195  0.19726425  0.75111671  1
  Ta  Ta101  1  0.79014410  0.37902207  0.24590295  1
  Ta  Ta102  1  0.09790517  0.50430372  0.89456411  1
  Ta  Ta103  1  0.10112228  0.68473816  0.61131745  1
  Ta  Ta104  1  0.29821256  0.50633006  0.88630299  1
  Ta  Ta105  1  0.79121293  0.79522848  0.51610740  1
  Ta  Ta106  1  0.81197874  -0.00479319  -0.01017131  1
  Ta  Ta107  1  0.80647465  0.79335043  0.00460869  1
  Ta  Ta108  1  0.30180680  0.90449272  0.12907629  1
  Ta  Ta109  1  0.60335814  0.80284243  0.50980097  1
  Ta  Ta110  1  0.08736949  0.89324461  0.38803490  1
  Ta  Ta111  1  0.81296161  -0.00809620  0.24784191  1
  Ta  Ta112  1  0.69159147  0.69628348  0.38259369  1
  Ta  Ta113  1  0.79750491  0.18062195  0.24927889  1
  Ta  Ta114  1  0.29530826  0.70001592  0.62637787  1
  Ta  Ta115  1  0.20189485  0.40181345  0.00291751  1
  Ta  Ta116  1  0.01743030  0.00584972  -0.01669167  1
  Ta  Ta117  1  0.41326455  0.00224834  0.23970008  1
  Ta  Ta118  1  0.39151452  0.41339583  0.75946806  1
  Ta  Ta119  1  -0.00950349  0.22202824  0.50681809  1
  Ti  Ti120  1  -0.00956382  0.60460580  -0.00623260  1
  Ti  Ti121  1  0.90301774  0.89893412  0.87670470  1
  Ti  Ti122  1  0.28483200  0.30674828  0.62129283  1
  Ti  Ti123  1  0.32042170  0.10985662  0.36896174  1
  Ti  Ti124  1  0.00138725  0.01368823  0.26804165  1
  Ti  Ti125  1  0.30573814  0.30695078  0.88666220  1
  Ti  Ti126  1  0.79355246  -0.00918752  0.51776184  1
  Ti  Ti127  1  0.10094980  0.69207232  0.39382961  1
  Ti  Ti128  1  0.89856986  0.28911249  0.36556371  1
  Ti  Ti129  1  0.50553132  0.70263857  0.37505585  1
  Ti  Ti130  1  0.78881374  0.58299992  0.50309036  1
  Ti  Ti131  1  0.40557732  0.60722784  0.24793096  1
  Ti  Ti132  1  0.61472716  0.81046555  0.74467510  1
  Ti  Ti133  1  0.88362129  0.49147323  0.87781569  1
  Ti  Ti134  1  0.90061977  0.90337712  0.11607728  1
  Ti  Ti135  1  0.00651341  0.57812549  0.49777855  1
  Ti  Ti136  1  0.79550340  0.59236180  -0.00134657  1
  Ti  Ti137  1  -0.00947851  0.81610135  0.25403350  1
  Ti  Ti138  1  0.08424806  0.48821486  0.62846095  1
  Ti  Ti139  1  0.60145631  0.18667425  0.74626113  1
  Ti  Ti140  1  0.88918967  0.28070595  0.12624868  1
  Ti  Ti141  1  0.62158831  0.00396701  0.24407705  1
  Ti  Ti142  1  0.60669571  0.18470211  0.51500909  1
  Ti  Ti143  1  0.51050509  0.10826408  0.87723655  1
  Ti  Ti144  1  0.19231482  0.79853934  0.72803103  1
  Ti  Ti145  1  0.58762200  0.38281866  0.24697383  1
  Ti  Ti146  1  0.51379046  0.90942774  0.11394496  1
  Ti  Ti147  1  0.69099715  0.49302926  0.13858527  1
  Ti  Ti148  1  0.08022412  0.31534793  0.37355030  1
  Ti  Ti149  1  0.10003103  0.09411931  0.12748038  1
  Ti  Ti150  1  0.28979088  0.50721680  0.37339794  1
  Ti  Ti151  1  0.49625504  0.50681811  0.86902214  1
  Ti  Ti152  1  0.90116801  0.90175024  0.39105854  1
  Ti  Ti153  1  0.70411051  0.08947930  0.87887063  1
  Ti  Ti154  1  0.69659415  0.69057570  0.88398298  1
  Ti  Ti155  1  0.39395395  0.41184196  0.24424836  1
  Ti  Ti156  1  0.69439340  0.49654878  0.87490199  1
  Ti  Ti157  1  0.39006658  0.40300776  0.50338552  1
  Ti  Ti158  1  0.40267988  0.60499495  -0.00946191  1
  Ti  Ti159  1  0.21001126  -0.01489756  -0.00221615  1
  Mo  Mo160  1  0.68853356  0.09021704  0.63191152  1
  Mo  Mo161  1  0.08920426  0.69857761  0.12506804  1
  Mo  Mo162  1  0.79347815  0.39957732  0.75664359  1
  Mo  Mo163  1  -0.00055919  0.00234836  0.49688346  1
  Mo  Mo164  1  0.89867934  0.89302976  0.61710037  1
  Mo  Mo165  1  0.30119681  0.70646405  0.11091711  1
  Mo  Mo166  1  0.07588572  0.10600629  0.39534405  1
  Mo  Mo167  1  -0.01531507  0.19182934  0.25565356  1
  Mo  Mo168  1  0.60867841  -0.00026553  -0.00623109  1
  Mo  Mo169  1  0.39462379  0.59607897  0.76144056  1
  Mo  Mo170  1  0.31496335  0.31142848  0.10565915  1
  Mo  Mo171  1  -0.00706483  0.40079834  0.49923901  1
  Mo  Mo172  1  0.39776595  0.20940768  0.49795764  1
  Mo  Mo173  1  0.80345022  0.19984045  -0.00778378  1
  Mo  Mo174  1  0.20547534  0.80686511  0.01717178  1
  Mo  Mo175  1  0.51188879  0.10667615  0.62919413  1
  Mo  Mo176  1  -0.00068063  0.19095984  0.00185974  1
  Mo  Mo177  1  0.60174057  0.80195196  -0.00178052  1
  Mo  Mo178  1  0.09686211  0.69449560  0.87442380  1
  Mo  Mo179  1  0.10137621  0.50620480  0.37028410  1
  Mo  Mo180  1  0.10725258  0.09374842  0.87395776  1
  Mo  Mo181  1  0.31881278  0.90953281  0.88412600  1
  Mo  Mo182  1  0.69978465  0.89339282  0.62837610  1
  Mo  Mo183  1  0.78985733  0.19305458  0.51302026  1
  Mo  Mo184  1  0.59701055  0.60239106  0.25617421  1
  Mo  Mo185  1  0.30442603  0.89852496  0.62011049  1
  Mo  Mo186  1  0.90391634  0.29832117  0.62502044  1
  Mo  Mo187  1  0.39992808  0.40713728  -0.01719486  1
  Mo  Mo188  1  0.10738219  0.30192007  0.62486585  1
  Mo  Mo189  1  0.60786619  0.00333071  0.76280444  1
  Mo  Mo190  1  0.70318367  0.49626065  0.61846886  1
  Mo  Mo191  1  0.70474238  0.08199126  0.37611445  1
  Mo  Mo192  1  0.69834237  0.69352048  0.62333543  1
  Mo  Mo193  1  0.60629404  0.59362455  -0.01638949  1
  Mo  Mo194  1  0.19488373  0.60409163  0.50015893  1
  Mo  Mo195  1  0.49630056  0.30969985  0.12215646  1
  Mo  Mo196  1  0.78795153  0.77783754  0.73543953  1
  Mo  Mo197  1  0.61270881  0.20159040  0.24598698  1
  Mo  Mo198  1  0.41336703  0.22375865  0.00091898  1
  Mo  Mo199  1  0.88826886  0.29616239  0.88395025  1
