# generated using pymatgen
data_HfZrTaTiMo
_symmetry_space_group_name_H-M   'P 1'
_cell_length_a   15.20528094
_cell_length_b   15.20801328
_cell_length_c   16.82851406
_cell_angle_alpha   89.96862336
_cell_angle_beta   90.02826719
_cell_angle_gamma   90.07942773
_symmetry_Int_Tables_number   1
_chemical_formula_structural   HfZrTaTiMo
_chemical_formula_sum   'Hf40 Zr40 Ta40 Ti40 Mo40'
_cell_volume   3891.45637888
_cell_formula_units_Z   40
loop_
 _symmetry_equiv_pos_site_id
 _symmetry_equiv_pos_as_xyz
  1  'x, y, z'
loop_
 _atom_site_type_symbol
 _atom_site_label
 _atom_site_symmetry_multiplicity
 _atom_site_fract_x
 _atom_site_fract_y
 _atom_site_fract_z
 _atom_site_occupancy
  Hf  Hf0  1  0.42028410  0.01909928  0.74637732  1
  Hf  Hf1  1  0.90136768  0.48679423  0.37989957  1
  Hf  Hf2  1  0.10944454  0.91049559  0.36805862  1
  Hf  Hf3  1  0.80541947  0.79302537  0.50330383  1
  Hf  Hf4  1  0.52204653  0.30278584  0.36264669  1
  Hf  Hf5  1  0.10168503  0.30693732  0.11336816  1
  Hf  Hf6  1  0.58811570  0.00378876  0.02484313  1
  Hf  Hf7  1  0.01423931  -0.00163592  0.51206720  1
  Hf  Hf8  1  0.30630468  0.30271738  0.12666797  1
  Hf  Hf9  1  0.00372318  0.19064400  -0.01244143  1
  Hf  Hf10  1  0.89642594  0.69925805  0.36831156  1
  Hf  Hf11  1  0.79787647  0.59297588  0.50724855  1
  Hf  Hf12  1  0.29301335  0.68449679  0.86132104  1
  Hf  Hf13  1  0.49107457  0.50601711  0.12306938  1
  Hf  Hf14  1  0.51395153  0.30369645  0.15112801  1
  Hf  Hf15  1  0.29641858  0.51345121  0.39697578  1
  Hf  Hf16  1  0.21394663  0.41564546  -0.01090673  1
  Hf  Hf17  1  0.69368637  0.68979004  0.12226672  1
  Hf  Hf18  1  0.90930405  0.90360683  0.36795333  1
  Hf  Hf19  1  0.59301086  0.60058372  -0.00644514  1
  Hf  Hf20  1  0.69158617  0.29233352  0.86100887  1
  Hf  Hf21  1  0.50637621  0.91212201  0.88603077  1
  Hf  Hf22  1  0.68258579  0.50583997  0.63754796  1
  Hf  Hf23  1  0.10694231  0.70772192  0.37901751  1
  Hf  Hf24  1  0.20011677  0.78426600  -0.00970705  1
  Hf  Hf25  1  0.10409067  0.30590186  0.87162730  1
  Hf  Hf26  1  0.39366389  0.62697434  0.26125600  1
  Hf  Hf27  1  0.29459369  0.29479980  0.62091039  1
  Hf  Hf28  1  -0.00305990  0.19794189  0.51208540  1
  Hf  Hf29  1  0.50409253  0.69287186  0.61673387  1
  Hf  Hf30  1  -0.00322861  0.20808502  0.24240721  1
  Hf  Hf31  1  0.60138314  0.19864258  0.50703145  1
  Hf  Hf32  1  0.30604381  0.70340446  0.61848358  1
  Hf  Hf33  1  0.60062555  -0.00386836  0.49169839  1
  Hf  Hf34  1  0.68861505  0.08456557  0.63807919  1
  Hf  Hf35  1  0.19740344  0.40347923  0.73870319  1
  Hf  Hf36  1  0.70761217  0.89343678  0.36369751  1
  Hf  Hf37  1  0.60728400  0.79172514  0.76281606  1
  Hf  Hf38  1  0.91054683  0.89573001  0.87911874  1
  Hf  Hf39  1  0.18488475  0.40490543  0.25796161  1
  Zr  Zr40  1  0.90722652  0.09962593  0.36926694  1
  Zr  Zr41  1  -0.01396184  0.40128096  0.52841687  1
  Zr  Zr42  1  0.08182965  0.30627437  0.37957329  1
  Zr  Zr43  1  0.79647199  0.59114456  0.25010256  1
  Zr  Zr44  1  0.21374555  0.02301809  0.75919630  1
  Zr  Zr45  1  0.61196115  -0.00025198  0.23106920  1
  Zr  Zr46  1  0.28829527  0.51183900  0.13076924  1
  Zr  Zr47  1  0.39498782  0.41012437  0.26404266  1
  Zr  Zr48  1  0.31366523  0.90284071  0.88310908  1
  Zr  Zr49  1  0.79066189  0.19324482  0.23026605  1
  Zr  Zr50  1  0.81064123  0.18949014  0.75233762  1
  Zr  Zr51  1  0.79861648  0.00292921  -0.00358445  1
  Zr  Zr52  1  0.19334906  0.81380613  0.51334958  1
  Zr  Zr53  1  0.67559794  0.48616808  0.86324937  1
  Zr  Zr54  1  0.51290493  0.90161189  0.62506384  1
  Zr  Zr55  1  0.40466313  0.79569510  0.75208156  1
  Zr  Zr56  1  0.01063436  0.80601226  0.24335310  1
  Zr  Zr57  1  0.40090459  0.19654210  0.48388833  1
  Zr  Zr58  1  0.68100045  0.09010343  0.86810641  1
  Zr  Zr59  1  0.50069919  0.88987083  0.36017690  1
  Zr  Zr60  1  0.91246861  0.89294612  0.64352470  1
  Zr  Zr61  1  0.61121298  0.19759303  0.01705221  1
  Zr  Zr62  1  0.10895797  0.70154250  0.12224908  1
  Zr  Zr63  1  0.41174830  0.20537998  0.01005604  1
  Zr  Zr64  1  -0.00342032  0.61297648  0.51074893  1
  Zr  Zr65  1  0.90335615  0.69389390  0.11452097  1
  Zr  Zr66  1  0.80819806  0.00131138  0.50866835  1
  Zr  Zr67  1  0.46483188  0.49827043  0.88173802  1
  Zr  Zr68  1  0.91106629  0.89364685  0.10716026  1
  Zr  Zr69  1  0.70262469  0.11026220  0.37234690  1
  Zr  Zr70  1  0.89198150  0.49922000  0.10750291  1
  Zr  Zr71  1  0.20671516  0.01446156  0.50682572  1
  Zr  Zr72  1  0.31385138  0.29919130  0.86656019  1
  Zr  Zr73  1  0.80190778  0.59808253  0.77177066  1
  Zr  Zr74  1  0.21308278  0.19921107  0.25819934  1
  Zr  Zr75  1  0.69362903  0.48130612  0.38058413  1
  Zr  Zr76  1  0.78857935  0.38641150  0.24301440  1
  Zr  Zr77  1  0.10885367  0.09284202  0.12634608  1
  Zr  Zr78  1  0.80477228  0.39766880  0.74006136  1
  Zr  Zr79  1  0.19485043  0.60706040  0.26011329  1
  Ta  Ta80  1  0.58675274  0.39137104  0.00073788  1
  Ta  Ta81  1  0.90055705  0.30354468  0.87927431  1
  Ta  Ta82  1  0.90008956  0.30217896  0.10415675  1
  Ta  Ta83  1  0.56972106  0.18679429  0.74190027  1
  Ta  Ta84  1  0.18998834  0.40096756  0.51013985  1
  Ta  Ta85  1  0.79889878  0.59064535  -0.02448892  1
  Ta  Ta86  1  0.20740428  0.19251577  -0.00891901  1
  Ta  Ta87  1  0.19133390  0.60565261  0.51361798  1
  Ta  Ta88  1  0.59450409  0.39403230  0.51360600  1
  Ta  Ta89  1  0.50525807  0.30288752  0.86366200  1
  Ta  Ta90  1  0.79680966  0.78243167  -0.01768523  1
  Ta  Ta91  1  0.08873172  0.50650694  0.11474883  1
  Ta  Ta92  1  0.37294981  0.60958169  0.00422997  1
  Ta  Ta93  1  0.68568643  0.29304365  0.64145136  1
  Ta  Ta94  1  -0.00951448  0.40643692  0.24234322  1
  Ta  Ta95  1  0.10962147  0.89144670  0.86100668  1
  Ta  Ta96  1  0.80101038  -0.01082363  0.76056676  1
  Ta  Ta97  1  0.39097540  -0.00284195  0.23811980  1
  Ta  Ta98  1  0.90174822  0.69227788  0.64592848  1
  Ta  Ta99  1  0.70828750  0.88867024  0.63541070  1
  Ta  Ta100  1  0.60995102  0.79516925  0.49952801  1
  Ta  Ta101  1  0.30278832  0.89199875  0.11058611  1
  Ta  Ta102  1  -0.00637949  0.40495222  0.74249218  1
  Ta  Ta103  1  0.78993919  0.38633092  0.52370831  1
  Ta  Ta104  1  0.40360878  0.40838072  0.73631080  1
  Ta  Ta105  1  0.49659821  0.50373448  0.39199871  1
  Ta  Ta106  1  0.30833022  0.90765956  0.62944320  1
  Ta  Ta107  1  0.58959568  0.59652602  0.25651483  1
  Ta  Ta108  1  0.79448334  0.79864007  0.24235432  1
  Ta  Ta109  1  0.80367347  0.19868329  -0.00427380  1
  Ta  Ta110  1  0.70240348  0.70094062  0.63319538  1
  Ta  Ta111  1  0.40451887  -0.00385079  0.49773170  1
  Ta  Ta112  1  0.60344273  0.60328972  0.49637405  1
  Ta  Ta113  1  0.19327734  0.20394557  0.49182742  1
  Ta  Ta114  1  0.20228683  0.60066156  0.73346902  1
  Ta  Ta115  1  0.10121824  0.09897642  0.36567345  1
  Ta  Ta116  1  0.90904871  0.09595654  0.11759950  1
  Ta  Ta117  1  0.80237618  0.79254398  0.76969811  1
  Ta  Ta118  1  0.00656752  0.61284851  -0.02433463  1
  Ta  Ta119  1  0.09231792  0.50385303  0.38823908  1
  Ti  Ti120  1  0.00312901  0.01578180  0.76600389  1
  Ti  Ti121  1  0.00082115  0.80316307  0.50866803  1
  Ti  Ti122  1  0.10886035  0.90923124  0.65337153  1
  Ti  Ti123  1  0.69792953  0.89431445  0.88202598  1
  Ti  Ti124  1  0.22867201  0.80003215  0.24858788  1
  Ti  Ti125  1  0.30173308  0.30611213  0.38362332  1
  Ti  Ti126  1  0.20735812  0.00474761  -0.01151164  1
  Ti  Ti127  1  0.00202852  0.59255492  0.25164111  1
  Ti  Ti128  1  0.30831152  0.09655398  0.12264451  1
  Ti  Ti129  1  0.00009537  0.41026505  -0.01219512  1
  Ti  Ti130  1  0.30456755  0.50190342  0.60645812  1
  Ti  Ti131  1  0.30787232  0.89229778  0.37735433  1
  Ti  Ti132  1  0.57045020  0.59480713  0.75594624  1
  Ti  Ti133  1  0.20294285  -0.00927773  0.24260580  1
  Ti  Ti134  1  0.49184277  0.70447837  0.38766606  1
  Ti  Ti135  1  0.81649916  -0.00634472  0.23153388  1
  Ti  Ti136  1  0.68783144  0.70081443  0.36448505  1
  Ti  Ti137  1  0.30224848  0.08911607  0.36930821  1
  Ti  Ti138  1  0.68751608  0.48749356  0.11987966  1
  Ti  Ti139  1  0.90740198  0.09471134  0.63728375  1
  Ti  Ti140  1  0.79947861  0.20281852  0.51969634  1
  Ti  Ti141  1  0.00939361  0.20573496  0.75381574  1
  Ti  Ti142  1  0.49086709  0.70353393  0.88332022  1
  Ti  Ti143  1  0.49908827  0.10035634  0.34952745  1
  Ti  Ti144  1  0.10273167  0.51431445  0.86278261  1
  Ti  Ti145  1  0.01789193  -0.00142397  -0.01684378  1
  Ti  Ti146  1  0.87872287  0.29503979  0.38182307  1
  Ti  Ti147  1  0.11148007  0.11912628  0.63650073  1
  Ti  Ti148  1  0.48658274  0.29349178  0.62698022  1
  Ti  Ti149  1  0.48379984  0.10806907  0.88379757  1
  Ti  Ti150  1  0.78779706  0.39549872  -0.01021280  1
  Ti  Ti151  1  0.59791838  0.79706328  0.00005136  1
  Ti  Ti152  1  0.31199959  0.10794163  0.62301290  1
  Ti  Ti153  1  0.49260261  0.88946383  0.12861124  1
  Ti  Ti154  1  0.09463306  0.71548490  0.64816674  1
  Ti  Ti155  1  0.70403597  0.88449345  0.12138302  1
  Ti  Ti156  1  0.48623300  0.49888506  0.60781448  1
  Ti  Ti157  1  0.10604818  0.90256827  0.11291990  1
  Ti  Ti158  1  0.48860545  0.70782941  0.12386606  1
  Ti  Ti159  1  0.09018829  0.51251905  0.63091201  1
  Mo  Mo160  1  0.59798023  0.78462464  0.24053052  1
  Mo  Mo161  1  0.39913515  0.80690375  0.24748200  1
  Mo  Mo162  1  0.00106474  0.80028100  0.75541420  1
  Mo  Mo163  1  0.71235075  0.09452498  0.12082107  1
  Mo  Mo164  1  0.10497299  0.10017482  0.87381537  1
  Mo  Mo165  1  0.10004072  0.29769829  0.63102592  1
  Mo  Mo166  1  0.40548656  0.40203649  0.00644112  1
  Mo  Mo167  1  0.00902012  0.80405095  -0.01269810  1
  Mo  Mo168  1  0.19745516  0.20191360  0.75268996  1
  Mo  Mo169  1  0.90561464  0.10113862  0.87086594  1
  Mo  Mo170  1  0.68715116  0.69824091  0.88146295  1
  Mo  Mo171  1  0.10004976  0.70320130  0.85123221  1
  Mo  Mo172  1  0.49249746  0.10154897  0.61671240  1
  Mo  Mo173  1  0.60547681  0.41347926  0.25185078  1
  Mo  Mo174  1  0.18846147  0.59675233  -0.00767136  1
  Mo  Mo175  1  0.60706405  -0.00763567  0.75469187  1
  Mo  Mo176  1  0.40501249  0.81136934  0.50187274  1
  Mo  Mo177  1  0.58190858  0.39581840  0.73253496  1
  Mo  Mo178  1  0.00914937  0.00350359  0.23921685  1
  Mo  Mo179  1  0.40063614  0.60615781  0.49545540  1
  Mo  Mo180  1  0.30567577  0.70774842  0.12151727  1
  Mo  Mo181  1  0.20487641  0.80790987  0.74118523  1
  Mo  Mo182  1  0.39879569  0.19395023  0.26152702  1
  Mo  Mo183  1  0.70886141  0.30884548  0.11172686  1
  Mo  Mo184  1  0.60971402  0.20264724  0.24386069  1
  Mo  Mo185  1  0.90495914  0.69696407  0.87453324  1
  Mo  Mo186  1  0.49523375  0.10350072  0.14938945  1
  Mo  Mo187  1  0.41018445  0.79574033  -0.00164885  1
  Mo  Mo188  1  0.90684953  0.48739946  0.88258765  1
  Mo  Mo189  1  0.39317845  0.58846098  0.73761292  1
  Mo  Mo190  1  0.40109617  0.39714358  0.49816060  1
  Mo  Mo191  1  0.89442963  0.50535908  0.63186789  1
  Mo  Mo192  1  0.30792702  0.10238747  0.88773259  1
  Mo  Mo193  1  0.28836070  0.49768743  0.86432092  1
  Mo  Mo194  1  0.70817638  0.29621800  0.38923027  1
  Mo  Mo195  1  0.89829401  0.28846338  0.63328103  1
  Mo  Mo196  1  0.39891993  0.00366522  0.02083471  1
  Mo  Mo197  1  0.00422046  0.59579593  0.75807102  1
  Mo  Mo198  1  0.38913775  0.20194094  0.74878710  1
  Mo  Mo199  1  0.30485130  0.71856280  0.39532695  1
