# generated using pymatgen
data_HfZrTaTiMo
_symmetry_space_group_name_H-M   'P 1'
_cell_length_a   15.18847079
_cell_length_b   15.18292127
_cell_length_c   16.80083774
_cell_angle_alpha   90.00359529
_cell_angle_beta   89.99683096
_cell_angle_gamma   90.03926478
_symmetry_Int_Tables_number   1
_chemical_formula_structural   HfZrTaTiMo
_chemical_formula_sum   'Hf40 Zr40 Ta40 Ti40 Mo40'
_cell_volume   3874.36224772
_cell_formula_units_Z   40
loop_
 _symmetry_equiv_pos_site_id
 _symmetry_equiv_pos_as_xyz
  1  'x, y, z'
loop_
 _atom_site_type_symbol
 _atom_site_label
 _atom_site_symmetry_multiplicity
 _atom_site_fract_x
 _atom_site_fract_y
 _atom_site_fract_z
 _atom_site_occupancy
  Hf  Hf0  1  0.59807139  0.22022472  0.50091560  1
  Hf  Hf1  1  0.90645256  0.10252876  0.35533464  1
  Hf  Hf2  1  0.78771637  0.19248611  0.76003574  1
  Hf  Hf3  1  0.39040853  0.19601081  0.74698764  1
  Hf  Hf4  1  0.29293410  0.09530106  0.37031860  1
  Hf  Hf5  1  0.09498477  0.30522760  0.87282758  1
  Hf  Hf6  1  0.10357644  0.66848630  0.12266264  1
  Hf  Hf7  1  0.90672819  0.68956800  0.86967267  1
  Hf  Hf8  1  0.91286972  0.90016372  0.85945796  1
  Hf  Hf9  1  0.78806556  0.59410630  0.50909048  1
  Hf  Hf10  1  0.00198745  -0.00964773  0.49685838  1
  Hf  Hf11  1  0.40949509  0.39405253  0.48377952  1
  Hf  Hf12  1  -0.00381366  -0.00403204  0.00611153  1
  Hf  Hf13  1  0.69101926  0.90513010  0.11285654  1
  Hf  Hf14  1  0.60530540  0.42142509  0.49403866  1
  Hf  Hf15  1  0.02195743  0.59381764  0.26672295  1
  Hf  Hf16  1  0.50203952  0.89773740  0.37775807  1
  Hf  Hf17  1  0.10482637  0.70434921  0.86410892  1
  Hf  Hf18  1  0.78467608  0.00809329  0.24080969  1
  Hf  Hf19  1  0.21360675  0.59527503  0.75263205  1
  Hf  Hf20  1  0.00447229  0.40934430  0.00569913  1
  Hf  Hf21  1  0.20939817  0.41064462  0.00905624  1
  Hf  Hf22  1  0.90926189  0.70378701  0.38452473  1
  Hf  Hf23  1  0.30143225  0.31796472  0.87026454  1
  Hf  Hf24  1  0.89772301  0.29771101  0.36077004  1
  Hf  Hf25  1  0.20210933  0.77516052  0.24882933  1
  Hf  Hf26  1  0.29095523  0.10903556  0.89492184  1
  Hf  Hf27  1  0.28027914  0.30111557  0.37074488  1
  Hf  Hf28  1  0.30233584  0.31741257  0.13842017  1
  Hf  Hf29  1  0.40832563  0.20488992  0.24994682  1
  Hf  Hf30  1  0.48725926  0.10160145  0.89314693  1
  Hf  Hf31  1  0.39117913  0.20020016  0.49734526  1
  Hf  Hf32  1  0.58590391  0.20561838  0.75253745  1
  Hf  Hf33  1  0.00477862  0.57864310  0.72570858  1
  Hf  Hf34  1  0.08980455  0.09798917  0.13768880  1
  Hf  Hf35  1  0.19658705  0.00093612  0.49256248  1
  Hf  Hf36  1  0.59981842  0.60289063  0.76418515  1
  Hf  Hf37  1  0.09429387  0.89045111  0.35840543  1
  Hf  Hf38  1  -0.01344295  0.20360887  0.00309800  1
  Hf  Hf39  1  0.81154262  0.80699480  0.00606564  1
  Zr  Zr40  1  0.30846070  0.49421997  0.61343532  1
  Zr  Zr41  1  0.70391514  0.31221572  0.63452373  1
  Zr  Zr42  1  0.49074233  0.69265044  0.11334216  1
  Zr  Zr43  1  0.50296376  0.10397935  0.10779214  1
  Zr  Zr44  1  0.50585180  0.89463620  0.62584623  1
  Zr  Zr45  1  0.27191504  0.30221493  0.61746109  1
  Zr  Zr46  1  0.69655722  0.49703824  0.12874665  1
  Zr  Zr47  1  0.71374294  0.91420472  0.87613309  1
  Zr  Zr48  1  0.70605556  0.10937784  0.38686557  1
  Zr  Zr49  1  0.71068549  0.48956427  0.86731079  1
  Zr  Zr50  1  0.80196097  0.00507365  0.49904139  1
  Zr  Zr51  1  0.80668446  0.61261149  0.24845432  1
  Zr  Zr52  1  0.00186101  0.78930922  0.00842475  1
  Zr  Zr53  1  0.00117433  0.39125855  0.49643101  1
  Zr  Zr54  1  0.70027253  0.90967361  0.63396841  1
  Zr  Zr55  1  0.60405668  0.01254675  0.76335120  1
  Zr  Zr56  1  0.39569404  -0.00609901  0.24072695  1
  Zr  Zr57  1  0.60163888  0.78709322  0.24778156  1
  Zr  Zr58  1  0.81685145  0.79793809  0.51647936  1
  Zr  Zr59  1  0.20419571  0.00981707  0.75546018  1
  Zr  Zr60  1  0.50479666  0.10106750  0.38151988  1
  Zr  Zr61  1  0.30009929  0.09766326  0.61875255  1
  Zr  Zr62  1  0.20704463  0.60203876  -0.01358280  1
  Zr  Zr63  1  0.80168787  0.39866399  0.00443367  1
  Zr  Zr64  1  0.61042303  0.78475640  0.49622863  1
  Zr  Zr65  1  0.40168556  0.78744641  0.76241292  1
  Zr  Zr66  1  0.31250303  0.69264490  0.61688995  1
  Zr  Zr67  1  0.20000211  0.80353836  0.00764575  1
  Zr  Zr68  1  0.29521257  0.89181118  0.62994256  1
  Zr  Zr69  1  0.89444295  0.10436209  0.63082720  1
  Zr  Zr70  1  0.09824912  0.11068089  0.62732420  1
  Zr  Zr71  1  0.29977522  0.90328308  0.87759981  1
  Zr  Zr72  1  0.81041825  0.59381608  0.73781196  1
  Zr  Zr73  1  0.40143593  0.79653736  0.49311771  1
  Zr  Zr74  1  0.11355144  0.69935109  0.61643669  1
  Zr  Zr75  1  0.48929968  0.49651417  0.13007249  1
  Zr  Zr76  1  0.89933729  0.89880104  0.36204876  1
  Zr  Zr77  1  0.69858994  0.69551806  0.10949474  1
  Zr  Zr78  1  0.18781987  0.20910481  0.01348741  1
  Zr  Zr79  1  0.59231292  -0.00231189  0.24094870  1
  Ta  Ta80  1  0.79512696  0.20380396  -0.00607436  1
  Ta  Ta81  1  0.59560054  0.80226172  -0.01576517  1
  Ta  Ta82  1  0.08823055  0.09664031  0.87598371  1
  Ta  Ta83  1  0.89134367  0.09419222  0.87058512  1
  Ta  Ta84  1  0.88731618  0.11501712  0.13732308  1
  Ta  Ta85  1  0.69621557  0.51856613  0.36502647  1
  Ta  Ta86  1  0.82211150  0.59767874  0.00231356  1
  Ta  Ta87  1  0.70063247  0.89462905  0.37576460  1
  Ta  Ta88  1  -0.00373939  0.59975278  0.51281196  1
  Ta  Ta89  1  0.40897353  0.57796867  0.76467617  1
  Ta  Ta90  1  0.29642924  0.50547573  0.38423281  1
  Ta  Ta91  1  0.41115194  0.00053301  0.75415966  1
  Ta  Ta92  1  0.92125522  0.50932051  0.13299059  1
  Ta  Ta93  1  -0.00634734  0.20492611  0.75743946  1
  Ta  Ta94  1  0.49789136  0.69225431  0.88549868  1
  Ta  Ta95  1  0.69003290  0.69952432  0.63592843  1
  Ta  Ta96  1  0.39391904  0.79183132  -0.00873435  1
  Ta  Ta97  1  0.89867685  0.30772974  0.14227590  1
  Ta  Ta98  1  0.42184785  0.59570281  0.49058035  1
  Ta  Ta99  1  0.60952900  0.19915077  0.24817536  1
  Ta  Ta100  1  0.09960819  0.89579477  0.14030805  1
  Ta  Ta101  1  -0.00110914  0.19664576  0.49206922  1
  Ta  Ta102  1  0.29632799  0.69418750  0.38589356  1
  Ta  Ta103  1  0.90786472  0.90537872  0.64301202  1
  Ta  Ta104  1  0.59089136  0.39384898  -0.00133278  1
  Ta  Ta105  1  0.79929369  0.79507817  0.74406475  1
  Ta  Ta106  1  0.39546922  0.40872063  0.26496807  1
  Ta  Ta107  1  0.79855233  0.40697050  0.25053051  1
  Ta  Ta108  1  0.40311659  -0.00360390  0.49840979  1
  Ta  Ta109  1  0.29861877  0.09857515  0.11639220  1
  Ta  Ta110  1  0.00296981  0.78991320  0.73710564  1
  Ta  Ta111  1  0.39732736  0.79347767  0.25230795  1
  Ta  Ta112  1  0.48993245  0.31216532  0.63113242  1
  Ta  Ta113  1  0.69356379  0.10842351  0.61303117  1
  Ta  Ta114  1  0.79942235  0.80351358  0.23981205  1
  Ta  Ta115  1  0.70007728  0.29133594  0.12850610  1
  Ta  Ta116  1  0.70914611  0.70109767  0.88233323  1
  Ta  Ta117  1  0.10007479  0.90257357  0.63434468  1
  Ta  Ta118  1  0.60406687  0.58879341  -0.01485767  1
  Ta  Ta119  1  0.59686682  0.39374356  0.25801516  1
  Ti  Ti120  1  0.69247210  0.30459463  0.86706606  1
  Ti  Ti121  1  0.08932864  0.31261622  0.14621230  1
  Ti  Ti122  1  0.50679620  0.50072743  0.62846270  1
  Ti  Ti123  1  0.59926174  0.80350269  0.77160731  1
  Ti  Ti124  1  0.18841745  0.80100675  0.49044475  1
  Ti  Ti125  1  0.60464991  0.20806442  -0.00689770  1
  Ti  Ti126  1  0.11085041  0.47617161  0.61552998  1
  Ti  Ti127  1  0.51760481  0.68708500  0.37056218  1
  Ti  Ti128  1  -0.00682996  0.78544860  0.23702647  1
  Ti  Ti129  1  0.91415562  0.49200120  0.86963876  1
  Ti  Ti130  1  0.19311381  -0.00266023  0.00824018  1
  Ti  Ti131  1  0.29310975  0.52411045  0.13753432  1
  Ti  Ti132  1  0.90514451  0.90824886  0.13667632  1
  Ti  Ti133  1  0.39616729  0.58111712  -0.01523196  1
  Ti  Ti134  1  0.59807600  0.00083393  -0.00853706  1
  Ti  Ti135  1  0.69702536  0.49686048  0.63834191  1
  Ti  Ti136  1  0.70069427  0.30792275  0.37110580  1
  Ti  Ti137  1  0.10194601  0.90177146  0.86223297  1
  Ti  Ti138  1  0.10726229  0.50059111  0.39337503  1
  Ti  Ti139  1  0.49467329  0.31508174  0.87219769  1
  Ti  Ti140  1  0.10477526  0.49452383  0.86460723  1
  Ti  Ti141  1  0.89328379  0.30670761  0.86702076  1
  Ti  Ti142  1  0.39842037  0.22368525  0.00780630  1
  Ti  Ti143  1  0.18973416  0.21090627  0.75425645  1
  Ti  Ti144  1  0.50527273  0.68906437  0.62884800  1
  Ti  Ti145  1  0.29783469  0.89528124  0.37087774  1
  Ti  Ti146  1  0.39565490  0.60834870  0.25965009  1
  Ti  Ti147  1  0.90394787  0.30348668  0.62881944  1
  Ti  Ti148  1  0.20100313  -0.00502093  0.24492640  1
  Ti  Ti149  1  0.30134770  0.89228221  0.12434907  1
  Ti  Ti150  1  0.50432109  0.09667785  0.61607097  1
  Ti  Ti151  1  0.09731634  0.10793364  0.35762660  1
  Ti  Ti152  1  0.80138701  0.01573135  0.00906346  1
  Ti  Ti153  1  0.19867765  0.20100965  0.24191375  1
  Ti  Ti154  1  0.50485322  0.30578929  0.12723710  1
  Ti  Ti155  1  0.79941045  0.39344407  0.49665691  1
  Ti  Ti156  1  0.89659133  0.50035715  0.37868943  1
  Ti  Ti157  1  0.50469519  0.50361317  0.36401738  1
  Ti  Ti158  1  0.18605262  0.42006953  0.25578350  1
  Ti  Ti159  1  0.48944420  0.89511236  0.10817339  1
  Mo  Mo160  1  0.20162165  0.59366238  0.49824184  1
  Mo  Mo161  1  0.00678151  0.80393997  0.51433676  1
  Mo  Mo162  1  0.70870263  0.70544635  0.37238646  1
  Mo  Mo163  1  0.21320574  0.59395020  0.26293099  1
  Mo  Mo164  1  0.00265718  0.58735514  -0.00726904  1
  Mo  Mo165  1  0.89292614  0.48582891  0.61358576  1
  Mo  Mo166  1  0.49870748  0.90077919  0.88571609  1
  Mo  Mo167  1  -0.00047256  -0.00391533  0.24106967  1
  Mo  Mo168  1  0.50547095  0.30429252  0.36654793  1
  Mo  Mo169  1  0.10804053  0.49024909  0.13161509  1
  Mo  Mo170  1  0.40287250  0.39965592  0.00700643  1
  Mo  Mo171  1  0.90101254  0.69878185  0.62393526  1
  Mo  Mo172  1  0.19446115  0.39336558  0.48914161  1
  Mo  Mo173  1  0.69819971  0.11163806  0.89224044  1
  Mo  Mo174  1  0.78819361  0.20908082  0.24551949  1
  Mo  Mo175  1  0.80940622  0.21800377  0.50241584  1
  Mo  Mo176  1  0.59999384  0.59785590  0.50464667  1
  Mo  Mo177  1  0.49921343  0.48678800  0.88063075  1
  Mo  Mo178  1  0.90565570  0.69855181  0.12703914  1
  Mo  Mo179  1  0.09398453  0.29545662  0.35777725  1
  Mo  Mo180  1  -0.00248924  0.40997096  0.26252581  1
  Mo  Mo181  1  0.08761289  0.29381318  0.62807915  1
  Mo  Mo182  1  0.81754761  0.39498034  0.75016625  1
  Mo  Mo183  1  0.40129976  0.39696674  0.74318938  1
  Mo  Mo184  1  0.19730349  0.80039644  0.75093217  1
  Mo  Mo185  1  0.69727738  0.10588188  0.10528890  1
  Mo  Mo186  1  0.00157243  0.39443781  0.74301325  1
  Mo  Mo187  1  0.31253057  0.69701628  0.12625693  1
  Mo  Mo188  1  0.30553087  0.69438299  0.87111106  1
  Mo  Mo189  1  0.80089179  0.00326036  0.74982157  1
  Mo  Mo190  1  0.59530274  0.59431236  0.25189796  1
  Mo  Mo191  1  0.18965988  0.40337135  0.74809748  1
  Mo  Mo192  1  0.17558445  0.20244124  0.48559609  1
  Mo  Mo193  1  0.58708120  0.40709630  0.75065519  1
  Mo  Mo194  1  0.00207402  0.20554279  0.24331558  1
  Mo  Mo195  1  0.00218531  0.00449510  0.75461265  1
  Mo  Mo196  1  0.30179556  0.49337385  0.87048110  1
  Mo  Mo197  1  0.10367887  0.69321561  0.39525709  1
  Mo  Mo198  1  0.38911746  -0.00706423  0.01141622  1
  Mo  Mo199  1  0.59669428  0.00273403  0.50366163  1
