# generated using pymatgen
data_HfZrTaTiMo
_symmetry_space_group_name_H-M   'P 1'
_cell_length_a   15.20986911
_cell_length_b   15.21727661
_cell_length_c   16.87795225
_cell_angle_alpha   90.02423602
_cell_angle_beta   90.06128414
_cell_angle_gamma   90.22747292
_symmetry_Int_Tables_number   1
_chemical_formula_structural   HfZrTaTiMo
_chemical_formula_sum   'Hf40 Zr40 Ta40 Ti40 Mo40'
_cell_volume   3906.41568241
_cell_formula_units_Z   40
loop_
 _symmetry_equiv_pos_site_id
 _symmetry_equiv_pos_as_xyz
  1  'x, y, z'
loop_
 _atom_site_type_symbol
 _atom_site_label
 _atom_site_symmetry_multiplicity
 _atom_site_fract_x
 _atom_site_fract_y
 _atom_site_fract_z
 _atom_site_occupancy
  Hf  Hf0  1  -0.00613409  0.58694800  0.50988887  1
  Hf  Hf1  1  0.20913192  -0.01553684  0.24434525  1
  Hf  Hf2  1  0.38546561  0.39343011  0.75316976  1
  Hf  Hf3  1  0.60560769  0.41873951  0.51257360  1
  Hf  Hf4  1  0.08682045  0.88139658  0.11995020  1
  Hf  Hf5  1  0.89864952  0.70583396  0.11082012  1
  Hf  Hf6  1  0.20609769  0.39736186  0.25485376  1
  Hf  Hf7  1  0.08729341  0.28857328  0.35649208  1
  Hf  Hf8  1  -0.00813632  0.78180288  0.25239194  1
  Hf  Hf9  1  0.69022368  0.71327267  0.89192246  1
  Hf  Hf10  1  0.00795533  -0.00219199  0.49608683  1
  Hf  Hf11  1  0.00863439  0.20949804  0.50621632  1
  Hf  Hf12  1  0.07511248  0.49684502  0.36730535  1
  Hf  Hf13  1  0.19759881  0.80108135  0.50909009  1
  Hf  Hf14  1  0.38974564  0.59453492  0.74909881  1
  Hf  Hf15  1  0.80324293  -0.00183336  0.49556961  1
  Hf  Hf16  1  0.50270889  0.71149587  0.36443166  1
  Hf  Hf17  1  0.49506286  0.50475970  0.88409473  1
  Hf  Hf18  1  0.30211319  0.89754691  0.64013610  1
  Hf  Hf19  1  0.08606087  0.10139190  0.12786761  1
  Hf  Hf20  1  0.59609374  0.40110932  0.24290259  1
  Hf  Hf21  1  0.58671795  0.80182096  0.50403363  1
  Hf  Hf22  1  0.70072691  0.50793552  0.88393611  1
  Hf  Hf23  1  0.90678367  0.11704499  0.37277248  1
  Hf  Hf24  1  0.61445003  0.01478827  0.25149810  1
  Hf  Hf25  1  0.69642624  0.68349885  0.37999855  1
  Hf  Hf26  1  0.19803085  0.59432753  -0.00043712  1
  Hf  Hf27  1  0.31425403  0.29525537  0.12241003  1
  Hf  Hf28  1  0.51404207  0.89753563  0.87047312  1
  Hf  Hf29  1  0.70694895  0.31681532  0.37794642  1
  Hf  Hf30  1  0.79623670  0.42212629  0.23202586  1
  Hf  Hf31  1  0.20254584  0.59620516  0.50792329  1
  Hf  Hf32  1  0.59596977  0.39137243  0.01050490  1
  Hf  Hf33  1  0.79991051  0.60321144  0.75460184  1
  Hf  Hf34  1  0.40844482  0.00492997  0.26657362  1
  Hf  Hf35  1  0.59191059  0.40748215  0.73747606  1
  Hf  Hf36  1  0.18824340  0.41911386  0.77032186  1
  Hf  Hf37  1  0.50305674  0.90976412  0.12952054  1
  Hf  Hf38  1  0.09526138  0.68966839  0.37735628  1
  Hf  Hf39  1  0.41442356  0.00581915  0.75233872  1
  Zr  Zr40  1  0.21106498  0.20520599  -0.01012233  1
  Zr  Zr41  1  0.39244417  0.81348801  0.24801611  1
  Zr  Zr42  1  0.69809223  0.70657606  0.11606454  1
  Zr  Zr43  1  0.49441964  0.28790170  0.86815059  1
  Zr  Zr44  1  0.40875805  0.21273234  0.26888996  1
  Zr  Zr45  1  0.30271073  0.50908431  0.37553868  1
  Zr  Zr46  1  0.29548929  0.49884904  0.12487993  1
  Zr  Zr47  1  0.00447711  0.59727729  0.00320035  1
  Zr  Zr48  1  0.91466064  0.10114786  0.62464557  1
  Zr  Zr49  1  0.81217649  0.20057156  0.75251323  1
  Zr  Zr50  1  0.79353728  0.18554398  -0.00586207  1
  Zr  Zr51  1  -0.00314301  0.19399424  -0.01713079  1
  Zr  Zr52  1  0.08532952  0.88234460  0.86700434  1
  Zr  Zr53  1  0.41023366  0.01116685  -0.00958891  1
  Zr  Zr54  1  0.59195677  0.61635124  0.74910729  1
  Zr  Zr55  1  0.31289459  0.10909475  0.63442050  1
  Zr  Zr56  1  0.31322963  0.09377252  0.12532217  1
  Zr  Zr57  1  0.11366321  0.08464604  0.86722106  1
  Zr  Zr58  1  0.21425420  0.21766739  0.76519657  1
  Zr  Zr59  1  0.80364349  0.40010335  0.01811765  1
  Zr  Zr60  1  0.40698730  -0.00938581  0.48727235  1
  Zr  Zr61  1  0.78745302  0.80157753  0.74815810  1
  Zr  Zr62  1  0.90547539  0.70892378  0.88406702  1
  Zr  Zr63  1  0.20193753  -0.01337668  0.00504285  1
  Zr  Zr64  1  0.39040685  0.80546886  -0.00039334  1
  Zr  Zr65  1  0.10425567  0.88854063  0.37484876  1
  Zr  Zr66  1  0.20448038  0.00329204  0.50032077  1
  Zr  Zr67  1  0.01721636  0.59432243  0.75149965  1
  Zr  Zr68  1  0.40088020  0.60389273  0.24551694  1
  Zr  Zr69  1  0.62044656  0.00714018  0.00920073  1
  Zr  Zr70  1  0.90818286  0.47647309  0.87264151  1
  Zr  Zr71  1  0.19980762  0.19889145  0.49631104  1
  Zr  Zr72  1  0.40010679  0.20588022  0.49158946  1
  Zr  Zr73  1  -0.00761652  -0.01070569  0.25754180  1
  Zr  Zr74  1  0.60437784  0.21051549  0.51623442  1
  Zr  Zr75  1  0.68543924  0.89248819  0.37761394  1
  Zr  Zr76  1  0.90373989  0.27711846  0.13446276  1
  Zr  Zr77  1  0.09594625  0.91072494  0.64065241  1
  Zr  Zr78  1  0.70242868  0.30400735  0.86567333  1
  Zr  Zr79  1  0.18989668  0.39203840  0.48941687  1
  Ta  Ta80  1  0.68500128  0.27969964  0.13346038  1
  Ta  Ta81  1  0.79255491  0.57370323  0.49916570  1
  Ta  Ta82  1  0.40367492  0.79251892  0.75610116  1
  Ta  Ta83  1  -0.01240149  0.79424400  0.73752730  1
  Ta  Ta84  1  0.19567470  0.78265917  0.74803095  1
  Ta  Ta85  1  0.01070494  0.39745946  0.01619173  1
  Ta  Ta86  1  0.28801634  0.71012007  0.12301483  1
  Ta  Ta87  1  0.80943881  0.82865682  -0.00156585  1
  Ta  Ta88  1  0.09365221  0.47493427  0.62468676  1
  Ta  Ta89  1  0.51927255  0.51103303  0.37740600  1
  Ta  Ta90  1  0.18724667  0.78682543  -0.00653961  1
  Ta  Ta91  1  0.79462548  0.79145249  0.25370492  1
  Ta  Ta92  1  0.69914228  0.69862011  0.60822501  1
  Ta  Ta93  1  0.29367219  0.70932784  0.37576222  1
  Ta  Ta94  1  0.70131332  0.50941594  0.63199867  1
  Ta  Ta95  1  0.59924576  0.00608470  0.51227724  1
  Ta  Ta96  1  0.00907224  0.21305560  0.76876587  1
  Ta  Ta97  1  0.89267710  0.67636592  0.37811522  1
  Ta  Ta98  1  0.70339012  0.09340848  0.86034955  1
  Ta  Ta99  1  0.39149250  0.39599802  -0.00679465  1
  Ta  Ta100  1  0.40777224  0.40526238  0.25682016  1
  Ta  Ta101  1  0.29132482  0.69487509  0.87027286  1
  Ta  Ta102  1  0.70400502  0.11042015  0.38957595  1
  Ta  Ta103  1  0.61435214  -0.00203073  0.72955717  1
  Ta  Ta104  1  0.89001676  0.69113665  0.61848116  1
  Ta  Ta105  1  0.78701146  0.19095751  0.25411973  1
  Ta  Ta106  1  0.89118292  0.48631335  0.63730396  1
  Ta  Ta107  1  0.49844241  0.50095144  0.11895401  1
  Ta  Ta108  1  0.29181570  0.90118321  0.85893026  1
  Ta  Ta109  1  0.88126555  0.07589307  0.13180255  1
  Ta  Ta110  1  0.80324406  -0.00482167  0.73953992  1
  Ta  Ta111  1  0.20325920  0.19341756  0.25018939  1
  Ta  Ta112  1  0.59828927  0.19398520  0.72791123  1
  Ta  Ta113  1  0.72145688  0.31502914  0.63057911  1
  Ta  Ta114  1  0.89520581  0.88988276  0.61525674  1
  Ta  Ta115  1  -0.00129277  0.40344712  0.22753438  1
  Ta  Ta116  1  0.52056418  0.10070634  0.86446178  1
  Ta  Ta117  1  0.39990132  0.40968033  0.50253322  1
  Ta  Ta118  1  0.51655648  0.12987354  0.13350862  1
  Ta  Ta119  1  -0.02703892  -0.01626642  -0.00560865  1
  Ti  Ti120  1  0.30425948  0.69863734  0.62614796  1
  Ti  Ti121  1  -0.01720820  0.58809570  0.23228490  1
  Ti  Ti122  1  0.51865561  0.10483601  0.38040460  1
  Ti  Ti123  1  0.29402763  0.10249611  0.37199753  1
  Ti  Ti124  1  0.49477429  0.69868687  0.62294705  1
  Ti  Ti125  1  0.70429740  0.89380619  0.61221496  1
  Ti  Ti126  1  0.59509259  0.60211014  0.00999249  1
  Ti  Ti127  1  0.89239986  0.87450500  0.38936432  1
  Ti  Ti128  1  0.61702869  0.59811988  0.23847134  1
  Ti  Ti129  1  -0.01022123  0.00245063  0.75547525  1
  Ti  Ti130  1  0.39348045  0.79955313  0.49355812  1
  Ti  Ti131  1  0.49430882  0.70212021  0.88262729  1
  Ti  Ti132  1  0.50272243  0.31522820  0.38561321  1
  Ti  Ti133  1  0.32417316  0.11224696  0.86959992  1
  Ti  Ti134  1  0.19532265  0.40296936  -0.01483071  1
  Ti  Ti135  1  0.71858636  0.90985487  0.13431794  1
  Ti  Ti136  1  0.49945837  0.70388516  0.13020283  1
  Ti  Ti137  1  -0.00700254  0.78925054  0.50779841  1
  Ti  Ti138  1  0.49693693  0.89895256  0.62719410  1
  Ti  Ti139  1  0.81152172  0.21684552  0.50305030  1
  Ti  Ti140  1  0.10997965  0.11113666  0.64624136  1
  Ti  Ti141  1  0.41064785  0.60410931  0.50112865  1
  Ti  Ti142  1  0.10098399  0.09688397  0.36238742  1
  Ti  Ti143  1  0.59703080  0.80450805  0.73834810  1
  Ti  Ti144  1  0.28449407  0.30974640  0.62360354  1
  Ti  Ti145  1  0.29852838  0.49973169  0.62144589  1
  Ti  Ti146  1  0.19818201  0.79201832  0.24550471  1
  Ti  Ti147  1  0.59576800  0.19650352  -0.00287209  1
  Ti  Ti148  1  0.59544469  0.81059883  0.00835046  1
  Ti  Ti149  1  -0.02108256  0.39696000  0.49615514  1
  Ti  Ti150  1  0.89869978  0.31341072  0.35790650  1
  Ti  Ti151  1  0.70592578  0.91001303  0.87225443  1
  Ti  Ti152  1  0.18427423  0.60325851  0.24153489  1
  Ti  Ti153  1  0.71210574  0.10406299  0.61707525  1
  Ti  Ti154  1  0.09849465  0.69338937  0.62612973  1
  Ti  Ti155  1  0.91682180  0.30807761  0.63500930  1
  Ti  Ti156  1  0.39534962  0.60412769  0.00343876  1
  Ti  Ti157  1  0.48465160  0.30046995  0.62617920  1
  Ti  Ti158  1  0.11084162  0.29690290  0.12883332  1
  Ti  Ti159  1  0.80382442  -0.00846657  0.27024707  1
  Mo  Mo160  1  0.80574086  0.60947913  0.24623100  1
  Mo  Mo161  1  -0.00118631  0.19758447  0.24404362  1
  Mo  Mo162  1  0.79766475  0.40134121  0.74922634  1
  Mo  Mo163  1  0.70411552  0.10094300  0.13403667  1
  Mo  Mo164  1  0.10001001  0.49200643  0.13046857  1
  Mo  Mo165  1  0.41059557  0.20452089  0.74274897  1
  Mo  Mo166  1  0.10185218  0.50844375  0.87936356  1
  Mo  Mo167  1  0.89121552  0.90510629  0.86366988  1
  Mo  Mo168  1  0.89692348  0.50288160  0.11385341  1
  Mo  Mo169  1  0.70221150  0.50580729  0.37184013  1
  Mo  Mo170  1  0.20438406  -0.00057277  0.75558506  1
  Mo  Mo171  1  0.49635310  0.30531270  0.12521878  1
  Mo  Mo172  1  0.80492436  0.78620239  0.49889895  1
  Mo  Mo173  1  0.09803018  0.29970906  0.63233013  1
  Mo  Mo174  1  0.79869230  0.00366238  -0.00423929  1
  Mo  Mo175  1  0.58976273  0.60115147  0.50781408  1
  Mo  Mo176  1  0.60335244  0.20811004  0.26688482  1
  Mo  Mo177  1  -0.00246098  0.39223535  0.75235872  1
  Mo  Mo178  1  0.08912432  0.31569637  0.88695628  1
  Mo  Mo179  1  0.48813158  0.50584892  0.62021129  1
  Mo  Mo180  1  0.69366906  0.50968064  0.11316649  1
  Mo  Mo181  1  0.20560353  0.60189583  0.73681374  1
  Mo  Mo182  1  0.50507398  0.90434075  0.37599508  1
  Mo  Mo183  1  0.79091562  0.60365016  -0.00785723  1
  Mo  Mo184  1  0.30397382  0.30217677  0.36994163  1
  Mo  Mo185  1  0.50904177  0.09660928  0.62296626  1
  Mo  Mo186  1  0.88932161  0.49174964  0.36936967  1
  Mo  Mo187  1  0.89877932  0.08741537  0.86450332  1
  Mo  Mo188  1  0.00200363  0.80242340  -0.00173034  1
  Mo  Mo189  1  0.89043367  0.89567602  0.13249761  1
  Mo  Mo190  1  0.41705450  0.20184797  -0.00101288  1
  Mo  Mo191  1  0.30563734  0.50633174  0.88490754  1
  Mo  Mo192  1  0.90249091  0.29666880  0.88014612  1
  Mo  Mo193  1  0.80720475  0.39536032  0.50447296  1
  Mo  Mo194  1  0.10360578  0.69772413  0.86634084  1
  Mo  Mo195  1  0.29390327  0.89568370  0.11849924  1
  Mo  Mo196  1  0.30001600  0.89142507  0.37635651  1
  Mo  Mo197  1  0.10234926  0.69105233  0.13144484  1
  Mo  Mo198  1  0.30231633  0.30288896  0.88435057  1
  Mo  Mo199  1  0.60331280  0.80223480  0.23864889  1
