# generated using pymatgen
data_HfZrTaTiMo
_symmetry_space_group_name_H-M   'P 1'
_cell_length_a   15.19881286
_cell_length_b   15.22203662
_cell_length_c   16.84228354
_cell_angle_alpha   90.02739995
_cell_angle_beta   90.00066725
_cell_angle_gamma   90.04070805
_symmetry_Int_Tables_number   1
_chemical_formula_structural   HfZrTaTiMo
_chemical_formula_sum   'Hf40 Zr40 Ta40 Ti40 Mo40'
_cell_volume   3896.57684353
_cell_formula_units_Z   40
loop_
 _symmetry_equiv_pos_site_id
 _symmetry_equiv_pos_as_xyz
  1  'x, y, z'
loop_
 _atom_site_type_symbol
 _atom_site_label
 _atom_site_symmetry_multiplicity
 _atom_site_fract_x
 _atom_site_fract_y
 _atom_site_fract_z
 _atom_site_occupancy
  Hf  Hf0  1  0.51343948  0.09916449  0.88349954  1
  Hf  Hf1  1  0.78663241  0.01703135  0.75738560  1
  Hf  Hf2  1  0.09821612  0.49446748  0.13926609  1
  Hf  Hf3  1  0.61048925  0.59551914  0.76022382  1
  Hf  Hf4  1  0.59291660  0.19592521  0.25104042  1
  Hf  Hf5  1  0.80149587  0.78810552  0.24597271  1
  Hf  Hf6  1  0.19036918  0.20224697  -0.00782681  1
  Hf  Hf7  1  0.21411145  0.60445696  0.47310143  1
  Hf  Hf8  1  0.69422345  0.31554593  0.36270159  1
  Hf  Hf9  1  -0.01890648  0.21134992  -0.00041584  1
  Hf  Hf10  1  0.40470052  0.78267239  0.23720033  1
  Hf  Hf11  1  0.69938603  0.90945303  0.37263632  1
  Hf  Hf12  1  0.70406721  0.68253713  0.62211817  1
  Hf  Hf13  1  0.90322005  0.70097835  0.88488578  1
  Hf  Hf14  1  0.49756450  0.48882780  0.87826181  1
  Hf  Hf15  1  0.61268064  0.37746880  0.74643373  1
  Hf  Hf16  1  0.50448689  0.89349955  0.37917581  1
  Hf  Hf17  1  0.20763366  0.60257005  0.26007806  1
  Hf  Hf18  1  0.60157152  0.60083555  -0.00062294  1
  Hf  Hf19  1  0.09993680  0.91399505  0.36590084  1
  Hf  Hf20  1  0.50646230  0.29673894  0.88575283  1
  Hf  Hf21  1  0.20430508  0.80340726  0.24723757  1
  Hf  Hf22  1  0.01634927  0.60970323  0.75293962  1
  Hf  Hf23  1  0.19155130  0.00181264  0.00199291  1
  Hf  Hf24  1  0.07914595  0.29889857  0.38575341  1
  Hf  Hf25  1  0.69874698  0.69800930  0.37906876  1
  Hf  Hf26  1  0.71887540  0.10052532  0.13253131  1
  Hf  Hf27  1  0.42098624  -0.01261562  0.23436662  1
  Hf  Hf28  1  0.19902874  0.79577608  0.01113541  1
  Hf  Hf29  1  0.59622938  0.80131799  0.74998751  1
  Hf  Hf30  1  0.40471385  -0.00863120  0.74659777  1
  Hf  Hf31  1  0.21577092  0.01940970  0.24038592  1
  Hf  Hf32  1  0.10930613  0.50843137  0.87575291  1
  Hf  Hf33  1  0.09774682  0.91074440  0.64539367  1
  Hf  Hf34  1  0.90130775  0.51018566  0.63304468  1
  Hf  Hf35  1  0.39647001  0.59182667  0.74122833  1
  Hf  Hf36  1  0.10673384  0.10747464  0.37507400  1
  Hf  Hf37  1  0.17658193  0.19989935  0.75051517  1
  Hf  Hf38  1  0.90193814  0.11495267  0.63510041  1
  Hf  Hf39  1  0.00254806  0.59822753  0.00944558  1
  Zr  Zr40  1  0.89212481  0.30807385  0.61781566  1
  Zr  Zr41  1  0.30319010  0.88737467  0.87736101  1
  Zr  Zr42  1  0.29471478  0.30015050  0.61554927  1
  Zr  Zr43  1  0.90414248  0.90391753  0.38477181  1
  Zr  Zr44  1  0.29383170  0.68510250  0.87956279  1
  Zr  Zr45  1  -0.00985457  0.80715675  0.24142702  1
  Zr  Zr46  1  0.41468895  0.19833866  0.74069251  1
  Zr  Zr47  1  0.41021129  0.38314365  0.48003895  1
  Zr  Zr48  1  0.90632824  0.90837428  0.64398388  1
  Zr  Zr49  1  0.29550145  0.89097591  0.63278581  1
  Zr  Zr50  1  0.20370139  0.80648628  0.48916846  1
  Zr  Zr51  1  0.29510474  0.09453789  0.86662704  1
  Zr  Zr52  1  0.59577925  0.01080929  0.51162474  1
  Zr  Zr53  1  0.08774752  0.30505223  0.13573634  1
  Zr  Zr54  1  0.39380091  0.79071815  0.49322295  1
  Zr  Zr55  1  0.38316503  0.18256549  0.24437078  1
  Zr  Zr56  1  0.79499928  0.79289266  0.76132610  1
  Zr  Zr57  1  0.49825440  0.68865472  0.60700312  1
  Zr  Zr58  1  0.80131570  0.01213861  0.51174592  1
  Zr  Zr59  1  0.59227125  0.21190377  0.48543750  1
  Zr  Zr60  1  0.20132835  0.40814624  0.73926989  1
  Zr  Zr61  1  -0.01710834  0.00921848  -0.01014017  1
  Zr  Zr62  1  0.52373218  0.48838770  0.60848782  1
  Zr  Zr63  1  0.80057251  0.79843537  0.50904113  1
  Zr  Zr64  1  0.10546691  0.49926675  0.60477190  1
  Zr  Zr65  1  0.28542942  0.29934486  0.13595888  1
  Zr  Zr66  1  0.49637862  0.70240123  0.88037248  1
  Zr  Zr67  1  0.00272596  0.80565176  0.50338580  1
  Zr  Zr68  1  -0.01786533  0.60064777  0.23781288  1
  Zr  Zr69  1  0.59872148  0.80617454  0.23665755  1
  Zr  Zr70  1  0.49798356  0.30517457  0.13057126  1
  Zr  Zr71  1  0.30515459  0.49316153  0.87713135  1
  Zr  Zr72  1  0.30424720  0.30222783  0.87316219  1
  Zr  Zr73  1  0.39416190  0.59378715  0.02396396  1
  Zr  Zr74  1  -0.02524162  0.19267318  0.25088162  1
  Zr  Zr75  1  0.83046796  0.00357264  0.24851746  1
  Zr  Zr76  1  0.40433685  -0.00307624  0.00921073  1
  Zr  Zr77  1  0.19415571  0.77721765  0.75305945  1
  Zr  Zr78  1  0.72026691  0.30873591  0.13967245  1
  Zr  Zr79  1  0.70963835  0.48331346  0.88217749  1
  Ta  Ta80  1  0.40949287  0.58968012  0.25678226  1
  Ta  Ta81  1  0.20150411  0.40141367  0.47746399  1
  Ta  Ta82  1  0.61210782  0.19857235  0.01126120  1
  Ta  Ta83  1  0.70876811  0.10497791  0.36415152  1
  Ta  Ta84  1  0.09450884  0.10613867  0.13034601  1
  Ta  Ta85  1  0.40880875  0.79311146  0.02420984  1
  Ta  Ta86  1  0.09041208  0.91132328  0.12939642  1
  Ta  Ta87  1  0.80474747  0.59461212  0.76243302  1
  Ta  Ta88  1  0.20065816  0.00518203  0.50192966  1
  Ta  Ta89  1  0.40450189  0.79054305  0.74432584  1
  Ta  Ta90  1  0.90307788  0.68150346  0.37821210  1
  Ta  Ta91  1  0.69598286  0.90251029  0.63156046  1
  Ta  Ta92  1  0.81111723  0.59195775  0.50252897  1
  Ta  Ta93  1  0.70268214  0.69825854  0.11185549  1
  Ta  Ta94  1  0.07786041  0.50960717  0.37764161  1
  Ta  Ta95  1  0.10266911  0.69868932  0.61679158  1
  Ta  Ta96  1  0.59425372  0.00653362  0.74258036  1
  Ta  Ta97  1  0.49630038  0.09121893  0.36978183  1
  Ta  Ta98  1  0.60944124  0.39677850  0.01032797  1
  Ta  Ta99  1  0.29988963  0.89865730  0.12340973  1
  Ta  Ta100  1  0.19544314  0.40442313  0.00338593  1
  Ta  Ta101  1  0.09565347  0.90823591  0.86040209  1
  Ta  Ta102  1  0.28989215  0.27678461  0.37212569  1
  Ta  Ta103  1  0.71047445  0.27414077  0.88076381  1
  Ta  Ta104  1  0.39541930  0.18164869  0.49647441  1
  Ta  Ta105  1  0.89032825  0.70733443  0.10665876  1
  Ta  Ta106  1  0.50435630  0.68562857  0.38291900  1
  Ta  Ta107  1  0.09175519  0.70490632  0.37005319  1
  Ta  Ta108  1  0.91072245  0.49219031  0.87318606  1
  Ta  Ta109  1  0.19937431  0.59458631  0.02052356  1
  Ta  Ta110  1  0.28962049  0.09335244  0.63173506  1
  Ta  Ta111  1  0.39268685  -0.00168589  0.50440885  1
  Ta  Ta112  1  0.50355905  0.89817528  0.88054314  1
  Ta  Ta113  1  0.79834366  0.81318495  -0.01024128  1
  Ta  Ta114  1  0.39854734  0.19601063  0.01165903  1
  Ta  Ta115  1  0.71466441  0.90359280  0.11883483  1
  Ta  Ta116  1  0.09094272  0.10434243  0.62266955  1
  Ta  Ta117  1  0.31227551  0.50275219  0.60298703  1
  Ta  Ta118  1  -0.02634177  0.40047710  0.26067739  1
  Ta  Ta119  1  0.19264620  0.39952947  0.27719269  1
  Ti  Ti120  1  0.39946071  0.39620413  0.26680814  1
  Ti  Ti121  1  0.60176584  0.41901637  0.24477224  1
  Ti  Ti122  1  0.29962995  0.49053212  0.14290968  1
  Ti  Ti123  1  0.91023860  0.70462507  0.63358673  1
  Ti  Ti124  1  0.68736112  0.12410211  0.62992752  1
  Ti  Ti125  1  0.00432395  0.39324326  0.74717860  1
  Ti  Ti126  1  0.30776230  0.91024932  0.36698381  1
  Ti  Ti127  1  0.50679315  0.49945574  0.12870128  1
  Ti  Ti128  1  -0.00150061  0.40347891  0.00006896  1
  Ti  Ti129  1  0.80594393  0.39391854  0.75208085  1
  Ti  Ti130  1  0.39605718  0.39529802  0.01129804  1
  Ti  Ti131  1  0.51600944  0.49490823  0.37925722  1
  Ti  Ti132  1  0.60156204  0.80341906  0.00506771  1
  Ti  Ti133  1  0.51242424  0.28410119  0.62014834  1
  Ti  Ti134  1  -0.00019033  0.81285844  0.00460703  1
  Ti  Ti135  1  0.09800710  0.70857340  0.88714093  1
  Ti  Ti136  1  0.61586294  -0.00317376  0.00258605  1
  Ti  Ti137  1  0.90844695  0.10650720  0.39450406  1
  Ti  Ti138  1  -0.02056788  0.41770519  0.49104977  1
  Ti  Ti139  1  0.70363428  0.50961589  0.37418552  1
  Ti  Ti140  1  0.88751650  0.12893523  0.86224795  1
  Ti  Ti141  1  0.88258648  0.30485867  0.38574855  1
  Ti  Ti142  1  0.88268285  0.48492306  0.11952827  1
  Ti  Ti143  1  0.78904757  0.20804513  0.49958260  1
  Ti  Ti144  1  0.51280278  0.09197676  0.12001459  1
  Ti  Ti145  1  0.19843942  0.19618195  0.50478084  1
  Ti  Ti146  1  0.81123957  0.37830147  -0.00342728  1
  Ti  Ti147  1  0.08396599  0.30504344  0.87409346  1
  Ti  Ti148  1  0.49980717  0.89770239  0.62033831  1
  Ti  Ti149  1  0.60475248  0.79904657  0.50581604  1
  Ti  Ti150  1  0.79927778  0.59092880  -0.00316573  1
  Ti  Ti151  1  0.29588925  0.68632051  0.61949498  1
  Ti  Ti152  1  0.60102121  0.60707620  0.23937552  1
  Ti  Ti153  1  0.90246818  0.90794713  0.86222156  1
  Ti  Ti154  1  0.08512317  0.29776888  0.60527787  1
  Ti  Ti155  1  0.69327223  0.90457708  0.87580609  1
  Ti  Ti156  1  0.40785316  0.39663353  0.73570910  1
  Ti  Ti157  1  0.77683593  0.40984447  0.50696151  1
  Ti  Ti158  1  0.09897787  0.70472013  0.12838893  1
  Ti  Ti159  1  0.79250196  0.58855646  0.23927814  1
  Mo  Mo160  1  0.60720709  0.40033131  0.49313318  1
  Mo  Mo161  1  0.30220856  0.08771485  0.38144756  1
  Mo  Mo162  1  0.80285183  0.20784690  0.26534749  1
  Mo  Mo163  1  0.30975000  0.70267123  0.36414223  1
  Mo  Mo164  1  0.80228668  0.19133181  0.00135792  1
  Mo  Mo165  1  0.78417705  0.21449048  0.74637890  1
  Mo  Mo166  1  0.18945872  0.20568686  0.25350019  1
  Mo  Mo167  1  -0.00087632  0.80036175  0.75865701  1
  Mo  Mo168  1  -0.00899090  0.21794986  0.75393571  1
  Mo  Mo169  1  0.89622797  0.31422322  0.86996566  1
  Mo  Mo170  1  0.30706313  0.49185049  0.36710074  1
  Mo  Mo171  1  0.61686272  0.59049015  0.49267890  1
  Mo  Mo172  1  0.61026762  0.00297307  0.24939633  1
  Mo  Mo173  1  0.51024467  0.69163410  0.12519767  1
  Mo  Mo174  1  0.88505386  0.49615177  0.37944860  1
  Mo  Mo175  1  0.60892168  0.18824151  0.75153129  1
  Mo  Mo176  1  0.08730321  0.10644661  0.87122160  1
  Mo  Mo177  1  0.79698461  0.00453429  -0.01667430  1
  Mo  Mo178  1  0.69991486  0.50445864  0.11888826  1
  Mo  Mo179  1  0.69884406  0.09359000  0.88156672  1
  Mo  Mo180  1  0.29672968  0.69128927  0.13002529  1
  Mo  Mo181  1  0.89682294  0.90250490  0.11202883  1
  Mo  Mo182  1  0.51769992  0.89933930  0.11302005  1
  Mo  Mo183  1  0.01192542  0.01388632  0.50694281  1
  Mo  Mo184  1  0.89963600  0.10294694  0.11858918  1
  Mo  Mo185  1  0.00943325  0.00297676  0.24278862  1
  Mo  Mo186  1  0.70389995  0.70417350  0.89351317  1
  Mo  Mo187  1  0.69462262  0.30764714  0.61944925  1
  Mo  Mo188  1  0.89838434  0.30558137  0.12777286  1
  Mo  Mo189  1  0.40470596  0.58892039  0.47874727  1
  Mo  Mo190  1  0.79963684  0.41435739  0.25448764  1
  Mo  Mo191  1  0.71519564  0.49412969  0.63413793  1
  Mo  Mo192  1  0.00172923  0.02170802  0.76847933  1
  Mo  Mo193  1  0.20686828  0.59203059  0.73121103  1
  Mo  Mo194  1  0.00074230  0.60805733  0.49863046  1
  Mo  Mo195  1  0.29485259  0.10040749  0.11381233  1
  Mo  Mo196  1  0.49442730  0.29943553  0.35893553  1
  Mo  Mo197  1  -0.00915391  0.20393250  0.49872080  1
  Mo  Mo198  1  0.19664447  0.00646213  0.75484677  1
  Mo  Mo199  1  0.49259628  0.09675335  0.62221820  1
