# generated using pymatgen
data_HfZrTaTiMo
_symmetry_space_group_name_H-M   'P 1'
_cell_length_a   15.21530026
_cell_length_b   15.21442114
_cell_length_c   16.84856805
_cell_angle_alpha   90.03320422
_cell_angle_beta   90.00863512
_cell_angle_gamma   90.09217497
_symmetry_Int_Tables_number   1
_chemical_formula_structural   HfZrTaTiMo
_chemical_formula_sum   'Hf40 Zr40 Ta40 Ti40 Mo40'
_cell_volume   3900.30273109
_cell_formula_units_Z   40
loop_
 _symmetry_equiv_pos_site_id
 _symmetry_equiv_pos_as_xyz
  1  'x, y, z'
loop_
 _atom_site_type_symbol
 _atom_site_label
 _atom_site_symmetry_multiplicity
 _atom_site_fract_x
 _atom_site_fract_y
 _atom_site_fract_z
 _atom_site_occupancy
  Hf  Hf0  1  0.89818763  0.90112523  0.38242118  1
  Hf  Hf1  1  0.49298484  0.68616595  0.87625963  1
  Hf  Hf2  1  0.20077932  0.00804956  0.23653882  1
  Hf  Hf3  1  0.81804852  0.22151281  0.48646347  1
  Hf  Hf4  1  0.00072340  -0.00559712  0.25398963  1
  Hf  Hf5  1  0.51475756  0.32355766  0.62837367  1
  Hf  Hf6  1  0.19884297  0.79589876  -0.01008445  1
  Hf  Hf7  1  0.09965818  0.30241867  0.10943331  1
  Hf  Hf8  1  0.70192681  0.69537845  0.87587376  1
  Hf  Hf9  1  0.29768050  0.90852568  0.37750480  1
  Hf  Hf10  1  0.66987742  0.50226165  0.34860141  1
  Hf  Hf11  1  0.59417285  0.79338663  0.74608260  1
  Hf  Hf12  1  0.51877271  0.09845285  0.87117938  1
  Hf  Hf13  1  0.50309763  0.68502373  0.37972838  1
  Hf  Hf14  1  0.69320615  0.89148562  0.13870935  1
  Hf  Hf15  1  0.08851606  0.70676781  0.64130101  1
  Hf  Hf16  1  0.69720138  0.69454891  0.61964204  1
  Hf  Hf17  1  0.30176856  0.90453472  0.63775988  1
  Hf  Hf18  1  0.90070106  0.70020736  0.13858130  1
  Hf  Hf19  1  0.51400767  0.10581576  0.37919522  1
  Hf  Hf20  1  0.20642879  0.39346829  0.74435616  1
  Hf  Hf21  1  0.29646172  0.30787643  0.37413024  1
  Hf  Hf22  1  0.30707395  0.69635051  0.11475565  1
  Hf  Hf23  1  0.41257306  0.21382655  0.50323565  1
  Hf  Hf24  1  0.50638919  0.90405930  0.37818311  1
  Hf  Hf25  1  0.59878020  0.18356389  0.01824354  1
  Hf  Hf26  1  0.39591824  0.40375470  0.23766018  1
  Hf  Hf27  1  0.01345581  0.78575103  0.26226198  1
  Hf  Hf28  1  0.80592331  0.20111827  0.00921254  1
  Hf  Hf29  1  0.49678954  0.69125952  0.62321094  1
  Hf  Hf30  1  0.28585985  0.69601073  0.38241271  1
  Hf  Hf31  1  0.60382218  0.21245634  0.23610246  1
  Hf  Hf32  1  0.89852896  0.31219515  0.88105500  1
  Hf  Hf33  1  0.90728949  0.68347731  0.37170273  1
  Hf  Hf34  1  0.50723933  0.10926375  0.62420793  1
  Hf  Hf35  1  -0.02539138  0.38459784  0.50820151  1
  Hf  Hf36  1  0.10306619  0.50246910  0.38358647  1
  Hf  Hf37  1  0.40878734  0.80009328  0.25015849  1
  Hf  Hf38  1  0.79968640  0.79117711  0.00779359  1
  Hf  Hf39  1  0.09658671  0.28781019  0.62185055  1
  Zr  Zr40  1  0.58456580  0.38876059  0.02642645  1
  Zr  Zr41  1  0.48634106  0.90406416  0.86992429  1
  Zr  Zr42  1  0.69661674  0.71046135  0.36121459  1
  Zr  Zr43  1  0.73673795  0.10070253  0.86196906  1
  Zr  Zr44  1  0.09565808  0.29371100  0.38322143  1
  Zr  Zr45  1  -0.00888636  0.79367832  -0.00663653  1
  Zr  Zr46  1  0.58869070  0.79732518  0.00662441  1
  Zr  Zr47  1  -0.00207205  0.00631442  0.75465581  1
  Zr  Zr48  1  0.91378727  0.09244882  0.13226130  1
  Zr  Zr49  1  0.62104332  -0.00384432  0.73258189  1
  Zr  Zr50  1  0.68215698  0.90665936  0.88770182  1
  Zr  Zr51  1  0.08740850  0.89643671  0.11642129  1
  Zr  Zr52  1  0.00060261  0.20850613  0.76121341  1
  Zr  Zr53  1  0.81057612  0.19917392  0.26099877  1
  Zr  Zr54  1  0.91036746  0.29767978  0.12885214  1
  Zr  Zr55  1  0.39648060  0.00824601  0.50828387  1
  Zr  Zr56  1  0.68357218  0.30219972  0.88797432  1
  Zr  Zr57  1  0.92730445  0.11020901  0.60622019  1
  Zr  Zr58  1  0.30542090  0.10668172  0.36779916  1
  Zr  Zr59  1  0.20352511  0.80502574  0.24287534  1
  Zr  Zr60  1  0.21423447  0.00211210  -0.00403548  1
  Zr  Zr61  1  0.69974000  0.50041976  0.88804805  1
  Zr  Zr62  1  0.88472188  0.90890014  0.86293032  1
  Zr  Zr63  1  -0.00168585  0.79346347  0.49811653  1
  Zr  Zr64  1  -0.00207220  0.58780228  0.51509574  1
  Zr  Zr65  1  0.08778369  0.68978064  0.85885770  1
  Zr  Zr66  1  0.18774302  0.58298622  0.73903155  1
  Zr  Zr67  1  0.49203588  0.47073205  0.87813636  1
  Zr  Zr68  1  0.61909079  0.21410967  0.74489732  1
  Zr  Zr69  1  0.78882747  0.39001886  0.74967380  1
  Zr  Zr70  1  0.78892384  0.81839701  0.74087309  1
  Zr  Zr71  1  0.79506404  -0.00320660  0.01399296  1
  Zr  Zr72  1  0.39769014  0.79816737  0.50429083  1
  Zr  Zr73  1  0.19539443  0.60085462  0.24311932  1
  Zr  Zr74  1  0.20873611  0.18348083  0.51276073  1
  Zr  Zr75  1  -0.00754584  0.58451027  0.00177194  1
  Zr  Zr76  1  -0.00264671  0.00391104  -0.01247758  1
  Zr  Zr77  1  0.88607120  0.47140301  0.35759232  1
  Zr  Zr78  1  0.78535017  0.58465281  0.49298964  1
  Zr  Zr79  1  0.50760525  0.31509520  0.36863204  1
  Ta  Ta80  1  0.69556536  0.91148631  0.37651486  1
  Ta  Ta81  1  0.29201273  0.49828417  0.87865590  1
  Ta  Ta82  1  0.10881880  0.31030292  0.88384305  1
  Ta  Ta83  1  0.29868682  0.69527786  0.86717270  1
  Ta  Ta84  1  0.59604314  0.42130099  0.49350079  1
  Ta  Ta85  1  0.10762615  0.09103497  0.38029411  1
  Ta  Ta86  1  0.00083381  0.41324635  0.73943081  1
  Ta  Ta87  1  0.80379242  0.40986772  0.01745808  1
  Ta  Ta88  1  0.91863207  0.10339438  0.38476907  1
  Ta  Ta89  1  0.39598740  0.59636930  0.24866316  1
  Ta  Ta90  1  0.39661927  0.58692536  0.50788343  1
  Ta  Ta91  1  0.19715092  0.40770336  0.23742644  1
  Ta  Ta92  1  0.40428937  0.00377464  0.23930459  1
  Ta  Ta93  1  0.71026259  0.11211690  0.60440723  1
  Ta  Ta94  1  0.19940159  0.41234292  0.00330530  1
  Ta  Ta95  1  0.11526222  0.10653639  0.87779508  1
  Ta  Ta96  1  0.10067118  0.89737846  0.86520635  1
  Ta  Ta97  1  0.20462014  0.00803366  0.75849210  1
  Ta  Ta98  1  0.29970061  0.30297920  0.11605404  1
  Ta  Ta99  1  0.19565269  0.79907204  0.51073999  1
  Ta  Ta100  1  0.19794892  0.80392121  0.75154117  1
  Ta  Ta101  1  0.59525602  0.00256707  0.24283116  1
  Ta  Ta102  1  0.29607865  0.69555566  0.63220090  1
  Ta  Ta103  1  0.67874908  0.49356691  0.62763114  1
  Ta  Ta104  1  0.69656739  0.50103418  0.13852211  1
  Ta  Ta105  1  0.09996136  0.91504394  0.62474404  1
  Ta  Ta106  1  0.39240587  0.58090876  0.74492181  1
  Ta  Ta107  1  0.30145332  0.90226091  0.86467879  1
  Ta  Ta108  1  0.90336996  0.49356314  0.13988583  1
  Ta  Ta109  1  0.59341944  0.58548250  0.75215276  1
  Ta  Ta110  1  0.19652794  0.20942054  0.24184888  1
  Ta  Ta111  1  0.32311022  0.10374925  0.86887041  1
  Ta  Ta112  1  0.79255970  0.59574993  0.74590416  1
  Ta  Ta113  1  0.60596476  0.80820063  0.50466068  1
  Ta  Ta114  1  0.69401711  0.69409899  0.14447981  1
  Ta  Ta115  1  0.30061015  0.49988747  0.37955637  1
  Ta  Ta116  1  0.80344271  -0.00242527  0.50245491  1
  Ta  Ta117  1  0.90234618  0.89994761  0.62118273  1
  Ta  Ta118  1  0.10730283  0.89919482  0.38700743  1
  Ta  Ta119  1  0.89354705  0.69894879  0.63688532  1
  Ti  Ti120  1  0.48789734  0.50906800  0.12270787  1
  Ti  Ti121  1  0.00951815  0.58428346  0.24784889  1
  Ti  Ti122  1  0.50407959  0.90435096  0.62526435  1
  Ti  Ti123  1  0.21289295  0.20275675  -0.00914331  1
  Ti  Ti124  1  0.80598657  0.80839662  0.25329681  1
  Ti  Ti125  1  0.30546457  0.10979482  0.11998044  1
  Ti  Ti126  1  0.08953631  0.49209967  0.87440753  1
  Ti  Ti127  1  0.31264673  0.30218342  0.63081319  1
  Ti  Ti128  1  0.39483077  0.80327574  -0.00432712  1
  Ti  Ti129  1  0.31208291  0.30777257  0.88058144  1
  Ti  Ti130  1  0.20765155  0.20071205  0.75757943  1
  Ti  Ti131  1  0.40864234  0.20854833  0.00213607  1
  Ti  Ti132  1  0.79799557  -0.00001476  0.25767159  1
  Ti  Ti133  1  0.41586845  0.00632412  0.00955481  1
  Ti  Ti134  1  0.71144307  0.30736117  0.60731880  1
  Ti  Ti135  1  0.79987699  0.59535289  0.24895043  1
  Ti  Ti136  1  0.19836147  0.59887518  0.51608884  1
  Ti  Ti137  1  0.30418478  0.10185243  0.64431152  1
  Ti  Ti138  1  0.70644664  0.31342147  0.37368441  1
  Ti  Ti139  1  0.87960048  0.49248436  0.62707138  1
  Ti  Ti140  1  0.89732004  0.69966398  0.85256018  1
  Ti  Ti141  1  0.79849769  0.79791840  0.50157674  1
  Ti  Ti142  1  0.70377204  0.09626861  0.13528141  1
  Ti  Ti143  1  0.10599748  0.10944040  0.11414051  1
  Ti  Ti144  1  0.60190390  0.59885254  0.01272655  1
  Ti  Ti145  1  0.50361863  0.70399967  0.12969211  1
  Ti  Ti146  1  0.89699297  0.50828179  0.87135753  1
  Ti  Ti147  1  0.00610460  0.20056771  -0.01520484  1
  Ti  Ti148  1  0.00938070  0.38452594  0.25094456  1
  Ti  Ti149  1  0.09874331  0.68786762  0.11777995  1
  Ti  Ti150  1  0.19669702  0.59730793  -0.00261727  1
  Ti  Ti151  1  0.79808956  0.59857083  0.01464905  1
  Ti  Ti152  1  0.20369621  0.40786207  0.51764423  1
  Ti  Ti153  1  0.39946790  0.20072173  0.24078643  1
  Ti  Ti154  1  0.40695040  0.21196103  0.75410452  1
  Ti  Ti155  1  0.30960209  0.90251962  0.11846298  1
  Ti  Ti156  1  0.39293832  0.58900719  -0.00204422  1
  Ti  Ti157  1  0.39640864  0.79437251  0.74878578  1
  Ti  Ti158  1  0.39802328  0.40798812  0.50305778  1
  Ti  Ti159  1  0.70156253  0.10202327  0.38790649  1
  Mo  Mo160  1  0.89519007  0.30421558  0.63105876  1
  Mo  Mo161  1  -0.01912972  0.58914342  0.74017663  1
  Mo  Mo162  1  0.78780109  0.39136394  0.23437385  1
  Mo  Mo163  1  -0.00328295  0.80433347  0.74580597  1
  Mo  Mo164  1  0.58957921  0.40487197  0.22904646  1
  Mo  Mo165  1  0.48932931  0.29537695  0.13144055  1
  Mo  Mo166  1  0.20292522  -0.00844341  0.50763591  1
  Mo  Mo167  1  0.40326673  0.00772438  0.74598778  1
  Mo  Mo168  1  0.49217113  0.09775533  0.13094992  1
  Mo  Mo169  1  0.48159127  0.50050110  0.37178854  1
  Mo  Mo170  1  0.09375476  0.49543585  0.12579628  1
  Mo  Mo171  1  0.01256432  0.19698064  0.49581443  1
  Mo  Mo172  1  0.59318988  0.40265545  0.75376476  1
  Mo  Mo173  1  0.90828828  0.11105445  0.87432185  1
  Mo  Mo174  1  0.60796915  0.00336015  0.50532206  1
  Mo  Mo175  1  0.80918585  0.02036835  0.71560640  1
  Mo  Mo176  1  0.38766155  0.39849758  0.01026604  1
  Mo  Mo177  1  0.58974548  0.60138595  0.50003375  1
  Mo  Mo178  1  -0.00364551  0.40293778  -0.00529539  1
  Mo  Mo179  1  0.48516046  0.28112021  0.87827222  1
  Mo  Mo180  1  0.49458179  0.50189136  0.62837961  1
  Mo  Mo181  1  0.89388967  0.89324954  0.14155013  1
  Mo  Mo182  1  0.11990552  0.09537448  0.63520264  1
  Mo  Mo183  1  0.02217093  0.18913720  0.25146047  1
  Mo  Mo184  1  0.30158094  0.49374053  0.61901300  1
  Mo  Mo185  1  0.61454678  0.21473831  0.49556400  1
  Mo  Mo186  1  0.70109160  0.90435233  0.60633224  1
  Mo  Mo187  1  0.29507483  0.50401426  0.11480562  1
  Mo  Mo188  1  0.59943904  0.80595278  0.25375020  1
  Mo  Mo189  1  0.49139216  0.89722371  0.12607455  1
  Mo  Mo190  1  0.10658546  0.69416397  0.38699170  1
  Mo  Mo191  1  0.39476467  0.39664375  0.75110103  1
  Mo  Mo192  1  0.78467569  0.40502212  0.49675495  1
  Mo  Mo193  1  0.58143337  0.60458235  0.23669524  1
  Mo  Mo194  1  0.70531588  0.29967842  0.12455136  1
  Mo  Mo195  1  0.90356363  0.29525487  0.36097651  1
  Mo  Mo196  1  0.09333958  0.49180174  0.61694160  1
  Mo  Mo197  1  0.81012026  0.19887025  0.73181708  1
  Mo  Mo198  1  0.01250286  -0.00304264  0.49726027  1
  Mo  Mo199  1  0.58852797  -0.00214441  0.02758970  1
