# generated using pymatgen
data_HfZrTaTiMo
_symmetry_space_group_name_H-M   'P 1'
_cell_length_a   15.22162065
_cell_length_b   15.20393282
_cell_length_c   16.86874944
_cell_angle_alpha   89.99844308
_cell_angle_beta   89.99314202
_cell_angle_gamma   89.94943535
_symmetry_Int_Tables_number   1
_chemical_formula_structural   HfZrTaTiMo
_chemical_formula_sum   'Hf40 Zr40 Ta40 Ti40 Mo40'
_cell_volume   3903.90779236
_cell_formula_units_Z   40
loop_
 _symmetry_equiv_pos_site_id
 _symmetry_equiv_pos_as_xyz
  1  'x, y, z'
loop_
 _atom_site_type_symbol
 _atom_site_label
 _atom_site_symmetry_multiplicity
 _atom_site_fract_x
 _atom_site_fract_y
 _atom_site_fract_z
 _atom_site_occupancy
  Hf  Hf0  1  0.08409488  0.09373400  0.87696838  1
  Hf  Hf1  1  0.49147369  0.70023154  0.63183106  1
  Hf  Hf2  1  0.31056945  0.89490699  0.11559478  1
  Hf  Hf3  1  0.29554554  0.11108188  0.88511724  1
  Hf  Hf4  1  0.18867955  -0.00571357  0.75563351  1
  Hf  Hf5  1  0.19682232  0.60115412  0.24068238  1
  Hf  Hf6  1  0.11186091  0.29625906  0.88022018  1
  Hf  Hf7  1  0.80110724  0.39145383  -0.00892386  1
  Hf  Hf8  1  0.59300991  0.18891031  0.00395417  1
  Hf  Hf9  1  0.29975513  0.50223754  0.12527377  1
  Hf  Hf10  1  0.21016260  0.20350717  0.50633025  1
  Hf  Hf11  1  0.59840031  0.38660821  0.74189093  1
  Hf  Hf12  1  0.70418091  0.89110471  0.37586125  1
  Hf  Hf13  1  0.00702999  0.19626673  0.24136572  1
  Hf  Hf14  1  0.00876605  0.81136673  0.74556604  1
  Hf  Hf15  1  0.79625998  0.59522907  0.75992829  1
  Hf  Hf16  1  0.18276511  0.00972669  0.01051680  1
  Hf  Hf17  1  0.48695617  0.69207862  0.87331774  1
  Hf  Hf18  1  0.80526395  0.38394286  0.75633291  1
  Hf  Hf19  1  0.89690356  0.07672937  0.12035493  1
  Hf  Hf20  1  0.90012355  0.30004962  0.11729465  1
  Hf  Hf21  1  0.68836914  0.08526398  0.12780725  1
  Hf  Hf22  1  0.70631577  0.27067977  0.88323730  1
  Hf  Hf23  1  0.81470802  0.79164931  -0.02383382  1
  Hf  Hf24  1  0.01800314  0.18965214  0.01699455  1
  Hf  Hf25  1  0.21280337  0.61315236  0.75905336  1
  Hf  Hf26  1  0.79070649  0.20015170  0.24661978  1
  Hf  Hf27  1  0.10505797  0.72062035  0.88692566  1
  Hf  Hf28  1  0.79720302  0.59521701  0.24142234  1
  Hf  Hf29  1  0.39050333  0.40229325  0.48721399  1
  Hf  Hf30  1  0.61621928  0.80553659  -0.01102100  1
  Hf  Hf31  1  0.21389364  0.80445171  0.48081728  1
  Hf  Hf32  1  0.67620628  0.48545612  0.87636228  1
  Hf  Hf33  1  0.39447022  0.61229674  0.25450046  1
  Hf  Hf34  1  0.40575867  0.20913414  0.75014039  1
  Hf  Hf35  1  0.80546251  0.60075286  0.51779356  1
  Hf  Hf36  1  0.20741257  0.80685451  0.25951591  1
  Hf  Hf37  1  0.60801149  0.80498906  0.24462961  1
  Hf  Hf38  1  -0.00441043  0.80426646  0.50009053  1
  Hf  Hf39  1  0.09434709  0.30746800  0.37763440  1
  Zr  Zr40  1  0.49395121  0.50119798  0.61445764  1
  Zr  Zr41  1  0.88762831  0.29613910  0.38682870  1
  Zr  Zr42  1  0.88799072  0.90814696  0.62440722  1
  Zr  Zr43  1  0.40670970  0.40104826  0.26485742  1
  Zr  Zr44  1  0.59262673  0.59714340  0.00039696  1
  Zr  Zr45  1  0.90195527  0.49828792  0.37604651  1
  Zr  Zr46  1  0.69597111  0.70506412  0.63895988  1
  Zr  Zr47  1  0.70001205  0.68266261  0.37736132  1
  Zr  Zr48  1  0.30076110  0.09081147  0.61890319  1
  Zr  Zr49  1  0.10860351  0.91433542  0.61279066  1
  Zr  Zr50  1  0.51647423  0.29480311  0.39139110  1
  Zr  Zr51  1  0.50255130  0.29406187  0.60428514  1
  Zr  Zr52  1  0.69975446  0.48904037  0.11203658  1
  Zr  Zr53  1  0.89365271  0.70885278  0.37797539  1
  Zr  Zr54  1  0.39835351  -0.00198028  0.75709629  1
  Zr  Zr55  1  0.20550202  0.40872100  0.75418832  1
  Zr  Zr56  1  0.59909030  0.59303068  0.23805463  1
  Zr  Zr57  1  0.09751768  0.71024859  0.11447593  1
  Zr  Zr58  1  0.87938665  0.10294847  0.89297196  1
  Zr  Zr59  1  0.09923222  0.30384059  0.62335380  1
  Zr  Zr60  1  0.10649045  0.68891034  0.37853490  1
  Zr  Zr61  1  0.20124453  0.19907587  0.74272006  1
  Zr  Zr62  1  0.29303119  0.88773007  0.89486062  1
  Zr  Zr63  1  0.51875200  0.50643885  0.38102438  1
  Zr  Zr64  1  0.10984536  0.10712556  0.38019515  1
  Zr  Zr65  1  0.48847239  0.89411851  0.62897227  1
  Zr  Zr66  1  0.00091934  0.60797237  0.74796203  1
  Zr  Zr67  1  0.48754102  0.70972761  0.11913796  1
  Zr  Zr68  1  0.59379936  -0.00881549  0.49909307  1
  Zr  Zr69  1  0.08192133  0.90948476  0.12728682  1
  Zr  Zr70  1  0.38729063  0.61500584  0.48448453  1
  Zr  Zr71  1  0.20093424  0.01570117  0.24644610  1
  Zr  Zr72  1  0.21129155  0.40058111  0.00235460  1
  Zr  Zr73  1  0.80320827  0.80077686  0.76672685  1
  Zr  Zr74  1  0.00906147  0.59717945  0.51445439  1
  Zr  Zr75  1  0.80331409  0.18236043  0.74010383  1
  Zr  Zr76  1  0.60424084  0.18602878  0.73802326  1
  Zr  Zr77  1  0.51606916  0.91540482  0.11738054  1
  Zr  Zr78  1  0.79751301  0.60269239  -0.01842848  1
  Zr  Zr79  1  -0.00515447  0.60305709  0.23894373  1
  Ta  Ta80  1  0.50695388  0.71367317  0.37274129  1
  Ta  Ta81  1  0.31717502  0.31190784  0.87843827  1
  Ta  Ta82  1  0.48307299  0.11050809  0.13204114  1
  Ta  Ta83  1  -0.00556955  0.20278228  0.74837197  1
  Ta  Ta84  1  0.49468339  0.09973636  0.38113789  1
  Ta  Ta85  1  0.30791899  0.31391054  0.62038756  1
  Ta  Ta86  1  0.59149969  0.20013451  0.25020343  1
  Ta  Ta87  1  0.29296635  0.29525561  0.37498198  1
  Ta  Ta88  1  0.80175893  0.39582866  0.24470587  1
  Ta  Ta89  1  0.11497118  0.70537011  0.62001883  1
  Ta  Ta90  1  -0.00406777  0.00198088  0.48209412  1
  Ta  Ta91  1  -0.00778696  0.60852778  -0.00337102  1
  Ta  Ta92  1  -0.01400416  0.01374821  0.74552623  1
  Ta  Ta93  1  0.19737137  0.39503301  0.24596063  1
  Ta  Ta94  1  0.71254264  0.29440927  0.60602758  1
  Ta  Ta95  1  0.90408669  0.29413180  0.61292198  1
  Ta  Ta96  1  0.91409733  0.29229193  0.88555448  1
  Ta  Ta97  1  0.00117293  0.39726759  0.75672569  1
  Ta  Ta98  1  0.40027541  0.00237428  0.25868139  1
  Ta  Ta99  1  0.90315974  0.50252327  0.11442642  1
  Ta  Ta100  1  0.39256573  0.19643638  0.25835617  1
  Ta  Ta101  1  0.69976372  0.49012476  0.62633442  1
  Ta  Ta102  1  0.59647083  0.00570626  0.26230200  1
  Ta  Ta103  1  0.40313317  0.41364577  0.74928461  1
  Ta  Ta104  1  0.61556563  0.38666078  0.25070156  1
  Ta  Ta105  1  0.79367988  0.00320612  0.49545923  1
  Ta  Ta106  1  0.30159320  0.70978514  0.62200009  1
  Ta  Ta107  1  0.60627979  -0.00687465  0.74388391  1
  Ta  Ta108  1  0.59911159  0.79499973  0.50159764  1
  Ta  Ta109  1  0.50296294  0.90632964  0.88221932  1
  Ta  Ta110  1  0.90104459  0.48785388  0.63322567  1
  Ta  Ta111  1  -0.00060346  0.40234231  0.50634317  1
  Ta  Ta112  1  0.71659590  0.71421135  0.12106793  1
  Ta  Ta113  1  0.39028745  0.59889782  0.00332506  1
  Ta  Ta114  1  0.09956085  0.50767043  0.88262219  1
  Ta  Ta115  1  0.32233979  0.30110704  0.12830081  1
  Ta  Ta116  1  0.19678506  0.41730497  0.50092614  1
  Ta  Ta117  1  0.77596990  -0.01574922  -0.00393386  1
  Ta  Ta118  1  -0.01131294  -0.00765737  0.26965941  1
  Ta  Ta119  1  0.49520054  0.47604096  0.12068546  1
  Ti  Ti120  1  0.40167488  0.81120535  0.26248798  1
  Ti  Ti121  1  0.10613310  0.50323283  0.63162100  1
  Ti  Ti122  1  0.09536900  0.49503441  0.11646125  1
  Ti  Ti123  1  0.60496899  0.60020001  0.50628126  1
  Ti  Ti124  1  0.38824718  0.79077492  0.75994382  1
  Ti  Ti125  1  0.38363497  -0.00055260  0.48275605  1
  Ti  Ti126  1  -0.00102909  0.80650424  0.26181550  1
  Ti  Ti127  1  0.40593804  0.01286404  -0.00070571  1
  Ti  Ti128  1  0.20120074  0.60824979  0.00017971  1
  Ti  Ti129  1  -0.00043581  0.40305922  0.23946942  1
  Ti  Ti130  1  0.09631884  0.49647093  0.37253855  1
  Ti  Ti131  1  0.50548063  0.31141058  0.87906287  1
  Ti  Ti132  1  0.31185773  0.51006025  0.87828685  1
  Ti  Ti133  1  0.40725458  0.81283714  0.48069512  1
  Ti  Ti134  1  0.79288733  0.80332819  0.51232293  1
  Ti  Ti135  1  0.49654018  0.09496583  0.61347059  1
  Ti  Ti136  1  0.81178033  0.80236600  0.24762053  1
  Ti  Ti137  1  0.40057577  0.21498949  0.00098314  1
  Ti  Ti138  1  0.79655438  -0.00860518  0.25590005  1
  Ti  Ti139  1  0.78970342  -0.00388015  0.75488761  1
  Ti  Ti140  1  0.69994150  0.10956307  0.37302012  1
  Ti  Ti141  1  0.29808367  0.51383156  0.62389363  1
  Ti  Ti142  1  0.58253221  0.58896191  0.75413583  1
  Ti  Ti143  1  0.20430252  0.80522269  0.74982961  1
  Ti  Ti144  1  0.28111807  0.50734324  0.37215034  1
  Ti  Ti145  1  0.29005731  0.11560860  0.12075681  1
  Ti  Ti146  1  0.50450914  0.10221953  0.87464222  1
  Ti  Ti147  1  0.12241343  0.29243663  0.12545087  1
  Ti  Ti148  1  0.61705694  0.18602233  0.50406004  1
  Ti  Ti149  1  0.89473927  0.10211409  0.37900574  1
  Ti  Ti150  1  0.91851686  0.90766904  0.87790082  1
  Ti  Ti151  1  0.69238378  0.29402009  0.11504603  1
  Ti  Ti152  1  0.59952576  0.80129475  0.76380993  1
  Ti  Ti153  1  0.08685516  0.10337190  0.61207571  1
  Ti  Ti154  1  0.00664098  0.40377733  -0.00155040  1
  Ti  Ti155  1  0.89066887  0.88019084  0.11796622  1
  Ti  Ti156  1  0.89881416  0.10478922  0.60785295  1
  Ti  Ti157  1  0.70870764  0.47417124  0.38743414  1
  Ti  Ti158  1  0.29920653  0.89585464  0.61880497  1
  Ti  Ti159  1  0.90948443  0.49502438  0.87489817  1
  Mo  Mo160  1  0.30324909  0.91232605  0.36945142  1
  Mo  Mo161  1  0.58914400  0.00108977  -0.00191245  1
  Mo  Mo162  1  0.80105424  0.18943666  0.49991107  1
  Mo  Mo163  1  0.80379996  0.40344964  0.50958011  1
  Mo  Mo164  1  -0.00114363  0.19656191  0.50148185  1
  Mo  Mo165  1  0.50357115  0.29517129  0.13243130  1
  Mo  Mo166  1  0.09394225  0.90876789  0.87860171  1
  Mo  Mo167  1  0.50220730  0.90215700  0.37037257  1
  Mo  Mo168  1  0.40911145  0.40278347  -0.00166314  1
  Mo  Mo169  1  0.59038653  0.38596401  -0.00065975  1
  Mo  Mo170  1  0.68409446  0.08168754  0.87844285  1
  Mo  Mo171  1  0.21342181  0.20180475  0.00462786  1
  Mo  Mo172  1  -0.01598717  -0.01113466  0.00340527  1
  Mo  Mo173  1  0.20288343  0.59831688  0.50659032  1
  Mo  Mo174  1  0.20832716  0.21400744  0.24706487  1
  Mo  Mo175  1  0.69650541  0.90514329  0.86913185  1
  Mo  Mo176  1  0.39270165  0.60085890  0.74752622  1
  Mo  Mo177  1  0.89256459  0.90535473  0.37860079  1
  Mo  Mo178  1  0.71531317  0.90064465  0.13049831  1
  Mo  Mo179  1  0.48532263  0.48884479  0.87496172  1
  Mo  Mo180  1  0.79864350  0.19196928  0.01151934  1
  Mo  Mo181  1  0.40312167  0.19255404  0.49537339  1
  Mo  Mo182  1  0.20366812  0.80029988  0.01084780  1
  Mo  Mo183  1  0.09375695  0.90323321  0.37395941  1
  Mo  Mo184  1  0.09660262  0.10295819  0.13659248  1
  Mo  Mo185  1  0.89822875  0.70492602  0.12355916  1
  Mo  Mo186  1  -0.00075954  0.80803650  -0.00585145  1
  Mo  Mo187  1  0.70106281  0.29546286  0.38211616  1
  Mo  Mo188  1  0.69382092  0.90084060  0.62589174  1
  Mo  Mo189  1  0.29868478  0.69740754  0.88765008  1
  Mo  Mo190  1  0.61243227  0.40515748  0.50586737  1
  Mo  Mo191  1  0.91291233  0.69203827  0.87055137  1
  Mo  Mo192  1  0.30608124  0.10781021  0.37914149  1
  Mo  Mo193  1  0.30805119  0.70252333  0.36904247  1
  Mo  Mo194  1  0.90547791  0.70055794  0.62277518  1
  Mo  Mo195  1  0.40601782  0.79874538  -0.00415713  1
  Mo  Mo196  1  0.70724025  0.08266119  0.61937199  1
  Mo  Mo197  1  0.29756244  0.70674587  0.11544676  1
  Mo  Mo198  1  0.69082224  0.69469210  0.85594395  1
  Mo  Mo199  1  0.19833352  -0.00300794  0.49458459  1
