# generated using pymatgen
data_HfZrTaTiMo
_symmetry_space_group_name_H-M   'P 1'
_cell_length_a   15.21462875
_cell_length_b   15.21369102
_cell_length_c   16.84283058
_cell_angle_alpha   89.98283490
_cell_angle_beta   90.02925385
_cell_angle_gamma   90.00009036
_symmetry_Int_Tables_number   1
_chemical_formula_structural   HfZrTaTiMo
_chemical_formula_sum   'Hf40 Zr40 Ta40 Ti40 Mo40'
_cell_volume   3898.62044038
_cell_formula_units_Z   40
loop_
 _symmetry_equiv_pos_site_id
 _symmetry_equiv_pos_as_xyz
  1  'x, y, z'
loop_
 _atom_site_type_symbol
 _atom_site_label
 _atom_site_symmetry_multiplicity
 _atom_site_fract_x
 _atom_site_fract_y
 _atom_site_fract_z
 _atom_site_occupancy
  Hf  Hf0  1  0.41810200  0.40230510  0.01410547  1
  Hf  Hf1  1  0.01092164  0.19287548  0.25753968  1
  Hf  Hf2  1  0.89075342  0.91187719  0.38544243  1
  Hf  Hf3  1  0.80819256  0.20187969  -0.00956685  1
  Hf  Hf4  1  0.90207560  0.90775055  0.87176607  1
  Hf  Hf5  1  0.38101442  0.79720452  0.75788317  1
  Hf  Hf6  1  0.00084982  0.61619197  0.48569421  1
  Hf  Hf7  1  0.00986461  0.38901714  0.24844321  1
  Hf  Hf8  1  0.18979389  0.00613873  0.25834668  1
  Hf  Hf9  1  0.59955537  0.00307397  0.72457494  1
  Hf  Hf10  1  0.31856255  0.29195939  0.87749185  1
  Hf  Hf11  1  0.60343512  0.20767753  -0.00446192  1
  Hf  Hf12  1  0.49415235  0.10383786  0.87236645  1
  Hf  Hf13  1  0.93117647  0.51730004  0.87579085  1
  Hf  Hf14  1  0.38808988  0.18661080  0.50642168  1
  Hf  Hf15  1  0.60268910  0.19497838  0.50188202  1
  Hf  Hf16  1  0.70354695  0.11300678  0.85073476  1
  Hf  Hf17  1  0.78730037  0.00124374  0.25437698  1
  Hf  Hf18  1  0.20009735  -0.01191253  0.75256548  1
  Hf  Hf19  1  0.90359599  0.70127422  0.12937685  1
  Hf  Hf20  1  0.49758742  0.68880778  0.62638633  1
  Hf  Hf21  1  0.81114068  0.60910741  -0.00043210  1
  Hf  Hf22  1  0.28624704  0.69536284  0.35650340  1
  Hf  Hf23  1  0.19365536  0.59107284  0.50083721  1
  Hf  Hf24  1  0.18078556  0.59717594  0.75434424  1
  Hf  Hf25  1  0.01218004  0.39992969  0.00432505  1
  Hf  Hf26  1  0.18528385  0.20467771  0.48265597  1
  Hf  Hf27  1  0.70197864  0.90973311  0.85432780  1
  Hf  Hf28  1  0.20925119  0.00542199  0.49240209  1
  Hf  Hf29  1  0.80110659  0.38837417  0.26104742  1
  Hf  Hf30  1  0.21718077  0.39342268  0.75115861  1
  Hf  Hf31  1  0.19774667  0.00029096  -0.00245237  1
  Hf  Hf32  1  0.89665424  0.91009338  0.10811908  1
  Hf  Hf33  1  0.49697786  0.89793560  0.87826083  1
  Hf  Hf34  1  0.69689438  0.10112035  0.12523909  1
  Hf  Hf35  1  0.40595657  0.38776184  0.24846454  1
  Hf  Hf36  1  0.11333102  0.50119446  0.36331844  1
  Hf  Hf37  1  0.79898328  0.40712770  0.49847228  1
  Hf  Hf38  1  0.51070522  0.49186095  0.87183212  1
  Hf  Hf39  1  0.58492300  0.21535113  0.72748272  1
  Zr  Zr40  1  0.80931985  0.18970011  0.27066524  1
  Zr  Zr41  1  0.39542362  0.00299962  0.74317830  1
  Zr  Zr42  1  0.80384614  0.39796598  0.00003838  1
  Zr  Zr43  1  0.20363396  0.20904689  0.26420357  1
  Zr  Zr44  1  0.49043745  0.90143002  0.12127833  1
  Zr  Zr45  1  0.79654520  0.61271933  0.25521363  1
  Zr  Zr46  1  0.58844838  0.79819871  0.00369796  1
  Zr  Zr47  1  0.29235672  0.70365069  0.62666323  1
  Zr  Zr48  1  0.90611681  0.50141691  0.37393057  1
  Zr  Zr49  1  0.90502325  0.52194342  0.61749515  1
  Zr  Zr50  1  0.10324558  0.30398348  0.87178742  1
  Zr  Zr51  1  0.48774342  0.88366196  0.61962682  1
  Zr  Zr52  1  0.09284727  0.90000009  0.11403680  1
  Zr  Zr53  1  0.20136386  0.20508163  -0.00215387  1
  Zr  Zr54  1  0.78906678  0.80499386  -0.00317974  1
  Zr  Zr55  1  0.70315417  0.69492099  0.63703521  1
  Zr  Zr56  1  -0.00162685  0.80477611  0.25782422  1
  Zr  Zr57  1  0.01442123  0.41260348  0.73715388  1
  Zr  Zr58  1  0.30377046  0.47612588  0.61273209  1
  Zr  Zr59  1  0.79656501  0.00633416  0.51890841  1
  Zr  Zr60  1  0.10985412  0.50401201  0.13579043  1
  Zr  Zr61  1  -0.01167500  0.00592611  0.25536390  1
  Zr  Zr62  1  0.71072070  0.49717089  0.87744987  1
  Zr  Zr63  1  0.39837311  0.58887713  0.74929496  1
  Zr  Zr64  1  0.40183353  0.59836494  0.49060403  1
  Zr  Zr65  1  0.59776229  -0.00422446  0.51832809  1
  Zr  Zr66  1  0.59607051  0.80250256  0.24787035  1
  Zr  Zr67  1  0.92442115  0.28782648  0.39761378  1
  Zr  Zr68  1  0.79941047  0.41627244  0.73677024  1
  Zr  Zr69  1  0.51752581  0.47820577  0.61837108  1
  Zr  Zr70  1  0.58820762  0.59042762  0.00580615  1
  Zr  Zr71  1  0.69935787  0.50223382  0.13449158  1
  Zr  Zr72  1  0.60299498  0.20507091  0.27701140  1
  Zr  Zr73  1  0.60477336  0.59718680  0.48912802  1
  Zr  Zr74  1  0.29933896  0.10064716  0.12844997  1
  Zr  Zr75  1  0.69970584  0.30233614  0.13131633  1
  Zr  Zr76  1  0.30560206  0.50213784  0.88623228  1
  Zr  Zr77  1  0.19274020  0.79628457  0.49531138  1
  Zr  Zr78  1  0.68621952  0.70001891  0.86315655  1
  Zr  Zr79  1  0.09914291  0.88565866  0.88089278  1
  Ta  Ta80  1  0.10557679  0.70217097  0.13744898  1
  Ta  Ta81  1  0.79461704  0.61640129  0.48772905  1
  Ta  Ta82  1  0.30532508  0.48921491  0.37112855  1
  Ta  Ta83  1  0.40184993  0.19222995  0.26013254  1
  Ta  Ta84  1  0.69624816  0.50119144  0.36549062  1
  Ta  Ta85  1  0.69295402  0.31810004  0.61821341  1
  Ta  Ta86  1  0.48877957  0.08427640  0.38500788  1
  Ta  Ta87  1  0.47959449  0.68267162  0.13164676  1
  Ta  Ta88  1  0.50405957  0.10097198  0.12906174  1
  Ta  Ta89  1  -0.00116487  0.78519838  0.75658066  1
  Ta  Ta90  1  0.60272286  0.79185106  0.49608053  1
  Ta  Ta91  1  0.50463840  0.29127115  0.13159950  1
  Ta  Ta92  1  0.31650964  0.51673456  0.13006994  1
  Ta  Ta93  1  0.09007763  0.09649953  0.86820010  1
  Ta  Ta94  1  0.59716609  0.39033636  0.47687024  1
  Ta  Ta95  1  0.19286264  0.60574210  0.00266616  1
  Ta  Ta96  1  0.29201916  0.70250854  0.13958135  1
  Ta  Ta97  1  0.79086221  0.80494941  0.50539908  1
  Ta  Ta98  1  0.90512636  0.49709725  0.13099572  1
  Ta  Ta99  1  0.69084475  0.89904265  0.37956431  1
  Ta  Ta100  1  0.41842778  0.38025477  0.74363718  1
  Ta  Ta101  1  0.08512815  0.10238418  0.11533262  1
  Ta  Ta102  1  0.40463817  0.19875261  0.00947228  1
  Ta  Ta103  1  0.00283946  0.20274906  0.73612161  1
  Ta  Ta104  1  0.29969575  0.89635442  0.88431596  1
  Ta  Ta105  1  0.89898317  0.71851802  0.62256284  1
  Ta  Ta106  1  0.08643524  0.69641223  0.62785143  1
  Ta  Ta107  1  0.89955688  0.10621304  0.85149708  1
  Ta  Ta108  1  0.00353450  0.01188909  0.50770237  1
  Ta  Ta109  1  0.79503611  0.01290452  -0.01037050  1
  Ta  Ta110  1  0.09963709  0.89848330  0.38002142  1
  Ta  Ta111  1  0.10607002  0.09877547  0.62680852  1
  Ta  Ta112  1  0.02636603  0.40374584  0.50909966  1
  Ta  Ta113  1  0.89905636  0.30097580  0.86032983  1
  Ta  Ta114  1  0.91181726  0.29127295  0.12601865  1
  Ta  Ta115  1  0.39108917  0.19575355  0.72735406  1
  Ta  Ta116  1  0.11736646  0.30147461  0.62380915  1
  Ta  Ta117  1  0.30712212  0.90250618  0.36849240  1
  Ta  Ta118  1  -0.00690543  0.81012334  0.49957660  1
  Ta  Ta119  1  0.79168745  0.80993300  0.24671571  1
  Ti  Ti120  1  0.69418870  0.90782988  0.12127453  1
  Ti  Ti121  1  -0.00199664  0.19588657  -0.00849440  1
  Ti  Ti122  1  0.68996484  0.70309646  0.12715216  1
  Ti  Ti123  1  0.89805965  0.90330071  0.63570693  1
  Ti  Ti124  1  0.49718362  0.70293297  0.36923039  1
  Ti  Ti125  1  0.20419394  0.19038716  0.74840427  1
  Ti  Ti126  1  0.59278641  0.00369913  0.25972245  1
  Ti  Ti127  1  0.89009197  0.71568054  0.37381523  1
  Ti  Ti128  1  0.40025574  -0.00117323  0.25129855  1
  Ti  Ti129  1  0.09607601  0.89019633  0.62766665  1
  Ti  Ti130  1  0.80001755  0.19615356  0.49537686  1
  Ti  Ti131  1  0.82225769  0.62311214  0.75991819  1
  Ti  Ti132  1  0.38436139  0.79081644  0.00500303  1
  Ti  Ti133  1  0.61350833  0.57712265  0.74331765  1
  Ti  Ti134  1  0.49746510  0.49219729  0.36655632  1
  Ti  Ti135  1  0.49626142  0.89699445  0.38138320  1
  Ti  Ti136  1  0.21316988  0.39463669  0.24341137  1
  Ti  Ti137  1  0.39724955  0.80076818  0.25054357  1
  Ti  Ti138  1  0.00360080  0.60575645  0.25843884  1
  Ti  Ti139  1  0.11089404  0.29249066  0.12148916  1
  Ti  Ti140  1  0.47700933  0.69327077  0.88275941  1
  Ti  Ti141  1  0.50970462  0.29889257  0.87341258  1
  Ti  Ti142  1  -0.00107843  0.77584775  -0.00704685  1
  Ti  Ti143  1  0.00273251  -0.00179657  0.74105171  1
  Ti  Ti144  1  0.51144440  0.49293284  0.14096526  1
  Ti  Ti145  1  0.19717744  0.79172196  0.00514510  1
  Ti  Ti146  1  0.29086448  0.90247733  0.61919708  1
  Ti  Ti147  1  0.60054484  0.00541643  -0.00403643  1
  Ti  Ti148  1  0.59220943  0.60218926  0.25806485  1
  Ti  Ti149  1  0.39912318  0.00232748  0.00231750  1
  Ti  Ti150  1  0.39584621  0.79952252  0.49144307  1
  Ti  Ti151  1  0.69803185  0.30817816  0.86129772  1
  Ti  Ti152  1  0.29067811  0.89312275  0.13413940  1
  Ti  Ti153  1  0.29956033  0.09654014  0.87668074  1
  Ti  Ti154  1  0.89957814  0.29402720  0.61781903  1
  Ti  Ti155  1  0.58994845  0.79499953  0.74933617  1
  Ti  Ti156  1  0.72163937  0.11884964  0.64042101  1
  Ti  Ti157  1  0.21431984  0.40286490  0.01180083  1
  Ti  Ti158  1  0.89825782  0.10321747  0.11826239  1
  Ti  Ti159  1  0.27820354  0.70490839  0.87674582  1
  Mo  Mo160  1  0.30503487  0.09191266  0.36587146  1
  Mo  Mo161  1  0.19077369  0.79872132  0.74872903  1
  Mo  Mo162  1  0.00593231  0.60048862  0.01444950  1
  Mo  Mo163  1  0.69782497  0.08616321  0.38476913  1
  Mo  Mo164  1  0.10633910  0.31164486  0.38038743  1
  Mo  Mo165  1  -0.00283588  0.20042166  0.52639644  1
  Mo  Mo166  1  0.80946807  0.00747855  0.73534784  1
  Mo  Mo167  1  0.09155078  0.70598556  0.36409456  1
  Mo  Mo168  1  0.40637169  0.59734949  0.25767391  1
  Mo  Mo169  1  0.28665844  0.09422948  0.62586771  1
  Mo  Mo170  1  0.49198382  0.30118798  0.60906852  1
  Mo  Mo171  1  0.60304904  0.39824845  0.74551964  1
  Mo  Mo172  1  -0.01221783  0.01986048  -0.01041293  1
  Mo  Mo173  1  0.30650448  0.30336880  0.37503065  1
  Mo  Mo174  1  0.49374651  0.09667513  0.61433109  1
  Mo  Mo175  1  0.90751249  0.10305501  0.63941663  1
  Mo  Mo176  1  0.80430601  0.21828238  0.74404467  1
  Mo  Mo177  1  0.30648405  0.30429745  0.12304468  1
  Mo  Mo178  1  0.90201311  0.09749498  0.39083660  1
  Mo  Mo179  1  0.70600281  0.50327495  0.61268233  1
  Mo  Mo180  1  -0.00225213  0.60375320  0.74573081  1
  Mo  Mo181  1  0.08376752  0.10057803  0.38737293  1
  Mo  Mo182  1  0.21011304  0.39514156  0.49281956  1
  Mo  Mo183  1  0.20357997  0.59839918  0.24692234  1
  Mo  Mo184  1  0.29687610  0.28917721  0.62365314  1
  Mo  Mo185  1  0.59707163  0.39218225  0.00296680  1
  Mo  Mo186  1  0.39006758  0.61197236  0.00379434  1
  Mo  Mo187  1  0.70659274  0.88623956  0.64059292  1
  Mo  Mo188  1  0.59938468  0.40098633  0.27046836  1
  Mo  Mo189  1  0.90282002  0.70948363  0.87683409  1
  Mo  Mo190  1  0.80374524  0.80842081  0.74755689  1
  Mo  Mo191  1  0.10520459  0.50329793  0.61824107  1
  Mo  Mo192  1  0.11413241  0.50169225  0.88810374  1
  Mo  Mo193  1  0.70473447  0.29840178  0.38712896  1
  Mo  Mo194  1  0.69691127  0.70985022  0.37299076  1
  Mo  Mo195  1  0.08960098  0.68422832  0.88037232  1
  Mo  Mo196  1  0.20098757  0.80993194  0.25173396  1
  Mo  Mo197  1  0.49200168  0.29322531  0.38138704  1
  Mo  Mo198  1  0.39488268  -0.01287933  0.49709166  1
  Mo  Mo199  1  0.40321756  0.38784268  0.48382654  1
