# generated using pymatgen
data_HfZrTaTiMo
_symmetry_space_group_name_H-M   'P 1'
_cell_length_a   15.21859191
_cell_length_b   15.20796215
_cell_length_c   16.83038260
_cell_angle_alpha   89.92825847
_cell_angle_beta   89.96760562
_cell_angle_gamma   90.01797469
_symmetry_Int_Tables_number   1
_chemical_formula_structural   HfZrTaTiMo
_chemical_formula_sum   'Hf40 Zr40 Ta40 Ti40 Mo40'
_cell_volume   3895.28332765
_cell_formula_units_Z   40
loop_
 _symmetry_equiv_pos_site_id
 _symmetry_equiv_pos_as_xyz
  1  'x, y, z'
loop_
 _atom_site_type_symbol
 _atom_site_label
 _atom_site_symmetry_multiplicity
 _atom_site_fract_x
 _atom_site_fract_y
 _atom_site_fract_z
 _atom_site_occupancy
  Hf  Hf0  1  -0.01858480  0.20311518  -0.01126299  1
  Hf  Hf1  1  0.41807964  0.79187219  0.00033811  1
  Hf  Hf2  1  0.80894480  0.39642290  0.24909512  1
  Hf  Hf3  1  0.41437749  0.19820569  0.73693970  1
  Hf  Hf4  1  0.08697437  0.30107672  0.12622588  1
  Hf  Hf5  1  0.21905832  0.81130556  0.00225391  1
  Hf  Hf6  1  0.89387881  0.11515701  0.13259919  1
  Hf  Hf7  1  0.18297485  0.38974078  0.51007802  1
  Hf  Hf8  1  0.60763544  0.58595257  0.73784266  1
  Hf  Hf9  1  0.80465486  0.39750817  0.01616844  1
  Hf  Hf10  1  0.70605432  0.50577132  0.87813542  1
  Hf  Hf11  1  0.30185315  0.49597475  0.38946486  1
  Hf  Hf12  1  0.21278335  0.78138628  0.49231908  1
  Hf  Hf13  1  0.29630355  0.09325845  0.61271714  1
  Hf  Hf14  1  0.60405959  -0.01682437  -0.00286112  1
  Hf  Hf15  1  0.40035233  0.58814349  0.00893547  1
  Hf  Hf16  1  0.48599656  0.29960980  0.13418271  1
  Hf  Hf17  1  0.39169228  -0.00707804  0.74620927  1
  Hf  Hf18  1  0.50588253  0.69248807  0.85954115  1
  Hf  Hf19  1  0.49989676  0.88959820  0.85827894  1
  Hf  Hf20  1  0.58620799  0.40472123  0.24824141  1
  Hf  Hf21  1  -0.01564739  0.20800833  0.26438420  1
  Hf  Hf22  1  0.60149609  0.37731813  0.72698090  1
  Hf  Hf23  1  0.51691239  0.69907586  0.36485317  1
  Hf  Hf24  1  0.18699055  0.19958372  0.26494670  1
  Hf  Hf25  1  0.29628142  0.30108733  0.85466099  1
  Hf  Hf26  1  -0.00408788  0.40017408  0.74562820  1
  Hf  Hf27  1  0.72370642  0.70555446  0.64087820  1
  Hf  Hf28  1  0.30561878  0.50253917  0.86251719  1
  Hf  Hf29  1  0.89224566  0.89797678  0.63074759  1
  Hf  Hf30  1  0.89731514  0.52170368  0.62394118  1
  Hf  Hf31  1  0.90657453  0.90856030  0.11882778  1
  Hf  Hf32  1  0.70480776  0.28337790  0.14486907  1
  Hf  Hf33  1  0.30759221  0.10156086  0.39665386  1
  Hf  Hf34  1  0.11189268  0.50507920  0.12156858  1
  Hf  Hf35  1  0.70405093  0.90093242  0.85382916  1
  Hf  Hf36  1  0.69731277  0.08892023  0.13028103  1
  Hf  Hf37  1  0.01211589  0.01255451  0.73956315  1
  Hf  Hf38  1  0.38607844  0.19887540  0.25354893  1
  Hf  Hf39  1  0.18747606  0.80519291  0.25406851  1
  Zr  Zr40  1  0.39569147  0.61839682  0.51148169  1
  Zr  Zr41  1  0.28430292  0.28822496  0.62480679  1
  Zr  Zr42  1  0.49263764  0.29020060  0.38476531  1
  Zr  Zr43  1  0.50189486  0.49098837  0.86727208  1
  Zr  Zr44  1  0.10218852  0.68808040  0.61406188  1
  Zr  Zr45  1  -0.00549857  0.41102437  0.50416302  1
  Zr  Zr46  1  0.08758363  0.69505995  0.38032080  1
  Zr  Zr47  1  0.88219989  0.70125487  0.88194955  1
  Zr  Zr48  1  0.29978347  0.69684267  0.13818739  1
  Zr  Zr49  1  0.10689377  0.70294177  0.88745286  1
  Zr  Zr50  1  0.38689308  0.19663174  -0.00135038  1
  Zr  Zr51  1  0.90998880  0.91773225  0.87395011  1
  Zr  Zr52  1  0.50312558  0.50158898  0.39518650  1
  Zr  Zr53  1  0.30003565  0.88957257  0.62000738  1
  Zr  Zr54  1  0.78200367  0.20816105  0.73735585  1
  Zr  Zr55  1  0.20786034  0.39990329  -0.00717791  1
  Zr  Zr56  1  0.08732829  0.90559337  0.38654682  1
  Zr  Zr57  1  0.19556389  0.60056485  0.75112889  1
  Zr  Zr58  1  0.19796640  0.59379262  0.24927457  1
  Zr  Zr59  1  0.42403327  0.80765242  0.49904348  1
  Zr  Zr60  1  0.70997447  0.88740849  0.37426895  1
  Zr  Zr61  1  0.50011950  0.29963609  0.87397754  1
  Zr  Zr62  1  -0.00683399  0.60177788  0.75835225  1
  Zr  Zr63  1  0.77697841  0.80466497  0.01018788  1
  Zr  Zr64  1  0.50477899  0.69678841  0.14529551  1
  Zr  Zr65  1  0.09713278  0.10175054  0.11703997  1
  Zr  Zr66  1  0.10761424  0.91161114  0.11990169  1
  Zr  Zr67  1  0.89443040  0.09637064  0.39102797  1
  Zr  Zr68  1  0.30844849  0.90165166  0.37919663  1
  Zr  Zr69  1  0.69799657  0.28153564  0.37094813  1
  Zr  Zr70  1  -0.00202786  0.40297664  -0.00635832  1
  Zr  Zr71  1  0.59660122  0.19606252  0.00146515  1
  Zr  Zr72  1  0.61035095  0.62021185  0.01066878  1
  Zr  Zr73  1  0.50713482  0.89872836  0.13269365  1
  Zr  Zr74  1  0.28399947  0.08772649  0.86804318  1
  Zr  Zr75  1  0.69524311  0.50070340  0.38530804  1
  Zr  Zr76  1  0.60040020  0.41049374  0.01997158  1
  Zr  Zr77  1  0.01363625  0.80342332  0.75197832  1
  Zr  Zr78  1  0.38827550  -0.00870622  -0.00393207  1
  Zr  Zr79  1  0.89970591  0.52206272  0.36774092  1
  Ta  Ta80  1  0.49327427  0.09792161  0.13345516  1
  Ta  Ta81  1  0.29132606  0.29703807  0.39343153  1
  Ta  Ta82  1  0.60248041  0.00021782  0.24987958  1
  Ta  Ta83  1  0.89273908  0.49916030  0.87558743  1
  Ta  Ta84  1  0.79268080  0.20482748  -0.00633148  1
  Ta  Ta85  1  0.39977949  0.40597604  0.72185817  1
  Ta  Ta86  1  0.69050581  0.08676655  0.37660079  1
  Ta  Ta87  1  0.51480412  0.90800669  0.37063063  1
  Ta  Ta88  1  0.69832102  0.30696100  0.87474863  1
  Ta  Ta89  1  0.20858730  0.39474962  0.25746296  1
  Ta  Ta90  1  0.80572467  0.01547637  -0.00704468  1
  Ta  Ta91  1  0.69931381  0.50248286  0.60529593  1
  Ta  Ta92  1  0.31024606  0.71151442  0.85957603  1
  Ta  Ta93  1  0.80687196  0.61593529  0.49890850  1
  Ta  Ta94  1  0.20392492  0.00913970  0.26061109  1
  Ta  Ta95  1  0.28658922  0.30052027  0.12826110  1
  Ta  Ta96  1  0.39674668  0.39190726  0.51894315  1
  Ta  Ta97  1  0.59717361  0.17129159  0.51902978  1
  Ta  Ta98  1  0.08941535  0.70768973  0.11520288  1
  Ta  Ta99  1  0.90975989  0.50551327  0.13595298  1
  Ta  Ta100  1  0.12226746  0.91343750  0.87940636  1
  Ta  Ta101  1  0.79847490  0.39954597  0.50024791  1
  Ta  Ta102  1  0.09745824  0.29429250  0.86294784  1
  Ta  Ta103  1  0.01069460  0.40794083  0.25568770  1
  Ta  Ta104  1  0.17920266  0.18256449  0.74640700  1
  Ta  Ta105  1  0.00143866  0.80861602  -0.00584171  1
  Ta  Ta106  1  0.40132008  0.60032568  0.72806046  1
  Ta  Ta107  1  0.80476048  -0.00731786  0.25283814  1
  Ta  Ta108  1  0.81559890  0.78981426  0.23449346  1
  Ta  Ta109  1  0.89451025  0.30208820  0.61985476  1
  Ta  Ta110  1  0.50578302  0.50173964  0.60736541  1
  Ta  Ta111  1  0.10080487  0.49951678  0.37747905  1
  Ta  Ta112  1  0.08402077  0.09638672  0.88206916  1
  Ta  Ta113  1  -0.01366623  0.19925996  0.74922009  1
  Ta  Ta114  1  0.31058260  0.69209551  0.36007924  1
  Ta  Ta115  1  0.10019179  0.90272191  0.61249139  1
  Ta  Ta116  1  0.78485082  -0.00155525  0.51004044  1
  Ta  Ta117  1  0.71407243  0.69185289  0.36662722  1
  Ta  Ta118  1  0.50599942  0.09548462  0.86742940  1
  Ta  Ta119  1  0.28490044  0.50952672  0.61600762  1
  Ti  Ti120  1  0.89881877  0.71534143  0.37061330  1
  Ti  Ti121  1  0.10036065  0.49618751  0.87856377  1
  Ti  Ti122  1  0.30317243  0.90846902  0.13806592  1
  Ti  Ti123  1  0.60160388  0.37818854  0.50976800  1
  Ti  Ti124  1  -0.01182287  0.79585321  0.50844784  1
  Ti  Ti125  1  0.80340402  0.59666122  0.02479191  1
  Ti  Ti126  1  0.79274597  0.41253824  0.73887630  1
  Ti  Ti127  1  0.61558047  0.79422030  0.50455633  1
  Ti  Ti128  1  0.00621919  0.00015506  0.25654551  1
  Ti  Ti129  1  0.51345005  0.70687009  0.63137003  1
  Ti  Ti130  1  0.09779705  0.10666256  0.60903207  1
  Ti  Ti131  1  -0.00746331  0.62435750  0.23851999  1
  Ti  Ti132  1  0.50694574  0.09868579  0.37465769  1
  Ti  Ti133  1  0.90207916  0.10372476  0.60959289  1
  Ti  Ti134  1  0.40420979  0.80608158  0.25823848  1
  Ti  Ti135  1  0.62003286  0.59453808  0.23758714  1
  Ti  Ti136  1  0.00718713  0.21398738  0.50005640  1
  Ti  Ti137  1  0.60274364  0.01857945  0.74319776  1
  Ti  Ti138  1  0.69936616  0.10768158  0.87144908  1
  Ti  Ti139  1  0.40012564  0.00299052  0.25465185  1
  Ti  Ti140  1  0.29108458  0.09750491  0.12504145  1
  Ti  Ti141  1  0.90007264  0.30590274  0.38519150  1
  Ti  Ti142  1  0.69651986  0.90191894  0.64029239  1
  Ti  Ti143  1  0.19363003  0.20164803  -0.00741637  1
  Ti  Ti144  1  0.42948639  0.00831486  0.50766874  1
  Ti  Ti145  1  -0.00380908  0.60116237  0.00000202  1
  Ti  Ti146  1  0.39715982  0.39829302  0.00570559  1
  Ti  Ti147  1  0.18811145  0.39832717  0.73580085  1
  Ti  Ti148  1  0.40747616  0.56797520  0.24639181  1
  Ti  Ti149  1  0.80613279  0.01636620  0.74467233  1
  Ti  Ti150  1  0.20829053  0.60266716  -0.00147907  1
  Ti  Ti151  1  0.80285897  0.80087610  0.50273357  1
  Ti  Ti152  1  0.79031264  0.20154152  0.50739891  1
  Ti  Ti153  1  0.88632256  0.30459274  0.86455401  1
  Ti  Ti154  1  0.69663427  0.70803434  0.85499244  1
  Ti  Ti155  1  0.62057338  0.80251572  0.24593378  1
  Ti  Ti156  1  0.09438968  0.10399350  0.39176421  1
  Ti  Ti157  1  0.51146254  0.90043165  0.63552908  1
  Ti  Ti158  1  0.90258489  0.90064560  0.37933824  1
  Ti  Ti159  1  0.19144128  -0.00236786  0.49765906  1
  Mo  Mo160  1  0.30240739  0.70075105  0.63447660  1
  Mo  Mo161  1  0.91076829  0.70117964  0.10944861  1
  Mo  Mo162  1  0.70711957  0.49952243  0.13400236  1
  Mo  Mo163  1  0.40349291  0.79119789  0.73623256  1
  Mo  Mo164  1  0.20463648  0.00884798  -0.00126871  1
  Mo  Mo165  1  0.79370192  0.18720152  0.26612479  1
  Mo  Mo166  1  0.20536176  0.81029158  0.75034737  1
  Mo  Mo167  1  0.49868643  0.29167448  0.61219679  1
  Mo  Mo168  1  0.70750012  0.70148105  0.13706221  1
  Mo  Mo169  1  -0.00703403  0.00047013  0.51336083  1
  Mo  Mo170  1  0.29906377  0.88878116  0.86292844  1
  Mo  Mo171  1  0.90310948  0.71000676  0.62394246  1
  Mo  Mo172  1  0.80323579  0.60323786  0.23768672  1
  Mo  Mo173  1  0.70379084  0.29730603  0.60993021  1
  Mo  Mo174  1  0.88715459  0.11166106  0.86908745  1
  Mo  Mo175  1  0.18752300  -0.00472881  0.73830890  1
  Mo  Mo176  1  0.60000934  -0.01973056  0.50455213  1
  Mo  Mo177  1  -0.00420562  0.00432722  -0.00666379  1
  Mo  Mo178  1  0.09876929  0.49447510  0.62566353  1
  Mo  Mo179  1  0.09375337  0.30584602  0.37342269  1
  Mo  Mo180  1  0.61038546  0.61779377  0.50810049  1
  Mo  Mo181  1  0.70691472  0.90334594  0.13337574  1
  Mo  Mo182  1  0.38667074  0.39534479  0.25769973  1
  Mo  Mo183  1  0.30859447  0.48402632  0.12879415  1
  Mo  Mo184  1  0.19686084  0.59254843  0.49457518  1
  Mo  Mo185  1  0.89937648  0.30263106  0.13323701  1
  Mo  Mo186  1  -0.00298006  0.60864494  0.49643480  1
  Mo  Mo187  1  0.49853855  0.49644776  0.12993828  1
  Mo  Mo188  1  0.40589986  0.19810508  0.50868319  1
  Mo  Mo189  1  0.60209090  0.19173943  0.74375939  1
  Mo  Mo190  1  0.60119881  0.79885404  -0.00430074  1
  Mo  Mo191  1  0.50347400  0.08729481  0.62935717  1
  Mo  Mo192  1  0.58839169  0.18584592  0.25216246  1
  Mo  Mo193  1  0.70656406  0.08774900  0.62230929  1
  Mo  Mo194  1  0.08413541  0.28707089  0.63621956  1
  Mo  Mo195  1  -0.00605640  0.81079292  0.24755178  1
  Mo  Mo196  1  0.60071021  0.80245601  0.73882159  1
  Mo  Mo197  1  0.79944997  0.59341159  0.75392705  1
  Mo  Mo198  1  0.18956418  0.19485823  0.49354041  1
  Mo  Mo199  1  0.80630423  0.80712125  0.75525022  1
