# generated using pymatgen
data_HfZrTaTiMo
_symmetry_space_group_name_H-M   'P 1'
_cell_length_a   15.21867298
_cell_length_b   15.21273828
_cell_length_c   16.84728745
_cell_angle_alpha   90.04029991
_cell_angle_beta   90.02805367
_cell_angle_gamma   89.94243051
_symmetry_Int_Tables_number   1
_chemical_formula_structural   HfZrTaTiMo
_chemical_formula_sum   'Hf40 Zr40 Ta40 Ti40 Mo40'
_cell_volume   3900.44165783
_cell_formula_units_Z   40
loop_
 _symmetry_equiv_pos_site_id
 _symmetry_equiv_pos_as_xyz
  1  'x, y, z'
loop_
 _atom_site_type_symbol
 _atom_site_label
 _atom_site_symmetry_multiplicity
 _atom_site_fract_x
 _atom_site_fract_y
 _atom_site_fract_z
 _atom_site_occupancy
  Hf  Hf0  1  0.81663132  0.81272447  0.23464343  1
  Hf  Hf1  1  0.51072453  0.69726131  0.13175875  1
  Hf  Hf2  1  0.30011135  0.49560300  0.87142862  1
  Hf  Hf3  1  0.31302305  0.89586934  0.63118070  1
  Hf  Hf4  1  0.71521516  0.69955998  0.35733730  1
  Hf  Hf5  1  0.58927205  0.37702720  0.23737195  1
  Hf  Hf6  1  0.00127640  0.60305961  0.25407545  1
  Hf  Hf7  1  0.68835844  0.90677214  0.35765820  1
  Hf  Hf8  1  0.10111607  0.70505418  0.61250125  1
  Hf  Hf9  1  0.10640508  0.70475173  0.37743014  1
  Hf  Hf10  1  0.40001558  0.39592137  0.73834677  1
  Hf  Hf11  1  0.41040050  0.40177376  0.51824203  1
  Hf  Hf12  1  -0.01029307  -0.01137301  0.50470656  1
  Hf  Hf13  1  0.59214396  0.20744388  0.50482964  1
  Hf  Hf14  1  0.30555952  0.29671864  0.37090701  1
  Hf  Hf15  1  0.20787374  0.19252011  0.24195364  1
  Hf  Hf16  1  0.78942636  0.80194900  0.75507385  1
  Hf  Hf17  1  0.20715953  0.79290879  0.74897276  1
  Hf  Hf18  1  0.11350684  0.49856579  0.62700592  1
  Hf  Hf19  1  0.80283760  0.38824419  0.75246585  1
  Hf  Hf20  1  -0.01246129  0.39198807  0.51963910  1
  Hf  Hf21  1  0.40712689  0.59152426  0.00624742  1
  Hf  Hf22  1  0.61987352  0.61125143  -0.01798670  1
  Hf  Hf23  1  -0.01008028  0.00387718  0.23129683  1
  Hf  Hf24  1  -0.00007169  0.00180066  0.76353231  1
  Hf  Hf25  1  0.09967804  0.29076958  0.36986010  1
  Hf  Hf26  1  0.09120422  0.89947144  0.37673051  1
  Hf  Hf27  1  0.00290077  0.01127226  -0.00084271  1
  Hf  Hf28  1  0.71273517  0.68281664  0.14056834  1
  Hf  Hf29  1  -0.01154845  0.39844270  0.00185254  1
  Hf  Hf30  1  0.69708933  0.10081272  0.64051503  1
  Hf  Hf31  1  0.60652221  0.40389718  0.77335036  1
  Hf  Hf32  1  0.21840914  0.59090129  0.49363909  1
  Hf  Hf33  1  0.59330220  0.80538116  0.49762843  1
  Hf  Hf34  1  0.69317630  0.30558037  0.37456338  1
  Hf  Hf35  1  0.60290584  0.57748351  0.48240799  1
  Hf  Hf36  1  0.49196016  0.71765729  0.87830129  1
  Hf  Hf37  1  0.30968930  0.70454660  0.36839230  1
  Hf  Hf38  1  0.52457446  0.50510314  0.63299328  1
  Hf  Hf39  1  0.01045292  0.80364892  0.01308422  1
  Zr  Zr40  1  0.58343143  0.00168323  0.23217482  1
  Zr  Zr41  1  0.10553989  0.89021634  0.87726218  1
  Zr  Zr42  1  0.58307208  0.40237993  -0.01807702  1
  Zr  Zr43  1  0.09353099  0.50381145  0.12271396  1
  Zr  Zr44  1  0.39794216  0.19219735  0.77425820  1
  Zr  Zr45  1  0.50304863  0.10114703  0.63698494  1
  Zr  Zr46  1  0.80050126  0.61292929  0.50098982  1
  Zr  Zr47  1  0.79871938  0.20212479  0.50968176  1
  Zr  Zr48  1  0.12811975  0.70428928  0.13095213  1
  Zr  Zr49  1  0.88564764  0.50378928  0.36958784  1
  Zr  Zr50  1  0.77645227  0.41155888  0.51790665  1
  Zr  Zr51  1  0.60992828  0.61606077  0.76693829  1
  Zr  Zr52  1  0.69026558  0.70100690  0.62472577  1
  Zr  Zr53  1  0.01320011  0.19360147  0.51147586  1
  Zr  Zr54  1  0.40882409  -0.01359758  0.49065514  1
  Zr  Zr55  1  0.89323489  0.09348600  0.63434776  1
  Zr  Zr56  1  0.89776977  0.29872806  0.37290355  1
  Zr  Zr57  1  -0.01522046  0.20626065  0.75648709  1
  Zr  Zr58  1  0.09947319  0.28617166  0.11783123  1
  Zr  Zr59  1  0.69566383  0.90063503  0.89585729  1
  Zr  Zr60  1  0.90717187  0.50044347  0.86961499  1
  Zr  Zr61  1  0.80291389  0.78134608  0.00579048  1
  Zr  Zr62  1  0.50496082  0.70573993  0.36212451  1
  Zr  Zr63  1  0.30014002  0.09321232  0.63435537  1
  Zr  Zr64  1  0.68406437  0.89130978  0.11466541  1
  Zr  Zr65  1  0.00240258  0.59782150  0.49588562  1
  Zr  Zr66  1  0.38765060  0.19780127  0.50398315  1
  Zr  Zr67  1  0.50375136  0.09838730  0.37050439  1
  Zr  Zr68  1  0.89699558  0.09710992  0.37243716  1
  Zr  Zr69  1  -0.00794772  0.38934363  0.23927894  1
  Zr  Zr70  1  0.30144158  0.09727249  0.10545222  1
  Zr  Zr71  1  0.60135167  0.56959940  0.26238086  1
  Zr  Zr72  1  0.09099567  0.30905240  0.87464023  1
  Zr  Zr73  1  0.10064090  0.90250566  0.62739838  1
  Zr  Zr74  1  0.20697145  0.39804411  -0.00168721  1
  Zr  Zr75  1  0.80055372  0.20206661  0.23674821  1
  Zr  Zr76  1  0.68908543  0.49236128  0.11210205  1
  Zr  Zr77  1  0.29707302  0.51005346  0.12853813  1
  Zr  Zr78  1  0.20317509  0.38488420  0.50461535  1
  Zr  Zr79  1  0.80257837  0.82693997  0.50156064  1
  Ta  Ta80  1  0.58463090  0.82335764  0.75654290  1
  Ta  Ta81  1  0.29731055  0.69617377  0.87309843  1
  Ta  Ta82  1  0.21167203  0.00253043  0.76958646  1
  Ta  Ta83  1  0.00104386  0.40395058  0.73757814  1
  Ta  Ta84  1  0.89520475  0.51028849  0.63602009  1
  Ta  Ta85  1  0.40695287  0.81675614  0.24017743  1
  Ta  Ta86  1  0.39589470  0.60860809  0.74245227  1
  Ta  Ta87  1  0.81195989  0.00494555  0.01529767  1
  Ta  Ta88  1  0.19565031  -0.00773269  0.24419908  1
  Ta  Ta89  1  -0.00454917  0.79619835  0.75378541  1
  Ta  Ta90  1  0.89482664  0.90110469  0.87834273  1
  Ta  Ta91  1  0.10376369  0.50974401  0.86930106  1
  Ta  Ta92  1  0.41262730  -0.01484571  0.77384185  1
  Ta  Ta93  1  0.91324674  0.72333193  0.37066662  1
  Ta  Ta94  1  0.00468151  0.60674168  0.74547663  1
  Ta  Ta95  1  0.67856751  0.30388715  0.63797923  1
  Ta  Ta96  1  0.60503879  0.01213434  0.77375163  1
  Ta  Ta97  1  0.88468319  0.50569343  0.12074970  1
  Ta  Ta98  1  0.11039882  0.09867967  0.63622681  1
  Ta  Ta99  1  0.10171269  0.09665396  0.36758972  1
  Ta  Ta100  1  0.10036614  0.69404437  0.87533752  1
  Ta  Ta101  1  0.20363645  0.61302397  -0.00403996  1
  Ta  Ta102  1  0.90402547  0.71038793  0.62733277  1
  Ta  Ta103  1  0.19969992  0.01100925  0.49620437  1
  Ta  Ta104  1  0.30381040  0.69564216  0.61871381  1
  Ta  Ta105  1  0.69610312  0.11162057  0.10240592  1
  Ta  Ta106  1  0.19591323  0.19437410  0.77040756  1
  Ta  Ta107  1  0.49923292  0.90575537  0.90542253  1
  Ta  Ta108  1  0.01330140  0.81180378  0.23373112  1
  Ta  Ta109  1  0.39523162  0.21079241  -0.02324935  1
  Ta  Ta110  1  0.31146380  0.30105905  0.12083328  1
  Ta  Ta111  1  0.20960671  0.80984789  0.49764084  1
  Ta  Ta112  1  0.48394725  0.90465862  0.10292633  1
  Ta  Ta113  1  0.90274079  0.70132824  0.87408486  1
  Ta  Ta114  1  0.20480562  0.40089627  0.24961910  1
  Ta  Ta115  1  0.78600113  0.40731783  0.23975072  1
  Ta  Ta116  1  0.38714754  0.00473138  0.24358165  1
  Ta  Ta117  1  0.61483187  0.00018535  0.49977346  1
  Ta  Ta118  1  0.41460477  0.20024408  0.23867769  1
  Ta  Ta119  1  0.40261056  0.39863440  0.24368549  1
  Ti  Ti120  1  0.80037649  0.59935671  0.75219643  1
  Ti  Ti121  1  0.41039020  0.60047321  0.50394255  1
  Ti  Ti122  1  0.31529616  0.49371803  0.37180699  1
  Ti  Ti123  1  0.30967606  0.88626060  0.88355239  1
  Ti  Ti124  1  0.49710437  0.30461718  0.37513072  1
  Ti  Ti125  1  0.09942355  0.09941500  0.11958860  1
  Ti  Ti126  1  0.20097908  -0.01030359  -0.00869612  1
  Ti  Ti127  1  0.49011531  0.50941808  0.86683978  1
  Ti  Ti128  1  0.29520192  0.09949496  0.37064134  1
  Ti  Ti129  1  0.28802782  0.89343420  0.11826635  1
  Ti  Ti130  1  0.59557094  0.20905273  0.78027858  1
  Ti  Ti131  1  0.49762334  0.29335829  0.10585263  1
  Ti  Ti132  1  0.21013958  0.80757254  0.25121312  1
  Ti  Ti133  1  0.29111802  0.28833641  0.63163587  1
  Ti  Ti134  1  0.49820552  0.10361642  0.09670998  1
  Ti  Ti135  1  0.20401276  0.59608974  0.74497454  1
  Ti  Ti136  1  0.50907682  0.90915814  0.63136811  1
  Ti  Ti137  1  0.40187689  0.79675429  0.49538958  1
  Ti  Ti138  1  0.79374947  0.00917517  0.22317882  1
  Ti  Ti139  1  -0.00106497  0.60451717  -0.00080970  1
  Ti  Ti140  1  0.89164638  0.29182844  0.11258272  1
  Ti  Ti141  1  0.40272510  0.59319032  0.24624289  1
  Ti  Ti142  1  0.38289412  0.78786524  0.01409129  1
  Ti  Ti143  1  0.70381520  0.10010012  0.37202224  1
  Ti  Ti144  1  0.60263231  0.19064644  0.23850943  1
  Ti  Ti145  1  0.69888430  0.91319624  0.63558151  1
  Ti  Ti146  1  0.19179731  0.18931439  -0.02214835  1
  Ti  Ti147  1  0.30122947  0.90526680  0.37092411  1
  Ti  Ti148  1  0.89204371  0.90845503  0.36855047  1
  Ti  Ti149  1  0.89202594  0.90211216  0.63813142  1
  Ti  Ti150  1  0.20253036  0.39604661  0.74754738  1
  Ti  Ti151  1  0.91092473  0.69136040  0.12744843  1
  Ti  Ti152  1  0.49111321  0.71699038  0.63301070  1
  Ti  Ti153  1  0.78788569  0.19335376  0.77145524  1
  Ti  Ti154  1  0.10231990  0.48852126  0.37454819  1
  Ti  Ti155  1  0.10295407  0.28867787  0.63572492  1
  Ti  Ti156  1  0.20720275  0.59441544  0.26175590  1
  Ti  Ti157  1  0.79249907  0.40153830  -0.01577841  1
  Ti  Ti158  1  0.69712374  0.29427956  0.10036644  1
  Ti  Ti159  1  0.70375495  0.10324092  0.90025699  1
  Mo  Mo160  1  0.29114112  0.30103169  0.87064490  1
  Mo  Mo161  1  0.71162728  0.50676287  0.87865021  1
  Mo  Mo162  1  0.71004910  0.70838457  0.86939446  1
  Mo  Mo163  1  0.90443822  0.11323873  0.12048669  1
  Mo  Mo164  1  0.20897038  0.79566646  -0.00355754  1
  Mo  Mo165  1  0.80913123  0.20504507  -0.00531475  1
  Mo  Mo166  1  0.59906628  0.00498525  0.00705196  1
  Mo  Mo167  1  0.70293538  0.29649475  0.88528391  1
  Mo  Mo168  1  0.11267174  0.90947328  0.12269035  1
  Mo  Mo169  1  0.89291764  0.29423059  0.88249749  1
  Mo  Mo170  1  0.39497677  0.39921877  -0.00057257  1
  Mo  Mo171  1  0.48911148  0.48538539  0.12258480  1
  Mo  Mo172  1  0.30763253  0.50790247  0.63001843  1
  Mo  Mo173  1  0.78888813  0.00266959  0.49941277  1
  Mo  Mo174  1  0.50470714  0.29404876  0.63903457  1
  Mo  Mo175  1  0.59271452  0.39145830  0.50450623  1
  Mo  Mo176  1  0.49187083  0.89938352  0.37028865  1
  Mo  Mo177  1  0.09904185  0.09781027  0.87655863  1
  Mo  Mo178  1  0.89180299  0.30359922  0.63205581  1
  Mo  Mo179  1  0.79429482  0.00137837  0.76528145  1
  Mo  Mo180  1  0.69648907  0.48661448  0.36858825  1
  Mo  Mo181  1  0.29681616  0.08690951  0.88687193  1
  Mo  Mo182  1  0.30992191  0.70620233  0.14070984  1
  Mo  Mo183  1  0.59546125  0.80254587  0.24622512  1
  Mo  Mo184  1  0.40208257  0.80366055  0.75372640  1
  Mo  Mo185  1  0.19656751  0.18963477  0.50229646  1
  Mo  Mo186  1  0.00751281  0.19340445  0.24488815  1
  Mo  Mo187  1  0.48837335  0.30955145  0.87724367  1
  Mo  Mo188  1  0.50618963  0.09763207  0.89127972  1
  Mo  Mo189  1  0.88773959  0.09095638  0.87475201  1
  Mo  Mo190  1  0.81125478  0.59742641  0.25010659  1
  Mo  Mo191  1  0.90176173  0.90154380  0.11884426  1
  Mo  Mo192  1  0.59744629  0.20399407  -0.01463227  1
  Mo  Mo193  1  -0.00551982  0.80015124  0.50046163  1
  Mo  Mo194  1  0.59108529  0.79368084  0.00567974  1
  Mo  Mo195  1  0.38912645  -0.00110377  -0.00699779  1
  Mo  Mo196  1  0.48669089  0.48220216  0.37677774  1
  Mo  Mo197  1  0.81532474  0.59261921  -0.00599169  1
  Mo  Mo198  1  0.70291775  0.50270572  0.63519029  1
  Mo  Mo199  1  -0.00784904  0.19767063  -0.01211320  1
