# generated using pymatgen
data_HfZrTaTiMo
_symmetry_space_group_name_H-M   'P 1'
_cell_length_a   15.21004857
_cell_length_b   15.20330542
_cell_length_c   16.85790326
_cell_angle_alpha   90.01589021
_cell_angle_beta   90.03596894
_cell_angle_gamma   89.94996295
_symmetry_Int_Tables_number   1
_chemical_formula_structural   HfZrTaTiMo
_chemical_formula_sum   'Hf40 Zr40 Ta40 Ti40 Mo40'
_cell_volume   3898.26995492
_cell_formula_units_Z   40
loop_
 _symmetry_equiv_pos_site_id
 _symmetry_equiv_pos_as_xyz
  1  'x, y, z'
loop_
 _atom_site_type_symbol
 _atom_site_label
 _atom_site_symmetry_multiplicity
 _atom_site_fract_x
 _atom_site_fract_y
 _atom_site_fract_z
 _atom_site_occupancy
  Hf  Hf0  1  0.29067538  0.70585582  0.37596370  1
  Hf  Hf1  1  0.20575253  0.00330194  0.51523781  1
  Hf  Hf2  1  0.08720935  0.48960000  0.63739337  1
  Hf  Hf3  1  0.30652138  0.70490020  0.12973601  1
  Hf  Hf4  1  0.40402001  0.78521458  0.73987104  1
  Hf  Hf5  1  0.50156109  0.90493229  0.62308674  1
  Hf  Hf6  1  0.38716618  0.00710891  -0.00380208  1
  Hf  Hf7  1  0.70460146  0.90564276  0.36709330  1
  Hf  Hf8  1  0.60215108  0.01360270  0.48820426  1
  Hf  Hf9  1  0.70895038  0.31813326  0.63630924  1
  Hf  Hf10  1  0.57987265  0.60506551  0.74739340  1
  Hf  Hf11  1  0.50043837  0.28329636  0.13441875  1
  Hf  Hf12  1  0.59047381  0.00567106  -0.00535436  1
  Hf  Hf13  1  0.80331977  0.01526214  0.49859876  1
  Hf  Hf14  1  0.58905442  0.22177116  0.75839718  1
  Hf  Hf15  1  0.21478770  0.39308622  0.73576225  1
  Hf  Hf16  1  0.68819261  0.71357462  0.88728790  1
  Hf  Hf17  1  0.61798196  0.01532791  0.75198982  1
  Hf  Hf18  1  0.00748506  0.79675245  0.76167853  1
  Hf  Hf19  1  0.90093333  0.69512784  0.63326775  1
  Hf  Hf20  1  0.39906857  0.60368872  0.26435597  1
  Hf  Hf21  1  0.00263808  0.78757762  0.23264657  1
  Hf  Hf22  1  0.51016983  0.30982830  0.38310340  1
  Hf  Hf23  1  0.60725819  0.80432708  0.74470913  1
  Hf  Hf24  1  0.20085394  0.38342101  0.51738549  1
  Hf  Hf25  1  0.29968926  0.29414528  0.36825846  1
  Hf  Hf26  1  0.80210759  0.20681654  -0.00424771  1
  Hf  Hf27  1  0.69621447  0.49152449  0.36327386  1
  Hf  Hf28  1  0.58847562  0.59735149  0.24855690  1
  Hf  Hf29  1  0.29323613  0.91095590  0.36895613  1
  Hf  Hf30  1  0.68730124  0.70083838  0.61760594  1
  Hf  Hf31  1  0.69309125  0.11030350  0.12218133  1
  Hf  Hf32  1  0.09628422  0.68975800  0.62588748  1
  Hf  Hf33  1  0.08806701  0.69172030  0.38366976  1
  Hf  Hf34  1  0.27886431  0.50513077  0.12044412  1
  Hf  Hf35  1  0.40396855  0.40575369  0.25240009  1
  Hf  Hf36  1  0.40258191  0.80422025  0.49966131  1
  Hf  Hf37  1  0.71755171  0.29324316  0.36459519  1
  Hf  Hf38  1  0.91342123  0.11644136  0.62645373  1
  Hf  Hf39  1  0.59834511  0.40085532  0.01562913  1
  Zr  Zr40  1  0.90849157  0.90115197  0.36678148  1
  Zr  Zr41  1  0.10502353  0.08674191  0.36579763  1
  Zr  Zr42  1  0.57982837  0.61318656  0.01411532  1
  Zr  Zr43  1  0.20129551  0.58443086  0.50522480  1
  Zr  Zr44  1  0.80508911  0.22206818  0.50848983  1
  Zr  Zr45  1  0.18558175  0.59668294  0.25701915  1
  Zr  Zr46  1  0.41452114  0.79710149  0.00373917  1
  Zr  Zr47  1  0.00115729  0.38896040  -0.01793656  1
  Zr  Zr48  1  0.49418449  0.51169446  0.61464639  1
  Zr  Zr49  1  0.20783290  0.19508963  -0.00609832  1
  Zr  Zr50  1  0.69069123  0.51087564  0.87819099  1
  Zr  Zr51  1  0.80503123  0.80590757  0.50498192  1
  Zr  Zr52  1  0.88043913  0.48613168  0.64613730  1
  Zr  Zr53  1  0.20131004  0.80154708  0.51775879  1
  Zr  Zr54  1  -0.01844815  0.37303213  0.51189253  1
  Zr  Zr55  1  0.70243812  0.69959743  0.36430193  1
  Zr  Zr56  1  0.30076622  0.11504875  0.64122843  1
  Zr  Zr57  1  0.50829368  0.11097377  0.62268525  1
  Zr  Zr58  1  0.90322829  0.12215743  0.37142386  1
  Zr  Zr59  1  0.01734133  0.59294480  -0.02107035  1
  Zr  Zr60  1  0.29716027  0.29971725  0.13154747  1
  Zr  Zr61  1  0.09037836  0.28738332  0.37443443  1
  Zr  Zr62  1  0.80560012  0.01521750  0.24360517  1
  Zr  Zr63  1  0.48922510  0.48391408  0.87570747  1
  Zr  Zr64  1  0.68756493  0.90205645  0.13026189  1
  Zr  Zr65  1  0.69527626  0.70089298  0.12941004  1
  Zr  Zr66  1  0.09795339  0.89104561  0.37802220  1
  Zr  Zr67  1  -0.00853650  0.00287736  0.75034232  1
  Zr  Zr68  1  0.31993834  0.29909510  0.86871510  1
  Zr  Zr69  1  0.80222418  0.19022241  0.75393308  1
  Zr  Zr70  1  0.89613732  0.68959227  0.36912554  1
  Zr  Zr71  1  0.29532742  0.89263893  0.87033681  1
  Zr  Zr72  1  0.71640712  0.90648846  0.88281035  1
  Zr  Zr73  1  0.82112944  0.00018193  0.01421681  1
  Zr  Zr74  1  0.28427042  0.50578302  0.88061156  1
  Zr  Zr75  1  0.88919555  0.70723997  0.88163659  1
  Zr  Zr76  1  0.30991949  0.10634487  0.13821715  1
  Zr  Zr77  1  0.50499113  0.89955103  0.86929691  1
  Zr  Zr78  1  0.00687388  0.81006788  0.00363909  1
  Zr  Zr79  1  0.78741529  0.58069473  0.50440258  1
  Ta  Ta80  1  0.90783032  0.49767664  0.11450975  1
  Ta  Ta81  1  0.09513731  0.26682469  0.64127448  1
  Ta  Ta82  1  0.09306758  0.89988243  0.63023367  1
  Ta  Ta83  1  0.01392835  -0.01132223  0.22538009  1
  Ta  Ta84  1  0.41360511  0.19934664  -0.00464370  1
  Ta  Ta85  1  0.88796098  0.49550354  0.86731677  1
  Ta  Ta86  1  0.80899847  0.39970780  0.23332562  1
  Ta  Ta87  1  -0.00027403  0.38541155  0.76323141  1
  Ta  Ta88  1  0.69742718  0.31601494  0.87124595  1
  Ta  Ta89  1  0.78591726  0.60982623  0.75194867  1
  Ta  Ta90  1  0.61717213  0.40830266  0.50233398  1
  Ta  Ta91  1  0.40398388  0.80656615  0.25572961  1
  Ta  Ta92  1  -0.01054052  0.58398574  0.50280251  1
  Ta  Ta93  1  0.70653897  0.91851308  0.62123430  1
  Ta  Ta94  1  0.79856682  0.40424487  0.00419889  1
  Ta  Ta95  1  0.50275390  0.30426483  0.60858625  1
  Ta  Ta96  1  0.40644573  0.00062674  0.25724632  1
  Ta  Ta97  1  0.70435824  0.30080195  0.12953651  1
  Ta  Ta98  1  0.31316698  0.68194321  0.62123426  1
  Ta  Ta99  1  0.18694942  0.39927531  0.24905362  1
  Ta  Ta100  1  0.11016742  0.09093115  0.11723335  1
  Ta  Ta101  1  0.39661874  0.39577314  0.01053547  1
  Ta  Ta102  1  0.89705182  0.48307862  0.37192543  1
  Ta  Ta103  1  0.08885433  0.48586330  0.38223184  1
  Ta  Ta104  1  0.00271611  0.18621125  -0.01293273  1
  Ta  Ta105  1  0.19539492  0.80742855  0.23955842  1
  Ta  Ta106  1  0.00295004  0.00102766  0.51119304  1
  Ta  Ta107  1  0.20815305  0.79565608  0.73734114  1
  Ta  Ta108  1  0.09533310  0.29534907  0.12056047  1
  Ta  Ta109  1  0.90388237  0.69025825  0.11526450  1
  Ta  Ta110  1  0.80655327  0.81823254  0.74128488  1
  Ta  Ta111  1  0.59633229  0.80560533  0.48885996  1
  Ta  Ta112  1  0.29281064  0.48943198  0.37721327  1
  Ta  Ta113  1  -0.00022889  0.39682977  0.24171234  1
  Ta  Ta114  1  0.30366879  0.10534539  0.36681257  1
  Ta  Ta115  1  0.59184918  0.00686660  0.26383968  1
  Ta  Ta116  1  0.29384411  0.90957920  0.12812081  1
  Ta  Ta117  1  0.10657179  0.68163021  0.11763121  1
  Ta  Ta118  1  0.29524366  0.09768140  0.85902649  1
  Ta  Ta119  1  0.39808796  0.00792506  0.49566371  1
  Ti  Ti120  1  0.19652668  -0.00615285  0.74108746  1
  Ti  Ti121  1  0.70983947  0.10459378  0.88093253  1
  Ti  Ti122  1  0.50045839  0.11422278  0.37876824  1
  Ti  Ti123  1  0.38312504  0.60188170  -0.00131756  1
  Ti  Ti124  1  0.80503389  0.59125884  0.23540293  1
  Ti  Ti125  1  0.19743541  0.19293342  0.50464778  1
  Ti  Ti126  1  0.19235739  0.19624565  0.24519737  1
  Ti  Ti127  1  0.48875860  0.11265435  0.86521711  1
  Ti  Ti128  1  0.18824292  0.40846621  -0.00242398  1
  Ti  Ti129  1  0.50066914  0.09339049  0.13103451  1
  Ti  Ti130  1  0.10033076  0.08631027  0.87905025  1
  Ti  Ti131  1  0.79653766  0.59558067  0.00700211  1
  Ti  Ti132  1  0.48572003  0.50833178  0.12369343  1
  Ti  Ti133  1  0.38296779  0.58994496  0.74973201  1
  Ti  Ti134  1  0.60689647  0.19544013  0.25588169  1
  Ti  Ti135  1  0.40153223  0.59932787  0.48310737  1
  Ti  Ti136  1  0.39472935  0.40632936  0.50157086  1
  Ti  Ti137  1  0.11343971  0.29145317  0.86627018  1
  Ti  Ti138  1  0.80011960  0.80127787  0.01499305  1
  Ti  Ti139  1  0.49559446  0.89835645  0.12928836  1
  Ti  Ti140  1  -0.00504298  0.20040202  0.23898371  1
  Ti  Ti141  1  0.48642228  0.69445514  0.87653418  1
  Ti  Ti142  1  0.00192035  0.59656487  0.77128375  1
  Ti  Ti143  1  0.90737350  0.91598106  0.87972885  1
  Ti  Ti144  1  0.41655265  0.38875247  0.73543079  1
  Ti  Ti145  1  0.90413196  0.29601374  0.11658180  1
  Ti  Ti146  1  -0.00391913  0.58327090  0.24339899  1
  Ti  Ti147  1  0.89629232  0.29108375  0.87022711  1
  Ti  Ti148  1  0.58412088  0.80463511  0.26277002  1
  Ti  Ti149  1  0.20688018  0.78968743  -0.00077598  1
  Ti  Ti150  1  0.39540132  0.20405105  0.49860837  1
  Ti  Ti151  1  0.60261885  0.40343126  0.23661383  1
  Ti  Ti152  1  0.58635231  0.60698735  0.48473771  1
  Ti  Ti153  1  0.59717648  0.20736560  -0.01282500  1
  Ti  Ti154  1  0.80792325  0.80155422  0.23552695  1
  Ti  Ti155  1  0.40120638  -0.00161802  0.74788751  1
  Ti  Ti156  1  0.19680812  0.60361115  0.75167595  1
  Ti  Ti157  1  -0.00506487  0.79828191  0.50943423  1
  Ti  Ti158  1  0.91340517  0.10568616  0.12276378  1
  Ti  Ti159  1  0.10827727  0.89947400  0.87835556  1
  Mo  Mo160  1  0.79571900  0.40191776  0.76726809  1
  Mo  Mo161  1  0.59844422  0.80891226  0.00643951  1
  Mo  Mo162  1  0.41549485  0.19299443  0.26201772  1
  Mo  Mo163  1  0.49504528  0.90995229  0.37742232  1
  Mo  Mo164  1  0.91000332  0.30258533  0.64390839  1
  Mo  Mo165  1  0.30207852  0.49614472  0.62765110  1
  Mo  Mo166  1  0.29766598  0.69963987  0.87075598  1
  Mo  Mo167  1  0.10350996  0.09374530  0.63086269  1
  Mo  Mo168  1  0.11330602  0.89023601  0.11626141  1
  Mo  Mo169  1  0.01254005  0.18765064  0.50383551  1
  Mo  Mo170  1  0.00763608  0.19581755  0.77630790  1
  Mo  Mo171  1  0.20116010  -0.00027627  0.24461815  1
  Mo  Mo172  1  0.49962428  0.70691198  0.37816997  1
  Mo  Mo173  1  0.69358640  0.11114747  0.36816130  1
  Mo  Mo174  1  0.70567701  0.49701064  0.12855545  1
  Mo  Mo175  1  0.19501652  -0.00896252  -0.00368379  1
  Mo  Mo176  1  0.90338298  0.89512401  0.12989913  1
  Mo  Mo177  1  0.79984560  -0.00101692  0.74642115  1
  Mo  Mo178  1  0.79806141  0.40545951  0.49879779  1
  Mo  Mo179  1  0.70013518  0.10758153  0.62374529  1
  Mo  Mo180  1  0.49612637  0.70937897  0.13651828  1
  Mo  Mo181  1  0.68942856  0.50527464  0.63692953  1
  Mo  Mo182  1  0.31200617  0.29775810  0.62300809  1
  Mo  Mo183  1  0.19655862  0.19175599  0.76279220  1
  Mo  Mo184  1  0.30206971  0.90058734  0.63629356  1
  Mo  Mo185  1  0.09944055  0.49138643  0.85613534  1
  Mo  Mo186  1  0.40047947  0.20477827  0.75036208  1
  Mo  Mo187  1  0.19646448  0.60509590  -0.00337780  1
  Mo  Mo188  1  0.49845458  0.70358632  0.60834796  1
  Mo  Mo189  1  0.09179600  0.48953417  0.12231012  1
  Mo  Mo190  1  0.80775465  0.20761642  0.23274897  1
  Mo  Mo191  1  0.12386952  0.70487559  0.86935059  1
  Mo  Mo192  1  0.01369344  0.00203071  0.00823745  1
  Mo  Mo193  1  0.60191411  0.20928124  0.50023350  1
  Mo  Mo194  1  0.50555790  0.30448020  0.88290156  1
  Mo  Mo195  1  0.90629908  0.30737844  0.36187569  1
  Mo  Mo196  1  0.90202705  0.09643063  0.88174374  1
  Mo  Mo197  1  0.59881554  0.41038732  0.74391847  1
  Mo  Mo198  1  0.90112283  0.90009017  0.62296923  1
  Mo  Mo199  1  0.49730352  0.49863950  0.38671198  1
