# generated using pymatgen
data_HfZrTaTiMo
_symmetry_space_group_name_H-M   'P 1'
_cell_length_a   15.18598279
_cell_length_b   15.18285437
_cell_length_c   16.80623234
_cell_angle_alpha   89.95144961
_cell_angle_beta   90.04766277
_cell_angle_gamma   90.07255519
_symmetry_Int_Tables_number   1
_chemical_formula_structural   HfZrTaTiMo
_chemical_formula_sum   'Hf40 Zr40 Ta40 Ti40 Mo40'
_cell_volume   3874.94942863
_cell_formula_units_Z   40
loop_
 _symmetry_equiv_pos_site_id
 _symmetry_equiv_pos_as_xyz
  1  'x, y, z'
loop_
 _atom_site_type_symbol
 _atom_site_label
 _atom_site_symmetry_multiplicity
 _atom_site_fract_x
 _atom_site_fract_y
 _atom_site_fract_z
 _atom_site_occupancy
  Hf  Hf0  1  0.18968802  0.58639418  0.75997123  1
  Hf  Hf1  1  0.59818877  0.59029708  0.73555301  1
  Hf  Hf2  1  0.11034827  0.90288809  0.12484150  1
  Hf  Hf3  1  0.81637646  0.59720559  0.47462460  1
  Hf  Hf4  1  0.69311047  0.71067143  0.36216172  1
  Hf  Hf5  1  0.10400051  0.48943894  0.13273824  1
  Hf  Hf6  1  0.10708291  0.88923710  0.38302967  1
  Hf  Hf7  1  0.90817191  0.51367313  0.88927544  1
  Hf  Hf8  1  0.39570312  0.42100444  0.74754505  1
  Hf  Hf9  1  0.79166639  0.00293856  0.74911985  1
  Hf  Hf10  1  0.58989127  0.39670964  0.24919734  1
  Hf  Hf11  1  0.30153527  0.49583043  0.37849394  1
  Hf  Hf12  1  0.40722572  0.61302001  0.25247887  1
  Hf  Hf13  1  0.21713283  -0.00612511  0.26182470  1
  Hf  Hf14  1  0.59671576  0.00371774  0.24023583  1
  Hf  Hf15  1  0.30496413  0.49746349  0.13297382  1
  Hf  Hf16  1  0.28409969  0.50436491  0.61549890  1
  Hf  Hf17  1  0.02046299  0.59814874  0.47124043  1
  Hf  Hf18  1  -0.01051082  0.40090385  0.47005723  1
  Hf  Hf19  1  0.08812314  0.30018423  0.61772455  1
  Hf  Hf20  1  0.79104543  0.40711613  0.47416282  1
  Hf  Hf21  1  0.40548419  0.60043105  0.50386232  1
  Hf  Hf22  1  0.59955272  0.39251071  0.74058871  1
  Hf  Hf23  1  0.30766222  0.69614964  0.86500171  1
  Hf  Hf24  1  0.18317279  0.19845420  0.00446009  1
  Hf  Hf25  1  0.00832206  -0.00248799  0.24949905  1
  Hf  Hf26  1  0.07524578  0.70168747  0.11102384  1
  Hf  Hf27  1  0.69616268  0.29682317  0.61242567  1
  Hf  Hf28  1  0.60750450  0.80385541  0.74787133  1
  Hf  Hf29  1  0.90248362  0.89708847  0.37780363  1
  Hf  Hf30  1  0.39151940  0.41295638  -0.00871626  1
  Hf  Hf31  1  0.29042913  0.30301636  0.62108870  1
  Hf  Hf32  1  0.18298507  0.18200317  0.73897315  1
  Hf  Hf33  1  0.19679848  0.60401477  0.25479827  1
  Hf  Hf34  1  0.79744091  0.20735380  0.74881727  1
  Hf  Hf35  1  0.79980769  0.19738170  0.48948262  1
  Hf  Hf36  1  0.78541244  0.80133447  0.49823291  1
  Hf  Hf37  1  0.59802857  0.17691725  0.73617663  1
  Hf  Hf38  1  0.89972012  0.30112286  0.88042856  1
  Hf  Hf39  1  0.59866969  0.60118734  0.01271242  1
  Zr  Zr40  1  0.69746247  0.49893030  0.87899492  1
  Zr  Zr41  1  0.50788433  0.90652940  0.38078612  1
  Zr  Zr42  1  0.20731469  0.80362528  -0.00208933  1
  Zr  Zr43  1  0.50029853  0.30055565  0.87077281  1
  Zr  Zr44  1  0.08906601  0.69824385  0.88754924  1
  Zr  Zr45  1  0.71387729  0.89777189  0.13798556  1
  Zr  Zr46  1  0.90329609  0.50478786  0.13732715  1
  Zr  Zr47  1  0.29627894  0.10338911  0.86803090  1
  Zr  Zr48  1  0.79970254  0.41521468  0.75160839  1
  Zr  Zr49  1  0.01093145  0.41022662  0.75701383  1
  Zr  Zr50  1  0.89608624  0.31581430  0.61987667  1
  Zr  Zr51  1  0.29250981  0.70556663  0.62932090  1
  Zr  Zr52  1  0.00794711  0.38272638  0.01260750  1
  Zr  Zr53  1  0.29765297  0.09828310  0.12673576  1
  Zr  Zr54  1  0.90719550  0.90255297  0.62599770  1
  Zr  Zr55  1  0.50268063  0.09649971  0.87659651  1
  Zr  Zr56  1  0.69588061  0.09356001  0.36303179  1
  Zr  Zr57  1  0.01545314  0.79758086  0.75136693  1
  Zr  Zr58  1  0.91246274  0.11305000  0.63039916  1
  Zr  Zr59  1  0.29604952  0.71442306  0.38316122  1
  Zr  Zr60  1  0.70057645  0.69883103  0.87768403  1
  Zr  Zr61  1  -0.00726450  0.62087303  0.26695682  1
  Zr  Zr62  1  0.89605391  0.70025872  0.61861214  1
  Zr  Zr63  1  0.51080724  0.49970591  0.37943395  1
  Zr  Zr64  1  0.39164703  0.82022575  0.25624310  1
  Zr  Zr65  1  0.59655930  0.39617858  0.00726606  1
  Zr  Zr66  1  0.39343997  0.81284699  0.73870824  1
  Zr  Zr67  1  0.49638177  0.10476140  0.12218890  1
  Zr  Zr68  1  0.50908562  0.70825551  0.61857943  1
  Zr  Zr69  1  0.91521259  0.10725744  0.87351398  1
  Zr  Zr70  1  0.79837507  0.39356386  0.01490795  1
  Zr  Zr71  1  0.80809072  -0.00204657  -0.00223601  1
  Zr  Zr72  1  0.62078001  0.60268779  0.50553407  1
  Zr  Zr73  1  0.60657403  -0.00538028  0.01074699  1
  Zr  Zr74  1  0.49756292  0.89676034  0.87674045  1
  Zr  Zr75  1  0.09676711  0.67544216  0.62124775  1
  Zr  Zr76  1  0.68069507  0.29429997  0.36970452  1
  Zr  Zr77  1  0.20730465  0.58861168  -0.00004152  1
  Zr  Zr78  1  0.69200527  0.28082454  0.14316353  1
  Zr  Zr79  1  0.60602595  0.00644595  0.50476084  1
  Ta  Ta80  1  0.40444195  0.01387290  0.73213244  1
  Ta  Ta81  1  0.02282064  0.00923286  0.74780247  1
  Ta  Ta82  1  0.00977176  0.00060774  0.00343864  1
  Ta  Ta83  1  0.49933064  0.69610307  0.86943448  1
  Ta  Ta84  1  0.29280555  0.30161348  0.12538557  1
  Ta  Ta85  1  0.79876264  0.19498746  0.01314610  1
  Ta  Ta86  1  0.20847369  -0.01756730  0.73007917  1
  Ta  Ta87  1  0.70417511  0.90076518  0.87452309  1
  Ta  Ta88  1  0.29135040  0.90324995  0.86839611  1
  Ta  Ta89  1  0.00436028  0.19956943  0.24071336  1
  Ta  Ta90  1  0.89671960  0.70495138  0.88180227  1
  Ta  Ta91  1  0.89083128  0.08840471  0.13517136  1
  Ta  Ta92  1  0.39280972  0.20765475  -0.00310479  1
  Ta  Ta93  1  -0.00076664  0.19825673  0.48714446  1
  Ta  Ta94  1  0.39537431  0.39254625  0.25599392  1
  Ta  Ta95  1  0.91440648  0.88419493  0.12573110  1
  Ta  Ta96  1  0.10378029  0.28664041  0.37292125  1
  Ta  Ta97  1  0.90568639  0.09778510  0.36799117  1
  Ta  Ta98  1  0.70353127  0.70018157  0.13506773  1
  Ta  Ta99  1  0.49693269  0.50225956  0.13037922  1
  Ta  Ta100  1  0.91024121  0.89823532  0.87144925  1
  Ta  Ta101  1  0.69890471  0.89662982  0.62634463  1
  Ta  Ta102  1  0.18676403  0.40388933  0.48503623  1
  Ta  Ta103  1  0.60466724  0.19780596  0.00235226  1
  Ta  Ta104  1  0.19760408  0.00410851  -0.00411311  1
  Ta  Ta105  1  0.39852631  0.81991717  0.50500717  1
  Ta  Ta106  1  0.92222284  0.50964056  0.61876210  1
  Ta  Ta107  1  0.20255737  0.38508997  0.26103700  1
  Ta  Ta108  1  0.39464678  0.20714458  0.73800558  1
  Ta  Ta109  1  0.48167746  0.30048374  0.12471572  1
  Ta  Ta110  1  0.21146316  -0.00092948  0.50897641  1
  Ta  Ta111  1  0.80550726  0.00459997  0.50384139  1
  Ta  Ta112  1  0.80232751  0.60664293  0.01449723  1
  Ta  Ta113  1  0.40550676  0.61764356  0.00830342  1
  Ta  Ta114  1  0.39066244  -0.00807840  -0.00258567  1
  Ta  Ta115  1  0.00744171  0.00196630  0.50137093  1
  Ta  Ta116  1  0.19769237  0.19445297  0.25087556  1
  Ta  Ta117  1  0.10553937  0.09581791  0.38136662  1
  Ta  Ta118  1  0.70097160  0.50033900  0.14099685  1
  Ta  Ta119  1  0.59874544  0.60451393  0.24540028  1
  Ti  Ti120  1  0.71881176  0.50511834  0.62019423  1
  Ti  Ti121  1  0.40232150  0.01535266  0.50623407  1
  Ti  Ti122  1  0.50366392  0.91442077  0.62296581  1
  Ti  Ti123  1  0.19822863  0.19446747  0.50382737  1
  Ti  Ti124  1  0.39118440  0.20691762  0.25826353  1
  Ti  Ti125  1  0.58711402  0.19635461  0.50509171  1
  Ti  Ti126  1  0.40540431  0.01484837  0.26505531  1
  Ti  Ti127  1  0.82212046  0.79210054  0.25195157  1
  Ti  Ti128  1  0.80457550  0.39383622  0.26097347  1
  Ti  Ti129  1  0.09339289  0.27735233  0.86999355  1
  Ti  Ti130  1  0.19122006  0.79729911  0.24890748  1
  Ti  Ti131  1  0.48297657  0.29197074  0.38222292  1
  Ti  Ti132  1  0.70003594  0.09952241  0.87755805  1
  Ti  Ti133  1  0.30308483  0.70966526  0.12630361  1
  Ti  Ti134  1  0.49044906  0.89004081  0.11653105  1
  Ti  Ti135  1  -0.00624277  0.19234168  0.02972580  1
  Ti  Ti136  1  0.80304674  0.79891040  0.75130533  1
  Ti  Ti137  1  0.39544974  0.19779953  0.50744142  1
  Ti  Ti138  1  0.48876060  0.51510606  0.87361687  1
  Ti  Ti139  1  0.59310117  0.79196529  0.00580018  1
  Ti  Ti140  1  0.70495219  0.90115067  0.36246151  1
  Ti  Ti141  1  0.19511915  0.79247804  0.50268401  1
  Ti  Ti142  1  0.49215723  0.30214014  0.62096633  1
  Ti  Ti143  1  0.80334502  0.19055362  0.25076598  1
  Ti  Ti144  1  0.39620407  0.39464880  0.50148105  1
  Ti  Ti145  1  0.29542741  0.30241124  0.86863279  1
  Ti  Ti146  1  0.79830256  0.59872658  0.26182641  1
  Ti  Ti147  1  0.59091145  0.40397355  0.50642249  1
  Ti  Ti148  1  0.69906897  0.29138613  0.87963512  1
  Ti  Ti149  1  0.79861197  0.80031346  0.00179706  1
  Ti  Ti150  1  0.30370935  0.10926545  0.38292499  1
  Ti  Ti151  1  0.58505472  0.79628737  0.24096987  1
  Ti  Ti152  1  0.10696175  0.88911919  0.61602389  1
  Ti  Ti153  1  0.19892858  0.39219303  0.75792204  1
  Ti  Ti154  1  0.80988711  0.60659182  0.74676692  1
  Ti  Ti155  1  0.20192194  0.38796565  -0.00493537  1
  Ti  Ti156  1  0.50416406  0.71050095  0.38800108  1
  Ti  Ti157  1  0.30678027  0.90082765  0.12065706  1
  Ti  Ti158  1  0.10229938  0.49206095  0.88970849  1
  Ti  Ti159  1  0.00115804  0.39045578  0.25825572  1
  Mo  Mo160  1  0.49818563  0.10895244  0.62138648  1
  Mo  Mo161  1  0.29809157  0.29093422  0.38692878  1
  Mo  Mo162  1  0.59799974  0.80660520  0.50532830  1
  Mo  Mo163  1  0.70451494  0.09448895  0.61590440  1
  Mo  Mo164  1  0.89904595  0.28704820  0.35557587  1
  Mo  Mo165  1  0.10013680  0.09314537  0.60945909  1
  Mo  Mo166  1  0.10287415  0.08805623  0.87504306  1
  Mo  Mo167  1  0.89924206  0.49634883  0.35163071  1
  Mo  Mo168  1  -0.01366135  0.81083325  -0.00741635  1
  Mo  Mo169  1  0.89768878  0.29181283  0.14503798  1
  Mo  Mo170  1  0.10548986  0.70904072  0.37788296  1
  Mo  Mo171  1  0.80803666  -0.00530616  0.24880162  1
  Mo  Mo172  1  0.40415329  0.59952309  0.74681948  1
  Mo  Mo173  1  0.71106827  0.69998845  0.63056775  1
  Mo  Mo174  1  0.49416714  0.11563757  0.37662889  1
  Mo  Mo175  1  0.09841356  0.09612391  0.12924904  1
  Mo  Mo176  1  0.10177763  0.91134907  0.87377739  1
  Mo  Mo177  1  0.49845562  0.70537418  0.12831958  1
  Mo  Mo178  1  0.00677787  0.80256235  0.24965423  1
  Mo  Mo179  1  0.60072268  -0.00692020  0.74342485  1
  Mo  Mo180  1  -0.00674004  0.59878883  0.00679107  1
  Mo  Mo181  1  0.20349778  0.59395477  0.48714857  1
  Mo  Mo182  1  -0.00830484  0.59379685  0.75419012  1
  Mo  Mo183  1  0.19522278  0.80620660  0.75042134  1
  Mo  Mo184  1  0.50086153  0.48984439  0.61442592  1
  Mo  Mo185  1  0.70302706  0.10149218  0.13321391  1
  Mo  Mo186  1  0.10468524  0.29673805  0.13596959  1
  Mo  Mo187  1  0.69772335  0.50259721  0.35448359  1
  Mo  Mo188  1  0.90081733  0.71360138  0.38123134  1
  Mo  Mo189  1  0.00326421  0.20234995  0.75225256  1
  Mo  Mo190  1  0.88559023  0.70613964  0.12371851  1
  Mo  Mo191  1  0.40200837  0.79965535  -0.00044808  1
  Mo  Mo192  1  0.30247932  0.10424996  0.62183367  1
  Mo  Mo193  1  0.10650914  0.49284742  0.35353521  1
  Mo  Mo194  1  0.30249564  0.90244687  0.61132526  1
  Mo  Mo195  1  0.29868587  0.49759273  0.87663996  1
  Mo  Mo196  1  0.30313940  0.91501078  0.39276906  1
  Mo  Mo197  1  0.09771762  0.48663596  0.61728513  1
  Mo  Mo198  1  0.00208171  0.80274484  0.50366678  1
  Mo  Mo199  1  0.57099008  0.19742530  0.25475425  1
