# generated using pymatgen
data_HfZrTaTiMo
_symmetry_space_group_name_H-M   'P 1'
_cell_length_a   15.17545691
_cell_length_b   15.15677736
_cell_length_c   16.82328004
_cell_angle_alpha   90.03882161
_cell_angle_beta   89.96235026
_cell_angle_gamma   90.03085631
_symmetry_Int_Tables_number   1
_chemical_formula_structural   HfZrTaTiMo
_chemical_formula_sum   'Hf40 Zr40 Ta40 Ti40 Mo40'
_cell_volume   3869.53754415
_cell_formula_units_Z   40
loop_
 _symmetry_equiv_pos_site_id
 _symmetry_equiv_pos_as_xyz
  1  'x, y, z'
loop_
 _atom_site_type_symbol
 _atom_site_label
 _atom_site_symmetry_multiplicity
 _atom_site_fract_x
 _atom_site_fract_y
 _atom_site_fract_z
 _atom_site_occupancy
  Hf  Hf0  1  0.19933147  0.59765235  0.23864000  1
  Hf  Hf1  1  0.18789279  0.01591854  0.26802517  1
  Hf  Hf2  1  -0.00344459  0.00873903  -0.01460773  1
  Hf  Hf3  1  0.40860114  0.20072260  0.00535132  1
  Hf  Hf4  1  0.59670202  0.59875855  0.50013773  1
  Hf  Hf5  1  0.11503200  0.50342210  0.37835304  1
  Hf  Hf6  1  0.28790583  0.89683575  0.61526021  1
  Hf  Hf7  1  0.38532109  0.79750889  0.74840343  1
  Hf  Hf8  1  0.69544370  0.09525849  0.60704908  1
  Hf  Hf9  1  0.69336914  0.69325172  0.12880339  1
  Hf  Hf10  1  0.11348906  0.29134230  0.13139784  1
  Hf  Hf11  1  0.70052674  0.90213103  0.88966926  1
  Hf  Hf12  1  0.20717732  -0.00240806  0.75494862  1
  Hf  Hf13  1  0.30521010  0.71633554  0.12878247  1
  Hf  Hf14  1  0.58948084  0.56983644  0.74495536  1
  Hf  Hf15  1  0.21043790  0.42312759  0.76131689  1
  Hf  Hf16  1  0.90568069  0.31047477  0.13050512  1
  Hf  Hf17  1  0.31025195  0.10494101  0.61749747  1
  Hf  Hf18  1  0.41608056  0.40186822  0.24289581  1
  Hf  Hf19  1  0.21559657  0.39036501  -0.00442041  1
  Hf  Hf20  1  0.69165852  0.11354534  0.87658935  1
  Hf  Hf21  1  0.89615951  0.70521376  0.63217546  1
  Hf  Hf22  1  0.01233578  0.60924883  0.49593166  1
  Hf  Hf23  1  0.49804900  0.10294968  0.37336700  1
  Hf  Hf24  1  0.90312031  0.70613805  0.37241501  1
  Hf  Hf25  1  0.69024968  0.69797441  0.63441572  1
  Hf  Hf26  1  0.08783808  0.49245846  0.10646274  1
  Hf  Hf27  1  0.11172292  0.28808792  0.36929587  1
  Hf  Hf28  1  0.80049034  0.59435500  0.75766799  1
  Hf  Hf29  1  0.10792289  0.90678193  0.12327895  1
  Hf  Hf30  1  0.42664959  0.41081872  0.76570479  1
  Hf  Hf31  1  -0.00910549  0.82300544  0.51236215  1
  Hf  Hf32  1  0.69381773  0.69335987  0.87358484  1
  Hf  Hf33  1  0.90696966  0.50144889  0.63021127  1
  Hf  Hf34  1  0.09353339  0.89436112  0.87264368  1
  Hf  Hf35  1  0.10455229  0.09202232  0.63062484  1
  Hf  Hf36  1  0.09020583  0.69931216  0.11113559  1
  Hf  Hf37  1  0.31172430  0.50428542  0.11124155  1
  Hf  Hf38  1  0.39824158  -0.01208087  0.48467234  1
  Hf  Hf39  1  0.02372911  0.60414250  0.75527861  1
  Zr  Zr40  1  0.09166337  0.09644873  0.12144903  1
  Zr  Zr41  1  0.70778042  0.09631746  0.38991186  1
  Zr  Zr42  1  0.70169718  0.48706117  0.36563715  1
  Zr  Zr43  1  0.48785913  0.89875651  0.13818994  1
  Zr  Zr44  1  0.69595014  0.90516288  0.62097284  1
  Zr  Zr45  1  0.27974046  0.68325970  0.87784497  1
  Zr  Zr46  1  0.80590258  0.01112039  0.24968605  1
  Zr  Zr47  1  0.80148034  0.59612247  0.49476645  1
  Zr  Zr48  1  0.21349387  0.39584142  0.24201513  1
  Zr  Zr49  1  0.89664939  0.90681080  0.11122269  1
  Zr  Zr50  1  0.90017770  0.30650154  0.37127222  1
  Zr  Zr51  1  0.20897886  0.19234228  -0.01259727  1
  Zr  Zr52  1  0.50257622  0.09008476  0.61272479  1
  Zr  Zr53  1  0.09393745  0.31141248  0.86497387  1
  Zr  Zr54  1  0.32166583  0.49787405  0.62847925  1
  Zr  Zr55  1  0.70551234  0.29211560  0.13103459  1
  Zr  Zr56  1  0.68862755  0.70407048  0.35995162  1
  Zr  Zr57  1  0.28307400  0.68152731  0.37911183  1
  Zr  Zr58  1  0.48336635  0.68984053  0.62850694  1
  Zr  Zr59  1  0.20418945  0.80987454  -0.00158243  1
  Zr  Zr60  1  0.59105958  0.78639078  0.00326361  1
  Zr  Zr61  1  0.20594688  0.22470483  0.52021073  1
  Zr  Zr62  1  0.52926195  0.29108594  0.87534099  1
  Zr  Zr63  1  0.59943838  0.19715898  0.24955756  1
  Zr  Zr64  1  0.01599699  0.39325074  0.51111178  1
  Zr  Zr65  1  0.58808450  0.01479584  0.00435510  1
  Zr  Zr66  1  0.28559495  0.69210533  0.61185476  1
  Zr  Zr67  1  0.48950193  0.68718093  0.86538340  1
  Zr  Zr68  1  0.19516304  0.80933912  0.26245309  1
  Zr  Zr69  1  0.79889355  0.20009553  0.73694242  1
  Zr  Zr70  1  0.80289081  0.39887967  0.50926826  1
  Zr  Zr71  1  0.79258873  0.80641026  0.24682472  1
  Zr  Zr72  1  0.78682007  0.80232077  0.49762563  1
  Zr  Zr73  1  0.00237402  0.17997850  0.25524464  1
  Zr  Zr74  1  0.38685430  -0.00049910  -0.00204495  1
  Zr  Zr75  1  -0.00302343  0.21150162  -0.00790622  1
  Zr  Zr76  1  0.11553525  0.52809425  0.90347259  1
  Zr  Zr77  1  -0.00127572  0.60298968  0.25150839  1
  Zr  Zr78  1  0.91012107  0.49096405  0.88075239  1
  Zr  Zr79  1  0.89972218  0.08120982  0.61583667  1
  Ta  Ta80  1  0.59830906  0.00209393  0.75438975  1
  Ta  Ta81  1  0.49213229  0.29973720  0.62796668  1
  Ta  Ta82  1  0.71005374  0.49639664  0.12432186  1
  Ta  Ta83  1  0.79300275  0.19917784  -0.00385845  1
  Ta  Ta84  1  0.59308206  0.21224055  0.49793076  1
  Ta  Ta85  1  0.07622894  0.91506244  0.37515600  1
  Ta  Ta86  1  0.39937964  0.80127934  -0.00163811  1
  Ta  Ta87  1  0.49498718  0.69245857  0.14138902  1
  Ta  Ta88  1  0.31121568  0.30279986  0.37525862  1
  Ta  Ta89  1  0.59916897  0.20227348  0.73822423  1
  Ta  Ta90  1  0.79266155  0.60046061  -0.00464917  1
  Ta  Ta91  1  0.59641045  0.40571768  0.50455991  1
  Ta  Ta92  1  0.90216383  0.70445900  0.87852300  1
  Ta  Ta93  1  0.39364370  0.80261299  0.26789496  1
  Ta  Ta94  1  0.61045056  0.39029459  0.00850415  1
  Ta  Ta95  1  0.59310077  0.80861458  0.75252458  1
  Ta  Ta96  1  0.91956897  0.09196486  0.39575695  1
  Ta  Ta97  1  0.80521621  0.58513499  0.24959062  1
  Ta  Ta98  1  0.40645403  -0.00379522  0.75030237  1
  Ta  Ta99  1  0.58088173  0.80443502  0.49621165  1
  Ta  Ta100  1  0.18393311  0.80351497  0.48477049  1
  Ta  Ta101  1  0.39466697  0.79189043  0.48137721  1
  Ta  Ta102  1  0.79686130  -0.00558442  0.75556220  1
  Ta  Ta103  1  0.29410262  0.09594422  0.13298871  1
  Ta  Ta104  1  0.20125762  0.00821888  -0.01657804  1
  Ta  Ta105  1  0.89032157  0.29671005  0.86647647  1
  Ta  Ta106  1  0.40183781  0.57897708  0.48202406  1
  Ta  Ta107  1  0.49834736  0.69502381  0.36348591  1
  Ta  Ta108  1  0.09832085  0.10556579  0.85632837  1
  Ta  Ta109  1  0.31430725  0.29502306  0.86428911  1
  Ta  Ta110  1  0.41642448  0.39920552  -0.00683859  1
  Ta  Ta111  1  0.80763158  0.20554811  0.50595426  1
  Ta  Ta112  1  0.49803918  0.89905892  0.87244843  1
  Ta  Ta113  1  0.50643813  0.30779005  0.37406789  1
  Ta  Ta114  1  -0.00424019  0.81177410  0.24835214  1
  Ta  Ta115  1  0.40632362  0.38582537  0.50016339  1
  Ta  Ta116  1  0.70048698  0.90067346  0.11058534  1
  Ta  Ta117  1  0.29187767  0.11486711  0.38471610  1
  Ta  Ta118  1  0.79285295  0.39816786  0.74237371  1
  Ta  Ta119  1  -0.00777071  0.80653437  0.74924378  1
  Ti  Ti120  1  0.11753325  0.51089952  0.62341551  1
  Ti  Ti121  1  -0.00695079  -0.00512184  0.75267646  1
  Ti  Ti122  1  0.88914316  0.89881831  0.88198057  1
  Ti  Ti123  1  -0.01061999  0.79811175  -0.00372515  1
  Ti  Ti124  1  -0.00057345  0.20349176  0.73914555  1
  Ti  Ti125  1  0.39862920  0.59198088  0.25900704  1
  Ti  Ti126  1  0.10136437  0.70871901  0.62344345  1
  Ti  Ti127  1  0.00655152  0.20269129  0.51500550  1
  Ti  Ti128  1  0.49568336  0.89525531  0.62209898  1
  Ti  Ti129  1  0.59285825  0.58871846  0.24980193  1
  Ti  Ti130  1  0.50547755  0.89628186  0.36283014  1
  Ti  Ti131  1  0.89417177  0.09974206  0.86869264  1
  Ti  Ti132  1  0.38337512  -0.00068456  0.26281038  1
  Ti  Ti133  1  0.49063866  0.09813604  0.86893277  1
  Ti  Ti134  1  0.69494711  0.30456210  0.61906663  1
  Ti  Ti135  1  0.80337967  0.20327233  0.25661171  1
  Ti  Ti136  1  0.60750155  0.39842066  0.24178652  1
  Ti  Ti137  1  0.68904833  0.90514826  0.37667362  1
  Ti  Ti138  1  0.18666097  -0.00024817  0.49247775  1
  Ti  Ti139  1  0.88849442  0.90991529  0.37674424  1
  Ti  Ti140  1  0.80681413  0.39490488  -0.00322543  1
  Ti  Ti141  1  0.88977096  0.70047889  0.11960116  1
  Ti  Ti142  1  0.38995334  0.20587583  0.24336813  1
  Ti  Ti143  1  0.69353836  0.48170023  0.88082356  1
  Ti  Ti144  1  0.41083174  0.60451526  0.00034915  1
  Ti  Ti145  1  0.79538204  0.80612633  0.75486019  1
  Ti  Ti146  1  0.89694873  0.50526939  0.11384841  1
  Ti  Ti147  1  0.70096612  0.29696246  0.37548256  1
  Ti  Ti148  1  0.60326912  -0.00555686  0.24394342  1
  Ti  Ti149  1  0.70222371  0.09304243  0.11872947  1
  Ti  Ti150  1  0.51504337  0.50229809  0.11482216  1
  Ti  Ti151  1  -0.00550278  0.41170149  0.25593002  1
  Ti  Ti152  1  0.00031039  0.39380241  0.73686215  1
  Ti  Ti153  1  0.21712463  0.41294101  0.50587107  1
  Ti  Ti154  1  0.89055116  0.10601628  0.11805666  1
  Ti  Ti155  1  0.30417114  0.90013676  0.87080142  1
  Ti  Ti156  1  0.20495593  0.21104265  0.74341259  1
  Ti  Ti157  1  0.40118120  0.19467720  0.75030913  1
  Ti  Ti158  1  0.18380691  0.79007493  0.75299728  1
  Ti  Ti159  1  0.49549649  0.10605479  0.13668499  1
  Mo  Mo160  1  0.08741486  0.70768745  0.88622013  1
  Mo  Mo161  1  0.00625756  -0.00118309  0.50919339  1
  Mo  Mo162  1  0.21426313  0.19687717  0.25402632  1
  Mo  Mo163  1  0.20236755  0.60765859  0.74906512  1
  Mo  Mo164  1  0.09994457  0.10596655  0.39477263  1
  Mo  Mo165  1  0.71290928  0.30217114  0.87704176  1
  Mo  Mo166  1  0.89325769  0.89854203  0.63978713  1
  Mo  Mo167  1  0.59487153  -0.01222783  0.48896871  1
  Mo  Mo168  1  0.29313203  0.90312007  0.38460192  1
  Mo  Mo169  1  0.19821925  0.59633781  0.50151014  1
  Mo  Mo170  1  0.10784953  0.31084095  0.64219179  1
  Mo  Mo171  1  0.30804103  0.48650544  0.37581481  1
  Mo  Mo172  1  0.70010037  0.49653893  0.62451050  1
  Mo  Mo173  1  0.79975872  0.00806861  -0.00434144  1
  Mo  Mo174  1  0.50683114  0.49051820  0.61846510  1
  Mo  Mo175  1  0.61667466  0.38839435  0.74367624  1
  Mo  Mo176  1  0.80088945  0.79262542  0.00021680  1
  Mo  Mo177  1  0.50355789  0.49589157  0.37022456  1
  Mo  Mo178  1  0.90542022  0.29554330  0.62960576  1
  Mo  Mo179  1  0.09031231  0.71282688  0.37507456  1
  Mo  Mo180  1  0.40369647  0.20519196  0.49560422  1
  Mo  Mo181  1  0.80512096  0.40281693  0.24755480  1
  Mo  Mo182  1  0.60007492  0.58546561  0.00424651  1
  Mo  Mo183  1  0.38718499  0.58788446  0.75819775  1
  Mo  Mo184  1  0.31892575  0.50108797  0.88954695  1
  Mo  Mo185  1  0.09781982  0.89644390  0.63691076  1
  Mo  Mo186  1  0.20911252  0.60426031  0.02021921  1
  Mo  Mo187  1  0.80531096  -0.00751971  0.49206183  1
  Mo  Mo188  1  0.90660666  0.49896597  0.37187275  1
  Mo  Mo189  1  -0.00557453  0.39775369  0.00019970  1
  Mo  Mo190  1  0.51601880  0.49919967  0.89286771  1
  Mo  Mo191  1  0.31633068  0.29161718  0.12278751  1
  Mo  Mo192  1  0.59996504  0.19928747  0.01374312  1
  Mo  Mo193  1  -0.00777254  -0.00508433  0.25387546  1
  Mo  Mo194  1  0.29875973  0.91411685  0.13228481  1
  Mo  Mo195  1  0.30970897  0.30206742  0.64595749  1
  Mo  Mo196  1  0.49982709  0.30351267  0.12360208  1
  Mo  Mo197  1  0.59126171  0.80407651  0.24268802  1
  Mo  Mo198  1  -0.01779978  0.60958496  0.00486433  1
  Mo  Mo199  1  0.30324299  0.10423098  0.86048389  1
