# generated using pymatgen
data_HfZrTaTiMo
_symmetry_space_group_name_H-M   'P 1'
_cell_length_a   15.21594801
_cell_length_b   15.20806904
_cell_length_c   16.80326538
_cell_angle_alpha   89.99522437
_cell_angle_beta   89.95518220
_cell_angle_gamma   90.03959438
_symmetry_Int_Tables_number   1
_chemical_formula_structural   HfZrTaTiMo
_chemical_formula_sum   'Hf40 Zr40 Ta40 Ti40 Mo40'
_cell_volume   3888.36065109
_cell_formula_units_Z   40
loop_
 _symmetry_equiv_pos_site_id
 _symmetry_equiv_pos_as_xyz
  1  'x, y, z'
loop_
 _atom_site_type_symbol
 _atom_site_label
 _atom_site_symmetry_multiplicity
 _atom_site_fract_x
 _atom_site_fract_y
 _atom_site_fract_z
 _atom_site_occupancy
  Hf  Hf0  1  0.10045665  0.50504274  0.12655940  1
  Hf  Hf1  1  0.89354452  0.30008813  0.63184194  1
  Hf  Hf2  1  0.79729561  0.81116332  0.00488006  1
  Hf  Hf3  1  0.10961535  0.90754415  0.12262429  1
  Hf  Hf4  1  0.52212099  0.88339501  0.37545542  1
  Hf  Hf5  1  0.90069995  0.11194165  0.10994506  1
  Hf  Hf6  1  0.01148434  0.39385215  0.51364542  1
  Hf  Hf7  1  0.90565619  0.31384470  0.87073302  1
  Hf  Hf8  1  0.69452856  0.69171418  0.89675356  1
  Hf  Hf9  1  0.40791384  0.79760825  0.74615859  1
  Hf  Hf10  1  0.28930581  0.30862778  0.38179780  1
  Hf  Hf11  1  0.18208698  -0.00003142  0.49767432  1
  Hf  Hf12  1  0.80154602  0.60746645  0.23400682  1
  Hf  Hf13  1  0.50957745  0.68695059  0.61018201  1
  Hf  Hf14  1  0.07146189  0.89381970  0.37740343  1
  Hf  Hf15  1  0.69120877  0.49543825  0.88888159  1
  Hf  Hf16  1  0.30479015  0.10571658  0.38906381  1
  Hf  Hf17  1  0.31325508  0.89486241  0.13307215  1
  Hf  Hf18  1  0.51416168  0.09792301  0.88652753  1
  Hf  Hf19  1  0.40511414  0.19810089  0.73901884  1
  Hf  Hf20  1  0.00759317  0.21504922  -0.00312315  1
  Hf  Hf21  1  0.18642956  0.79478204  0.50394723  1
  Hf  Hf22  1  0.89012327  0.08554155  0.37504279  1
  Hf  Hf23  1  0.62014304  -0.01465661  0.50254105  1
  Hf  Hf24  1  0.89811170  0.51344873  0.87378205  1
  Hf  Hf25  1  0.50066890  0.30382295  0.87883824  1
  Hf  Hf26  1  0.21513111  0.40354927  0.00478774  1
  Hf  Hf27  1  0.69611383  0.51370761  0.61409019  1
  Hf  Hf28  1  0.29899842  0.09536387  0.87328486  1
  Hf  Hf29  1  0.00282923  -0.00016909  0.75102518  1
  Hf  Hf30  1  0.68576964  0.30205272  0.61038999  1
  Hf  Hf31  1  0.31293193  0.49675243  0.62862962  1
  Hf  Hf32  1  0.30418906  0.49524498  0.85967523  1
  Hf  Hf33  1  0.77915512  0.40943316  0.74892133  1
  Hf  Hf34  1  0.79371040  0.82530123  0.50386520  1
  Hf  Hf35  1  0.09046243  0.69666129  0.87557652  1
  Hf  Hf36  1  -0.00896414  0.78975344  0.74037159  1
  Hf  Hf37  1  0.47787726  0.69978719  0.12796397  1
  Hf  Hf38  1  0.20561440  0.59061548  0.50562631  1
  Hf  Hf39  1  0.08273746  0.11872774  0.37201892  1
  Zr  Zr40  1  0.40067456  -0.00559660  -0.00034082  1
  Zr  Zr41  1  0.30962250  0.10241489  0.60087668  1
  Zr  Zr42  1  0.59927483  0.20205616  0.74167853  1
  Zr  Zr43  1  0.60069578  -0.00955860  0.74498866  1
  Zr  Zr44  1  0.20380939  -0.00642223  0.27109603  1
  Zr  Zr45  1  0.50855156  0.48404194  0.62266105  1
  Zr  Zr46  1  0.10725410  0.90422907  0.87181432  1
  Zr  Zr47  1  0.90183417  0.72655156  0.37069292  1
  Zr  Zr48  1  0.79647405  0.19668307  0.75744203  1
  Zr  Zr49  1  0.20069738  0.19238929  0.73271281  1
  Zr  Zr50  1  0.30553658  0.09617006  0.13727003  1
  Zr  Zr51  1  0.09614729  0.49725736  0.87463159  1
  Zr  Zr52  1  0.00856196  0.60939831  0.51982498  1
  Zr  Zr53  1  0.40577322  -0.00156439  0.74261349  1
  Zr  Zr54  1  0.69934555  0.29490886  0.12402520  1
  Zr  Zr55  1  0.11252962  0.30061189  0.86917158  1
  Zr  Zr56  1  0.19738329  0.20870542  0.25350650  1
  Zr  Zr57  1  0.59533060  0.59916480  0.24029209  1
  Zr  Zr58  1  0.69809555  0.28654709  0.89493950  1
  Zr  Zr59  1  0.91489905  0.50305815  0.37612903  1
  Zr  Zr60  1  0.79845842  0.00289873  0.77781676  1
  Zr  Zr61  1  0.80116840  0.80684106  0.21655289  1
  Zr  Zr62  1  0.48017241  0.48349398  0.14105771  1
  Zr  Zr63  1  0.32567344  0.30798919  0.13185915  1
  Zr  Zr64  1  0.69157429  0.51228725  0.37670666  1
  Zr  Zr65  1  0.18741100  0.79400763  0.26396232  1
  Zr  Zr66  1  0.70484740  0.28765433  0.38092377  1
  Zr  Zr67  1  0.49661064  0.69353577  0.87832820  1
  Zr  Zr68  1  0.28549162  0.69453390  0.13365046  1
  Zr  Zr69  1  0.60154252  -0.00128818  0.23182145  1
  Zr  Zr70  1  0.18445817  0.60070809  0.73463051  1
  Zr  Zr71  1  0.78909288  0.80974821  0.77270447  1
  Zr  Zr72  1  0.21316462  0.19177698  0.00588017  1
  Zr  Zr73  1  0.72315009  0.90731747  0.35873289  1
  Zr  Zr74  1  0.80797401  0.40234134  0.49561266  1
  Zr  Zr75  1  0.30961988  0.89891920  0.60934975  1
  Zr  Zr76  1  0.80129159  0.40220273  0.25341192  1
  Zr  Zr77  1  0.20392901  0.80431789  -0.00511972  1
  Zr  Zr78  1  0.80061932  0.62195947  0.50060905  1
  Zr  Zr79  1  0.00034615  0.60783214  0.24331904  1
  Ta  Ta80  1  0.80531675  0.19224213  0.24953645  1
  Ta  Ta81  1  0.90657522  0.30810599  0.12930112  1
  Ta  Ta82  1  0.80662539  0.40473007  0.01052677  1
  Ta  Ta83  1  0.58151650  0.38124417  0.26319716  1
  Ta  Ta84  1  0.31197907  0.29845477  0.87523949  1
  Ta  Ta85  1  0.90473967  0.10743105  0.88846858  1
  Ta  Ta86  1  0.41982742  0.20634122  0.27112039  1
  Ta  Ta87  1  0.58132717  0.58817982  0.01320072  1
  Ta  Ta88  1  0.41059452  0.00153283  0.27129420  1
  Ta  Ta89  1  0.30619502  0.89461514  0.86521064  1
  Ta  Ta90  1  0.30071777  0.69906621  0.38123724  1
  Ta  Ta91  1  0.39649317  0.79376438  -0.00900880  1
  Ta  Ta92  1  0.71085745  0.09144739  0.61948026  1
  Ta  Ta93  1  0.68754353  0.71609551  0.36916791  1
  Ta  Ta94  1  0.92005805  0.28515027  0.37145373  1
  Ta  Ta95  1  0.69314961  0.69373107  0.10492967  1
  Ta  Ta96  1  0.87957134  0.90832858  0.63380449  1
  Ta  Ta97  1  0.00309896  0.19800162  0.74553799  1
  Ta  Ta98  1  0.39924835  0.80237450  0.26925852  1
  Ta  Ta99  1  0.58326210  0.39184161  0.01324035  1
  Ta  Ta100  1  0.00910598  0.40714124  0.73586948  1
  Ta  Ta101  1  0.09937601  0.10300875  0.12989015  1
  Ta  Ta102  1  0.60795728  0.59560126  0.75200490  1
  Ta  Ta103  1  0.39970534  0.40865107  0.48373502  1
  Ta  Ta104  1  0.80381757  0.00256285  0.22336206  1
  Ta  Ta105  1  0.00976625  0.00362989  -0.00403347  1
  Ta  Ta106  1  0.19885594  0.80430744  0.73329703  1
  Ta  Ta107  1  0.80051109  0.61710288  0.74954202  1
  Ta  Ta108  1  0.89989724  0.09873234  0.62760236  1
  Ta  Ta109  1  -0.00941772  0.00277067  0.23964448  1
  Ta  Ta110  1  0.19705429  0.60009197  -0.00476326  1
  Ta  Ta111  1  0.89942755  0.69976680  0.89382982  1
  Ta  Ta112  1  0.38498436  0.58794244  -0.00351396  1
  Ta  Ta113  1  0.49933740  0.67900417  0.38052561  1
  Ta  Ta114  1  0.10213908  0.30190455  0.12761399  1
  Ta  Ta115  1  0.30891853  0.69758402  0.61849057  1
  Ta  Ta116  1  0.18214390  0.21172511  0.50728240  1
  Ta  Ta117  1  0.60307833  0.19124255  0.24982233  1
  Ta  Ta118  1  0.89926984  0.51165522  0.63584878  1
  Ta  Ta119  1  0.58277835  0.80971502  0.01597549  1
  Ti  Ti120  1  0.80261609  0.19102635  0.50003669  1
  Ti  Ti121  1  0.19695658  0.59807460  0.26073434  1
  Ti  Ti122  1  0.10884066  0.48638254  0.37481541  1
  Ti  Ti123  1  0.51254077  0.88462358  0.60927335  1
  Ti  Ti124  1  0.29794439  0.50751311  0.13807104  1
  Ti  Ti125  1  -0.00137047  0.19545955  0.51461335  1
  Ti  Ti126  1  0.59956847  0.79553777  0.75544525  1
  Ti  Ti127  1  0.41247504  0.38903787  0.74374799  1
  Ti  Ti128  1  0.59273285  0.39944691  0.47963384  1
  Ti  Ti129  1  0.49942145  0.49518302  0.87148836  1
  Ti  Ti130  1  0.00731369  0.39356207  0.24950332  1
  Ti  Ti131  1  0.41400138  -0.00632986  0.47949119  1
  Ti  Ti132  1  -0.01274911  0.80811813  0.22687238  1
  Ti  Ti133  1  0.19759210  0.40025560  0.51107508  1
  Ti  Ti134  1  0.40885531  0.59950542  0.74720672  1
  Ti  Ti135  1  0.19933571  -0.00368113  0.73030908  1
  Ti  Ti136  1  0.70219101  0.10669647  0.10711189  1
  Ti  Ti137  1  0.20101418  0.40434363  0.25067555  1
  Ti  Ti138  1  0.20712255  0.38767556  0.73531924  1
  Ti  Ti139  1  0.49288364  0.11237573  0.12267453  1
  Ti  Ti140  1  -0.01012174  0.80469936  0.52402343  1
  Ti  Ti141  1  0.00086455  0.41395663  0.00877423  1
  Ti  Ti142  1  0.69579843  0.09677272  0.37595135  1
  Ti  Ti143  1  0.50768511  0.10035758  0.60058109  1
  Ti  Ti144  1  0.69936352  0.71763432  0.62729791  1
  Ti  Ti145  1  0.09237629  0.70020160  0.11472607  1
  Ti  Ti146  1  0.30979025  0.29995406  0.60857312  1
  Ti  Ti147  1  0.67506995  0.90794439  0.89378742  1
  Ti  Ti148  1  0.69776079  0.49446103  0.12119941  1
  Ti  Ti149  1  0.59565982  -0.00299750  0.01910533  1
  Ti  Ti150  1  0.30891972  0.51121458  0.36861570  1
  Ti  Ti151  1  -0.01463861  -0.00582562  0.51133502  1
  Ti  Ti152  1  0.49496119  0.29103674  0.59775596  1
  Ti  Ti153  1  0.10595134  0.10033507  0.87450713  1
  Ti  Ti154  1  0.40354192  0.79272965  0.48939241  1
  Ti  Ti155  1  -0.00345707  0.80501105  0.00520653  1
  Ti  Ti156  1  0.09406090  0.68708543  0.37961575  1
  Ti  Ti157  1  0.80231614  0.00243308  -0.00553307  1
  Ti  Ti158  1  0.29318082  0.69708108  0.86465255  1
  Ti  Ti159  1  0.59901026  0.80163612  0.22574074  1
  Mo  Mo160  1  0.49349484  0.49450513  0.36603376  1
  Mo  Mo161  1  0.91076945  0.91186146  0.10594046  1
  Mo  Mo162  1  0.51486623  0.09555521  0.38162172  1
  Mo  Mo163  1  0.59226184  0.19272806  0.01350992  1
  Mo  Mo164  1  0.41051517  0.21084403  0.00000527  1
  Mo  Mo165  1  0.60700604  0.78818933  0.49687156  1
  Mo  Mo166  1  0.88649359  0.70647962  0.62996905  1
  Mo  Mo167  1  0.10395009  0.29513753  0.63133380  1
  Mo  Mo168  1  0.10044062  0.70394924  0.62561858  1
  Mo  Mo169  1  -0.00172218  0.60317744  0.00749012  1
  Mo  Mo170  1  0.60569207  0.18803842  0.50222988  1
  Mo  Mo171  1  -0.01221270  0.60190914  0.74284996  1
  Mo  Mo172  1  0.69721759  0.90712165  0.11052553  1
  Mo  Mo173  1  0.20002673  0.00236791  -0.00167442  1
  Mo  Mo174  1  0.50083892  0.28958158  0.39002734  1
  Mo  Mo175  1  0.40391284  0.40787202  -0.00391057  1
  Mo  Mo176  1  0.09124773  0.90194297  0.62415826  1
  Mo  Mo177  1  -0.00539282  0.20341266  0.24241545  1
  Mo  Mo178  1  0.79795477  0.59370908  0.01430724  1
  Mo  Mo179  1  0.59599598  0.40477859  0.75084370  1
  Mo  Mo180  1  0.38755259  0.60548258  0.25868287  1
  Mo  Mo181  1  0.80606944  0.20593450  -0.00292961  1
  Mo  Mo182  1  0.39391621  0.39778249  0.27254785  1
  Mo  Mo183  1  0.90179832  0.90480193  0.36469136  1
  Mo  Mo184  1  0.50089696  0.29056023  0.13491780  1
  Mo  Mo185  1  0.89914818  0.49461433  0.12566943  1
  Mo  Mo186  1  0.39857241  0.59755037  0.49657788  1
  Mo  Mo187  1  0.69567173  0.90015617  0.63637961  1
  Mo  Mo188  1  0.60122527  0.59826352  0.48979273  1
  Mo  Mo189  1  0.48883672  0.90253539  0.13699943  1
  Mo  Mo190  1  0.09415758  0.31220088  0.37679684  1
  Mo  Mo191  1  0.80840663  0.00799677  0.50474102  1
  Mo  Mo192  1  0.70031594  0.09493382  0.90192012  1
  Mo  Mo193  1  0.90384887  0.69633773  0.10340591  1
  Mo  Mo194  1  0.91037012  0.90001459  0.89242204  1
  Mo  Mo195  1  0.50031208  0.89142665  0.87892036  1
  Mo  Mo196  1  0.10378442  0.49513721  0.62955718  1
  Mo  Mo197  1  0.30845865  0.89429670  0.38745283  1
  Mo  Mo198  1  0.40307844  0.20352258  0.48908758  1
  Mo  Mo199  1  0.09090244  0.09598269  0.61925458  1
