# generated using pymatgen
data_HfZrTaTiMo
_symmetry_space_group_name_H-M   'P 1'
_cell_length_a   15.21229032
_cell_length_b   15.21158962
_cell_length_c   16.83245553
_cell_angle_alpha   89.93697041
_cell_angle_beta   90.07827769
_cell_angle_gamma   90.08057626
_symmetry_Int_Tables_number   1
_chemical_formula_structural   HfZrTaTiMo
_chemical_formula_sum   'Hf40 Zr40 Ta40 Ti40 Mo40'
_cell_volume   3895.07284898
_cell_formula_units_Z   40
loop_
 _symmetry_equiv_pos_site_id
 _symmetry_equiv_pos_as_xyz
  1  'x, y, z'
loop_
 _atom_site_type_symbol
 _atom_site_label
 _atom_site_symmetry_multiplicity
 _atom_site_fract_x
 _atom_site_fract_y
 _atom_site_fract_z
 _atom_site_occupancy
  Hf  Hf0  1  0.30675218  0.91418752  0.87329022  1
  Hf  Hf1  1  0.69246457  0.89632129  0.62556959  1
  Hf  Hf2  1  0.49267567  0.50516961  0.62366587  1
  Hf  Hf3  1  0.29018341  0.50424629  0.63044026  1
  Hf  Hf4  1  0.59458022  0.40169941  -0.01143017  1
  Hf  Hf5  1  0.21913700  0.20168538  0.00911393  1
  Hf  Hf6  1  0.39102450  0.60648867  -0.01699646  1
  Hf  Hf7  1  0.89851751  0.30474136  0.12789129  1
  Hf  Hf8  1  0.18935786  0.40876202  -0.00971211  1
  Hf  Hf9  1  0.79481127  0.79818068  0.00732584  1
  Hf  Hf10  1  0.60824782  0.79779260  0.48160370  1
  Hf  Hf11  1  0.39345323  0.39641913  0.76289473  1
  Hf  Hf12  1  0.22174864  0.79463400  0.49418642  1
  Hf  Hf13  1  0.59231207  0.21449496  0.25659406  1
  Hf  Hf14  1  0.91112665  0.11871096  0.88166737  1
  Hf  Hf15  1  0.10510981  0.29734426  0.37248251  1
  Hf  Hf16  1  0.50183432  0.91893449  0.37699047  1
  Hf  Hf17  1  0.79033469  0.18657618  0.24329750  1
  Hf  Hf18  1  0.59571939  0.21806922  0.50430029  1
  Hf  Hf19  1  0.08673695  0.28342781  0.87977572  1
  Hf  Hf20  1  0.38635245  0.39824884  -0.01820636  1
  Hf  Hf21  1  0.89843453  0.09802162  0.37636162  1
  Hf  Hf22  1  0.20518079  0.00102475  0.24714451  1
  Hf  Hf23  1  -0.01775961  0.37726115  0.74926316  1
  Hf  Hf24  1  0.10125704  0.31100812  0.12571718  1
  Hf  Hf25  1  0.40471138  0.60957806  0.76306773  1
  Hf  Hf26  1  0.71164964  0.90792780  0.13715314  1
  Hf  Hf27  1  0.90207315  0.30356480  0.36820893  1
  Hf  Hf28  1  0.19967797  0.39195054  0.50312180  1
  Hf  Hf29  1  0.59184116  0.41366505  0.76158180  1
  Hf  Hf30  1  0.59294343  0.60680388  0.48844271  1
  Hf  Hf31  1  0.41747500  0.80853146  0.75458790  1
  Hf  Hf32  1  0.09800912  0.89328996  0.12496109  1
  Hf  Hf33  1  0.60705801  0.79327729  0.26173305  1
  Hf  Hf34  1  0.59996588  0.41063383  0.48834037  1
  Hf  Hf35  1  0.49079475  0.50600734  0.12839975  1
  Hf  Hf36  1  0.80553213  0.00533086  0.51085768  1
  Hf  Hf37  1  0.79747076  0.78391491  0.73441610  1
  Hf  Hf38  1  0.10480894  0.68675654  0.39046458  1
  Hf  Hf39  1  0.79464134  0.00131728  -0.00585703  1
  Zr  Zr40  1  0.89870380  0.48705107  0.88318045  1
  Zr  Zr41  1  0.69754254  0.10596347  0.62051662  1
  Zr  Zr42  1  0.30183192  0.89478403  0.12144401  1
  Zr  Zr43  1  0.02282178  0.59718532  -0.00995893  1
  Zr  Zr44  1  0.09803633  0.69569501  0.12979304  1
  Zr  Zr45  1  0.39715108  0.59206217  0.25724714  1
  Zr  Zr46  1  0.72072279  0.91479897  0.36876168  1
  Zr  Zr47  1  0.82227174  0.80026786  0.24675535  1
  Zr  Zr48  1  0.21166685  0.20771866  0.24524382  1
  Zr  Zr49  1  0.10613230  0.88926096  0.86168149  1
  Zr  Zr50  1  0.39198224  0.01984521  0.01236637  1
  Zr  Zr51  1  0.59196797  -0.01016281  0.00392594  1
  Zr  Zr52  1  0.49764901  0.89378889  0.60944555  1
  Zr  Zr53  1  -0.01337402  -0.00947283  0.24385413  1
  Zr  Zr54  1  0.69522453  0.49028283  0.13499083  1
  Zr  Zr55  1  0.59852538  0.21731735  0.73489103  1
  Zr  Zr56  1  0.39694620  0.19342476  0.74155360  1
  Zr  Zr57  1  0.39678019  0.80639180  0.26091472  1
  Zr  Zr58  1  0.69208499  0.10681042  0.87145194  1
  Zr  Zr59  1  0.91023643  0.69888066  0.87648417  1
  Zr  Zr60  1  0.20632649  0.78099311  -0.01170795  1
  Zr  Zr61  1  0.00348722  -0.00164591  -0.00290745  1
  Zr  Zr62  1  0.80296005  0.00621148  0.74959047  1
  Zr  Zr63  1  0.12311507  0.88936043  0.63032848  1
  Zr  Zr64  1  0.30134717  0.68401091  0.12514159  1
  Zr  Zr65  1  0.89579590  0.89472756  0.86423928  1
  Zr  Zr66  1  0.88592249  0.47990578  0.61947725  1
  Zr  Zr67  1  0.10668059  0.90214441  0.38136567  1
  Zr  Zr68  1  -0.00449648  0.59604306  0.73899725  1
  Zr  Zr69  1  0.90552274  0.50259333  0.11913073  1
  Zr  Zr70  1  0.10673634  0.29283006  0.63047035  1
  Zr  Zr71  1  0.90394192  0.68466677  0.38415461  1
  Zr  Zr72  1  0.80519348  0.78862779  0.50901027  1
  Zr  Zr73  1  0.60724010  0.02145629  0.24626823  1
  Zr  Zr74  1  0.28576568  0.49633542  0.38183104  1
  Zr  Zr75  1  0.58167709  -0.00152124  0.75185689  1
  Zr  Zr76  1  0.01253955  0.00685058  0.51403431  1
  Zr  Zr77  1  0.59584944  0.60835012  -0.00010218  1
  Zr  Zr78  1  0.79384885  0.59207971  0.74311332  1
  Zr  Zr79  1  0.48385174  0.30697314  0.12280112  1
  Ta  Ta80  1  0.42055772  0.80911020  -0.00602696  1
  Ta  Ta81  1  0.38597808  0.60828260  0.49661659  1
  Ta  Ta82  1  -0.00012537  0.19544324  0.24158215  1
  Ta  Ta83  1  0.00721131  0.78957994  0.73365268  1
  Ta  Ta84  1  0.68095647  0.88285222  0.87001321  1
  Ta  Ta85  1  0.09935407  0.48917815  0.85334792  1
  Ta  Ta86  1  0.40555564  0.79544012  0.48623804  1
  Ta  Ta87  1  0.40042263  0.20279780  0.26224093  1
  Ta  Ta88  1  0.18891599  0.58959054  0.25703805  1
  Ta  Ta89  1  0.40040926  0.01613304  0.24511473  1
  Ta  Ta90  1  0.00823928  -0.00117508  0.74142791  1
  Ta  Ta91  1  0.91394310  0.89533626  0.38690078  1
  Ta  Ta92  1  0.19908122  0.18579929  0.49932889  1
  Ta  Ta93  1  0.10432139  0.50148811  0.12869084  1
  Ta  Ta94  1  0.28218590  0.51353021  0.86284382  1
  Ta  Ta95  1  0.89453971  0.09530999  0.11899567  1
  Ta  Ta96  1  0.08038794  0.49640883  0.38508265  1
  Ta  Ta97  1  0.79146384  0.59062578  0.50298593  1
  Ta  Ta98  1  0.09933071  0.10427044  0.12180325  1
  Ta  Ta99  1  0.38952464  0.20971211  0.49824780  1
  Ta  Ta100  1  0.49631710  0.10989055  0.38938204  1
  Ta  Ta101  1  0.80886788  0.21606907  0.50628773  1
  Ta  Ta102  1  0.70364708  0.30321176  0.37515894  1
  Ta  Ta103  1  0.81164858  0.21215004  0.74130656  1
  Ta  Ta104  1  0.38681987  -0.00049483  0.49894689  1
  Ta  Ta105  1  0.79644143  0.20451901  0.00851102  1
  Ta  Ta106  1  0.20978055  0.01574043  0.73854843  1
  Ta  Ta107  1  0.79400652  0.39579890  -0.00414432  1
  Ta  Ta108  1  -0.01167372  0.39004095  0.50166782  1
  Ta  Ta109  1  0.59783388  0.62024871  0.74944484  1
  Ta  Ta110  1  0.78546939  0.39227986  0.75854942  1
  Ta  Ta111  1  0.49493058  0.28559810  0.88070108  1
  Ta  Ta112  1  0.00307398  0.18220898  0.73937218  1
  Ta  Ta113  1  0.11977429  0.68547344  0.62431468  1
  Ta  Ta114  1  0.90719484  0.89714396  0.63035507  1
  Ta  Ta115  1  0.49139105  0.10187459  0.60424796  1
  Ta  Ta116  1  0.79682615  0.59821715  0.00457734  1
  Ta  Ta117  1  0.69897225  0.69351035  0.13315120  1
  Ta  Ta118  1  0.70641728  0.70061440  0.87771925  1
  Ta  Ta119  1  0.20442145  0.79165447  0.26487635  1
  Ti  Ti120  1  0.19995891  0.00225439  0.00517067  1
  Ti  Ti121  1  0.70655617  0.32102875  0.62093606  1
  Ti  Ti122  1  0.69189584  0.29865239  0.12547620  1
  Ti  Ti123  1  0.29115515  0.48072568  0.13056947  1
  Ti  Ti124  1  0.51893953  0.72149888  0.88043600  1
  Ti  Ti125  1  0.29786356  0.09536577  0.37749049  1
  Ti  Ti126  1  0.50349212  0.89878491  0.13482140  1
  Ti  Ti127  1  0.30035827  0.11830728  0.87148752  1
  Ti  Ti128  1  0.59784103  0.19823542  0.00218642  1
  Ti  Ti129  1  -0.00555721  0.59668448  0.25431051  1
  Ti  Ti130  1  0.00920957  0.79234178  0.25605304  1
  Ti  Ti131  1  0.12697662  0.68304808  0.85345429  1
  Ti  Ti132  1  0.00602007  0.79224882  0.51745141  1
  Ti  Ti133  1  0.49225831  0.69248788  0.36984565  1
  Ti  Ti134  1  0.00395126  0.40922502  0.25590311  1
  Ti  Ti135  1  0.49111444  0.09454718  0.87782990  1
  Ti  Ti136  1  -0.00039738  0.80079887  -0.00099323  1
  Ti  Ti137  1  0.69677903  0.10641048  0.39001395  1
  Ti  Ti138  1  0.31338177  0.71131664  0.63076970  1
  Ti  Ti139  1  0.09637424  0.10092853  0.37022409  1
  Ti  Ti140  1  0.90349289  0.70158979  0.12155124  1
  Ti  Ti141  1  0.00116949  0.19590838  0.51152392  1
  Ti  Ti142  1  -0.00142972  0.59109313  0.51732135  1
  Ti  Ti143  1  0.49962965  0.11309576  0.12375346  1
  Ti  Ti144  1  0.60258481  0.59741164  0.26253443  1
  Ti  Ti145  1  0.30570323  0.29829989  0.62753575  1
  Ti  Ti146  1  0.71191989  0.50512091  0.37157955  1
  Ti  Ti147  1  0.39373660  0.00397052  0.73427331  1
  Ti  Ti148  1  0.11239298  0.09318248  0.87303608  1
  Ti  Ti149  1  0.80139410  0.59915801  0.25331044  1
  Ti  Ti150  1  0.68800205  0.50611267  0.62420422  1
  Ti  Ti151  1  0.69491476  0.50909360  0.87727011  1
  Ti  Ti152  1  0.10012919  0.48991490  0.63431972  1
  Ti  Ti153  1  0.40556807  0.39801031  0.49221399  1
  Ti  Ti154  1  0.70371415  0.29660711  0.87765936  1
  Ti  Ti155  1  0.50337357  0.70830378  0.12618056  1
  Ti  Ti156  1  0.20878073  0.00113651  0.50951415  1
  Ti  Ti157  1  0.58339327  0.40884059  0.27240471  1
  Ti  Ti158  1  0.79707448  0.40186700  0.25432780  1
  Ti  Ti159  1  0.38364386  0.38792473  0.26567898  1
  Mo  Mo160  1  0.69622380  0.11128612  0.11445530  1
  Mo  Mo161  1  0.79189801  0.40108254  0.49040467  1
  Mo  Mo162  1  0.50170430  0.69716384  0.61696286  1
  Mo  Mo163  1  0.90637208  0.89296385  0.11599629  1
  Mo  Mo164  1  0.20387673  0.60041191  0.73906191  1
  Mo  Mo165  1  0.80752535  0.00807855  0.25025092  1
  Mo  Mo166  1  0.49919428  0.90879463  0.87625073  1
  Mo  Mo167  1  0.20155213  0.19896839  0.75589818  1
  Mo  Mo168  1  0.49458208  0.30535282  0.37536585  1
  Mo  Mo169  1  0.30230441  0.71415217  0.86825110  1
  Mo  Mo170  1  0.60279433  0.79432783  0.74720202  1
  Mo  Mo171  1  0.30851545  0.11216954  0.13205488  1
  Mo  Mo172  1  0.30469355  0.90966914  0.37215710  1
  Mo  Mo173  1  0.21518108  0.79693484  0.75062653  1
  Mo  Mo174  1  0.49379186  0.50082401  0.37367266  1
  Mo  Mo175  1  0.70348628  0.69235196  0.36256150  1
  Mo  Mo176  1  0.00164031  0.19862769  0.01671032  1
  Mo  Mo177  1  0.30913190  0.90121734  0.62614865  1
  Mo  Mo178  1  0.88944464  0.29104015  0.88118159  1
  Mo  Mo179  1  0.19465099  0.40747898  0.25441574  1
  Mo  Mo180  1  0.40660287  0.20539398  -0.00667317  1
  Mo  Mo181  1  -0.00623099  0.39215914  -0.00391191  1
  Mo  Mo182  1  0.29894992  0.29051078  0.38399304  1
  Mo  Mo183  1  0.90431276  0.10058405  0.62832133  1
  Mo  Mo184  1  0.28808923  0.29946028  0.86561710  1
  Mo  Mo185  1  0.19459184  0.59380783  0.51144710  1
  Mo  Mo186  1  0.10656185  0.09861243  0.62664808  1
  Mo  Mo187  1  0.50010276  0.50422938  0.87255535  1
  Mo  Mo188  1  0.68808063  0.69084170  0.61911008  1
  Mo  Mo189  1  0.20503165  0.58737080  -0.00623408  1
  Mo  Mo190  1  0.29709059  0.10375568  0.61710021  1
  Mo  Mo191  1  0.59598905  0.01076753  0.49583708  1
  Mo  Mo192  1  0.90003444  0.49487376  0.37861379  1
  Mo  Mo193  1  0.89481892  0.29292519  0.62071848  1
  Mo  Mo194  1  0.49270569  0.31059441  0.61864860  1
  Mo  Mo195  1  0.30474066  0.31013497  0.12694954  1
  Mo  Mo196  1  0.29741241  0.69840546  0.37579439  1
  Mo  Mo197  1  0.19688289  0.39294863  0.75441959  1
  Mo  Mo198  1  0.60169247  0.79927555  0.01244805  1
  Mo  Mo199  1  0.90574841  0.69456901  0.61189237  1
