# generated using pymatgen
data_HfZrTaTiMo
_symmetry_space_group_name_H-M   'P 1'
_cell_length_a   15.21744515
_cell_length_b   15.20974386
_cell_length_c   16.84089673
_cell_angle_alpha   90.04017530
_cell_angle_beta   89.97169128
_cell_angle_gamma   89.85386919
_symmetry_Int_Tables_number   1
_chemical_formula_structural   HfZrTaTiMo
_chemical_formula_sum   'Hf40 Zr40 Ta40 Ti40 Mo40'
_cell_volume   3897.86941529
_cell_formula_units_Z   40
loop_
 _symmetry_equiv_pos_site_id
 _symmetry_equiv_pos_as_xyz
  1  'x, y, z'
loop_
 _atom_site_type_symbol
 _atom_site_label
 _atom_site_symmetry_multiplicity
 _atom_site_fract_x
 _atom_site_fract_y
 _atom_site_fract_z
 _atom_site_occupancy
  Hf  Hf0  1  0.50303707  0.31043685  0.89005266  1
  Hf  Hf1  1  0.71364860  0.89647658  0.60253934  1
  Hf  Hf2  1  0.51638378  0.10400046  0.89524737  1
  Hf  Hf3  1  0.89211638  0.70023747  0.88160155  1
  Hf  Hf4  1  0.08241655  0.30166385  0.38223809  1
  Hf  Hf5  1  0.52946969  0.09740420  0.11052827  1
  Hf  Hf6  1  0.00165061  0.19539428  0.73509916  1
  Hf  Hf7  1  0.20608132  0.60470545  0.24580657  1
  Hf  Hf8  1  0.20167235  0.61161583  0.77106772  1
  Hf  Hf9  1  0.49915575  0.30477973  0.10916464  1
  Hf  Hf10  1  0.41824324  0.80167772  0.50130084  1
  Hf  Hf11  1  0.21414691  0.81121646  0.49021295  1
  Hf  Hf12  1  0.10055794  0.90240797  0.61514887  1
  Hf  Hf13  1  0.07248029  0.50533831  0.86594126  1
  Hf  Hf14  1  0.58825607  0.21300031  0.50929138  1
  Hf  Hf15  1  0.40961536  0.20017848  0.24009736  1
  Hf  Hf16  1  0.90319968  0.69259630  0.38318273  1
  Hf  Hf17  1  0.08772836  0.50759003  0.38465561  1
  Hf  Hf18  1  0.59216686  0.39362235  0.24370692  1
  Hf  Hf19  1  0.18834306  0.39927933  0.25201673  1
  Hf  Hf20  1  0.81777769  -0.02153667  0.74380834  1
  Hf  Hf21  1  0.79738831  0.38454797  0.23919310  1
  Hf  Hf22  1  0.38641689  0.40838176  0.24254915  1
  Hf  Hf23  1  0.40107383  0.20323403  0.75443149  1
  Hf  Hf24  1  0.80868105  0.15874559  -0.01222629  1
  Hf  Hf25  1  0.69932801  0.28837117  0.87983191  1
  Hf  Hf26  1  0.29407251  0.51614884  0.38433746  1
  Hf  Hf27  1  0.38675766  0.18318150  0.49675297  1
  Hf  Hf28  1  0.61593562  0.00397194  0.75196561  1
  Hf  Hf29  1  -0.01485479  0.19558314  0.51220274  1
  Hf  Hf30  1  0.60574114  0.79834672  0.75793994  1
  Hf  Hf31  1  0.80184458  0.17573987  0.75480883  1
  Hf  Hf32  1  0.40960916  0.38643811  0.49968996  1
  Hf  Hf33  1  0.09277947  0.70095773  0.60984459  1
  Hf  Hf34  1  0.29507879  0.29084411  0.37378752  1
  Hf  Hf35  1  0.19632831  0.19841926  0.23327153  1
  Hf  Hf36  1  0.10221176  0.30470725  0.61860032  1
  Hf  Hf37  1  0.30143813  0.92650887  0.63107315  1
  Hf  Hf38  1  0.21479295  0.60183365  -0.01488855  1
  Hf  Hf39  1  0.50167035  0.69011261  0.88475161  1
  Zr  Zr40  1  0.70205343  0.90539921  0.11296656  1
  Zr  Zr41  1  0.89629198  0.48519916  0.36573029  1
  Zr  Zr42  1  0.49999006  0.49650010  0.36598247  1
  Zr  Zr43  1  0.39251363  0.60382872  0.51252706  1
  Zr  Zr44  1  0.72165180  0.88994836  0.89026423  1
  Zr  Zr45  1  0.58975072  0.61303591  0.49792549  1
  Zr  Zr46  1  0.79309241  0.80243884  0.26091298  1
  Zr  Zr47  1  0.59626831  0.19798398  0.73939342  1
  Zr  Zr48  1  0.89883863  0.92125143  0.14720583  1
  Zr  Zr49  1  0.69630176  0.70450062  0.61764317  1
  Zr  Zr50  1  0.19163901  0.40208779  -0.01656056  1
  Zr  Zr51  1  0.18971285  0.00466660  0.01357083  1
  Zr  Zr52  1  0.89742470  0.09825029  0.37133816  1
  Zr  Zr53  1  -0.01096078  0.40508838  0.00147313  1
  Zr  Zr54  1  0.79499992  0.58941951  0.01340650  1
  Zr  Zr55  1  0.28968700  0.49317478  0.62410769  1
  Zr  Zr56  1  0.10301177  0.50125884  0.12082376  1
  Zr  Zr57  1  0.20397694  0.19368944  0.75899154  1
  Zr  Zr58  1  0.40652573  0.00892946  0.76524930  1
  Zr  Zr59  1  0.59259681  0.00537827  0.49603446  1
  Zr  Zr60  1  0.09672885  0.90205622  0.13822597  1
  Zr  Zr61  1  0.40759499  0.59586261  0.74928344  1
  Zr  Zr62  1  0.60629590  0.40789265  0.50316705  1
  Zr  Zr63  1  0.19805799  0.80107917  0.00330122  1
  Zr  Zr64  1  0.18262784  0.81437485  0.76042172  1
  Zr  Zr65  1  0.48054434  0.70372210  0.35637331  1
  Zr  Zr66  1  0.19196063  0.20126018  0.01081156  1
  Zr  Zr67  1  0.61260552  0.00012537  0.25851836  1
  Zr  Zr68  1  0.08832327  0.50643815  0.63294935  1
  Zr  Zr69  1  0.29507263  0.71283046  0.63015628  1
  Zr  Zr70  1  0.91733166  0.29058961  0.87455403  1
  Zr  Zr71  1  0.40038348  0.80072254  0.76391082  1
  Zr  Zr72  1  0.10608080  0.70185640  0.38419851  1
  Zr  Zr73  1  0.79829247  0.58186711  0.49634796  1
  Zr  Zr74  1  0.29481997  0.90702918  0.88006672  1
  Zr  Zr75  1  0.70682321  0.49694501  0.64141488  1
  Zr  Zr76  1  0.39569088  0.43230582  -0.00261928  1
  Zr  Zr77  1  0.50935812  0.89209747  0.62602822  1
  Zr  Zr78  1  0.70018264  0.27585240  0.11043638  1
  Zr  Zr79  1  0.19533956  0.39427901  0.76466024  1
  Ta  Ta80  1  0.20516621  0.00162825  0.24309202  1
  Ta  Ta81  1  0.32053986  0.69166408  0.12551170  1
  Ta  Ta82  1  0.09959191  0.70412583  0.12345424  1
  Ta  Ta83  1  0.30336523  0.29919781  0.88471049  1
  Ta  Ta84  1  0.50050635  0.89335313  0.11559344  1
  Ta  Ta85  1  0.70106989  0.29784066  0.63304085  1
  Ta  Ta86  1  0.69275148  0.49600398  0.86902324  1
  Ta  Ta87  1  0.48760487  0.52709016  0.13245497  1
  Ta  Ta88  1  0.39660371  -0.00567768  0.48805250  1
  Ta  Ta89  1  0.89970508  0.28277428  0.11594490  1
  Ta  Ta90  1  0.19748272  0.39740686  0.49806690  1
  Ta  Ta91  1  0.11804108  0.09818079  0.61391331  1
  Ta  Ta92  1  0.01214866  -0.00192717  0.49139053  1
  Ta  Ta93  1  0.40134313  0.39702200  0.75449200  1
  Ta  Ta94  1  0.61269084  0.19704869  0.25523448  1
  Ta  Ta95  1  0.59489941  0.80190355  0.24455426  1
  Ta  Ta96  1  0.70198548  0.68428490  0.87929014  1
  Ta  Ta97  1  -0.01192927  0.20553318  0.24927476  1
  Ta  Ta98  1  -0.00020155  0.61433510  0.00702995  1
  Ta  Ta99  1  0.40124521  -0.00495114  0.00845876  1
  Ta  Ta100  1  0.79719909  0.59956980  0.24287745  1
  Ta  Ta101  1  -0.00308556  0.60309265  0.24049442  1
  Ta  Ta102  1  0.10599476  0.10752756  0.37022877  1
  Ta  Ta103  1  0.31226311  0.89498750  0.35851194  1
  Ta  Ta104  1  0.00682002  0.00059002  0.74043788  1
  Ta  Ta105  1  0.70673120  0.11207931  0.39059300  1
  Ta  Ta106  1  0.79540516  0.39501028  -0.00020200  1
  Ta  Ta107  1  0.08150841  0.11102752  0.88216343  1
  Ta  Ta108  1  0.90214412  0.70908633  0.12900086  1
  Ta  Ta109  1  0.39909638  0.79411457  0.00165329  1
  Ta  Ta110  1  0.70055983  0.50272057  0.36096451  1
  Ta  Ta111  1  0.89895779  0.70265576  0.60763551  1
  Ta  Ta112  1  0.08294528  0.71874129  0.88232813  1
  Ta  Ta113  1  -0.01690855  0.40574662  0.50953452  1
  Ta  Ta114  1  0.10762502  0.90833358  0.36422643  1
  Ta  Ta115  1  0.30022037  0.28752303  0.61976197  1
  Ta  Ta116  1  -0.01724785  0.81964206  0.00581624  1
  Ta  Ta117  1  0.21234701  0.01557509  0.48493492  1
  Ta  Ta118  1  0.69588836  0.30177930  0.37611912  1
  Ta  Ta119  1  0.90777178  0.89738887  0.38049908  1
  Ti  Ti120  1  0.51186661  0.90272616  0.89608857  1
  Ti  Ti121  1  0.88379084  0.29238066  0.37847340  1
  Ti  Ti122  1  0.06728671  0.09961705  0.13231112  1
  Ti  Ti123  1  0.21515984  0.79924183  0.24549882  1
  Ti  Ti124  1  0.08794279  0.29949060  0.12337004  1
  Ti  Ti125  1  0.07998061  0.91741583  0.88235360  1
  Ti  Ti126  1  0.59107216  0.39762491  0.74993886  1
  Ti  Ti127  1  0.19328884  0.01085546  0.75897586  1
  Ti  Ti128  1  0.60184282  0.60680387  0.24510899  1
  Ti  Ti129  1  -0.00615332  0.39821440  0.24127590  1
  Ti  Ti130  1  0.79743267  0.38634848  0.50387402  1
  Ti  Ti131  1  0.59245865  0.59387503  0.00621595  1
  Ti  Ti132  1  0.88952919  0.30208849  0.63166831  1
  Ti  Ti133  1  0.69233436  0.70464887  0.37596314  1
  Ti  Ti134  1  0.88212058  0.50335955  0.86663444  1
  Ti  Ti135  1  0.30980978  0.09292169  0.12473269  1
  Ti  Ti136  1  0.69776555  0.70007915  0.12590834  1
  Ti  Ti137  1  0.00747145  0.79613880  0.25547273  1
  Ti  Ti138  1  0.50499301  0.90119670  0.36838684  1
  Ti  Ti139  1  0.50299953  0.49770760  0.62896460  1
  Ti  Ti140  1  -0.01572136  0.61610939  0.74939452  1
  Ti  Ti141  1  0.89704866  0.49855906  0.12843296  1
  Ti  Ti142  1  0.60429195  0.78933174  0.00342087  1
  Ti  Ti143  1  0.49908132  0.10669790  0.37072544  1
  Ti  Ti144  1  0.72125091  0.09999927  0.60701319  1
  Ti  Ti145  1  0.80368944  0.78214599  0.74592071  1
  Ti  Ti146  1  0.60458457  0.59950634  0.75024038  1
  Ti  Ti147  1  0.30355753  0.09125681  0.35710390  1
  Ti  Ti148  1  0.69350283  0.49705231  0.13057493  1
  Ti  Ti149  1  0.29358999  0.31312788  0.11631709  1
  Ti  Ti150  1  -0.01244425  0.80897637  0.74429895  1
  Ti  Ti151  1  0.29890239  0.10221626  0.89143939  1
  Ti  Ti152  1  0.89848025  0.50176183  0.63964722  1
  Ti  Ti153  1  0.40803274  -0.00793526  0.23735575  1
  Ti  Ti154  1  0.90571253  0.89337065  0.59828234  1
  Ti  Ti155  1  0.80099822  0.39273629  0.75688267  1
  Ti  Ti156  1  0.48392744  0.09641563  0.62358407  1
  Ti  Ti157  1  0.39615989  0.19988346  0.00644566  1
  Ti  Ti158  1  0.60527375  0.41200793  0.00396995  1
  Ti  Ti159  1  0.71195213  0.90715049  0.39196600  1
  Mo  Mo160  1  0.19476453  0.19852005  0.49353227  1
  Mo  Mo161  1  0.70697743  0.08371833  0.87098306  1
  Mo  Mo162  1  0.00074642  0.19567228  0.00702713  1
  Mo  Mo163  1  0.39641679  0.60594581  0.24814349  1
  Mo  Mo164  1  0.80038120  0.60234582  0.75253539  1
  Mo  Mo165  1  0.29775019  0.10005385  0.62386972  1
  Mo  Mo166  1  0.40529524  0.61098026  -0.00324144  1
  Mo  Mo167  1  0.81409008  0.00740213  0.50116960  1
  Mo  Mo168  1  0.79377658  0.21026391  0.50817450  1
  Mo  Mo169  1  0.88980521  0.10188610  0.14004689  1
  Mo  Mo170  1  0.90832626  0.08372583  0.61648096  1
  Mo  Mo171  1  0.60923550  0.20014950  -0.00333767  1
  Mo  Mo172  1  0.82429381  -0.02388115  -0.00490396  1
  Mo  Mo173  1  0.29867961  0.50423452  0.12647613  1
  Mo  Mo174  1  0.30855315  0.89987292  0.13316021  1
  Mo  Mo175  1  0.61605200  0.00012145  -0.00433646  1
  Mo  Mo176  1  0.80183473  0.79813150  0.48334427  1
  Mo  Mo177  1  -0.01269867  0.01269178  0.00208326  1
  Mo  Mo178  1  0.51286249  0.70617989  0.12387974  1
  Mo  Mo179  1  -0.01542453  0.40259579  0.74568679  1
  Mo  Mo180  1  0.31335584  0.50024925  0.86514337  1
  Mo  Mo181  1  0.50811850  0.69514286  0.63277343  1
  Mo  Mo182  1  0.49215672  0.30740029  0.63088795  1
  Mo  Mo183  1  0.79337170  0.19702405  0.25267863  1
  Mo  Mo184  1  0.72123973  0.08707160  0.12835753  1
  Mo  Mo185  1  0.19808175  0.59612316  0.50195674  1
  Mo  Mo186  1  0.51641076  0.50043949  0.87198778  1
  Mo  Mo187  1  0.09754952  0.29718861  0.87229533  1
  Mo  Mo188  1  0.60370235  0.80318610  0.48133725  1
  Mo  Mo189  1  0.29782327  0.71031761  0.37051052  1
  Mo  Mo190  1  0.80439853  0.78515951  0.01091218  1
  Mo  Mo191  1  0.79213124  0.00483388  0.26729751  1
  Mo  Mo192  1  0.40136510  0.80896874  0.23651295  1
  Mo  Mo193  1  0.29704657  0.70513008  0.87790738  1
  Mo  Mo194  1  0.50333559  0.28596871  0.36684267  1
  Mo  Mo195  1  0.00148003  0.80557094  0.49228485  1
  Mo  Mo196  1  0.91083200  0.07311846  0.86830001  1
  Mo  Mo197  1  -0.00760509  0.59315018  0.50908931  1
  Mo  Mo198  1  0.91659546  0.88199669  0.86788708  1
  Mo  Mo199  1  0.00726013  0.00483942  0.26805012  1
