# generated using pymatgen
data_HfZrTaTiMo
_symmetry_space_group_name_H-M   'P 1'
_cell_length_a   15.21804735
_cell_length_b   15.20667943
_cell_length_c   16.85853748
_cell_angle_alpha   90.00959039
_cell_angle_beta   89.99936827
_cell_angle_gamma   90.01501870
_symmetry_Int_Tables_number   1
_chemical_formula_structural   HfZrTaTiMo
_chemical_formula_sum   'Hf40 Zr40 Ta40 Ti40 Mo40'
_cell_volume   3901.33457389
_cell_formula_units_Z   40
loop_
 _symmetry_equiv_pos_site_id
 _symmetry_equiv_pos_as_xyz
  1  'x, y, z'
loop_
 _atom_site_type_symbol
 _atom_site_label
 _atom_site_symmetry_multiplicity
 _atom_site_fract_x
 _atom_site_fract_y
 _atom_site_fract_z
 _atom_site_occupancy
  Hf  Hf0  1  0.59765144  0.20515374  0.73233435  1
  Hf  Hf1  1  0.30259275  0.50956985  0.38251035  1
  Hf  Hf2  1  0.39880183  0.19559994  0.24980554  1
  Hf  Hf3  1  0.70186968  0.91064345  0.14025724  1
  Hf  Hf4  1  0.08663589  0.89788724  0.11404305  1
  Hf  Hf5  1  0.28992757  0.88873340  0.64004383  1
  Hf  Hf6  1  0.71684947  0.11537200  0.87462535  1
  Hf  Hf7  1  0.50050569  0.49425127  0.38055205  1
  Hf  Hf8  1  0.60733659  -0.00285869  0.72877664  1
  Hf  Hf9  1  0.79867391  0.41235780  0.00138738  1
  Hf  Hf10  1  0.70180991  0.91472657  0.87058657  1
  Hf  Hf11  1  0.88929719  0.28991288  0.12368764  1
  Hf  Hf12  1  0.90974618  0.12663953  0.59822931  1
  Hf  Hf13  1  0.38456712  0.38020091  0.75040046  1
  Hf  Hf14  1  0.10180866  0.29167638  0.86545220  1
  Hf  Hf15  1  0.29049029  0.71559369  0.37296703  1
  Hf  Hf16  1  0.39594421  -0.01601282  0.23628767  1
  Hf  Hf17  1  0.80551598  0.00628109  0.72755609  1
  Hf  Hf18  1  0.21773470  0.21167481  0.74297435  1
  Hf  Hf19  1  0.90068758  0.89713608  0.61298262  1
  Hf  Hf20  1  0.49858572  0.30914702  0.12503538  1
  Hf  Hf21  1  0.10828792  0.70702692  0.63416786  1
  Hf  Hf22  1  0.48944908  0.90729086  0.37297281  1
  Hf  Hf23  1  0.38272770  0.79873439  0.50427557  1
  Hf  Hf24  1  0.49323318  0.69816242  0.37918971  1
  Hf  Hf25  1  0.50968145  0.08967239  0.86987766  1
  Hf  Hf26  1  -0.00245332  0.80880467  0.76380989  1
  Hf  Hf27  1  0.89379286  0.28731875  0.88566220  1
  Hf  Hf28  1  -0.00026293  0.60475906  0.50504574  1
  Hf  Hf29  1  0.39061098  0.19979677  0.01658491  1
  Hf  Hf30  1  0.81842045  0.20646601  0.73979660  1
  Hf  Hf31  1  0.09503171  0.91720269  0.88428935  1
  Hf  Hf32  1  0.79445761  0.81115870  -0.00329842  1
  Hf  Hf33  1  -0.00916888  0.59316550  -0.00631216  1
  Hf  Hf34  1  0.49972313  0.69875605  0.11873113  1
  Hf  Hf35  1  -0.00253761  0.39547769  0.49879835  1
  Hf  Hf36  1  0.18656691  0.21128353  0.01507545  1
  Hf  Hf37  1  0.00732418  -0.00495287  0.49350772  1
  Hf  Hf38  1  -0.01394961  0.17581620  0.01053809  1
  Hf  Hf39  1  0.30117531  0.69696088  0.10193776  1
  Zr  Zr40  1  0.09936239  0.50127296  0.36923545  1
  Zr  Zr41  1  0.81177413  0.62930325  0.26456653  1
  Zr  Zr42  1  0.61381441  -0.00149303  0.00286746  1
  Zr  Zr43  1  0.30095037  0.11206829  0.87574110  1
  Zr  Zr44  1  -0.00319790  0.39291598  0.24607559  1
  Zr  Zr45  1  0.19778946  0.00028314  0.24823278  1
  Zr  Zr46  1  0.79337346  0.21893300  0.26009072  1
  Zr  Zr47  1  0.31362804  0.49723641  0.11348212  1
  Zr  Zr48  1  0.30675581  0.08930928  0.37810358  1
  Zr  Zr49  1  0.29545351  0.89386955  0.10123595  1
  Zr  Zr50  1  0.49785686  0.88367065  0.62981127  1
  Zr  Zr51  1  0.78608115  0.40746270  0.76088833  1
  Zr  Zr52  1  0.59883846  0.37921872  0.49079559  1
  Zr  Zr53  1  0.30121133  0.50118869  0.62161342  1
  Zr  Zr54  1  0.69806685  0.91328654  0.36865949  1
  Zr  Zr55  1  0.43056744  0.19429541  0.49055528  1
  Zr  Zr56  1  0.89798981  0.70247648  0.63094747  1
  Zr  Zr57  1  0.19939349  0.59922328  0.24364405  1
  Zr  Zr58  1  0.40746330  -0.00158928  0.00544744  1
  Zr  Zr59  1  0.67980848  0.12110602  0.38287149  1
  Zr  Zr60  1  0.40118176  0.40112895  0.25816390  1
  Zr  Zr61  1  0.71037509  0.30582978  0.61839052  1
  Zr  Zr62  1  0.01115811  0.38883781  0.01137242  1
  Zr  Zr63  1  0.50056942  0.48644513  0.62244699  1
  Zr  Zr64  1  0.20979547  -0.01625389  0.49732218  1
  Zr  Zr65  1  0.69065269  0.71382253  0.62312746  1
  Zr  Zr66  1  0.79728312  0.60848849  0.49057034  1
  Zr  Zr67  1  -0.00352499  0.59835667  0.76056242  1
  Zr  Zr68  1  -0.00856193  0.79959499  -0.00987265  1
  Zr  Zr69  1  0.19596885  0.00300392  0.74810359  1
  Zr  Zr70  1  0.40320450  0.78527053  0.77124873  1
  Zr  Zr71  1  0.60561100  0.59709914  0.25600268  1
  Zr  Zr72  1  0.70263969  0.70505817  0.12197807  1
  Zr  Zr73  1  0.48430852  0.29174605  0.87851759  1
  Zr  Zr74  1  0.10257004  0.48415035  0.86605627  1
  Zr  Zr75  1  0.09558056  0.28854721  0.62515759  1
  Zr  Zr76  1  0.10089330  0.49495631  0.63728169  1
  Zr  Zr77  1  0.58942756  0.41092832  -0.00788577  1
  Zr  Zr78  1  0.52027249  0.09656674  0.13453254  1
  Zr  Zr79  1  0.20072679  0.80253950  0.24038770  1
  Ta  Ta80  1  0.79973216  0.80397819  0.48856905  1
  Ta  Ta81  1  0.19265419  0.58810505  -0.00979872  1
  Ta  Ta82  1  0.10589733  0.49375283  0.12567846  1
  Ta  Ta83  1  0.59335671  0.00613455  0.51515089  1
  Ta  Ta84  1  0.39738672  0.39089961  0.49286900  1
  Ta  Ta85  1  0.31180860  0.10159847  0.61997180  1
  Ta  Ta86  1  0.30209477  0.68339349  0.88925674  1
  Ta  Ta87  1  0.82050539  0.01854427  0.00937157  1
  Ta  Ta88  1  0.09789520  0.10236653  0.37425213  1
  Ta  Ta89  1  0.60071516  0.80307945  0.49293467  1
  Ta  Ta90  1  0.80511409  0.40857982  0.49415966  1
  Ta  Ta91  1  0.59949016  0.79965949  0.25886226  1
  Ta  Ta92  1  0.88903016  0.49306091  0.63056492  1
  Ta  Ta93  1  0.90458872  0.89550888  0.37891727  1
  Ta  Ta94  1  0.59429200  0.79614245  -0.01970311  1
  Ta  Ta95  1  0.89731657  0.10428392  0.38847473  1
  Ta  Ta96  1  -0.00926327  0.78885941  0.24999666  1
  Ta  Ta97  1  0.19453630  0.20356732  0.24535407  1
  Ta  Ta98  1  0.29949404  0.90433350  0.88205452  1
  Ta  Ta99  1  0.49079119  0.68431130  0.62102563  1
  Ta  Ta100  1  0.59489178  0.60120642  0.75144218  1
  Ta  Ta101  1  0.40921421  0.79631793  -0.02213928  1
  Ta  Ta102  1  0.09364953  0.69119938  0.11693434  1
  Ta  Ta103  1  -0.00313397  -0.00797074  0.26342098  1
  Ta  Ta104  1  0.19737474  0.79046290  0.77647667  1
  Ta  Ta105  1  0.19997327  0.39573870  0.49447012  1
  Ta  Ta106  1  0.61068509  0.38807087  0.25871805  1
  Ta  Ta107  1  0.29742320  0.29836036  0.37865926  1
  Ta  Ta108  1  0.08621683  0.09763897  0.13643006  1
  Ta  Ta109  1  0.51266202  0.50321496  0.12833450  1
  Ta  Ta110  1  0.69697545  0.50844438  0.62162537  1
  Ta  Ta111  1  0.70551651  0.50112003  0.37558873  1
  Ta  Ta112  1  0.80779264  0.01322564  0.25874768  1
  Ta  Ta113  1  0.78725018  0.60593989  0.75060308  1
  Ta  Ta114  1  0.60039266  0.79260044  0.76679751  1
  Ta  Ta115  1  0.21249177  0.59773669  0.76693403  1
  Ta  Ta116  1  0.20370581  0.61035961  0.50194385  1
  Ta  Ta117  1  0.88049100  0.69583171  0.87408047  1
  Ta  Ta118  1  0.30097319  0.69409608  0.63457589  1
  Ta  Ta119  1  0.69137740  0.52911066  0.88402842  1
  Ti  Ti120  1  0.10948008  0.09799589  0.61670459  1
  Ti  Ti121  1  0.70468867  0.50653532  0.12495785  1
  Ti  Ti122  1  0.19178442  0.78970523  -0.01894748  1
  Ti  Ti123  1  0.30517411  0.47625977  0.88598792  1
  Ti  Ti124  1  0.89924544  0.70665041  0.12152749  1
  Ti  Ti125  1  0.40105140  0.60968497  0.24554752  1
  Ti  Ti126  1  0.79688638  0.41514554  0.25048218  1
  Ti  Ti127  1  0.19412755  0.01772281  0.00741030  1
  Ti  Ti128  1  0.59806538  0.60121157  0.49580087  1
  Ti  Ti129  1  0.89886825  0.30264089  0.37858989  1
  Ti  Ti130  1  0.89697285  0.90617242  0.13461831  1
  Ti  Ti131  1  0.42517810  0.58395891  -0.01487946  1
  Ti  Ti132  1  0.40188977  0.00206833  0.74988508  1
  Ti  Ti133  1  -0.00014572  0.01368661  0.73668922  1
  Ti  Ti134  1  0.40536394  0.58696376  0.76496255  1
  Ti  Ti135  1  0.89506865  0.91307597  0.87266549  1
  Ti  Ti136  1  0.10740632  0.88420931  0.37784573  1
  Ti  Ti137  1  0.20023447  0.39452530  0.25408868  1
  Ti  Ti138  1  0.40612200  -0.00403735  0.50631038  1
  Ti  Ti139  1  0.30712102  0.29653510  0.60920741  1
  Ti  Ti140  1  0.28778223  0.30785978  0.12873149  1
  Ti  Ti141  1  -0.01546388  0.37723480  0.74574326  1
  Ti  Ti142  1  0.79233105  0.80780738  0.75228960  1
  Ti  Ti143  1  0.20300301  0.19801749  0.49669537  1
  Ti  Ti144  1  0.91076214  0.09344899  0.86830985  1
  Ti  Ti145  1  -0.00581669  0.18978796  0.25495773  1
  Ti  Ti146  1  0.09599614  0.10398790  0.87284518  1
  Ti  Ti147  1  0.78938640  0.00567882  0.50467975  1
  Ti  Ti148  1  0.60815909  0.20071623  0.00177074  1
  Ti  Ti149  1  0.69440222  0.30605411  0.87945237  1
  Ti  Ti150  1  0.69253420  0.30680925  0.12097610  1
  Ti  Ti151  1  0.10026163  0.29260046  0.37438228  1
  Ti  Ti152  1  0.90675953  0.51044161  0.36699679  1
  Ti  Ti153  1  0.50742680  0.88633291  0.12780397  1
  Ti  Ti154  1  0.89096364  0.49747832  0.87331968  1
  Ti  Ti155  1  0.09742532  0.89455679  0.62477462  1
  Ti  Ti156  1  0.71457795  0.11427977  0.13320655  1
  Ti  Ti157  1  0.90121201  0.51553650  0.13240667  1
  Ti  Ti158  1  0.59218295  0.40797504  0.75941026  1
  Ti  Ti159  1  0.08681781  0.69808126  0.37404036  1
  Mo  Mo160  1  0.81015688  0.81757493  0.25749567  1
  Mo  Mo161  1  0.49885019  0.49431065  0.86565088  1
  Mo  Mo162  1  0.49867299  0.89940909  0.86488366  1
  Mo  Mo163  1  0.70665602  0.10183904  0.60856181  1
  Mo  Mo164  1  0.51183597  0.68016344  0.88010299  1
  Mo  Mo165  1  0.28716886  0.10507575  0.12985441  1
  Mo  Mo166  1  0.00567513  0.79830957  0.49557558  1
  Mo  Mo167  1  0.09777975  0.69657318  0.87717773  1
  Mo  Mo168  1  0.90890778  0.70667476  0.37911993  1
  Mo  Mo169  1  0.20065352  0.40357318  0.74870869  1
  Mo  Mo170  1  0.00306923  0.60354929  0.23717289  1
  Mo  Mo171  1  0.49545910  0.09564001  0.62929527  1
  Mo  Mo172  1  0.40714920  0.79328610  0.24286911  1
  Mo  Mo173  1  0.89644542  0.08947300  0.14148674  1
  Mo  Mo174  1  0.60219207  0.00371078  0.24699967  1
  Mo  Mo175  1  0.70501095  0.70708019  0.87475252  1
  Mo  Mo176  1  -0.00096379  -0.00027318  0.00010095  1
  Mo  Mo177  1  0.20138033  0.39777965  0.00562668  1
  Mo  Mo178  1  0.60729180  0.19247152  0.51507223  1
  Mo  Mo179  1  0.80477482  0.60194950  0.00499982  1
  Mo  Mo180  1  0.60012822  0.20908953  0.24580872  1
  Mo  Mo181  1  0.80436874  0.21803682  0.48778502  1
  Mo  Mo182  1  0.70336391  0.89211767  0.61757863  1
  Mo  Mo183  1  0.01249183  0.20377613  0.48226694  1
  Mo  Mo184  1  0.40453695  0.18970911  0.73900947  1
  Mo  Mo185  1  0.00641013  0.18426625  0.74731007  1
  Mo  Mo186  1  0.39278363  0.39770229  0.00232398  1
  Mo  Mo187  1  0.49297333  0.29554888  0.62961560  1
  Mo  Mo188  1  0.39948721  0.60042218  0.50367131  1
  Mo  Mo189  1  0.70811364  0.31303546  0.38043624  1
  Mo  Mo190  1  0.60781053  0.60123082  0.00595045  1
  Mo  Mo191  1  0.69427059  0.71177010  0.38047168  1
  Mo  Mo192  1  0.78720856  0.20217494  0.00525433  1
  Mo  Mo193  1  0.29887714  0.89331925  0.37235114  1
  Mo  Mo194  1  0.09706915  0.29618734  0.14159144  1
  Mo  Mo195  1  0.28978009  0.30179223  0.88322702  1
  Mo  Mo196  1  0.90475477  0.31333334  0.61922871  1
  Mo  Mo197  1  0.51163427  0.28194106  0.36443930  1
  Mo  Mo198  1  0.18375651  0.79181352  0.50291170  1
  Mo  Mo199  1  0.50711300  0.08956072  0.36190511  1
