# generated using pymatgen
data_HfZrTaTiMo
_symmetry_space_group_name_H-M   'P 1'
_cell_length_a   15.21014477
_cell_length_b   15.20970808
_cell_length_c   16.84150161
_cell_angle_alpha   90.03374765
_cell_angle_beta   89.94075660
_cell_angle_gamma   90.01681604
_symmetry_Int_Tables_number   1
_chemical_formula_structural   HfZrTaTiMo
_chemical_formula_sum   'Hf40 Zr40 Ta40 Ti40 Mo40'
_cell_volume   3896.14141196
_cell_formula_units_Z   40
loop_
 _symmetry_equiv_pos_site_id
 _symmetry_equiv_pos_as_xyz
  1  'x, y, z'
loop_
 _atom_site_type_symbol
 _atom_site_label
 _atom_site_symmetry_multiplicity
 _atom_site_fract_x
 _atom_site_fract_y
 _atom_site_fract_z
 _atom_site_occupancy
  Hf  Hf0  1  0.71860221  0.70870908  0.37805515  1
  Hf  Hf1  1  0.89315279  0.29553421  0.61812420  1
  Hf  Hf2  1  0.59986316  0.39758233  0.74322699  1
  Hf  Hf3  1  0.79865155  0.40618101  0.49004956  1
  Hf  Hf4  1  0.89316608  0.48179390  0.12773353  1
  Hf  Hf5  1  0.69087260  0.10921919  0.34158414  1
  Hf  Hf6  1  0.39115204  -0.00404828  0.23068581  1
  Hf  Hf7  1  0.50765570  0.69991353  0.37963346  1
  Hf  Hf8  1  0.40928765  0.41151293  0.49778592  1
  Hf  Hf9  1  0.70127203  0.29408990  0.62629498  1
  Hf  Hf10  1  0.31307566  0.48632086  0.85424111  1
  Hf  Hf11  1  0.90155094  0.28362358  0.87496183  1
  Hf  Hf12  1  0.17986204  0.00297013  0.75723303  1
  Hf  Hf13  1  0.09218033  0.30425634  0.61149293  1
  Hf  Hf14  1  0.08632600  0.69098664  0.36947878  1
  Hf  Hf15  1  0.62567960  0.81051035  0.75720467  1
  Hf  Hf16  1  0.49371512  0.09367556  0.35373176  1
  Hf  Hf17  1  0.20002380  0.59161814  0.24646537  1
  Hf  Hf18  1  0.92107881  0.71324643  0.63383678  1
  Hf  Hf19  1  0.00154373  0.80597740  0.00713207  1
  Hf  Hf20  1  0.71629869  0.30536512  0.13732271  1
  Hf  Hf21  1  0.06623204  0.10015432  0.88446590  1
  Hf  Hf22  1  0.09518391  0.89169643  0.36939782  1
  Hf  Hf23  1  0.89532050  0.08682514  0.36235776  1
  Hf  Hf24  1  0.20233778  0.59508966  -0.01018252  1
  Hf  Hf25  1  0.08851326  0.09773942  0.11823824  1
  Hf  Hf26  1  0.39793927  0.80225263  0.23972043  1
  Hf  Hf27  1  0.29133767  0.29889564  0.39014409  1
  Hf  Hf28  1  0.39780351  0.60728877  0.50601101  1
  Hf  Hf29  1  -0.00516171  0.59547819  0.00409157  1
  Hf  Hf30  1  0.29479484  0.09677453  0.63583856  1
  Hf  Hf31  1  0.30168019  0.89739064  0.86392143  1
  Hf  Hf32  1  0.19508930  -0.00392816  0.50910674  1
  Hf  Hf33  1  0.00004099  0.19949845  0.24987980  1
  Hf  Hf34  1  0.69893718  0.30039053  0.87881213  1
  Hf  Hf35  1  0.40220427  0.19121628  0.50064788  1
  Hf  Hf36  1  0.69378968  0.50821420  0.37829268  1
  Hf  Hf37  1  0.60096411  0.20006181  0.49794685  1
  Hf  Hf38  1  0.30148123  0.69443878  0.11498482  1
  Hf  Hf39  1  -0.00853176  0.19285241  0.74329441  1
  Zr  Zr40  1  0.69085542  0.90017204  0.35992196  1
  Zr  Zr41  1  0.18783997  0.42697345  0.50055425  1
  Zr  Zr42  1  0.39988585  -0.00562695  0.50659550  1
  Zr  Zr43  1  0.19464017  -0.00503942  0.23875719  1
  Zr  Zr44  1  0.08617540  0.88282879  0.63913046  1
  Zr  Zr45  1  0.69331286  0.09524179  0.90335965  1
  Zr  Zr46  1  0.89502475  0.87306306  0.35673399  1
  Zr  Zr47  1  0.40333705  0.20889178  0.74803194  1
  Zr  Zr48  1  0.60100557  0.79459001  0.22817166  1
  Zr  Zr49  1  0.29687463  0.70463609  0.64900585  1
  Zr  Zr50  1  0.40568187  0.59340419  -0.00733947  1
  Zr  Zr51  1  0.88606082  0.08100707  0.62130926  1
  Zr  Zr52  1  0.49261498  0.30437082  0.87612649  1
  Zr  Zr53  1  0.60875099  0.61556174  0.74733264  1
  Zr  Zr54  1  0.90592023  0.50785851  0.62139314  1
  Zr  Zr55  1  0.51181682  0.30492684  0.36757083  1
  Zr  Zr56  1  0.18643818  0.78527884  0.51026225  1
  Zr  Zr57  1  0.80829877  0.40561564  0.75160629  1
  Zr  Zr58  1  0.51019485  0.50757541  0.12487623  1
  Zr  Zr59  1  0.59145834  0.00253032  0.49909754  1
  Zr  Zr60  1  -0.00612903  0.18778925  0.49232038  1
  Zr  Zr61  1  0.88411056  0.69992208  0.88144661  1
  Zr  Zr62  1  0.30001272  0.89661770  0.37443729  1
  Zr  Zr63  1  0.40512931  0.80590637  0.52174031  1
  Zr  Zr64  1  0.51428529  0.51007950  0.86812481  1
  Zr  Zr65  1  0.19237226  -0.00796829  -0.00314113  1
  Zr  Zr66  1  0.38244542  0.21407386  0.24718613  1
  Zr  Zr67  1  0.40825788  0.60562268  0.25218286  1
  Zr  Zr68  1  0.60729527  0.80350361  0.51510545  1
  Zr  Zr69  1  0.19050907  0.20373021  -0.01328498  1
  Zr  Zr70  1  -0.00304222  0.60522193  0.22751011  1
  Zr  Zr71  1  0.01174498  0.39303591  0.00355486  1
  Zr  Zr72  1  0.72722015  0.69796066  0.62147281  1
  Zr  Zr73  1  0.39023797  0.21297058  0.00307612  1
  Zr  Zr74  1  0.29512387  0.30172040  0.61224283  1
  Zr  Zr75  1  0.43365878  0.80546811  0.75102107  1
  Zr  Zr76  1  0.19003542  0.20526119  0.75743890  1
  Zr  Zr77  1  0.79161524  -0.00538584  0.48740639  1
  Zr  Zr78  1  0.21878722  0.39467019  -0.00516744  1
  Zr  Zr79  1  0.40086607  0.00670136  0.00644042  1
  Ta  Ta80  1  0.01156322  0.40121742  0.25710608  1
  Ta  Ta81  1  0.59393642  0.21141375  0.01523949  1
  Ta  Ta82  1  0.10061922  0.29485418  0.37927790  1
  Ta  Ta83  1  0.49802131  0.50894360  0.63532771  1
  Ta  Ta84  1  0.29302109  0.70270879  0.37698394  1
  Ta  Ta85  1  0.30844126  0.69654099  0.85973025  1
  Ta  Ta86  1  0.79174806  0.17612768  0.75727665  1
  Ta  Ta87  1  0.69609509  0.10582336  0.12210946  1
  Ta  Ta88  1  -0.00372771  0.59609687  0.76059097  1
  Ta  Ta89  1  0.40029259  0.41291792  0.26280457  1
  Ta  Ta90  1  0.79443092  0.60035650  0.23957170  1
  Ta  Ta91  1  0.49615028  0.11177934  0.13055016  1
  Ta  Ta92  1  0.59863030  0.18916640  0.75500470  1
  Ta  Ta93  1  0.59178899  -0.00923159  0.21980748  1
  Ta  Ta94  1  0.08949753  0.89739915  0.87582629  1
  Ta  Ta95  1  0.11960357  0.29665028  0.13658036  1
  Ta  Ta96  1  0.71596859  0.90117327  0.90222964  1
  Ta  Ta97  1  0.40033496  0.79996829  -0.01220172  1
  Ta  Ta98  1  0.18871529  0.59981605  0.75788782  1
  Ta  Ta99  1  0.60372416  0.00033067  0.76029813  1
  Ta  Ta100  1  0.28655561  0.10156901  0.37484869  1
  Ta  Ta101  1  0.69257864  0.09654428  0.62915131  1
  Ta  Ta102  1  0.61438478  0.41140254  0.00644435  1
  Ta  Ta103  1  0.19488260  0.40087646  0.74384288  1
  Ta  Ta104  1  0.31028388  0.10149367  0.86616291  1
  Ta  Ta105  1  -0.00543772  -0.00901024  0.23494916  1
  Ta  Ta106  1  0.89599146  0.30020273  0.36965409  1
  Ta  Ta107  1  0.79087002  0.19889182  0.48542406  1
  Ta  Ta108  1  0.10023078  0.09279874  0.37533098  1
  Ta  Ta109  1  0.08968240  0.09480018  0.61951343  1
  Ta  Ta110  1  0.29789511  0.50994192  0.37608090  1
  Ta  Ta111  1  0.29783320  0.50721730  0.63893710  1
  Ta  Ta112  1  0.59998276  0.40660825  0.50699891  1
  Ta  Ta113  1  0.72081054  0.90857877  0.63082381  1
  Ta  Ta114  1  0.80294023  0.78749449  0.21728213  1
  Ta  Ta115  1  -0.00801090  -0.03000156  0.49977655  1
  Ta  Ta116  1  0.80666198  0.38892470  -0.00049543  1
  Ta  Ta117  1  0.10402867  0.70263023  0.88018309  1
  Ta  Ta118  1  0.28337271  0.12128242  0.12667226  1
  Ta  Ta119  1  0.79382914  -0.01051076  0.22428405  1
  Ti  Ti120  1  0.60570307  0.60303833  0.24864157  1
  Ti  Ti121  1  0.11109386  0.70590470  0.11003459  1
  Ti  Ti122  1  -0.02245017  0.20710663  0.01589517  1
  Ti  Ti123  1  -0.02289423  -0.00155063  0.00898227  1
  Ti  Ti124  1  0.80436307  0.80284390  0.01814713  1
  Ti  Ti125  1  -0.00553815  0.40891023  0.48378305  1
  Ti  Ti126  1  0.00512943  0.79675638  0.76816635  1
  Ti  Ti127  1  0.11106628  0.49067608  0.12455454  1
  Ti  Ti128  1  0.90007526  0.49411965  0.87698864  1
  Ti  Ti129  1  0.28751187  0.88800820  0.11024482  1
  Ti  Ti130  1  -0.03386073  -0.00948256  0.76064169  1
  Ti  Ti131  1  0.79013151  0.58295351  0.00961442  1
  Ti  Ti132  1  0.51783497  0.91111853  0.89204391  1
  Ti  Ti133  1  0.49890179  0.89693656  0.36719544  1
  Ti  Ti134  1  0.49998515  0.31097434  0.13547127  1
  Ti  Ti135  1  0.30541348  0.90564739  0.65526577  1
  Ti  Ti136  1  0.71293249  0.50707268  0.87400476  1
  Ti  Ti137  1  0.69369642  0.68589638  0.10747554  1
  Ti  Ti138  1  0.60225343  0.41143633  0.25094451  1
  Ti  Ti139  1  0.20580140  0.39164500  0.25880794  1
  Ti  Ti140  1  0.70785614  0.50335491  0.62325088  1
  Ti  Ti141  1  0.30430160  0.48573886  0.13017197  1
  Ti  Ti142  1  0.19530434  0.79383833  0.24232640  1
  Ti  Ti143  1  0.91255558  0.51572062  0.36684854  1
  Ti  Ti144  1  0.50347942  0.70688520  0.10321002  1
  Ti  Ti145  1  0.50133347  0.30017733  0.62406885  1
  Ti  Ti146  1  0.83571048  0.61985766  0.48757054  1
  Ti  Ti147  1  0.69088809  0.69999987  0.89425147  1
  Ti  Ti148  1  0.49965165  0.09087986  0.63522949  1
  Ti  Ti149  1  0.88355037  0.11277082  0.13134036  1
  Ti  Ti150  1  0.70070235  0.30130734  0.36157631  1
  Ti  Ti151  1  0.00561750  0.40144669  0.74867733  1
  Ti  Ti152  1  0.59930664  0.59727311  0.50983129  1
  Ti  Ti153  1  0.09786543  0.30724867  0.87043915  1
  Ti  Ti154  1  0.02915865  0.59918827  0.50563244  1
  Ti  Ti155  1  0.41112325  0.39841740  0.00437115  1
  Ti  Ti156  1  0.81616772  0.81534326  0.76251154  1
  Ti  Ti157  1  0.80775323  0.40416512  0.26126777  1
  Ti  Ti158  1  -0.00083725  0.79726991  0.22014838  1
  Ti  Ti159  1  0.09796106  0.49788579  0.87154326  1
  Mo  Mo160  1  0.50690251  0.50721228  0.37711492  1
  Mo  Mo161  1  0.41581857  0.00845153  0.76280829  1
  Mo  Mo162  1  0.70159954  0.49858730  0.13192428  1
  Mo  Mo163  1  0.20562842  0.79319604  -0.01461209  1
  Mo  Mo164  1  0.09995593  0.68532527  0.63942330  1
  Mo  Mo165  1  0.69554021  0.89623190  0.10484461  1
  Mo  Mo166  1  0.40532874  0.60405018  0.74887005  1
  Mo  Mo167  1  0.19102682  0.18941286  0.49955044  1
  Mo  Mo168  1  0.80561973  0.60727026  0.76069180  1
  Mo  Mo169  1  0.89741014  0.89585811  0.63070325  1
  Mo  Mo170  1  0.10250464  0.89378391  0.12208636  1
  Mo  Mo171  1  0.82155804  0.80801432  0.50119637  1
  Mo  Mo172  1  0.80206384  0.00194448  0.02353514  1
  Mo  Mo173  1  0.90177778  0.90251369  0.12729625  1
  Mo  Mo174  1  0.52160117  0.91208248  0.63838527  1
  Mo  Mo175  1  0.19599142  0.80070946  0.76439577  1
  Mo  Mo176  1  0.10083551  0.49634760  0.36764474  1
  Mo  Mo177  1  0.49051149  0.89765861  0.10864084  1
  Mo  Mo178  1  0.89962188  0.69437457  0.35914914  1
  Mo  Mo179  1  0.80012123  0.20622856  0.00746808  1
  Mo  Mo180  1  0.09851354  0.50949076  0.63537833  1
  Mo  Mo181  1  0.59521004  0.20798382  0.22945245  1
  Mo  Mo182  1  0.60945057  0.60017927  -0.00451518  1
  Mo  Mo183  1  0.80207764  0.20266783  0.25464309  1
  Mo  Mo184  1  0.88560759  0.09163062  0.88551112  1
  Mo  Mo185  1  0.50721085  0.71379932  0.88665759  1
  Mo  Mo186  1  0.40010057  0.40198600  0.73382290  1
  Mo  Mo187  1  0.19127598  0.20121127  0.25588279  1
  Mo  Mo188  1  0.29380562  0.30034893  0.86344174  1
  Mo  Mo189  1  0.30347364  0.31336793  0.13290482  1
  Mo  Mo190  1  0.50126002  0.09886391  0.87906666  1
  Mo  Mo191  1  0.89783999  0.90860635  0.88750243  1
  Mo  Mo192  1  0.78473321  -0.00862504  0.76239636  1
  Mo  Mo193  1  0.91288930  0.29906203  0.13826382  1
  Mo  Mo194  1  0.59469757  0.00350663  0.02010562  1
  Mo  Mo195  1  0.51307901  0.69908219  0.62394495  1
  Mo  Mo196  1  0.20710901  0.60430349  0.50141134  1
  Mo  Mo197  1  -0.01182044  0.78437585  0.49651397  1
  Mo  Mo198  1  0.89229587  0.69166635  0.10908899  1
  Mo  Mo199  1  0.59926132  0.80054105  0.00151617  1
