# generated using pymatgen
data_HfZrTaTiMo
_symmetry_space_group_name_H-M   'P 1'
_cell_length_a   15.20549574
_cell_length_b   15.21366252
_cell_length_c   16.84822964
_cell_angle_alpha   90.01212199
_cell_angle_beta   90.03728412
_cell_angle_gamma   89.93435484
_symmetry_Int_Tables_number   1
_chemical_formula_structural   HfZrTaTiMo
_chemical_formula_sum   'Hf40 Zr40 Ta40 Ti40 Mo40'
_cell_volume   3897.51906868
_cell_formula_units_Z   40
loop_
 _symmetry_equiv_pos_site_id
 _symmetry_equiv_pos_as_xyz
  1  'x, y, z'
loop_
 _atom_site_type_symbol
 _atom_site_label
 _atom_site_symmetry_multiplicity
 _atom_site_fract_x
 _atom_site_fract_y
 _atom_site_fract_z
 _atom_site_occupancy
  Hf  Hf0  1  0.69846691  0.50968330  0.13052048  1
  Hf  Hf1  1  0.60060404  0.80012977  -0.00570981  1
  Hf  Hf2  1  0.70083055  0.29985477  0.89191896  1
  Hf  Hf3  1  0.40201258  0.17667858  0.76553843  1
  Hf  Hf4  1  0.49744839  0.70093053  0.38644977  1
  Hf  Hf5  1  -0.01369497  0.22587742  0.49680576  1
  Hf  Hf6  1  0.40614184  0.39174685  0.74095521  1
  Hf  Hf7  1  0.90344279  0.68599034  0.62248105  1
  Hf  Hf8  1  0.20193545  0.59155101  0.74735107  1
  Hf  Hf9  1  0.58708209  0.02026109  0.74642509  1
  Hf  Hf10  1  0.90439595  0.10462702  0.37377066  1
  Hf  Hf11  1  0.31455629  0.69735403  0.86132538  1
  Hf  Hf12  1  0.80091251  0.60182521  0.48262300  1
  Hf  Hf13  1  0.89933434  0.30241052  0.11345674  1
  Hf  Hf14  1  0.80835184  0.41996771  -0.00888682  1
  Hf  Hf15  1  0.49824155  0.30496709  0.88521296  1
  Hf  Hf16  1  0.00499196  0.60433966  0.25940717  1
  Hf  Hf17  1  0.79966993  0.61214014  -0.00466686  1
  Hf  Hf18  1  -0.00211635  0.80441031  0.24659932  1
  Hf  Hf19  1  0.29896784  0.89429268  0.88265102  1
  Hf  Hf20  1  0.69588924  0.89913305  0.85849813  1
  Hf  Hf21  1  0.83084266  0.39664029  0.47677420  1
  Hf  Hf22  1  0.59692947  0.60525798  -0.00734533  1
  Hf  Hf23  1  0.61350289  0.00591429  0.51187798  1
  Hf  Hf24  1  0.18709553  0.17279136  0.50702949  1
  Hf  Hf25  1  0.58796810  0.59594800  0.25060043  1
  Hf  Hf26  1  0.61778467  0.39006925  0.50935244  1
  Hf  Hf27  1  0.38847025  0.00536120  0.49079483  1
  Hf  Hf28  1  0.90888052  0.90506148  0.63216914  1
  Hf  Hf29  1  0.61491129  -0.00372360  0.24534761  1
  Hf  Hf30  1  0.40182255  0.00905523  0.25230993  1
  Hf  Hf31  1  0.19561502  0.60648148  -0.01303051  1
  Hf  Hf32  1  0.18990876  -0.00205359  0.23386714  1
  Hf  Hf33  1  0.50135524  0.11389110  0.38279301  1
  Hf  Hf34  1  0.19945208  0.38385181  0.50868485  1
  Hf  Hf35  1  0.78873139  0.78742717  0.73294883  1
  Hf  Hf36  1  0.59151702  0.20541712  0.23911360  1
  Hf  Hf37  1  0.90360210  0.09535737  0.10671309  1
  Hf  Hf38  1  0.38934590  0.21343621  0.24422189  1
  Hf  Hf39  1  0.51016312  0.51285428  0.62809538  1
  Zr  Zr40  1  0.59770791  0.00254881  -0.00455339  1
  Zr  Zr41  1  0.28829946  0.29689452  0.88143560  1
  Zr  Zr42  1  0.69246232  0.29394998  0.36526152  1
  Zr  Zr43  1  0.41052434  0.37982153  0.52043288  1
  Zr  Zr44  1  0.00767293  0.59986706  0.75379640  1
  Zr  Zr45  1  0.29648287  0.09446425  0.90058425  1
  Zr  Zr46  1  0.90499749  0.70320449  0.86942009  1
  Zr  Zr47  1  0.91747971  0.47961805  0.62296598  1
  Zr  Zr48  1  0.09749464  0.90718502  0.37854602  1
  Zr  Zr49  1  0.49197612  0.90703466  0.63016957  1
  Zr  Zr50  1  0.29554081  0.27490398  0.63759278  1
  Zr  Zr51  1  0.07446799  0.29666161  0.63503464  1
  Zr  Zr52  1  -0.00470458  0.78151928  0.00841526  1
  Zr  Zr53  1  0.69365310  0.30020056  0.10954664  1
  Zr  Zr54  1  0.11741162  0.50632796  0.37118623  1
  Zr  Zr55  1  0.48908613  0.13179569  0.60850264  1
  Zr  Zr56  1  0.72271736  0.49817041  0.62604534  1
  Zr  Zr57  1  0.20169840  0.00204819  0.75710354  1
  Zr  Zr58  1  0.78782609  0.80206368  0.51318119  1
  Zr  Zr59  1  0.30087733  0.51788598  0.12015880  1
  Zr  Zr60  1  0.80044172  0.18636339  0.24222264  1
  Zr  Zr61  1  0.40554516  0.79547247  0.25482055  1
  Zr  Zr62  1  0.11451619  0.28613000  0.36682873  1
  Zr  Zr63  1  0.30134424  0.89064576  0.37841575  1
  Zr  Zr64  1  0.80977102  0.00553020  0.51711982  1
  Zr  Zr65  1  0.30068266  0.88824688  0.62142017  1
  Zr  Zr66  1  0.09529540  0.30226248  0.11276377  1
  Zr  Zr67  1  0.31591123  0.48143471  0.38268392  1
  Zr  Zr68  1  0.30430445  0.89320893  0.11562485  1
  Zr  Zr69  1  0.51208582  0.89230242  0.12796375  1
  Zr  Zr70  1  0.10393340  0.90599555  0.62080735  1
  Zr  Zr71  1  0.31012465  0.69412398  0.62795000  1
  Zr  Zr72  1  0.09121912  0.09704590  0.90320703  1
  Zr  Zr73  1  0.80339273  0.40791895  0.25346055  1
  Zr  Zr74  1  0.21537715  0.39750452  0.23791833  1
  Zr  Zr75  1  0.19810996  0.77566570  0.24400034  1
  Zr  Zr76  1  0.09479951  0.89052039  0.88781347  1
  Zr  Zr77  1  0.30789069  0.49102769  0.87015648  1
  Zr  Zr78  1  0.79896107  0.01368147  0.74094825  1
  Zr  Zr79  1  0.78326296  0.20474803  0.50394725  1
  Ta  Ta80  1  0.61472909  0.61162413  0.74754170  1
  Ta  Ta81  1  0.70068742  0.08958189  0.37486439  1
  Ta  Ta82  1  0.27807444  0.10600268  0.36854200  1
  Ta  Ta83  1  -0.00178315  0.57945723  -0.00220888  1
  Ta  Ta84  1  0.00098642  0.39768288  0.25815229  1
  Ta  Ta85  1  0.60354043  0.21603310  0.75565338  1
  Ta  Ta86  1  0.19828162  0.59269323  0.51082023  1
  Ta  Ta87  1  0.79699402  -0.01128056  -0.00761409  1
  Ta  Ta88  1  0.79462097  0.80983870  0.25389421  1
  Ta  Ta89  1  0.60867347  0.40920651  0.75599671  1
  Ta  Ta90  1  0.69692521  0.71425121  0.13090182  1
  Ta  Ta91  1  0.70412169  0.89697602  0.37868251  1
  Ta  Ta92  1  0.89330175  0.10180306  0.88645628  1
  Ta  Ta93  1  0.19046311  0.79009735  0.75357373  1
  Ta  Ta94  1  0.88998457  0.69427833  0.13195225  1
  Ta  Ta95  1  0.01582507  0.02137351  0.50316557  1
  Ta  Ta96  1  0.50541717  0.71125357  0.63169688  1
  Ta  Ta97  1  0.30044466  0.10093279  0.10850242  1
  Ta  Ta98  1  0.09860043  0.49085161  0.87413586  1
  Ta  Ta99  1  0.48986768  0.68768815  0.12494538  1
  Ta  Ta100  1  -0.00949796  0.00295893  0.24154193  1
  Ta  Ta101  1  0.49152787  0.30980955  0.37504474  1
  Ta  Ta102  1  0.00739634  0.19467587  0.24340878  1
  Ta  Ta103  1  0.88413931  0.89703607  0.12499469  1
  Ta  Ta104  1  0.28910593  0.68455415  0.38716743  1
  Ta  Ta105  1  0.89856614  0.71560907  0.37531541  1
  Ta  Ta106  1  0.50761204  0.49706629  0.38539587  1
  Ta  Ta107  1  0.49855584  0.10696278  0.11903364  1
  Ta  Ta108  1  -0.00738867  0.38946126  0.76946713  1
  Ta  Ta109  1  0.20002447  0.19180409  0.22832579  1
  Ta  Ta110  1  0.09451047  0.29516797  0.88959616  1
  Ta  Ta111  1  0.00255780  0.59956420  0.48587444  1
  Ta  Ta112  1  0.42343477  0.40997351  0.23942062  1
  Ta  Ta113  1  0.19141357  0.40954315  0.00590590  1
  Ta  Ta114  1  -0.00344517  0.80224504  0.49628805  1
  Ta  Ta115  1  0.89867350  0.90521798  0.86917304  1
  Ta  Ta116  1  0.48963921  0.90572438  0.85839747  1
  Ta  Ta117  1  0.69758146  0.10939144  0.88011581  1
  Ta  Ta118  1  0.69368086  0.50416523  0.36991704  1
  Ta  Ta119  1  0.38706340  0.60048249  0.25498355  1
  Ti  Ti120  1  0.79479555  0.80303637  -0.00091932  1
  Ti  Ti121  1  0.51044823  0.90380098  0.38371251  1
  Ti  Ti122  1  0.60074023  0.80048122  0.50671469  1
  Ti  Ti123  1  0.87358494  0.29355022  0.64668970  1
  Ti  Ti124  1  0.40834599  -0.00640615  0.00090725  1
  Ti  Ti125  1  0.41052442  0.19904621  -0.00019968  1
  Ti  Ti126  1  0.60914075  0.60811571  0.50092159  1
  Ti  Ti127  1  0.30199465  0.49535904  0.62797756  1
  Ti  Ti128  1  0.19911726  0.79128686  0.49668400  1
  Ti  Ti129  1  0.90060104  0.28832496  0.88715327  1
  Ti  Ti130  1  0.18935639  0.39368089  0.74683866  1
  Ti  Ti131  1  0.09977984  0.70140968  0.61642350  1
  Ti  Ti132  1  0.79735475  0.39407922  0.76945606  1
  Ti  Ti133  1  0.00538559  0.80015870  0.75047630  1
  Ti  Ti134  1  0.17578906  0.19318325  0.75448702  1
  Ti  Ti135  1  0.89621366  0.91161021  0.37867857  1
  Ti  Ti136  1  0.70272743  0.09176167  0.11351995  1
  Ti  Ti137  1  0.08695269  0.90240003  0.11071862  1
  Ti  Ti138  1  0.69807384  0.70084271  0.86789058  1
  Ti  Ti139  1  0.10342259  0.67479395  0.12467458  1
  Ti  Ti140  1  0.50202555  0.51717586  0.86017208  1
  Ti  Ti141  1  0.40282135  0.60060796  0.50513279  1
  Ti  Ti142  1  0.09973303  0.49763451  0.62071792  1
  Ti  Ti143  1  0.00506139  0.01107385  0.75609053  1
  Ti  Ti144  1  0.59518326  0.41797439  -0.00754184  1
  Ti  Ti145  1  0.91351216  0.50371821  0.13035416  1
  Ti  Ti146  1  0.40611104  0.60523856  -0.00540592  1
  Ti  Ti147  1  0.30716945  0.30128693  0.10697128  1
  Ti  Ti148  1  0.50485108  0.71305472  0.85009893  1
  Ti  Ti149  1  0.40450774  0.41492097  0.00304625  1
  Ti  Ti150  1  0.09812462  0.09552374  0.10170487  1
  Ti  Ti151  1  0.60550345  0.79378089  0.25870996  1
  Ti  Ti152  1  0.69820903  0.12612243  0.63320853  1
  Ti  Ti153  1  0.50191271  0.31301515  0.11254741  1
  Ti  Ti154  1  0.29161654  0.08231065  0.62717743  1
  Ti  Ti155  1  0.40797603  0.79100751  -0.00435276  1
  Ti  Ti156  1  0.80324092  0.58346381  0.76195376  1
  Ti  Ti157  1  0.79587511  0.61554500  0.26434729  1
  Ti  Ti158  1  0.91981902  0.11596700  0.63714177  1
  Ti  Ti159  1  0.20267386  0.79109944  0.00680492  1
  Mo  Mo160  1  0.39418397  0.00256974  0.75376285  1
  Mo  Mo161  1  0.70712347  0.89665750  0.12331094  1
  Mo  Mo162  1  0.19806777  -0.01233284  0.01807445  1
  Mo  Mo163  1  0.79397599  0.19266369  -0.00132664  1
  Mo  Mo164  1  0.41451841  0.59497504  0.74360775  1
  Mo  Mo165  1  0.51181362  0.30499122  0.64022814  1
  Mo  Mo166  1  -0.00112385  0.40374324  -0.01117207  1
  Mo  Mo167  1  -0.00640406  0.20090773  -0.00251217  1
  Mo  Mo168  1  0.50157872  0.50152059  0.11650695  1
  Mo  Mo169  1  0.40858456  0.79183298  0.49352794  1
  Mo  Mo170  1  0.68933548  0.90038186  0.63697547  1
  Mo  Mo171  1  0.10185360  0.70592657  0.38937587  1
  Mo  Mo172  1  0.69545567  0.50676016  0.87017640  1
  Mo  Mo173  1  0.30746396  0.28916566  0.37055909  1
  Mo  Mo174  1  0.69972698  0.30428497  0.63912064  1
  Mo  Mo175  1  0.09216015  0.50094506  0.12704903  1
  Mo  Mo176  1  0.09523297  0.10293767  0.63542708  1
  Mo  Mo177  1  0.69037277  0.68826094  0.62157681  1
  Mo  Mo178  1  0.10775853  0.69779186  0.87466822  1
  Mo  Mo179  1  0.20525697  0.60139665  0.25180802  1
  Mo  Mo180  1  0.89990765  0.49476466  0.87124143  1
  Mo  Mo181  1  0.01724267  0.41469516  0.47874178  1
  Mo  Mo182  1  0.19708807  -0.00533245  0.49931622  1
  Mo  Mo183  1  0.90428582  0.50904454  0.36346245  1
  Mo  Mo184  1  0.90902200  0.30023534  0.35877523  1
  Mo  Mo185  1  0.30559718  0.69977315  0.11477904  1
  Mo  Mo186  1  0.59148045  0.21017184  0.49862962  1
  Mo  Mo187  1  -0.01295329  -0.01534038  0.00362645  1
  Mo  Mo188  1  0.59492568  0.20228786  0.00858394  1
  Mo  Mo189  1  -0.01130174  0.19649577  0.76547039  1
  Mo  Mo190  1  0.09530635  0.09545676  0.36235780  1
  Mo  Mo191  1  0.50476539  0.10204154  0.88584404  1
  Mo  Mo192  1  0.20317036  0.20498100  0.01720874  1
  Mo  Mo193  1  0.69583822  0.70482844  0.37036061  1
  Mo  Mo194  1  0.39769693  0.80218065  0.75336009  1
  Mo  Mo195  1  0.80504904  -0.00608999  0.25306600  1
  Mo  Mo196  1  0.59492456  0.40323104  0.25063684  1
  Mo  Mo197  1  0.60064515  0.80599138  0.74431710  1
  Mo  Mo198  1  0.38158611  0.20423989  0.48745968  1
  Mo  Mo199  1  0.79759971  0.20496270  0.76136714  1
