# generated using pymatgen
data_HfZrTaTiMo
_symmetry_space_group_name_H-M   'P 1'
_cell_length_a   15.19957667
_cell_length_b   15.21121731
_cell_length_c   16.84909327
_cell_angle_alpha   89.98651376
_cell_angle_beta   89.98521796
_cell_angle_gamma   90.01887625
_symmetry_Int_Tables_number   1
_chemical_formula_structural   HfZrTaTiMo
_chemical_formula_sum   'Hf40 Zr40 Ta40 Ti40 Mo40'
_cell_volume   3895.57838454
_cell_formula_units_Z   40
loop_
 _symmetry_equiv_pos_site_id
 _symmetry_equiv_pos_as_xyz
  1  'x, y, z'
loop_
 _atom_site_type_symbol
 _atom_site_label
 _atom_site_symmetry_multiplicity
 _atom_site_fract_x
 _atom_site_fract_y
 _atom_site_fract_z
 _atom_site_occupancy
  Hf  Hf0  1  0.21504605  0.59225838  0.73849660  1
  Hf  Hf1  1  -0.00300171  0.77273277  0.01247537  1
  Hf  Hf2  1  0.68749746  0.10261696  0.11151949  1
  Hf  Hf3  1  0.79808318  0.18985816  0.76793342  1
  Hf  Hf4  1  0.72093923  0.49253583  0.12021473  1
  Hf  Hf5  1  0.89879841  0.89864368  0.37019533  1
  Hf  Hf6  1  0.00227751  0.41594901  0.00325754  1
  Hf  Hf7  1  0.89182186  0.32100854  0.13501036  1
  Hf  Hf8  1  0.60883707  0.61675388  0.76474558  1
  Hf  Hf9  1  0.88384090  0.31159898  0.36540072  1
  Hf  Hf10  1  0.31050539  0.49418426  0.87907510  1
  Hf  Hf11  1  0.51909836  0.30360931  0.37393218  1
  Hf  Hf12  1  0.30302124  0.88020935  0.86905469  1
  Hf  Hf13  1  0.59669973  0.40265494  0.51984110  1
  Hf  Hf14  1  0.07705758  0.09491532  0.62934313  1
  Hf  Hf15  1  0.90095818  0.88150123  0.88910113  1
  Hf  Hf16  1  0.00028208  0.60539231  0.72508656  1
  Hf  Hf17  1  0.60760963  0.79824524  0.25476127  1
  Hf  Hf18  1  0.00525638  -0.00538182  0.48811237  1
  Hf  Hf19  1  0.18597417  0.58477100  0.27161293  1
  Hf  Hf20  1  0.58582883  0.41600540  0.75144200  1
  Hf  Hf21  1  0.00969328  0.37982883  0.73477117  1
  Hf  Hf22  1  0.42802609  0.60234577  0.51019010  1
  Hf  Hf23  1  -0.00442159  0.19516583  0.48810019  1
  Hf  Hf24  1  0.47774879  0.30856280  0.87324934  1
  Hf  Hf25  1  0.17983829  -0.00744111  0.75407246  1
  Hf  Hf26  1  0.50742950  0.10682756  0.63785384  1
  Hf  Hf27  1  0.40088575  0.40486612  0.50946924  1
  Hf  Hf28  1  0.87984212  0.70245759  0.14221880  1
  Hf  Hf29  1  0.19039297  0.80053335  0.26096468  1
  Hf  Hf30  1  0.59786711  -0.00345340  0.50470092  1
  Hf  Hf31  1  0.71165524  0.90156037  0.88611018  1
  Hf  Hf32  1  0.91108814  0.51890440  0.39153733  1
  Hf  Hf33  1  0.28329144  0.88972480  0.63146828  1
  Hf  Hf34  1  0.39523254  0.01324412  0.24544968  1
  Hf  Hf35  1  0.18805748  0.20660646  0.75785772  1
  Hf  Hf36  1  0.30754191  0.29428323  0.11578849  1
  Hf  Hf37  1  0.21539458  0.60112147  0.49572031  1
  Hf  Hf38  1  0.61350087  0.00241684  0.76310645  1
  Hf  Hf39  1  0.09343210  0.69639358  0.86296414  1
  Zr  Zr40  1  0.40739751  -0.01065113  -0.01691745  1
  Zr  Zr41  1  0.39698686  -0.00304130  0.51130425  1
  Zr  Zr42  1  0.48653212  0.10204582  0.37656726  1
  Zr  Zr43  1  0.50981605  0.29367373  0.11055061  1
  Zr  Zr44  1  0.30206732  0.09973709  0.10490171  1
  Zr  Zr45  1  0.69676879  0.89545924  0.62447695  1
  Zr  Zr46  1  0.77814673  0.21554075  0.24103305  1
  Zr  Zr47  1  0.82208690  0.60963663  -0.01150250  1
  Zr  Zr48  1  0.39357394  0.20949731  0.50766225  1
  Zr  Zr49  1  0.69207430  0.88961203  0.10729483  1
  Zr  Zr50  1  0.42215075  0.39978455  0.24878094  1
  Zr  Zr51  1  0.01600630  0.42187587  0.26092808  1
  Zr  Zr52  1  0.70822961  0.48406879  0.38465406  1
  Zr  Zr53  1  0.20611300  0.38946360  0.47969677  1
  Zr  Zr54  1  0.69181014  0.29256824  0.64225480  1
  Zr  Zr55  1  0.61291161  0.60799325  -0.01857803  1
  Zr  Zr56  1  0.18619728  0.80885738  0.48214141  1
  Zr  Zr57  1  0.00337468  -0.00115222  0.23694060  1
  Zr  Zr58  1  0.57330678  0.79890105  -0.02199847  1
  Zr  Zr59  1  0.40241640  -0.00053597  0.75610626  1
  Zr  Zr60  1  0.00201243  0.38900267  0.50209469  1
  Zr  Zr61  1  0.10789979  0.10726654  0.11702405  1
  Zr  Zr62  1  0.11846160  0.48490482  0.61937031  1
  Zr  Zr63  1  0.00046613  -0.00744311  0.02181248  1
  Zr  Zr64  1  0.18680234  0.59873935  0.00096879  1
  Zr  Zr65  1  0.10261406  0.89372178  0.88900989  1
  Zr  Zr66  1  0.29677469  0.91797755  0.37473573  1
  Zr  Zr67  1  0.00356344  0.82015788  0.73328845  1
  Zr  Zr68  1  0.29200770  0.11035551  0.63178279  1
  Zr  Zr69  1  0.91448671  0.50361821  0.86031662  1
  Zr  Zr70  1  0.29436291  0.70290861  0.13973741  1
  Zr  Zr71  1  0.68951932  0.10341308  0.37165721  1
  Zr  Zr72  1  0.79995737  0.20954861  -0.00541712  1
  Zr  Zr73  1  0.10207139  0.10011198  0.89806381  1
  Zr  Zr74  1  0.78892568  -0.00427568  0.24294794  1
  Zr  Zr75  1  0.80515731  0.40227732  0.74376850  1
  Zr  Zr76  1  0.50896935  0.50002362  0.10898826  1
  Zr  Zr77  1  0.59552206  0.78111579  0.49568921  1
  Zr  Zr78  1  0.49983793  0.70445229  0.13135643  1
  Zr  Zr79  1  0.29928193  0.49797847  0.12644251  1
  Ta  Ta80  1  0.19787512  0.39386820  -0.00077828  1
  Ta  Ta81  1  0.10634774  0.28890167  0.36008601  1
  Ta  Ta82  1  -0.01335418  0.18239226  0.76384345  1
  Ta  Ta83  1  0.80227100  0.61965927  0.50918314  1
  Ta  Ta84  1  0.49155842  0.90442352  0.12434644  1
  Ta  Ta85  1  0.00007714  0.20412117  0.24655146  1
  Ta  Ta86  1  0.79476983  0.20197387  0.49645047  1
  Ta  Ta87  1  0.31696306  0.70242805  0.62601726  1
  Ta  Ta88  1  0.71372906  0.09719297  0.62603381  1
  Ta  Ta89  1  0.08548106  0.67667975  0.13986015  1
  Ta  Ta90  1  0.40251618  0.80999082  0.25788605  1
  Ta  Ta91  1  0.60195706  0.20189100  0.50955170  1
  Ta  Ta92  1  0.89799223  0.10691867  0.36219693  1
  Ta  Ta93  1  0.28044015  0.31564552  0.63741906  1
  Ta  Ta94  1  0.49633753  0.09891948  0.11412900  1
  Ta  Ta95  1  0.61225507  0.39641384  -0.01326393  1
  Ta  Ta96  1  -0.00199566  0.80190294  0.24537368  1
  Ta  Ta97  1  0.50177701  0.69205824  0.36485356  1
  Ta  Ta98  1  0.80359387  0.00674868  0.49440400  1
  Ta  Ta99  1  0.89543859  0.50157328  0.61505039  1
  Ta  Ta100  1  0.11632358  0.71694829  0.62281199  1
  Ta  Ta101  1  0.59329823  0.19541755  -0.02422305  1
  Ta  Ta102  1  0.81987879  -0.00154834  0.75373084  1
  Ta  Ta103  1  0.39750874  0.79625629  0.49421260  1
  Ta  Ta104  1  0.60592782  0.58523694  0.25083367  1
  Ta  Ta105  1  0.88877286  0.89304148  0.12119132  1
  Ta  Ta106  1  0.69810613  0.30689731  0.86792691  1
  Ta  Ta107  1  0.10924237  0.49408204  0.86242382  1
  Ta  Ta108  1  0.41728991  0.59401542  0.73976195  1
  Ta  Ta109  1  0.89838568  0.91600256  0.61813650  1
  Ta  Ta110  1  0.39816060  0.61831887  -0.00242905  1
  Ta  Ta111  1  -0.01679229  0.79424501  0.50927023  1
  Ta  Ta112  1  0.31271554  0.69879542  0.37023419  1
  Ta  Ta113  1  0.92496949  0.51999587  0.13175434  1
  Ta  Ta114  1  0.79972733  0.79758729  0.74577195  1
  Ta  Ta115  1  0.32002436  0.50165622  0.37079717  1
  Ta  Ta116  1  0.70428874  0.89041682  0.38167693  1
  Ta  Ta117  1  0.10677053  0.30841631  0.13121417  1
  Ta  Ta118  1  0.08945887  0.30326260  0.88215391  1
  Ta  Ta119  1  0.10500931  0.09451048  0.36357799  1
  Ti  Ti120  1  0.49649730  0.50725535  0.88507960  1
  Ti  Ti121  1  0.69765967  0.70299743  0.62344609  1
  Ti  Ti122  1  0.40671353  0.59975446  0.25117765  1
  Ti  Ti123  1  0.31447965  0.29238182  0.36265884  1
  Ti  Ti124  1  0.90105903  0.27692390  0.62460758  1
  Ti  Ti125  1  0.20828967  0.19508981  0.24791527  1
  Ti  Ti126  1  0.48062177  0.30096914  0.64839627  1
  Ti  Ti127  1  0.30506265  0.11085516  0.88384410  1
  Ti  Ti128  1  0.69425775  0.69293292  0.12645275  1
  Ti  Ti129  1  0.63239706  0.38550080  0.24437214  1
  Ti  Ti130  1  0.88511346  0.71123991  0.37022355  1
  Ti  Ti131  1  0.58178622  0.19508927  0.24255736  1
  Ti  Ti132  1  0.49190827  0.87843401  0.63368671  1
  Ti  Ti133  1  0.71019769  0.50331946  0.87017696  1
  Ti  Ti134  1  0.70069173  0.68963804  0.37516189  1
  Ti  Ti135  1  0.19376879  0.00786089  0.50062348  1
  Ti  Ti136  1  0.21134965  0.39405684  0.25846385  1
  Ti  Ti137  1  0.50159338  0.89644007  0.37492443  1
  Ti  Ti138  1  0.59089412  -0.00460215  0.24727074  1
  Ti  Ti139  1  0.07708833  0.69422718  0.37987017  1
  Ti  Ti140  1  0.29015813  0.30057773  0.88041482  1
  Ti  Ti141  1  0.80057596  0.59136215  0.25804920  1
  Ti  Ti142  1  0.29733546  0.89924745  0.12087315  1
  Ti  Ti143  1  0.89557721  0.08602695  0.89508373  1
  Ti  Ti144  1  0.80803586  0.40108498  -0.01366084  1
  Ti  Ti145  1  0.59596819  0.00638119  -0.02011442  1
  Ti  Ti146  1  0.18877434  0.20084605  0.49984941  1
  Ti  Ti147  1  0.19371601  -0.00631935  0.24199230  1
  Ti  Ti148  1  -0.00265521  0.21613216  0.00692294  1
  Ti  Ti149  1  0.89319348  0.10642862  0.12385894  1
  Ti  Ti150  1  0.29040600  0.11244267  0.37584549  1
  Ti  Ti151  1  0.59171306  0.19630037  0.77118809  1
  Ti  Ti152  1  0.59172011  0.80090403  0.76650612  1
  Ti  Ti153  1  0.00812352  0.60716388  0.51799101  1
  Ti  Ti154  1  0.20206592  0.79739801  0.01123184  1
  Ti  Ti155  1  0.51361933  0.50504209  0.37632151  1
  Ti  Ti156  1  0.69821311  0.51378270  0.62358629  1
  Ti  Ti157  1  0.29896388  0.69459531  0.86657021  1
  Ti  Ti158  1  0.80539039  0.61007970  0.74142490  1
  Ti  Ti159  1  0.79727968  0.39333198  0.51570271  1
  Mo  Mo160  1  0.19585601  0.20771869  -0.00738572  1
  Mo  Mo161  1  0.49584912  0.10428359  0.86558449  1
  Mo  Mo162  1  0.40137702  0.20126060  -0.01315424  1
  Mo  Mo163  1  0.69516685  0.29680005  0.38443727  1
  Mo  Mo164  1  0.79318728  0.79689102  0.25657381  1
  Mo  Mo165  1  0.49894384  0.89692277  0.86317551  1
  Mo  Mo166  1  0.39041411  0.20692783  0.75320871  1
  Mo  Mo167  1  0.72592931  0.70986296  0.86640594  1
  Mo  Mo168  1  0.31167889  0.49898667  0.62505276  1
  Mo  Mo169  1  0.39791590  0.20288482  0.24894040  1
  Mo  Mo170  1  -0.01042271  0.00679899  0.76120398  1
  Mo  Mo171  1  0.47175816  0.70017031  0.86856372  1
  Mo  Mo172  1  0.38373414  0.79677403  0.00377483  1
  Mo  Mo173  1  0.09607447  0.90458194  0.61985301  1
  Mo  Mo174  1  0.20260690  0.78850766  0.74535644  1
  Mo  Mo175  1  0.79874735  0.80692112  0.49946793  1
  Mo  Mo176  1  0.10696357  0.50375847  0.39522788  1
  Mo  Mo177  1  0.20731931  -0.01273097  0.00223725  1
  Mo  Mo178  1  0.69533112  0.30687272  0.10771219  1
  Mo  Mo179  1  0.51283631  0.70673087  0.63219635  1
  Mo  Mo180  1  0.79086815  0.79110557  0.00396236  1
  Mo  Mo181  1  0.80083573  0.00123687  0.01050895  1
  Mo  Mo182  1  0.89416715  0.70669302  0.62153994  1
  Mo  Mo183  1  0.51021466  0.50381514  0.63305004  1
  Mo  Mo184  1  0.19897129  0.39595534  0.76025750  1
  Mo  Mo185  1  0.40244621  0.78708030  0.74537414  1
  Mo  Mo186  1  0.80392514  0.41309230  0.24894970  1
  Mo  Mo187  1  0.38558244  0.40745808  0.74372983  1
  Mo  Mo188  1  0.09162289  0.89897731  0.36940787  1
  Mo  Mo189  1  0.70449092  0.09826441  0.88372135  1
  Mo  Mo190  1  0.88858782  0.10146780  0.62229088  1
  Mo  Mo191  1  0.90301189  0.70312915  0.86196976  1
  Mo  Mo192  1  -0.00383344  0.61291655  0.26469450  1
  Mo  Mo193  1  0.09891118  0.28103444  0.62433780  1
  Mo  Mo194  1  0.61298798  0.59562739  0.50128001  1
  Mo  Mo195  1  0.00860436  0.59836155  -0.00149510  1
  Mo  Mo196  1  0.10880521  0.88264775  0.12149642  1
  Mo  Mo197  1  0.90683791  0.29550215  0.87803832  1
  Mo  Mo198  1  0.10748969  0.49216733  0.13207025  1
  Mo  Mo199  1  0.39991547  0.40891146  -0.00032675  1
