# generated using pymatgen
data_HfZrTaTiMo
_symmetry_space_group_name_H-M   'P 1'
_cell_length_a   15.21194227
_cell_length_b   15.21374881
_cell_length_c   16.84620730
_cell_angle_alpha   90.04973030
_cell_angle_beta   90.04580735
_cell_angle_gamma   90.07909474
_symmetry_Int_Tables_number   1
_chemical_formula_structural   HfZrTaTiMo
_chemical_formula_sum   'Hf40 Zr40 Ta40 Ti40 Mo40'
_cell_volume   3898.72258702
_cell_formula_units_Z   40
loop_
 _symmetry_equiv_pos_site_id
 _symmetry_equiv_pos_as_xyz
  1  'x, y, z'
loop_
 _atom_site_type_symbol
 _atom_site_label
 _atom_site_symmetry_multiplicity
 _atom_site_fract_x
 _atom_site_fract_y
 _atom_site_fract_z
 _atom_site_occupancy
  Hf  Hf0  1  0.70893845  0.10356729  0.61514629  1
  Hf  Hf1  1  0.30867914  0.08816598  0.63445157  1
  Hf  Hf2  1  0.90205495  0.51352631  0.61652289  1
  Hf  Hf3  1  -0.00594676  -0.00938780  0.25281939  1
  Hf  Hf4  1  0.41247578  -0.01955233  0.49886798  1
  Hf  Hf5  1  0.39700288  0.60324040  -0.00834363  1
  Hf  Hf6  1  0.30121889  0.30007667  0.37400547  1
  Hf  Hf7  1  0.20303911  0.19401092  0.49546691  1
  Hf  Hf8  1  0.70172984  0.09093566  0.12059604  1
  Hf  Hf9  1  0.39259002  0.39239687  0.00501959  1
  Hf  Hf10  1  0.89956797  0.90875842  0.60778228  1
  Hf  Hf11  1  0.01289520  0.21779259  0.75889020  1
  Hf  Hf12  1  0.00566370  0.40865797  0.49017041  1
  Hf  Hf13  1  0.09966922  0.87524360  0.13403108  1
  Hf  Hf14  1  0.47607289  0.71961087  0.38758821  1
  Hf  Hf15  1  0.09207289  0.68239172  0.84879817  1
  Hf  Hf16  1  0.88871715  0.50459379  0.36287047  1
  Hf  Hf17  1  0.68934575  0.51043818  0.62930234  1
  Hf  Hf18  1  0.30662250  0.08531726  0.36330229  1
  Hf  Hf19  1  0.38812429  0.61320655  0.52356065  1
  Hf  Hf20  1  0.18842365  0.58545807  0.50396051  1
  Hf  Hf21  1  0.30031257  0.50142143  0.37915152  1
  Hf  Hf22  1  0.30688318  0.68210447  0.85159377  1
  Hf  Hf23  1  0.59234595  0.60810612  0.24991612  1
  Hf  Hf24  1  0.10626374  0.10474668  0.87038317  1
  Hf  Hf25  1  0.49800390  0.51283357  0.85301220  1
  Hf  Hf26  1  0.30820052  0.88790316  0.13061796  1
  Hf  Hf27  1  0.40728218  0.19317886  0.50094154  1
  Hf  Hf28  1  0.20904082  -0.01481968  0.50317783  1
  Hf  Hf29  1  0.70117290  0.88852803  0.11868910  1
  Hf  Hf30  1  0.10560016  0.09466780  0.36274601  1
  Hf  Hf31  1  0.42144124  0.20712683  0.24854199  1
  Hf  Hf32  1  0.70078894  0.30602982  0.87899271  1
  Hf  Hf33  1  0.59380445  -0.01613599  -0.01202451  1
  Hf  Hf34  1  0.19853145  0.37081475  0.74646100  1
  Hf  Hf35  1  0.50664086  0.31522392  0.38410471  1
  Hf  Hf36  1  0.30584148  0.09591762  0.86666683  1
  Hf  Hf37  1  0.09382634  0.89245722  0.62737183  1
  Hf  Hf38  1  -0.01926821  0.41342046  0.01336560  1
  Hf  Hf39  1  0.19031477  0.78200530  -0.01903719  1
  Zr  Zr40  1  0.58577428  0.19738857  -0.00588169  1
  Zr  Zr41  1  0.59516754  0.40248155  -0.00450795  1
  Zr  Zr42  1  0.29578668  0.48550576  0.86200222  1
  Zr  Zr43  1  0.60076715  0.19901120  0.75403217  1
  Zr  Zr44  1  0.90104167  0.30464671  0.61600995  1
  Zr  Zr45  1  0.49621789  0.51077359  0.38151624  1
  Zr  Zr46  1  0.70813851  0.09436478  0.88300216  1
  Zr  Zr47  1  -0.00184680  -0.01440010  -0.00403323  1
  Zr  Zr48  1  0.90336877  0.10365519  0.61444320  1
  Zr  Zr49  1  0.30679723  0.09177267  0.13661086  1
  Zr  Zr50  1  0.10875291  0.09239991  0.13610683  1
  Zr  Zr51  1  0.80724550  0.41529836  0.74485239  1
  Zr  Zr52  1  0.00597002  0.20523696  0.48305231  1
  Zr  Zr53  1  0.89793739  0.09989947  0.12553927  1
  Zr  Zr54  1  0.67644700  0.29676031  0.14384852  1
  Zr  Zr55  1  0.20470190  -0.01018885  -0.00652726  1
  Zr  Zr56  1  0.19338571  0.61576667  0.26073983  1
  Zr  Zr57  1  0.42501838  -0.01510968  0.25856160  1
  Zr  Zr58  1  0.49701408  0.49998819  0.12633005  1
  Zr  Zr59  1  0.90580749  0.32450469  0.87856708  1
  Zr  Zr60  1  0.32358972  0.89227653  0.86010645  1
  Zr  Zr61  1  0.68919847  0.69935086  0.38692267  1
  Zr  Zr62  1  0.71469422  0.69999387  0.88197208  1
  Zr  Zr63  1  0.20537854  0.79287321  0.73894585  1
  Zr  Zr64  1  0.08749071  0.67779038  0.63471301  1
  Zr  Zr65  1  0.90566462  0.89789724  0.38747905  1
  Zr  Zr66  1  0.28493090  0.69531301  0.11424111  1
  Zr  Zr67  1  0.50060631  0.71653170  0.12116602  1
  Zr  Zr68  1  0.10140490  0.09838430  0.63452960  1
  Zr  Zr69  1  0.59462716  0.81658220  0.26018039  1
  Zr  Zr70  1  0.09729284  0.51628170  0.13327285  1
  Zr  Zr71  1  0.70308734  0.50039206  0.12846245  1
  Zr  Zr72  1  0.80755223  0.20099480  0.75542306  1
  Zr  Zr73  1  0.31118716  0.86672635  0.36923380  1
  Zr  Zr74  1  0.89270211  0.30386850  0.36329061  1
  Zr  Zr75  1  0.00588833  0.20888883  0.00403070  1
  Zr  Zr76  1  0.90874476  0.70686948  0.13392666  1
  Zr  Zr77  1  0.00855635  0.62066476  -0.00103776  1
  Zr  Zr78  1  0.70799118  0.50486355  0.87324685  1
  Zr  Zr79  1  0.39798766  0.21148974  0.74671530  1
  Ta  Ta80  1  0.39840242  0.40647632  0.24168253  1
  Ta  Ta81  1  0.21703348  0.78440945  0.51719414  1
  Ta  Ta82  1  0.09328988  0.30438204  0.13973129  1
  Ta  Ta83  1  0.28373161  0.28697014  0.88312450  1
  Ta  Ta84  1  0.89660242  0.70990251  0.61552197  1
  Ta  Ta85  1  0.11187594  0.89144581  0.36826250  1
  Ta  Ta86  1  0.89361641  0.89416726  0.12903528  1
  Ta  Ta87  1  -0.00055999  0.20388002  0.25519572  1
  Ta  Ta88  1  0.51091701  0.10062828  0.62598257  1
  Ta  Ta89  1  0.39520937  0.19374379  0.00249132  1
  Ta  Ta90  1  0.61954833  0.79637561  0.73495435  1
  Ta  Ta91  1  0.29471780  0.29917663  0.12844088  1
  Ta  Ta92  1  0.88665239  0.30967630  0.14389056  1
  Ta  Ta93  1  0.90008909  0.70339984  0.37671132  1
  Ta  Ta94  1  0.69745757  0.90907936  0.39291925  1
  Ta  Ta95  1  0.69765543  0.30552230  0.62292550  1
  Ta  Ta96  1  0.79162709  0.61269336  0.25389987  1
  Ta  Ta97  1  0.80204763  0.21727074  0.00694881  1
  Ta  Ta98  1  0.79861489  -0.00393418  0.75092642  1
  Ta  Ta99  1  0.50611632  0.30768109  0.61643591  1
  Ta  Ta100  1  0.89660880  0.50301326  0.15300594  1
  Ta  Ta101  1  0.59704806  0.61205063  -0.00412986  1
  Ta  Ta102  1  0.60685517  -0.00761721  0.75002128  1
  Ta  Ta103  1  0.01202518  0.42176721  0.74495906  1
  Ta  Ta104  1  0.50802132  0.71503099  0.85497680  1
  Ta  Ta105  1  0.68823304  0.48920051  0.36788409  1
  Ta  Ta106  1  0.40788548  0.00011184  -0.00050638  1
  Ta  Ta107  1  0.09879945  0.70950313  0.38493820  1
  Ta  Ta108  1  0.09645331  0.48988897  0.87861482  1
  Ta  Ta109  1  0.70676714  0.88608682  0.87546868  1
  Ta  Ta110  1  0.18737860  0.39622460  0.00698111  1
  Ta  Ta111  1  0.69290658  0.29876799  0.36036359  1
  Ta  Ta112  1  0.49363198  0.49849807  0.63949536  1
  Ta  Ta113  1  0.19779714  0.39175409  0.50142586  1
  Ta  Ta114  1  0.20022898  0.40045146  0.24906275  1
  Ta  Ta115  1  0.78028600  0.39824251  0.49515092  1
  Ta  Ta116  1  0.39055448  0.61227986  0.25097822  1
  Ta  Ta117  1  0.58648661  0.80722442  0.51716708  1
  Ta  Ta118  1  0.79428703  0.79777238  0.50215635  1
  Ta  Ta119  1  0.08246827  0.88723546  0.85746091  1
  Ti  Ti120  1  0.61288736  0.21500516  0.50023228  1
  Ti  Ti121  1  0.50529975  0.90607714  0.12223151  1
  Ti  Ti122  1  0.20191601  0.20302918  0.25171573  1
  Ti  Ti123  1  0.48308495  0.30563436  0.87138204  1
  Ti  Ti124  1  0.59522674  0.39595506  0.75117342  1
  Ti  Ti125  1  0.80504463  -0.00908995  -0.00446725  1
  Ti  Ti126  1  0.90643783  0.73368624  0.86976361  1
  Ti  Ti127  1  0.89985734  0.10300889  0.88101342  1
  Ti  Ti128  1  0.79517260  -0.00533563  0.25835919  1
  Ti  Ti129  1  0.79173069  0.59877898  0.49640972  1
  Ti  Ti130  1  0.59467189  0.60047037  0.50765023  1
  Ti  Ti131  1  0.61161993  0.01072812  0.26069920  1
  Ti  Ti132  1  0.50910007  0.10217199  0.12555530  1
  Ti  Ti133  1  0.60254537  0.00582090  0.50370660  1
  Ti  Ti134  1  0.79306371  0.18815400  0.25118372  1
  Ti  Ti135  1  -0.01165302  -0.00195220  0.75651502  1
  Ti  Ti136  1  0.70795787  0.10644327  0.38747955  1
  Ti  Ti137  1  0.42061566  0.80755244  -0.01230294  1
  Ti  Ti138  1  0.28884591  0.49387199  0.63947622  1
  Ti  Ti139  1  0.79898214  0.80538985  0.26159268  1
  Ti  Ti140  1  0.01168419  0.00031467  0.49053002  1
  Ti  Ti141  1  0.89229527  0.09947027  0.38024381  1
  Ti  Ti142  1  0.29291345  0.50131314  0.12243262  1
  Ti  Ti143  1  0.20239633  -0.00566067  0.75055299  1
  Ti  Ti144  1  0.90264737  0.53003374  0.86995868  1
  Ti  Ti145  1  0.81025362  0.59131177  0.00814438  1
  Ti  Ti146  1  0.39713975  0.40685151  0.51203192  1
  Ti  Ti147  1  -0.00676746  0.60744508  0.48972306  1
  Ti  Ti148  1  0.10186378  0.29786857  0.61923620  1
  Ti  Ti149  1  0.70832849  0.70269633  0.11163595  1
  Ti  Ti150  1  0.80709878  0.81215095  0.73776695  1
  Ti  Ti151  1  0.79389695  0.62458582  0.73953955  1
  Ti  Ti152  1  0.20032228  0.20116158  0.01035693  1
  Ti  Ti153  1  0.09121366  0.49648217  0.36157501  1
  Ti  Ti154  1  0.30322745  0.29655393  0.61863134  1
  Ti  Ti155  1  0.51835062  0.10293921  0.38086185  1
  Ti  Ti156  1  0.49566345  0.08718620  0.86666126  1
  Ti  Ti157  1  0.70276904  0.90515557  0.61392915  1
  Ti  Ti158  1  0.50720322  0.69479193  0.64184485  1
  Ti  Ti159  1  0.49731268  0.90513380  0.64042430  1
  Mo  Mo160  1  0.48527000  0.29204965  0.12416990  1
  Mo  Mo161  1  0.29885019  0.68644119  0.64238772  1
  Mo  Mo162  1  0.20468467  -0.00848562  0.25244041  1
  Mo  Mo163  1  0.10424991  0.30759958  0.88571190  1
  Mo  Mo164  1  0.40179352  0.39138528  0.74022948  1
  Mo  Mo165  1  0.40286064  0.78801090  0.24781636  1
  Mo  Mo166  1  0.60340910  0.79456975  -0.00660460  1
  Mo  Mo167  1  0.10119361  0.70152564  0.12395240  1
  Mo  Mo168  1  0.00844758  0.79529181  0.49858726  1
  Mo  Mo169  1  0.70237525  0.70628290  0.61289729  1
  Mo  Mo170  1  0.51252072  0.89523456  0.85838973  1
  Mo  Mo171  1  0.51234289  0.90478501  0.38733358  1
  Mo  Mo172  1  -0.02271935  0.59944421  0.75072387  1
  Mo  Mo173  1  -0.00130556  0.79031523  0.25903143  1
  Mo  Mo174  1  -0.01484421  0.80512084  0.74178396  1
  Mo  Mo175  1  0.39945758  0.79997210  0.53070242  1
  Mo  Mo176  1  0.60188200  0.18382143  0.25949103  1
  Mo  Mo177  1  0.59840109  0.40852622  0.50720367  1
  Mo  Mo178  1  0.41513912  0.00197313  0.74512084  1
  Mo  Mo179  1  0.80434252  0.40169162  0.01180263  1
  Mo  Mo180  1  0.30577952  0.89556410  0.63444056  1
  Mo  Mo181  1  0.58253806  0.39353504  0.25022841  1
  Mo  Mo182  1  0.29310872  0.69268923  0.38623498  1
  Mo  Mo183  1  0.78784154  0.40233035  0.25557625  1
  Mo  Mo184  1  0.09553447  0.48484220  0.62022007  1
  Mo  Mo185  1  0.81464046  0.80326843  0.00141539  1
  Mo  Mo186  1  0.00054867  0.80861254  -0.00785237  1
  Mo  Mo187  1  0.79279480  0.20885881  0.48992250  1
  Mo  Mo188  1  0.41251182  0.79808396  0.73151141  1
  Mo  Mo189  1  0.20005330  0.79669664  0.25299942  1
  Mo  Mo190  1  0.00177733  0.40161713  0.25074333  1
  Mo  Mo191  1  0.10804250  0.30659283  0.35895288  1
  Mo  Mo192  1  0.60519465  0.60645183  0.74726088  1
  Mo  Mo193  1  -0.00579413  0.60937593  0.26304752  1
  Mo  Mo194  1  0.18184311  0.57000306  0.73935048  1
  Mo  Mo195  1  0.39676129  0.59874496  0.73483550  1
  Mo  Mo196  1  0.20140746  0.58452781  -0.00834016  1
  Mo  Mo197  1  0.19892099  0.19166773  0.74873521  1
  Mo  Mo198  1  0.89149547  0.91050049  0.86749115  1
  Mo  Mo199  1  0.79700700  0.00509367  0.49228919  1
