# generated using pymatgen
data_HfZrTaTiMo
_symmetry_space_group_name_H-M   'P 1'
_cell_length_a   15.21187712
_cell_length_b   15.21168016
_cell_length_c   16.81407014
_cell_angle_alpha   89.97667826
_cell_angle_beta   89.94788141
_cell_angle_gamma   89.89987859
_symmetry_Int_Tables_number   1
_chemical_formula_structural   HfZrTaTiMo
_chemical_formula_sum   'Hf40 Zr40 Ta40 Ti40 Mo40'
_cell_volume   3890.73785251
_cell_formula_units_Z   40
loop_
 _symmetry_equiv_pos_site_id
 _symmetry_equiv_pos_as_xyz
  1  'x, y, z'
loop_
 _atom_site_type_symbol
 _atom_site_label
 _atom_site_symmetry_multiplicity
 _atom_site_fract_x
 _atom_site_fract_y
 _atom_site_fract_z
 _atom_site_occupancy
  Hf  Hf0  1  0.00797751  0.80661021  0.74137162  1
  Hf  Hf1  1  0.10870604  0.10050304  0.62544591  1
  Hf  Hf2  1  0.38028878  0.60475882  0.25910829  1
  Hf  Hf3  1  0.11865580  0.08836026  0.37252898  1
  Hf  Hf4  1  0.89559464  0.50461463  0.39475430  1
  Hf  Hf5  1  0.19555508  0.59804273  -0.00939233  1
  Hf  Hf6  1  0.49800616  0.70581046  0.12615776  1
  Hf  Hf7  1  0.49630128  0.10093519  0.61381052  1
  Hf  Hf8  1  0.00505994  0.20297998  0.74463236  1
  Hf  Hf9  1  0.82515585  0.79333771  0.24336307  1
  Hf  Hf10  1  0.69821449  0.89748157  0.12782618  1
  Hf  Hf11  1  -0.01551819  0.60082310  0.00286009  1
  Hf  Hf12  1  0.48970126  0.69606370  0.38703089  1
  Hf  Hf13  1  0.69700338  0.69745409  0.63485719  1
  Hf  Hf14  1  0.10903017  0.68825358  0.13181559  1
  Hf  Hf15  1  0.69934538  0.89308530  0.64552648  1
  Hf  Hf16  1  0.81245368  0.78547707  0.00295212  1
  Hf  Hf17  1  0.69233415  0.49174252  0.12376843  1
  Hf  Hf18  1  0.11004981  0.30086077  0.35978876  1
  Hf  Hf19  1  0.11613618  0.50939995  0.38111702  1
  Hf  Hf20  1  0.40069989  0.81383405  0.25836543  1
  Hf  Hf21  1  0.89236427  0.70059213  0.63113904  1
  Hf  Hf22  1  0.59885557  0.20409631  0.49689953  1
  Hf  Hf23  1  0.80819960  0.39260583  -0.01102366  1
  Hf  Hf24  1  0.50131225  0.51171723  0.88217620  1
  Hf  Hf25  1  0.08193955  0.89907468  0.36901381  1
  Hf  Hf26  1  0.00574827  0.19590452  0.50516587  1
  Hf  Hf27  1  0.70551660  0.09557414  0.63283988  1
  Hf  Hf28  1  0.79880342  0.81416552  0.49662467  1
  Hf  Hf29  1  0.10568431  0.10398964  0.87539580  1
  Hf  Hf30  1  0.89986390  0.29796890  0.37661342  1
  Hf  Hf31  1  0.79602187  0.59081171  0.25272454  1
  Hf  Hf32  1  0.40609044  0.40985847  0.25606254  1
  Hf  Hf33  1  0.38760854  0.39719905  -0.01357654  1
  Hf  Hf34  1  0.68768087  0.09707907  0.13024946  1
  Hf  Hf35  1  0.11094778  0.89548778  0.88504826  1
  Hf  Hf36  1  0.80631874  0.19429315  0.76082207  1
  Hf  Hf37  1  0.20816563  0.21169096  0.49651497  1
  Hf  Hf38  1  0.57890629  0.00133403  0.75199964  1
  Hf  Hf39  1  0.58757174  -0.00807425  0.26410207  1
  Zr  Zr40  1  0.60239991  0.80152699  -0.00613366  1
  Zr  Zr41  1  0.61981881  -0.00615455  0.48763440  1
  Zr  Zr42  1  0.30418562  0.90267841  0.88599411  1
  Zr  Zr43  1  0.89797041  0.50411548  0.86024992  1
  Zr  Zr44  1  0.00044410  0.18614987  0.24129770  1
  Zr  Zr45  1  0.58302677  0.19364507  -0.00964908  1
  Zr  Zr46  1  0.20609697  0.79889639  0.25558612  1
  Zr  Zr47  1  0.30494735  0.31099185  0.13439251  1
  Zr  Zr48  1  0.57603243  0.58936864  0.73648672  1
  Zr  Zr49  1  0.90671732  0.88589906  0.87645513  1
  Zr  Zr50  1  0.09058770  0.70062559  0.86889526  1
  Zr  Zr51  1  -0.00587229  0.60447843  0.25134067  1
  Zr  Zr52  1  0.80156707  0.19147280  -0.01961948  1
  Zr  Zr53  1  0.78767918  -0.00613573  -0.01566407  1
  Zr  Zr54  1  0.60527665  0.39927172  -0.01398635  1
  Zr  Zr55  1  0.70705390  0.49146485  0.62064899  1
  Zr  Zr56  1  0.60877844  0.79765115  0.26881819  1
  Zr  Zr57  1  0.91130528  0.07291250  0.38199661  1
  Zr  Zr58  1  0.69591046  0.68761038  0.12705381  1
  Zr  Zr59  1  0.79889299  0.20050953  0.50417840  1
  Zr  Zr60  1  0.31817568  0.10790734  0.88588079  1
  Zr  Zr61  1  0.21242704  -0.00271589  0.74572138  1
  Zr  Zr62  1  0.39800656  0.42863316  0.74893046  1
  Zr  Zr63  1  0.21051680  -0.00236882  0.02679399  1
  Zr  Zr64  1  0.60098385  0.79719185  0.48809679  1
  Zr  Zr65  1  0.70896797  0.09901825  0.36951043  1
  Zr  Zr66  1  0.20764220  0.20952325  0.01162211  1
  Zr  Zr67  1  0.10489999  0.69752030  0.62390245  1
  Zr  Zr68  1  0.69856397  0.70047857  0.85320672  1
  Zr  Zr69  1  0.48302064  0.69389786  0.61179564  1
  Zr  Zr70  1  0.71064839  0.29383369  0.13001729  1
  Zr  Zr71  1  0.09917102  0.48978893  0.86142169  1
  Zr  Zr72  1  0.00423692  0.20821225  0.00896686  1
  Zr  Zr73  1  0.48822326  0.90034154  0.60735063  1
  Zr  Zr74  1  0.29892129  0.29623028  0.64170667  1
  Zr  Zr75  1  0.40161147  0.81132862  0.74753792  1
  Zr  Zr76  1  -0.00330528  0.00352743  0.01487385  1
  Zr  Zr77  1  0.49618260  0.50750297  0.11486143  1
  Zr  Zr78  1  0.01463432  0.39578077  0.50501311  1
  Zr  Zr79  1  0.50348747  0.29282658  0.13028052  1
  Ta  Ta80  1  0.19259680  0.40026623  -0.00078258  1
  Ta  Ta81  1  0.80566512  0.39874682  0.25317009  1
  Ta  Ta82  1  0.89273751  0.30667705  0.62576783  1
  Ta  Ta83  1  0.70127328  0.49278770  0.38795982  1
  Ta  Ta84  1  -0.00498196  0.81354095  0.50766064  1
  Ta  Ta85  1  0.39537859  0.39174882  0.50264050  1
  Ta  Ta86  1  0.89570136  0.49449373  0.12196010  1
  Ta  Ta87  1  0.28511011  0.91760134  0.38815391  1
  Ta  Ta88  1  0.28263573  0.69364033  0.39135266  1
  Ta  Ta89  1  0.80266578  -0.00217983  0.77079411  1
  Ta  Ta90  1  0.10339724  0.30534413  0.14165349  1
  Ta  Ta91  1  0.90399284  0.50412307  0.62185854  1
  Ta  Ta92  1  -0.00240822  0.00657142  0.75516842  1
  Ta  Ta93  1  0.39520136  0.61352910  -0.00647437  1
  Ta  Ta94  1  0.71214722  0.68640271  0.38048340  1
  Ta  Ta95  1  0.69496470  0.29696921  0.64036510  1
  Ta  Ta96  1  0.37941914  0.01316642  0.25424471  1
  Ta  Ta97  1  0.49902511  0.49393862  0.38850364  1
  Ta  Ta98  1  0.09241450  0.70354104  0.37951647  1
  Ta  Ta99  1  0.40012159  0.20538192  0.49883451  1
  Ta  Ta100  1  0.60130829  0.59138388  0.50138641  1
  Ta  Ta101  1  0.50442374  0.30600641  0.64043938  1
  Ta  Ta102  1  0.89746550  0.91109640  0.63392763  1
  Ta  Ta103  1  0.21172684  0.79446962  0.74254552  1
  Ta  Ta104  1  0.70216374  0.30654176  0.37114956  1
  Ta  Ta105  1  0.09857245  0.49095813  0.12754772  1
  Ta  Ta106  1  0.10938503  0.49898807  0.62765372  1
  Ta  Ta107  1  0.49178279  0.29022114  0.85215511  1
  Ta  Ta108  1  0.00991595  0.79878527  0.02171705  1
  Ta  Ta109  1  0.29042066  0.51473606  0.11978808  1
  Ta  Ta110  1  0.78358340  0.59141938  -0.00615137  1
  Ta  Ta111  1  0.59954881  0.39152623  0.50299317  1
  Ta  Ta112  1  0.59405177  0.19839209  0.25917924  1
  Ta  Ta113  1  0.59043921  0.58990279  0.26558413  1
  Ta  Ta114  1  0.50087714  0.30092631  0.37206971  1
  Ta  Ta115  1  0.21937349  0.18341903  0.24213372  1
  Ta  Ta116  1  0.49713572  0.91196325  0.88019388  1
  Ta  Ta117  1  0.48519482  0.10220722  0.37991101  1
  Ta  Ta118  1  0.91476753  0.30220105  0.86754149  1
  Ta  Ta119  1  0.80699117  -0.00861395  0.24543611  1
  Ti  Ti120  1  0.30590093  0.29939149  0.36634186  1
  Ti  Ti121  1  0.80152134  0.39913743  0.75021363  1
  Ti  Ti122  1  0.89529575  0.69085165  0.85100823  1
  Ti  Ti123  1  0.49158441  0.91706497  0.12490890  1
  Ti  Ti124  1  0.30023600  0.71079489  0.11827050  1
  Ti  Ti125  1  0.38549085  0.58659217  0.49453507  1
  Ti  Ti126  1  0.80225995  0.19770258  0.25224012  1
  Ti  Ti127  1  -0.00353951  0.40523123  0.25164537  1
  Ti  Ti128  1  0.29640077  0.89917548  0.60408105  1
  Ti  Ti129  1  0.47891376  0.90616493  0.39281273  1
  Ti  Ti130  1  0.69866230  0.50257781  0.85906001  1
  Ti  Ti131  1  0.49488919  0.71111009  0.87946905  1
  Ti  Ti132  1  0.88864368  0.09677184  0.12562291  1
  Ti  Ti133  1  0.90713395  0.71008535  0.38381130  1
  Ti  Ti134  1  0.30288807  0.09050065  0.61645566  1
  Ti  Ti135  1  0.10917725  0.29993025  0.86380681  1
  Ti  Ti136  1  0.90163614  0.09471646  0.62369203  1
  Ti  Ti137  1  0.11112397  0.89315533  0.13343092  1
  Ti  Ti138  1  0.58974318  0.00139695  -0.00449690  1
  Ti  Ti139  1  0.29486147  0.70136552  0.60996148  1
  Ti  Ti140  1  0.29522139  0.50518971  0.61990264  1
  Ti  Ti141  1  0.00565589  0.39727738  0.00213991  1
  Ti  Ti142  1  0.40135297  0.17846224  0.74563295  1
  Ti  Ti143  1  0.29260913  0.71099562  0.88342774  1
  Ti  Ti144  1  0.00190614  0.40205091  0.73752300  1
  Ti  Ti145  1  0.10232217  0.90678424  0.61998823  1
  Ti  Ti146  1  0.38048285  0.61891310  0.76049877  1
  Ti  Ti147  1  0.33099971  0.10579803  0.11809418  1
  Ti  Ti148  1  0.20434710  0.59560973  0.75414351  1
  Ti  Ti149  1  0.69142193  0.30308453  0.85472514  1
  Ti  Ti150  1  0.90468748  0.30341142  0.12994457  1
  Ti  Ti151  1  0.39538265  0.81605512  0.00832540  1
  Ti  Ti152  1  0.00161506  0.60912461  0.50451188  1
  Ti  Ti153  1  0.18990010  0.80209934  0.49673080  1
  Ti  Ti154  1  -0.00262844  -0.01676605  0.23014879  1
  Ti  Ti155  1  0.11143414  0.30609981  0.63382567  1
  Ti  Ti156  1  0.68083840  0.09784253  0.86481373  1
  Ti  Ti157  1  0.60669542  0.40241070  0.25797998  1
  Ti  Ti158  1  0.20726481  0.41765407  0.25117627  1
  Ti  Ti159  1  0.29307928  0.30704740  0.85667137  1
  Mo  Mo160  1  0.80206106  0.80530593  0.74982674  1
  Mo  Mo161  1  0.59731626  0.20048090  0.74929570  1
  Mo  Mo162  1  0.40417561  0.21049756  -0.00633173  1
  Mo  Mo163  1  0.19228928  -0.00221288  0.50617366  1
  Mo  Mo164  1  0.20492455  0.20302653  0.75148232  1
  Mo  Mo165  1  0.29733007  0.51125738  0.87780001  1
  Mo  Mo166  1  0.80265444  0.59142936  0.74529177  1
  Mo  Mo167  1  0.90310736  0.89443931  0.37208171  1
  Mo  Mo168  1  0.49481873  0.49217557  0.60241864  1
  Mo  Mo169  1  0.81183830  -0.00534978  0.50994728  1
  Mo  Mo170  1  0.49537294  0.10063860  0.87075334  1
  Mo  Mo171  1  0.31118177  0.89739045  0.12689692  1
  Mo  Mo172  1  0.38084005  0.79888113  0.49040043  1
  Mo  Mo173  1  0.10582348  0.10095371  0.13780666  1
  Mo  Mo174  1  0.20358992  0.59730013  0.25101165  1
  Mo  Mo175  1  0.39067521  0.00004720  0.74185063  1
  Mo  Mo176  1  0.19547825  0.59906813  0.50511252  1
  Mo  Mo177  1  0.00194270  0.80025526  0.23486205  1
  Mo  Mo178  1  0.30141537  0.49185957  0.38372352  1
  Mo  Mo179  1  0.41710444  0.00968644  0.01082170  1
  Mo  Mo180  1  0.90130623  0.68810645  0.11773185  1
  Mo  Mo181  1  0.19927078  0.40481335  0.74949053  1
  Mo  Mo182  1  0.60033010  0.39852953  0.75294395  1
  Mo  Mo183  1  0.59106323  0.80191903  0.76049819  1
  Mo  Mo184  1  0.40489954  0.19961297  0.25833756  1
  Mo  Mo185  1  0.90142665  0.90081746  0.11684548  1
  Mo  Mo186  1  0.20348224  0.79540609  0.01147023  1
  Mo  Mo187  1  0.38999601  0.00882487  0.49186104  1
  Mo  Mo188  1  0.79793436  0.39518200  0.50651907  1
  Mo  Mo189  1  0.72485046  0.89701780  0.36393954  1
  Mo  Mo190  1  0.50279642  0.09774427  0.13479870  1
  Mo  Mo191  1  -0.00140386  -0.00629824  0.51050230  1
  Mo  Mo192  1  0.69063645  0.89813741  0.86118843  1
  Mo  Mo193  1  0.80369724  0.60369241  0.49685108  1
  Mo  Mo194  1  0.00149933  0.59390401  0.73532599  1
  Mo  Mo195  1  0.29938635  0.10624227  0.37840874  1
  Mo  Mo196  1  0.21421670  0.40417711  0.49895435  1
  Mo  Mo197  1  0.59920035  0.60583239  -0.00976207  1
  Mo  Mo198  1  0.20046544  0.00089690  0.23442830  1
  Mo  Mo199  1  0.90922249  0.10139409  0.87138700  1
