# generated using pymatgen
data_HfZrTaTiMo
_symmetry_space_group_name_H-M   'P 1'
_cell_length_a   15.19921325
_cell_length_b   15.19940158
_cell_length_c   16.88475770
_cell_angle_alpha   90.01021631
_cell_angle_beta   90.03248350
_cell_angle_gamma   90.09776718
_symmetry_Int_Tables_number   1
_chemical_formula_structural   HfZrTaTiMo
_chemical_formula_sum   'Hf40 Zr40 Ta40 Ti40 Mo40'
_cell_volume   3900.69255828
_cell_formula_units_Z   40
loop_
 _symmetry_equiv_pos_site_id
 _symmetry_equiv_pos_as_xyz
  1  'x, y, z'
loop_
 _atom_site_type_symbol
 _atom_site_label
 _atom_site_symmetry_multiplicity
 _atom_site_fract_x
 _atom_site_fract_y
 _atom_site_fract_z
 _atom_site_occupancy
  Hf  Hf0  1  0.39290204  0.40477876  -0.00398095  1
  Hf  Hf1  1  0.70444999  0.51632494  0.87422710  1
  Hf  Hf2  1  0.79406262  0.61841664  0.25167947  1
  Hf  Hf3  1  0.60191989  0.61988255  0.50968624  1
  Hf  Hf4  1  0.58614216  0.61817391  -0.00098425  1
  Hf  Hf5  1  0.29400023  0.30572244  0.62535634  1
  Hf  Hf6  1  0.71612590  0.71883790  0.12203552  1
  Hf  Hf7  1  0.50843594  0.28330642  0.37375155  1
  Hf  Hf8  1  0.21578905  0.19312551  0.23541179  1
  Hf  Hf9  1  -0.00296416  -0.01031120  0.22959855  1
  Hf  Hf10  1  -0.00917513  0.01693829  0.75784954  1
  Hf  Hf11  1  0.20298349  -0.00507801  0.49723664  1
  Hf  Hf12  1  0.70290140  0.10298654  0.12877256  1
  Hf  Hf13  1  0.29939603  0.70476613  0.13727721  1
  Hf  Hf14  1  0.68511744  0.50464854  0.12300082  1
  Hf  Hf15  1  -0.00956849  0.18980865  0.23176211  1
  Hf  Hf16  1  -0.00145744  0.60299642  0.01024575  1
  Hf  Hf17  1  0.70021916  0.07951936  0.87361646  1
  Hf  Hf18  1  0.41730985  0.58443799  0.24762676  1
  Hf  Hf19  1  0.89078669  0.49930776  0.12463277  1
  Hf  Hf20  1  0.28922849  0.69320635  0.62723100  1
  Hf  Hf21  1  0.41242565  0.78074007  -0.00849533  1
  Hf  Hf22  1  0.69814735  0.28724431  0.87706718  1
  Hf  Hf23  1  0.10442903  0.50202360  0.12212624  1
  Hf  Hf24  1  0.30436055  0.49247646  0.12844093  1
  Hf  Hf25  1  0.38461389  0.60105383  0.49167318  1
  Hf  Hf26  1  0.18823847  0.38611363  0.75996955  1
  Hf  Hf27  1  0.31389772  0.90651218  0.11183324  1
  Hf  Hf28  1  -0.00376187  0.80577416  0.74660867  1
  Hf  Hf29  1  0.31816154  0.10514340  0.37698282  1
  Hf  Hf30  1  0.80124281  0.38568069  0.49662979  1
  Hf  Hf31  1  0.58699769  0.61129730  0.74374410  1
  Hf  Hf32  1  -0.00448699  0.40339054  0.25411302  1
  Hf  Hf33  1  0.10725865  0.88454617  0.10969177  1
  Hf  Hf34  1  0.40728910  -0.00375437  0.75239106  1
  Hf  Hf35  1  0.20550009  0.00658026  0.76265789  1
  Hf  Hf36  1  0.51073190  0.90578255  0.88180816  1
  Hf  Hf37  1  0.18969337  0.60108750  0.48882852  1
  Hf  Hf38  1  0.47644003  0.50157642  0.61658081  1
  Hf  Hf39  1  0.10305249  0.30788133  0.12452434  1
  Zr  Zr40  1  0.10532873  0.29566665  0.35990213  1
  Zr  Zr41  1  -0.00349911  0.19366591  0.01768139  1
  Zr  Zr42  1  0.89150522  0.72531159  0.38184875  1
  Zr  Zr43  1  0.19740657  0.20147449  0.49442437  1
  Zr  Zr44  1  0.19604575  0.59145696  0.75505091  1
  Zr  Zr45  1  0.10045443  0.90652153  0.63294391  1
  Zr  Zr46  1  0.09486368  0.08623117  0.36919329  1
  Zr  Zr47  1  0.40988391  0.19533523  0.01000174  1
  Zr  Zr48  1  0.29248429  0.70750193  0.35256052  1
  Zr  Zr49  1  0.30358841  0.89304016  0.62456194  1
  Zr  Zr50  1  0.59613359  0.40252142  0.75665349  1
  Zr  Zr51  1  0.51508404  0.70750349  0.36807785  1
  Zr  Zr52  1  0.48792245  0.48463673  0.39039411  1
  Zr  Zr53  1  0.89269739  0.69554282  0.86615288  1
  Zr  Zr54  1  0.09395784  0.67975841  0.87323666  1
  Zr  Zr55  1  0.00901587  0.41412038  0.48257323  1
  Zr  Zr56  1  0.89227700  0.10166078  0.37363337  1
  Zr  Zr57  1  0.40047202  0.78574297  0.76782850  1
  Zr  Zr58  1  0.59326688  0.40606387  -0.01142523  1
  Zr  Zr59  1  0.00251787  0.42525938  0.76294554  1
  Zr  Zr60  1  0.60360286  0.18631449  0.50579418  1
  Zr  Zr61  1  0.49435733  0.29332303  0.87049080  1
  Zr  Zr62  1  0.80991354  0.39639829  0.75893774  1
  Zr  Zr63  1  0.39154981  0.19387838  0.74725668  1
  Zr  Zr64  1  0.82200319  0.18264936  0.76513790  1
  Zr  Zr65  1  0.80812801  -0.00948516  0.50280686  1
  Zr  Zr66  1  0.21181042  0.40791999  0.49135057  1
  Zr  Zr67  1  0.69314547  0.49166755  0.62301103  1
  Zr  Zr68  1  0.50275705  0.09208150  0.13063211  1
  Zr  Zr69  1  0.68729190  0.50328598  0.37887416  1
  Zr  Zr70  1  0.89641756  0.51314760  0.37512640  1
  Zr  Zr71  1  0.78280908  0.39040821  0.25236874  1
  Zr  Zr72  1  0.20581358  -0.01210712  0.24696596  1
  Zr  Zr73  1  0.71640793  0.28460385  0.63570098  1
  Zr  Zr74  1  0.10228891  0.11842626  0.88237144  1
  Zr  Zr75  1  0.00251123  0.62398662  0.50571710  1
  Zr  Zr76  1  0.79581423  -0.00878428  0.25210725  1
  Zr  Zr77  1  0.38827074  0.41585496  0.75806166  1
  Zr  Zr78  1  -0.01152063  0.21090449  0.49892915  1
  Zr  Zr79  1  0.70556516  0.87454712  0.38541650  1
  Ta  Ta80  1  0.60068362  0.80841061  0.74592308  1
  Ta  Ta81  1  0.28471669  0.50335589  0.88762152  1
  Ta  Ta82  1  0.10471184  0.11741262  0.63387086  1
  Ta  Ta83  1  0.90524400  0.49444243  0.61876934  1
  Ta  Ta84  1  0.60414359  -0.00406032  0.74101871  1
  Ta  Ta85  1  0.50103989  0.29860787  0.62777879  1
  Ta  Ta86  1  0.69864726  0.71547994  0.86988886  1
  Ta  Ta87  1  0.30164054  0.09748594  0.62066452  1
  Ta  Ta88  1  0.79533540  -0.01253029  0.00356521  1
  Ta  Ta89  1  0.40741945  0.00239709  0.25361472  1
  Ta  Ta90  1  0.20708082  0.79267015  -0.01962786  1
  Ta  Ta91  1  0.30443179  0.89886417  0.37482216  1
  Ta  Ta92  1  0.79856301  0.18791785  -0.00355388  1
  Ta  Ta93  1  0.50315713  0.90459570  0.61784704  1
  Ta  Ta94  1  0.80443872  0.60165204  0.73470517  1
  Ta  Ta95  1  0.49120939  0.71532173  0.61944156  1
  Ta  Ta96  1  0.79717118  0.60532010  0.51171949  1
  Ta  Ta97  1  0.18841903  0.79346170  0.49648109  1
  Ta  Ta98  1  0.20301755  0.80138625  0.77425215  1
  Ta  Ta99  1  0.28188918  0.28892790  0.88110369  1
  Ta  Ta100  1  0.88625675  0.90184669  0.87775048  1
  Ta  Ta101  1  0.31829505  0.30650462  0.37150875  1
  Ta  Ta102  1  0.09306724  0.90021675  0.88294899  1
  Ta  Ta103  1  0.90308473  0.11183177  0.62383507  1
  Ta  Ta104  1  0.91493287  0.29838225  0.89142603  1
  Ta  Ta105  1  0.50098730  0.31311463  0.12734339  1
  Ta  Ta106  1  0.21105083  0.20062539  0.01749163  1
  Ta  Ta107  1  0.80254809  0.39865488  -0.00471068  1
  Ta  Ta108  1  0.00107498  0.60778168  0.24395917  1
  Ta  Ta109  1  0.31119321  0.09415819  0.88859954  1
  Ta  Ta110  1  0.60001230  0.00654190  0.00393319  1
  Ta  Ta111  1  0.40631367  0.20005762  0.51029306  1
  Ta  Ta112  1  0.08688877  0.31125296  0.62395897  1
  Ta  Ta113  1  0.88888277  0.88052272  0.11600760  1
  Ta  Ta114  1  0.70615798  0.08253840  0.62882484  1
  Ta  Ta115  1  0.39809494  0.80523514  0.49264941  1
  Ta  Ta116  1  0.10599416  0.50899203  0.62449367  1
  Ta  Ta117  1  -0.00996801  -0.00429195  0.00283862  1
  Ta  Ta118  1  0.79297740  0.80276110  0.73512872  1
  Ta  Ta119  1  0.58331909  0.40734391  0.24721247  1
  Ti  Ti120  1  0.00452556  0.00832464  0.51107141  1
  Ti  Ti121  1  0.60506835  0.20455492  0.24911582  1
  Ti  Ti122  1  0.59926941  -0.00225128  0.50117414  1
  Ti  Ti123  1  0.09740333  0.70041064  0.35714357  1
  Ti  Ti124  1  0.68002395  0.09537187  0.36507603  1
  Ti  Ti125  1  0.79400318  0.20009883  0.24963790  1
  Ti  Ti126  1  0.21062726  0.60226705  0.00326041  1
  Ti  Ti127  1  -0.00402850  0.79713725  0.24111103  1
  Ti  Ti128  1  0.40582556  0.20314923  0.23824627  1
  Ti  Ti129  1  0.79873562  0.61117891  0.00242159  1
  Ti  Ti130  1  0.90664572  0.50524764  0.88616129  1
  Ti  Ti131  1  0.01247165  0.22276996  0.75466055  1
  Ti  Ti132  1  0.47560195  0.53572517  0.87497864  1
  Ti  Ti133  1  0.59645983  0.18475687  0.74007118  1
  Ti  Ti134  1  0.79984119  -0.01354136  0.74254925  1
  Ti  Ti135  1  0.20603991  -0.00204682  -0.00760208  1
  Ti  Ti136  1  0.69473477  0.90643815  0.13144846  1
  Ti  Ti137  1  0.20843346  0.39855791  0.25136700  1
  Ti  Ti138  1  0.89015045  0.29640104  0.36620446  1
  Ti  Ti139  1  0.69734061  0.88507717  0.61219376  1
  Ti  Ti140  1  -0.00565348  0.79595013  -0.00423466  1
  Ti  Ti141  1  0.29347017  0.49967663  0.35754814  1
  Ti  Ti142  1  0.50966302  0.89417087  0.12179537  1
  Ti  Ti143  1  0.50855063  0.10384108  0.88107884  1
  Ti  Ti144  1  0.59788295  0.38451188  0.50401675  1
  Ti  Ti145  1  0.41058382  0.81519992  0.24981490  1
  Ti  Ti146  1  0.50981260  0.69906080  0.13876198  1
  Ti  Ti147  1  0.91653341  0.90782492  0.37453316  1
  Ti  Ti148  1  0.10507092  0.88371614  0.37119829  1
  Ti  Ti149  1  0.89611273  0.71250288  0.62359820  1
  Ti  Ti150  1  0.41168834  0.00624349  0.49806654  1
  Ti  Ti151  1  0.79234563  0.19241773  0.49441161  1
  Ti  Ti152  1  0.10583793  0.70022682  0.13002477  1
  Ti  Ti153  1  0.69141054  0.29887946  0.11084629  1
  Ti  Ti154  1  0.50448967  0.91040768  0.37718903  1
  Ti  Ti155  1  0.62160817  0.81348723  -0.00296454  1
  Ti  Ti156  1  -0.00691301  0.82055475  0.51471180  1
  Ti  Ti157  1  0.11112952  0.08737505  0.11622224  1
  Ti  Ti158  1  0.61714846  0.79921374  0.25083127  1
  Ti  Ti159  1  0.88448008  0.29545364  0.11984810  1
  Mo  Mo160  1  -0.00969315  0.39889003  0.00801898  1
  Mo  Mo161  1  0.30631010  0.68619465  0.87904238  1
  Mo  Mo162  1  0.19416321  0.80309215  0.24732658  1
  Mo  Mo163  1  0.91218410  0.70104224  0.12407017  1
  Mo  Mo164  1  0.80470216  0.79930591  -0.00607906  1
  Mo  Mo165  1  0.70272491  0.89553974  0.86887827  1
  Mo  Mo166  1  0.29001938  0.49958507  0.62378897  1
  Mo  Mo167  1  0.19966027  0.39376124  0.00164748  1
  Mo  Mo168  1  0.79376241  0.78640311  0.52026310  1
  Mo  Mo169  1  0.09946448  0.48322465  0.90768425  1
  Mo  Mo170  1  0.51320756  0.70362632  0.87550257  1
  Mo  Mo171  1  0.50105612  0.09379287  0.62557005  1
  Mo  Mo172  1  0.10603925  0.51291158  0.35363370  1
  Mo  Mo173  1  0.40682331  -0.00671510  -0.00437308  1
  Mo  Mo174  1  0.10012330  0.30405916  0.89371680  1
  Mo  Mo175  1  0.39699343  0.60298522  0.01149522  1
  Mo  Mo176  1  0.60259972  0.60412750  0.24427342  1
  Mo  Mo177  1  0.39289966  0.60227292  0.74794620  1
  Mo  Mo178  1  0.19418616  0.59601592  0.24709590  1
  Mo  Mo179  1  0.59144610  -0.01300822  0.25266359  1
  Mo  Mo180  1  0.40283640  0.38647226  0.50402632  1
  Mo  Mo181  1  0.39805396  0.38668651  0.24821562  1
  Mo  Mo182  1  0.09857226  0.71141319  0.62911146  1
  Mo  Mo183  1  0.69617035  0.70093321  0.63257047  1
  Mo  Mo184  1  0.58924281  0.80816862  0.50445111  1
  Mo  Mo185  1  0.91050394  0.30213057  0.62678708  1
  Mo  Mo186  1  0.89875163  0.09340364  0.88492843  1
  Mo  Mo187  1  -0.00917988  0.61190418  0.72125671  1
  Mo  Mo188  1  0.70127789  0.69600278  0.37685320  1
  Mo  Mo189  1  0.70029751  0.28949334  0.37299266  1
  Mo  Mo190  1  0.19672622  0.19758846  0.74986402  1
  Mo  Mo191  1  0.30500318  0.29822482  0.12855978  1
  Mo  Mo192  1  0.60923673  0.19867494  0.00390274  1
  Mo  Mo193  1  0.30261314  0.09255983  0.11735208  1
  Mo  Mo194  1  0.89231790  0.91451334  0.62884073  1
  Mo  Mo195  1  0.50499477  0.09318778  0.36710338  1
  Mo  Mo196  1  0.89281843  0.08951309  0.11974190  1
  Mo  Mo197  1  0.81150055  0.80955729  0.24956127  1
  Mo  Mo198  1  0.50015638  0.50459228  0.12336035  1
  Mo  Mo199  1  0.29770293  0.90135729  0.88686177  1
