# generated using pymatgen
data_HfZrTaTiMo
_symmetry_space_group_name_H-M   'P 1'
_cell_length_a   15.22025277
_cell_length_b   15.20920835
_cell_length_c   16.84982932
_cell_angle_alpha   89.98382890
_cell_angle_beta   89.96796268
_cell_angle_gamma   89.97274462
_symmetry_Int_Tables_number   1
_chemical_formula_structural   HfZrTaTiMo
_chemical_formula_sum   'Hf40 Zr40 Ta40 Ti40 Mo40'
_cell_volume   3900.53200952
_cell_formula_units_Z   40
loop_
 _symmetry_equiv_pos_site_id
 _symmetry_equiv_pos_as_xyz
  1  'x, y, z'
loop_
 _atom_site_type_symbol
 _atom_site_label
 _atom_site_symmetry_multiplicity
 _atom_site_fract_x
 _atom_site_fract_y
 _atom_site_fract_z
 _atom_site_occupancy
  Hf  Hf0  1  0.08879183  0.49727070  0.11494635  1
  Hf  Hf1  1  0.92276651  0.88856258  0.38047784  1
  Hf  Hf2  1  0.30257041  0.70358791  0.87780469  1
  Hf  Hf3  1  -0.00552029  0.61421938  0.51273262  1
  Hf  Hf4  1  0.29585748  0.49035744  0.13788298  1
  Hf  Hf5  1  0.19412597  0.19030812  0.74428100  1
  Hf  Hf6  1  0.39765217  0.18578972  0.25201664  1
  Hf  Hf7  1  0.39754101  0.80029537  0.25368011  1
  Hf  Hf8  1  0.60425064  0.00780927  0.51811376  1
  Hf  Hf9  1  0.09174133  0.08132245  0.61076223  1
  Hf  Hf10  1  0.09053378  0.10854560  0.38812364  1
  Hf  Hf11  1  0.08995177  0.50121439  0.88401974  1
  Hf  Hf12  1  0.60025084  0.01089812  0.24448277  1
  Hf  Hf13  1  0.50216351  0.90289113  0.38255283  1
  Hf  Hf14  1  0.27785357  0.89661800  0.62191733  1
  Hf  Hf15  1  0.50583122  0.48077369  0.62237860  1
  Hf  Hf16  1  0.61113041  0.80099987  0.50419533  1
  Hf  Hf17  1  0.29570249  0.09607220  0.12038262  1
  Hf  Hf18  1  0.80074316  0.20435294  0.73752005  1
  Hf  Hf19  1  0.30443304  0.90312153  0.11349024  1
  Hf  Hf20  1  0.39056973  0.19294383  -0.00651377  1
  Hf  Hf21  1  0.89455509  0.10334601  0.36730425  1
  Hf  Hf22  1  0.80725890  0.79589712  0.49807025  1
  Hf  Hf23  1  0.38679975  0.59304800  0.73851443  1
  Hf  Hf24  1  0.18087360  0.60024759  0.24559681  1
  Hf  Hf25  1  0.49805247  0.69258365  0.38246542  1
  Hf  Hf26  1  0.41511901  0.59762739  0.00674857  1
  Hf  Hf27  1  0.28495152  0.69762077  0.37572525  1
  Hf  Hf28  1  0.41921314  0.19628823  0.51644844  1
  Hf  Hf29  1  0.07371782  0.71628788  0.37923101  1
  Hf  Hf30  1  0.91446713  0.29317699  0.13675492  1
  Hf  Hf31  1  0.19608092  0.80380429  0.75914954  1
  Hf  Hf32  1  0.50384333  0.69597072  0.62549032  1
  Hf  Hf33  1  0.10040281  0.90391998  0.10477424  1
  Hf  Hf34  1  0.20149632  0.40798738  0.74831831  1
  Hf  Hf35  1  0.19760159  0.60629790  0.00379286  1
  Hf  Hf36  1  0.01719560  0.40872525  0.25672406  1
  Hf  Hf37  1  0.50027339  0.09497199  0.86992282  1
  Hf  Hf38  1  0.69738650  0.50929693  0.11914289  1
  Hf  Hf39  1  0.49654079  0.29307614  0.13464151  1
  Zr  Zr40  1  0.90459373  0.10028637  0.85847091  1
  Zr  Zr41  1  0.90728948  0.29351194  0.36331128  1
  Zr  Zr42  1  0.89753527  0.50249903  0.88084990  1
  Zr  Zr43  1  0.78025737  0.58913169  0.50909926  1
  Zr  Zr44  1  0.18177841  0.81491188  0.25410570  1
  Zr  Zr45  1  0.89720954  0.50506455  0.38152032  1
  Zr  Zr46  1  0.19128196  0.37924522  -0.00473549  1
  Zr  Zr47  1  0.60527798  0.19301598  0.00264875  1
  Zr  Zr48  1  0.29706824  0.70421125  0.12521804  1
  Zr  Zr49  1  0.81489667  0.18078240  0.00164820  1
  Zr  Zr50  1  0.09687925  0.31363090  0.61222656  1
  Zr  Zr51  1  0.29107779  0.48691447  0.36448938  1
  Zr  Zr52  1  0.61763349  0.39377596  0.25639077  1
  Zr  Zr53  1  0.21191483  0.00882560  0.26757397  1
  Zr  Zr54  1  0.50041477  0.50313806  0.36980905  1
  Zr  Zr55  1  0.50996507  0.30185624  0.87172850  1
  Zr  Zr56  1  0.69458334  0.49818771  0.87725194  1
  Zr  Zr57  1  0.30060923  0.49606487  0.87741613  1
  Zr  Zr58  1  0.29539691  0.09171947  0.62567594  1
  Zr  Zr59  1  0.39021953  0.79783526  0.50580980  1
  Zr  Zr60  1  0.59467434  0.40971116  0.00643572  1
  Zr  Zr61  1  -0.01520933  0.01222848  0.00215402  1
  Zr  Zr62  1  0.09674691  0.11433672  0.13147790  1
  Zr  Zr63  1  -0.00460463  0.41116061  0.74076444  1
  Zr  Zr64  1  0.70718973  0.89249425  0.11869388  1
  Zr  Zr65  1  0.50894677  0.10010290  0.38027510  1
  Zr  Zr66  1  0.51265668  0.29191349  0.37157553  1
  Zr  Zr67  1  0.71108311  0.29721129  0.12087378  1
  Zr  Zr68  1  0.78921603  0.61666333  -0.00314138  1
  Zr  Zr69  1  0.89797984  0.70694954  0.63696729  1
  Zr  Zr70  1  0.61151064  0.80930733  0.25974101  1
  Zr  Zr71  1  0.39571241  0.39438769  0.00301427  1
  Zr  Zr72  1  0.70149104  0.71109949  0.86161066  1
  Zr  Zr73  1  0.21224687  0.21129019  0.49620331  1
  Zr  Zr74  1  0.40792850  0.19009568  0.74099920  1
  Zr  Zr75  1  0.50668934  0.69636126  0.86571251  1
  Zr  Zr76  1  0.50422107  0.89274176  0.86344613  1
  Zr  Zr77  1  0.38473452  0.58467158  0.51074192  1
  Zr  Zr78  1  0.00946888  -0.01348589  0.25285954  1
  Zr  Zr79  1  0.80199413  0.00236065  0.49850832  1
  Ta  Ta80  1  0.28820297  0.28919060  0.13213239  1
  Ta  Ta81  1  0.90426797  0.30330565  0.87292848  1
  Ta  Ta82  1  0.39727708  0.38648825  0.49568809  1
  Ta  Ta83  1  0.62096300  0.20829329  0.51831117  1
  Ta  Ta84  1  0.39393752  0.79741847  0.74056764  1
  Ta  Ta85  1  0.61641732  0.40804370  0.48857670  1
  Ta  Ta86  1  -0.00968012  0.61028029  0.00365217  1
  Ta  Ta87  1  0.30832921  0.31367623  0.62884987  1
  Ta  Ta88  1  0.40958504  0.39237258  0.74935680  1
  Ta  Ta89  1  0.50855391  0.70354657  0.12792187  1
  Ta  Ta90  1  0.79366670  0.59788188  0.24968639  1
  Ta  Ta91  1  0.01050743  0.81541257  0.74735447  1
  Ta  Ta92  1  0.79369926  -0.01423257  0.26325699  1
  Ta  Ta93  1  0.49608398  0.90249001  0.63641366  1
  Ta  Ta94  1  0.50248698  0.50220886  0.86398995  1
  Ta  Ta95  1  0.71042487  0.29569586  0.87252766  1
  Ta  Ta96  1  0.09195519  0.29325713  0.86684305  1
  Ta  Ta97  1  0.89598160  0.50008058  0.12114767  1
  Ta  Ta98  1  -0.01675597  0.61413231  0.24473836  1
  Ta  Ta99  1  0.29592105  0.28633201  0.86277383  1
  Ta  Ta100  1  0.40436719  -0.00813456  0.24888275  1
  Ta  Ta101  1  0.80676409  0.59331922  0.74490153  1
  Ta  Ta102  1  0.70119652  0.68721520  0.37704458  1
  Ta  Ta103  1  0.59893297  0.00887197  0.73923973  1
  Ta  Ta104  1  0.60403641  0.20891648  0.73146805  1
  Ta  Ta105  1  0.39935450  -0.00366892  0.50742898  1
  Ta  Ta106  1  0.89929300  0.89594149  0.12624418  1
  Ta  Ta107  1  0.10025082  0.50942554  0.39252307  1
  Ta  Ta108  1  0.81403690  0.78917683  0.26216324  1
  Ta  Ta109  1  0.70668560  0.91195630  0.86148230  1
  Ta  Ta110  1  0.60438244  0.59161052  0.74209817  1
  Ta  Ta111  1  0.60502759  -0.00703125  -0.00488283  1
  Ta  Ta112  1  0.60259926  0.60527861  0.25157228  1
  Ta  Ta113  1  0.90334107  0.90213706  0.86667502  1
  Ta  Ta114  1  0.70983329  0.89983336  0.64123973  1
  Ta  Ta115  1  0.49465092  0.50594698  0.14701306  1
  Ta  Ta116  1  -0.02428790  0.21126413  0.51037612  1
  Ta  Ta117  1  0.80631730  0.37707420  0.49888708  1
  Ta  Ta118  1  0.69976206  0.09820620  0.86260980  1
  Ta  Ta119  1  0.89178642  0.70810829  0.12033876  1
  Ti  Ti120  1  0.78049439  0.19772411  0.24937716  1
  Ti  Ti121  1  0.08401768  0.71228526  0.11480955  1
  Ti  Ti122  1  0.69791777  0.11171867  0.37559673  1
  Ti  Ti123  1  0.37729943  -0.00919871  0.75696882  1
  Ti  Ti124  1  0.70271122  0.31432157  0.62582134  1
  Ti  Ti125  1  0.19767370  0.21843402  0.27095425  1
  Ti  Ti126  1  0.80722434  0.80640608  0.75091003  1
  Ti  Ti127  1  0.00683630  0.61063151  0.74370590  1
  Ti  Ti128  1  0.60641446  0.79331849  -0.00214522  1
  Ti  Ti129  1  0.11562071  0.51553601  0.60919586  1
  Ti  Ti130  1  0.70522298  0.08902403  0.12320895  1
  Ti  Ti131  1  0.91421154  0.91237207  0.62661635  1
  Ti  Ti132  1  -0.00102441  0.20369469  0.73515418  1
  Ti  Ti133  1  0.40831546  0.80129092  -0.00320259  1
  Ti  Ti134  1  0.19684868  0.18670325  -0.01307271  1
  Ti  Ti135  1  0.27569431  0.69083640  0.62064274  1
  Ti  Ti136  1  0.08900370  0.70875328  0.88312160  1
  Ti  Ti137  1  0.89501247  0.09755086  0.62762863  1
  Ti  Ti138  1  0.80985181  0.39183703  -0.00029436  1
  Ti  Ti139  1  0.50128274  0.89926350  0.11590068  1
  Ti  Ti140  1  0.49774745  0.08806436  0.11429681  1
  Ti  Ti141  1  0.18951520  0.60458250  0.75166412  1
  Ti  Ti142  1  0.09687285  0.90914317  0.88339486  1
  Ti  Ti143  1  0.90596903  0.70661313  0.86634771  1
  Ti  Ti144  1  0.79696168  0.40051805  0.74848590  1
  Ti  Ti145  1  0.00852473  0.21567682  -0.00403255  1
  Ti  Ti146  1  0.69736809  0.70200405  0.63861534  1
  Ti  Ti147  1  0.38968478  0.38646277  0.25564258  1
  Ti  Ti148  1  0.69882287  0.70404489  0.12720065  1
  Ti  Ti149  1  0.81034895  0.81628919  -0.01167867  1
  Ti  Ti150  1  0.10587633  0.30003862  0.13216744  1
  Ti  Ti151  1  0.20304980  0.81204631  -0.01387411  1
  Ti  Ti152  1  0.10879781  0.31841305  0.39105341  1
  Ti  Ti153  1  0.89997800  0.48660562  0.61677654  1
  Ti  Ti154  1  0.70014495  0.49743014  0.63111201  1
  Ti  Ti155  1  0.30969012  0.09637658  0.38603958  1
  Ti  Ti156  1  0.39186940  -0.00600132  -0.01688270  1
  Ti  Ti157  1  0.10116237  0.09507194  0.86811930  1
  Ti  Ti158  1  0.89453500  0.09326675  0.14840923  1
  Ti  Ti159  1  0.80485565  0.40481791  0.25350874  1
  Mo  Mo160  1  0.21181579  0.41303744  0.50536613  1
  Mo  Mo161  1  0.18043240  -0.01097866  0.75620541  1
  Mo  Mo162  1  0.79372868  0.19620150  0.50931001  1
  Mo  Mo163  1  0.70538321  0.09842539  0.63563660  1
  Mo  Mo164  1  0.00201077  0.40563154  0.50175870  1
  Mo  Mo165  1  0.70672563  0.90292027  0.37629763  1
  Mo  Mo166  1  0.19013992  0.79465878  0.49892697  1
  Mo  Mo167  1  0.89493735  0.30405768  0.62501683  1
  Mo  Mo168  1  -0.00823799  0.39291386  0.00237187  1
  Mo  Mo169  1  0.10336971  0.70645145  0.63035493  1
  Mo  Mo170  1  0.20295875  0.00647883  -0.01288982  1
  Mo  Mo171  1  0.60955134  0.39824464  0.75072935  1
  Mo  Mo172  1  0.60576290  0.18816189  0.23749661  1
  Mo  Mo173  1  0.29022871  0.09190909  0.86948288  1
  Mo  Mo174  1  0.00807266  -0.00093267  0.74954090  1
  Mo  Mo175  1  0.50972982  0.30410426  0.62124041  1
  Mo  Mo176  1  -0.00448005  0.00626782  0.49859028  1
  Mo  Mo177  1  0.30436727  0.90443626  0.38448827  1
  Mo  Mo178  1  -0.00471865  0.79490110  0.23857307  1
  Mo  Mo179  1  0.29604382  0.49491792  0.62540766  1
  Mo  Mo180  1  -0.00569311  0.79929139  -0.01065213  1
  Mo  Mo181  1  0.29992012  0.90006493  0.87823643  1
  Mo  Mo182  1  0.09537402  0.89387257  0.61174718  1
  Mo  Mo183  1  0.11155696  0.90503329  0.40515020  1
  Mo  Mo184  1  0.40244824  0.60449177  0.24346354  1
  Mo  Mo185  1  0.89296378  0.69462147  0.37659711  1
  Mo  Mo186  1  0.70947048  0.28953192  0.37922101  1
  Mo  Mo187  1  0.80496565  -0.00268992  0.74299550  1
  Mo  Mo188  1  0.30496185  0.29102727  0.37730771  1
  Mo  Mo189  1  0.50307286  0.09290936  0.63134956  1
  Mo  Mo190  1  0.01004933  0.19890629  0.25177885  1
  Mo  Mo191  1  -0.00267951  0.80882653  0.51666240  1
  Mo  Mo192  1  0.60442136  0.59808360  0.50839106  1
  Mo  Mo193  1  0.19391038  0.60631990  0.49653843  1
  Mo  Mo194  1  0.20781729  -0.00150318  0.48695832  1
  Mo  Mo195  1  0.70107907  0.49466008  0.37292535  1
  Mo  Mo196  1  0.79056459  -0.00072569  -0.00529738  1
  Mo  Mo197  1  0.60258046  0.80347795  0.73711978  1
  Mo  Mo198  1  0.59091800  0.61007434  0.00850394  1
  Mo  Mo199  1  0.19658639  0.39228945  0.25232598  1
