# generated using pymatgen
data_HfZrTaTiMo
_symmetry_space_group_name_H-M   'P 1'
_cell_length_a   15.21016249
_cell_length_b   15.20602457
_cell_length_c   16.80656173
_cell_angle_alpha   89.99570303
_cell_angle_beta   90.02384089
_cell_angle_gamma   90.01762896
_symmetry_Int_Tables_number   1
_chemical_formula_structural   HfZrTaTiMo
_chemical_formula_sum   'Hf40 Zr40 Ta40 Ti40 Mo40'
_cell_volume   3887.12366091
_cell_formula_units_Z   40
loop_
 _symmetry_equiv_pos_site_id
 _symmetry_equiv_pos_as_xyz
  1  'x, y, z'
loop_
 _atom_site_type_symbol
 _atom_site_label
 _atom_site_symmetry_multiplicity
 _atom_site_fract_x
 _atom_site_fract_y
 _atom_site_fract_z
 _atom_site_occupancy
  Hf  Hf0  1  0.70492289  0.29886967  0.62236053  1
  Hf  Hf1  1  0.90326786  0.29668241  0.62290101  1
  Hf  Hf2  1  0.08756719  0.70818629  0.86790850  1
  Hf  Hf3  1  0.19581104  0.59876151  0.24507459  1
  Hf  Hf4  1  0.70486486  0.50086718  0.13318423  1
  Hf  Hf5  1  0.60099454  0.61666652  0.48286095  1
  Hf  Hf6  1  0.10300539  0.09440200  0.88393906  1
  Hf  Hf7  1  0.28722421  0.70637942  0.86785724  1
  Hf  Hf8  1  0.78936693  0.80418402  0.75138421  1
  Hf  Hf9  1  0.00597953  0.40338981  0.75974828  1
  Hf  Hf10  1  0.29315860  0.70208784  0.64017783  1
  Hf  Hf11  1  0.27472887  0.90777959  0.36610217  1
  Hf  Hf12  1  0.79986935  0.58760889  0.47686625  1
  Hf  Hf13  1  0.89698306  0.49986752  0.62061882  1
  Hf  Hf14  1  0.79934387  0.59841708  0.76289880  1
  Hf  Hf15  1  0.00237276  0.20265715  0.74757635  1
  Hf  Hf16  1  0.49519204  0.70355054  0.13944267  1
  Hf  Hf17  1  0.28822233  0.91579412  0.12348287  1
  Hf  Hf18  1  0.50111050  0.89413349  0.63357862  1
  Hf  Hf19  1  0.80529245  0.39758900  0.00232466  1
  Hf  Hf20  1  -0.00292640  -0.00445403  0.74448155  1
  Hf  Hf21  1  0.39621380  0.57934773  0.26051384  1
  Hf  Hf22  1  0.29919582  0.49829213  0.10988650  1
  Hf  Hf23  1  0.59565028  0.00856993  0.01031083  1
  Hf  Hf24  1  0.70296188  0.89131128  0.61434803  1
  Hf  Hf25  1  0.80699849  0.39246822  0.76159021  1
  Hf  Hf26  1  0.39729959  0.59137144  0.48946629  1
  Hf  Hf27  1  0.88836050  0.90360441  0.35652664  1
  Hf  Hf28  1  0.31750599  0.09512031  0.87412685  1
  Hf  Hf29  1  0.88622217  0.70357318  0.61270049  1
  Hf  Hf30  1  0.90664290  0.09916567  0.34936312  1
  Hf  Hf31  1  0.00679037  0.60834873  0.48753349  1
  Hf  Hf32  1  0.21324741  0.19276588  0.23879459  1
  Hf  Hf33  1  0.12190550  0.30391017  0.11031645  1
  Hf  Hf34  1  0.17533747  0.80392509  0.23562975  1
  Hf  Hf35  1  0.00512235  0.61048473  0.26098200  1
  Hf  Hf36  1  0.70279180  0.27084148  0.87755953  1
  Hf  Hf37  1  0.39021692  0.00198149  0.50490684  1
  Hf  Hf38  1  0.49813139  0.30156266  0.38432502  1
  Hf  Hf39  1  -0.01619805  0.79776022  0.01310346  1
  Zr  Zr40  1  0.50991180  0.29786129  0.88350657  1
  Zr  Zr41  1  0.50582898  0.51426696  0.62919136  1
  Zr  Zr42  1  0.50956861  0.10359479  0.62532810  1
  Zr  Zr43  1  0.59450346  0.39352200  0.25512032  1
  Zr  Zr44  1  0.29782368  0.30728456  0.62663576  1
  Zr  Zr45  1  0.19502199  0.19380170  0.51647280  1
  Zr  Zr46  1  0.39135691  0.79578171  0.50594492  1
  Zr  Zr47  1  0.30772527  0.31735440  0.39349543  1
  Zr  Zr48  1  0.62288082  0.41009483  0.48495350  1
  Zr  Zr49  1  0.80647616  0.60108425  -0.01293721  1
  Zr  Zr50  1  0.80152369  0.20705720  0.48182399  1
  Zr  Zr51  1  0.10768823  0.28660040  0.37020680  1
  Zr  Zr52  1  0.90117396  0.89484308  0.87562744  1
  Zr  Zr53  1  0.88883871  0.09776972  0.88166794  1
  Zr  Zr54  1  0.47869065  0.90002778  0.36768768  1
  Zr  Zr55  1  -0.00173734  0.40167582  0.00569382  1
  Zr  Zr56  1  0.00132782  0.18819665  0.50064100  1
  Zr  Zr57  1  0.62076605  0.00764015  0.75026369  1
  Zr  Zr58  1  0.18893603  0.79982492  0.00880802  1
  Zr  Zr59  1  0.79388408  0.20042838  0.02644160  1
  Zr  Zr60  1  0.01737710  0.40606395  0.24058229  1
  Zr  Zr61  1  0.79903303  -0.00990159  0.01736419  1
  Zr  Zr62  1  0.60723299  0.80903728  0.26311802  1
  Zr  Zr63  1  0.90143406  0.08497534  0.14539900  1
  Zr  Zr64  1  0.50123697  0.31188836  0.61154485  1
  Zr  Zr65  1  0.50147279  0.49431254  0.12138550  1
  Zr  Zr66  1  0.69955272  0.69751366  0.13480474  1
  Zr  Zr67  1  0.49352560  0.91618543  0.86664466  1
  Zr  Zr68  1  0.00387945  -0.01055048  0.50240708  1
  Zr  Zr69  1  0.60188903  0.40123164  0.75089813  1
  Zr  Zr70  1  0.30290701  0.11057366  0.37945656  1
  Zr  Zr71  1  0.00341002  0.39771563  0.49376222  1
  Zr  Zr72  1  0.20290186  0.60797605  0.50613479  1
  Zr  Zr73  1  0.60121242  -0.01065938  0.48744104  1
  Zr  Zr74  1  0.22841600  0.39707877  0.24380772  1
  Zr  Zr75  1  0.00071887  0.59985088  -0.00116843  1
  Zr  Zr76  1  0.39507037  0.60877291  -0.01344959  1
  Zr  Zr77  1  0.59814271  0.60295112  -0.00860933  1
  Zr  Zr78  1  0.40884058  0.20486947  0.75034391  1
  Zr  Zr79  1  0.20219062  0.39779263  0.76214802  1
  Ta  Ta80  1  -0.00174261  0.19675478  0.01956865  1
  Ta  Ta81  1  0.29260510  0.70974098  0.36382328  1
  Ta  Ta82  1  0.10165012  0.49786090  0.62932529  1
  Ta  Ta83  1  0.69241809  0.48945677  0.87901385  1
  Ta  Ta84  1  0.49788468  0.10506408  0.36815708  1
  Ta  Ta85  1  0.80276493  0.40415888  0.26013142  1
  Ta  Ta86  1  0.40220287  0.80873251  0.00073409  1
  Ta  Ta87  1  0.31563706  0.11613693  0.11223045  1
  Ta  Ta88  1  0.39883989  0.41376024  0.77363227  1
  Ta  Ta89  1  0.89218753  0.69674264  0.13896495  1
  Ta  Ta90  1  0.01236656  0.19878996  0.22986382  1
  Ta  Ta91  1  0.00739614  -0.00615289  0.00995776  1
  Ta  Ta92  1  0.60838940  0.19261457  0.48495615  1
  Ta  Ta93  1  0.80131740  0.00413568  0.48947667  1
  Ta  Ta94  1  0.19171772  0.59649721  0.74833564  1
  Ta  Ta95  1  0.30217793  0.70497269  0.12845620  1
  Ta  Ta96  1  0.29845946  0.29553921  0.88703295  1
  Ta  Ta97  1  0.20527736  -0.00503177  0.74997104  1
  Ta  Ta98  1  0.29256254  0.90319116  0.87681615  1
  Ta  Ta99  1  0.71005489  0.09881356  0.61570278  1
  Ta  Ta100  1  0.39150743  0.01556815  0.24282366  1
  Ta  Ta101  1  0.10783385  0.07880896  0.36591321  1
  Ta  Ta102  1  0.50015611  0.71529362  0.86433015  1
  Ta  Ta103  1  -0.00918842  0.79381874  0.74330771  1
  Ta  Ta104  1  0.59320136  0.80700447  0.00295092  1
  Ta  Ta105  1  0.90499151  0.30076057  0.35621274  1
  Ta  Ta106  1  0.39019839  0.80946394  0.75178958  1
  Ta  Ta107  1  0.70275784  0.09451018  0.35480239  1
  Ta  Ta108  1  0.19645346  0.19830423  0.75381406  1
  Ta  Ta109  1  0.60318858  0.59577941  0.27337983  1
  Ta  Ta110  1  0.49052545  0.70454626  0.36500143  1
  Ta  Ta111  1  0.11837287  0.49849460  0.37751882  1
  Ta  Ta112  1  0.90680739  0.29007486  0.88107369  1
  Ta  Ta113  1  0.78825516  0.79411294  0.00032462  1
  Ta  Ta114  1  0.90055853  0.50583385  0.13763730  1
  Ta  Ta115  1  0.40534232  0.40436807  -0.01831584  1
  Ta  Ta116  1  0.10036266  0.29163285  0.89123580  1
  Ta  Ta117  1  0.11994109  0.08652754  0.11456265  1
  Ta  Ta118  1  0.59436710  0.19997724  0.24528360  1
  Ta  Ta119  1  0.69639925  0.90448542  0.87931519  1
  Ti  Ti120  1  0.78424496  0.79914939  0.48176838  1
  Ti  Ti121  1  0.40243541  0.00478236  0.00691111  1
  Ti  Ti122  1  0.18248616  0.79929978  0.50106075  1
  Ti  Ti123  1  0.89286051  0.09151182  0.62469059  1
  Ti  Ti124  1  0.89680588  0.89810741  0.61711941  1
  Ti  Ti125  1  0.68527054  0.69807608  0.62481639  1
  Ti  Ti126  1  0.02662545  -0.01487413  0.23991328  1
  Ti  Ti127  1  0.91066866  0.71662268  0.37474206  1
  Ti  Ti128  1  0.08271788  0.88027034  0.37691800  1
  Ti  Ti129  1  -0.00913734  0.59826173  0.75580401  1
  Ti  Ti130  1  0.10272456  0.89981937  0.87252240  1
  Ti  Ti131  1  0.40359647  0.21837636  0.24295993  1
  Ti  Ti132  1  0.52599837  0.11107159  0.87368778  1
  Ti  Ti133  1  0.19561921  -0.00454956  0.50980824  1
  Ti  Ti134  1  0.30316018  0.09383578  0.63866943  1
  Ti  Ti135  1  0.10336808  0.09549699  0.63351826  1
  Ti  Ti136  1  0.21166570  0.19456304  -0.00283784  1
  Ti  Ti137  1  0.20581555  0.41219267  0.51030014  1
  Ti  Ti138  1  0.79302750  0.17753482  0.74971263  1
  Ti  Ti139  1  0.60863551  0.38885362  0.00661740  1
  Ti  Ti140  1  0.68822836  0.10004274  0.14073316  1
  Ti  Ti141  1  0.10448103  0.50848309  0.87787125  1
  Ti  Ti142  1  0.49893841  0.70401681  0.63771724  1
  Ti  Ti143  1  0.40341419  0.19794299  0.50817250  1
  Ti  Ti144  1  0.09875436  0.88751827  0.62912702  1
  Ti  Ti145  1  0.49032917  0.90155230  0.13462944  1
  Ti  Ti146  1  0.80321599  0.60137303  0.27301708  1
  Ti  Ti147  1  0.60010608  0.60543954  0.76030626  1
  Ti  Ti148  1  0.69768832  0.89439157  0.13185066  1
  Ti  Ti149  1  0.30859607  0.50173724  0.63479959  1
  Ti  Ti150  1  0.39903661  0.59852155  0.76473096  1
  Ti  Ti151  1  0.29158311  0.89944114  0.63383101  1
  Ti  Ti152  1  0.69432890  0.70955593  0.87452542  1
  Ti  Ti153  1  0.59147957  0.00212415  0.25051547  1
  Ti  Ti154  1  0.89239433  0.88773946  0.14679364  1
  Ti  Ti155  1  0.49462037  0.28730129  0.11054645  1
  Ti  Ti156  1  0.70432736  0.50838309  0.62481247  1
  Ti  Ti157  1  0.79406045  0.21189569  0.23906342  1
  Ti  Ti158  1  0.20389564  0.41381627  -0.01353262  1
  Ti  Ti159  1  0.08859102  0.69976679  0.63254481  1
  Mo  Mo160  1  0.59400506  0.79147558  0.49432321  1
  Mo  Mo161  1  0.10550560  0.50974315  0.11618142  1
  Mo  Mo162  1  0.69599101  0.90551228  0.37883620  1
  Mo  Mo163  1  0.31367833  0.30339644  0.09412450  1
  Mo  Mo164  1  0.39592249  0.00032081  0.74384815  1
  Mo  Mo165  1  0.10709550  0.71062625  0.37903374  1
  Mo  Mo166  1  0.81159677  0.39886673  0.47548085  1
  Mo  Mo167  1  0.60056258  0.19653797  0.01812168  1
  Mo  Mo168  1  0.18652220  0.80653779  0.74806881  1
  Mo  Mo169  1  0.89951023  0.49247131  0.87135661  1
  Mo  Mo170  1  0.38595573  0.79860984  0.24517005  1
  Mo  Mo171  1  0.70551820  0.28807894  0.36474188  1
  Mo  Mo172  1  0.10343904  0.30669324  0.63037280  1
  Mo  Mo173  1  0.70119624  0.09022662  0.88256737  1
  Mo  Mo174  1  0.59715421  0.79258894  0.75263637  1
  Mo  Mo175  1  0.91092764  0.49553121  0.36785500  1
  Mo  Mo176  1  0.20430096  0.00161645  -0.00978211  1
  Mo  Mo177  1  0.09467312  0.68938677  0.12060242  1
  Mo  Mo178  1  0.80673553  -0.00268543  0.74034063  1
  Mo  Mo179  1  0.40407982  0.38838378  0.24166791  1
  Mo  Mo180  1  0.70360028  0.49722294  0.36417288  1
  Mo  Mo181  1  0.49309883  0.49484728  0.37685894  1
  Mo  Mo182  1  0.89279741  0.70343301  0.87011398  1
  Mo  Mo183  1  0.08818471  0.90260684  0.11853580  1
  Mo  Mo184  1  0.77767450  -0.00765152  0.24058937  1
  Mo  Mo185  1  -0.00565995  0.79709253  0.24168093  1
  Mo  Mo186  1  0.61435933  0.20108937  0.74306455  1
  Mo  Mo187  1  0.20070969  0.00661570  0.24668493  1
  Mo  Mo188  1  0.29898286  0.50176354  0.37895976  1
  Mo  Mo189  1  0.19395940  0.60241406  0.00526888  1
  Mo  Mo190  1  0.41300898  0.19451545  -0.00570369  1
  Mo  Mo191  1  0.90175837  0.30394247  0.14421194  1
  Mo  Mo192  1  0.70717891  0.70823147  0.36987356  1
  Mo  Mo193  1  0.50491891  0.50894658  0.87203540  1
  Mo  Mo194  1  0.29409220  0.50619073  0.87935609  1
  Mo  Mo195  1  0.40199161  0.40916947  0.50743572  1
  Mo  Mo196  1  0.69555170  0.30411816  0.13108521  1
  Mo  Mo197  1  0.80017806  0.79163860  0.25833066  1
  Mo  Mo198  1  -0.00403193  0.79927581  0.50762788  1
  Mo  Mo199  1  0.49703606  0.09581663  0.13705814  1
