# generated using pymatgen
data_HfZrTaTiMo
_symmetry_space_group_name_H-M   'P 1'
_cell_length_a   15.21420638
_cell_length_b   15.21470993
_cell_length_c   16.85655501
_cell_angle_alpha   90.00224362
_cell_angle_beta   89.98272272
_cell_angle_gamma   89.97094764
_symmetry_Int_Tables_number   1
_chemical_formula_structural   HfZrTaTiMo
_chemical_formula_sum   'Hf40 Zr40 Ta40 Ti40 Mo40'
_cell_volume   3901.95023615
_cell_formula_units_Z   40
loop_
 _symmetry_equiv_pos_site_id
 _symmetry_equiv_pos_as_xyz
  1  'x, y, z'
loop_
 _atom_site_type_symbol
 _atom_site_label
 _atom_site_symmetry_multiplicity
 _atom_site_fract_x
 _atom_site_fract_y
 _atom_site_fract_z
 _atom_site_occupancy
  Hf  Hf0  1  0.70293117  0.90400462  0.12129646  1
  Hf  Hf1  1  0.30644965  0.51210399  0.38101602  1
  Hf  Hf2  1  0.39239133  0.02561288  0.75615442  1
  Hf  Hf3  1  0.60728486  0.60196700  0.50187239  1
  Hf  Hf4  1  0.41453669  0.39563366  0.50212838  1
  Hf  Hf5  1  0.18508025  0.00537116  0.00477215  1
  Hf  Hf6  1  0.10889022  0.50407835  0.61053012  1
  Hf  Hf7  1  0.58846974  0.60565615  0.25875854  1
  Hf  Hf8  1  0.79772648  0.80220942  0.26362327  1
  Hf  Hf9  1  0.40796609  0.78506164  -0.00000671  1
  Hf  Hf10  1  0.41180455  0.78800675  0.24326644  1
  Hf  Hf11  1  0.88289880  0.29240978  0.13717647  1
  Hf  Hf12  1  0.29572580  0.89704691  0.86943224  1
  Hf  Hf13  1  -0.02444792  0.61095799  -0.00079949  1
  Hf  Hf14  1  0.69191874  0.89194120  0.87309219  1
  Hf  Hf15  1  0.21214252  0.18725293  0.75146363  1
  Hf  Hf16  1  0.09665029  0.70018716  0.12932210  1
  Hf  Hf17  1  0.20372758  0.80056599  0.25006935  1
  Hf  Hf18  1  0.19946223  0.79636394  0.00218860  1
  Hf  Hf19  1  0.70328700  0.69009660  0.12422330  1
  Hf  Hf20  1  0.91084605  0.30131370  0.63071551  1
  Hf  Hf21  1  0.60622915  0.41704450  0.00190822  1
  Hf  Hf22  1  0.20462692  0.40074361  0.74873288  1
  Hf  Hf23  1  0.09576063  0.50011180  0.11847375  1
  Hf  Hf24  1  0.09810117  0.89434030  0.38443207  1
  Hf  Hf25  1  0.08249576  0.90847545  0.12754038  1
  Hf  Hf26  1  0.30623534  0.92136638  0.39034168  1
  Hf  Hf27  1  0.88897550  0.89858729  0.61862979  1
  Hf  Hf28  1  0.09660500  0.50063717  0.89079940  1
  Hf  Hf29  1  -0.01538435  0.38451570  0.00619937  1
  Hf  Hf30  1  -0.00461200  0.78600001  0.73924909  1
  Hf  Hf31  1  0.10527119  0.69001569  0.38183146  1
  Hf  Hf32  1  0.09850761  0.29162968  0.88207119  1
  Hf  Hf33  1  0.09580449  0.70254601  0.87451880  1
  Hf  Hf34  1  0.80158799  -0.00057342  0.26858981  1
  Hf  Hf35  1  0.00517637  0.41566449  0.75478243  1
  Hf  Hf36  1  0.89551579  0.28896965  0.86512328  1
  Hf  Hf37  1  0.40829463  -0.01141330  0.00155867  1
  Hf  Hf38  1  0.77435421  0.00838174  0.73695855  1
  Hf  Hf39  1  0.11188343  0.09505225  0.38015860  1
  Zr  Zr40  1  0.51930909  0.69765110  0.85231335  1
  Zr  Zr41  1  0.79825579  0.41159708  0.74214744  1
  Zr  Zr42  1  0.30412361  0.91612980  0.61940381  1
  Zr  Zr43  1  0.30468781  0.29845925  0.88901968  1
  Zr  Zr44  1  0.31989976  0.28334778  0.62423373  1
  Zr  Zr45  1  0.19909534  0.00891153  0.24125807  1
  Zr  Zr46  1  0.90949088  0.52650268  0.61937044  1
  Zr  Zr47  1  0.00024293  0.40256390  0.25183043  1
  Zr  Zr48  1  0.30184888  0.69998633  0.63195400  1
  Zr  Zr49  1  0.20000644  0.39801441  0.25419493  1
  Zr  Zr50  1  0.60322958  0.40164905  0.74069472  1
  Zr  Zr51  1  0.40921980  0.38999990  0.74700557  1
  Zr  Zr52  1  0.00402408  0.18368908  0.23997381  1
  Zr  Zr53  1  0.60760983  0.39231537  0.51217588  1
  Zr  Zr54  1  0.60736995  -0.00025572  -0.00405446  1
  Zr  Zr55  1  0.70825772  0.11331777  0.88229872  1
  Zr  Zr56  1  0.10773316  0.29354093  0.62261595  1
  Zr  Zr57  1  0.30823252  0.70967634  0.38494912  1
  Zr  Zr58  1  0.90115862  0.90254368  0.86449717  1
  Zr  Zr59  1  0.72199622  0.10779211  0.12120835  1
  Zr  Zr60  1  0.78613770  0.78909275  0.74366647  1
  Zr  Zr61  1  0.51739188  0.10974275  0.11852874  1
  Zr  Zr62  1  0.90007653  0.69810425  0.37798181  1
  Zr  Zr63  1  0.80257375  0.77594670  -0.00923622  1
  Zr  Zr64  1  0.00139419  0.39931590  0.48601124  1
  Zr  Zr65  1  0.70879015  0.26384541  0.63359491  1
  Zr  Zr66  1  0.30518077  0.69997757  0.85479514  1
  Zr  Zr67  1  0.88768331  0.10922040  0.62277583  1
  Zr  Zr68  1  0.60004738  0.80727242  0.24994849  1
  Zr  Zr69  1  0.89096282  0.30061918  0.36376604  1
  Zr  Zr70  1  0.77760820  0.00752464  0.49511204  1
  Zr  Zr71  1  0.21306034  0.20773292  0.23300917  1
  Zr  Zr72  1  0.30250944  0.89435778  0.12122742  1
  Zr  Zr73  1  0.30338830  0.50437066  0.87440835  1
  Zr  Zr74  1  0.79825309  0.40445891  0.50623728  1
  Zr  Zr75  1  0.18479422  -0.00388069  0.75107549  1
  Zr  Zr76  1  0.40273785  0.39417375  0.24735308  1
  Zr  Zr77  1  0.21054355  0.39097233  0.48754615  1
  Zr  Zr78  1  0.40820136  0.00221329  0.23913262  1
  Zr  Zr79  1  0.88151237  0.50283103  0.13160469  1
  Ta  Ta80  1  0.58893102  0.19067919  0.75456219  1
  Ta  Ta81  1  0.40895059  0.60662104  0.51225783  1
  Ta  Ta82  1  0.31454804  0.67937265  0.12894725  1
  Ta  Ta83  1  0.00100028  0.19588805  0.49420473  1
  Ta  Ta84  1  0.89544416  0.89791178  0.12546718  1
  Ta  Ta85  1  0.21257825  0.18466979  0.49713923  1
  Ta  Ta86  1  0.09033458  0.09822665  0.88017493  1
  Ta  Ta87  1  0.29588152  0.10648680  0.89789486  1
  Ta  Ta88  1  0.48951098  0.11152114  0.62555617  1
  Ta  Ta89  1  -0.00458848  0.80185081  0.25725905  1
  Ta  Ta90  1  0.50477384  0.50908541  0.62826418  1
  Ta  Ta91  1  0.10222728  0.09149632  0.61105029  1
  Ta  Ta92  1  0.20444246  0.59698144  0.24671911  1
  Ta  Ta93  1  0.50970189  0.91328552  0.64074210  1
  Ta  Ta94  1  0.59336974  0.79854500  0.00246441  1
  Ta  Ta95  1  0.50541885  0.29261097  0.37138656  1
  Ta  Ta96  1  0.19949043  0.79879120  0.50974422  1
  Ta  Ta97  1  0.49662451  0.89734457  0.85423328  1
  Ta  Ta98  1  0.08955709  0.69068577  0.61295633  1
  Ta  Ta99  1  0.40226043  0.40366690  0.00645055  1
  Ta  Ta100  1  0.79330965  0.59869981  0.26166237  1
  Ta  Ta101  1  0.31245898  0.11437179  0.10840164  1
  Ta  Ta102  1  0.29944906  0.49442611  0.12076875  1
  Ta  Ta103  1  0.70032092  0.30986047  0.87439257  1
  Ta  Ta104  1  0.49647844  0.10982776  0.88716490  1
  Ta  Ta105  1  0.69134738  0.30470029  0.12817285  1
  Ta  Ta106  1  0.20989827  0.60074598  0.00413837  1
  Ta  Ta107  1  0.30440508  0.50225229  0.61977347  1
  Ta  Ta108  1  0.60618727  0.00610669  0.26012767  1
  Ta  Ta109  1  0.50861331  0.29894409  0.88846989  1
  Ta  Ta110  1  -0.00900116  0.79543987  0.50393656  1
  Ta  Ta111  1  0.19009957  0.21123228  0.01778161  1
  Ta  Ta112  1  -0.00587854  0.80831446  -0.00088461  1
  Ta  Ta113  1  -0.00716227  0.17576720  0.01683549  1
  Ta  Ta114  1  -0.00730111  -0.00241845  0.49709651  1
  Ta  Ta115  1  0.48816213  0.09903996  0.37166249  1
  Ta  Ta116  1  0.49316634  0.51565708  0.12786636  1
  Ta  Ta117  1  0.60008612  0.18760895  0.49414357  1
  Ta  Ta118  1  0.50252551  0.70315597  0.38729082  1
  Ta  Ta119  1  0.70233905  0.49849296  0.37102261  1
  Ti  Ti120  1  0.00629392  0.18844642  0.74624696  1
  Ti  Ti121  1  0.18179362  0.59844450  0.74629463  1
  Ti  Ti122  1  0.79387447  0.20216977  0.48693635  1
  Ti  Ti123  1  0.10467945  0.29043909  0.37526062  1
  Ti  Ti124  1  0.90160859  0.70065359  0.14155834  1
  Ti  Ti125  1  0.68961489  0.89531728  0.38433728  1
  Ti  Ti126  1  0.40885930  0.59564806  0.74077985  1
  Ti  Ti127  1  -0.00871923  -0.00835000  0.26207223  1
  Ti  Ti128  1  0.49599375  0.30145883  0.11753665  1
  Ti  Ti129  1  0.80265739  0.21437014  0.00083568  1
  Ti  Ti130  1  0.69351562  0.30142603  0.36860044  1
  Ti  Ti131  1  0.09589731  0.89735452  0.61345724  1
  Ti  Ti132  1  0.50501529  0.49873470  0.86802693  1
  Ti  Ti133  1  0.59381806  0.20174452  0.25309789  1
  Ti  Ti134  1  0.69450407  0.49766320  0.13366085  1
  Ti  Ti135  1  0.82431597  0.00406649  -0.00127347  1
  Ti  Ti136  1  0.69768468  0.51683156  0.87168137  1
  Ti  Ti137  1  0.50221003  0.49925007  0.37736663  1
  Ti  Ti138  1  0.58222996  -0.00132841  0.49682552  1
  Ti  Ti139  1  0.41428517  0.80889579  0.51303957  1
  Ti  Ti140  1  0.60290493  0.80120399  0.50947350  1
  Ti  Ti141  1  0.60018303  0.40005568  0.24909901  1
  Ti  Ti142  1  0.79961809  0.60723797  0.49676128  1
  Ti  Ti143  1  0.80729705  0.60723362  0.74759471  1
  Ti  Ti144  1  0.31319670  0.27986420  0.37271028  1
  Ti  Ti145  1  0.78671311  0.19398844  0.25955364  1
  Ti  Ti146  1  0.51417235  0.71035665  0.64005289  1
  Ti  Ti147  1  0.49658562  0.89795956  0.38109915  1
  Ti  Ti148  1  0.90130552  0.50551345  0.36831584  1
  Ti  Ti149  1  0.09980228  0.50697318  0.37660073  1
  Ti  Ti150  1  0.88613091  0.50331752  0.88012539  1
  Ti  Ti151  1  0.19296279  0.80044092  0.73749415  1
  Ti  Ti152  1  0.90615088  0.09829726  0.86615392  1
  Ti  Ti153  1  0.78878431  0.79798688  0.49956293  1
  Ti  Ti154  1  0.90010257  0.09978849  0.38184697  1
  Ti  Ti155  1  0.40607500  0.18952875  0.49578443  1
  Ti  Ti156  1  -0.00325368  -0.00139431  0.73819294  1
  Ti  Ti157  1  0.60023323  0.61066102  -0.00125426  1
  Ti  Ti158  1  0.41161603  0.59546949  -0.00552789  1
  Ti  Ti159  1  0.09192883  0.90164042  0.87427147  1
  Mo  Mo160  1  0.40102496  0.80822250  0.74135294  1
  Mo  Mo161  1  0.50999031  0.29133066  0.62051243  1
  Mo  Mo162  1  0.69397512  0.70054369  0.38271138  1
  Mo  Mo163  1  0.20819972  0.60251925  0.50368068  1
  Mo  Mo164  1  0.19706497  0.40287259  0.00759310  1
  Mo  Mo165  1  0.29812888  0.10233024  0.62066943  1
  Mo  Mo166  1  0.61005000  0.21964303  -0.00006778  1
  Mo  Mo167  1  0.39979484  0.59597791  0.25355289  1
  Mo  Mo168  1  0.51137146  0.89598430  0.12290122  1
  Mo  Mo169  1  0.70604872  0.69705197  0.61778172  1
  Mo  Mo170  1  0.30744433  0.10731293  0.37288515  1
  Mo  Mo171  1  0.40885036  0.00779467  0.50190771  1
  Mo  Mo172  1  0.00078651  0.59886014  0.49088694  1
  Mo  Mo173  1  0.90099037  0.08076133  0.13178113  1
  Mo  Mo174  1  0.09373542  0.30301924  0.11353050  1
  Mo  Mo175  1  0.09845727  0.09906285  0.12489662  1
  Mo  Mo176  1  0.59137555  0.00591062  0.75906618  1
  Mo  Mo177  1  0.70288372  0.69084488  0.87687424  1
  Mo  Mo178  1  0.89919333  0.68809002  0.87218122  1
  Mo  Mo179  1  0.68475980  0.89500083  0.61596183  1
  Mo  Mo180  1  0.79012237  0.39978771  -0.00535401  1
  Mo  Mo181  1  0.50457418  0.69382484  0.11855853  1
  Mo  Mo182  1  0.89834736  0.70343560  0.61156613  1
  Mo  Mo183  1  -0.00643010  -0.00505934  -0.00454089  1
  Mo  Mo184  1  0.40646090  0.20260261  0.00229999  1
  Mo  Mo185  1  0.19674249  -0.00154720  0.50393778  1
  Mo  Mo186  1  -0.00502979  0.60183694  0.75918754  1
  Mo  Mo187  1  0.89904293  0.90233285  0.38917812  1
  Mo  Mo188  1  0.30676059  0.30659125  0.11209416  1
  Mo  Mo189  1  0.78084724  0.57776792  -0.00102219  1
  Mo  Mo190  1  0.66934648  0.08319035  0.62514330  1
  Mo  Mo191  1  0.79777973  0.19992011  0.75691167  1
  Mo  Mo192  1  0.61993851  0.60294177  0.73769683  1
  Mo  Mo193  1  0.68583871  0.11096326  0.37181870  1
  Mo  Mo194  1  0.00282191  0.60500507  0.25237386  1
  Mo  Mo195  1  0.70305119  0.51941475  0.62685385  1
  Mo  Mo196  1  0.78170258  0.40188008  0.25492060  1
  Mo  Mo197  1  0.40987502  0.20264089  0.24618085  1
  Mo  Mo198  1  0.40702688  0.20070012  0.76241592  1
  Mo  Mo199  1  0.60464167  0.80606961  0.73974449  1
