# generated using pymatgen
data_HfZrTaTiMo
_symmetry_space_group_name_H-M   'P 1'
_cell_length_a   15.18059558
_cell_length_b   15.17151878
_cell_length_c   16.81924035
_cell_angle_alpha   89.95959767
_cell_angle_beta   89.96514478
_cell_angle_gamma   89.92690521
_symmetry_Int_Tables_number   1
_chemical_formula_structural   HfZrTaTiMo
_chemical_formula_sum   'Hf40 Zr40 Ta40 Ti40 Mo40'
_cell_volume   3873.67967387
_cell_formula_units_Z   40
loop_
 _symmetry_equiv_pos_site_id
 _symmetry_equiv_pos_as_xyz
  1  'x, y, z'
loop_
 _atom_site_type_symbol
 _atom_site_label
 _atom_site_symmetry_multiplicity
 _atom_site_fract_x
 _atom_site_fract_y
 _atom_site_fract_z
 _atom_site_occupancy
  Hf  Hf0  1  0.20451675  0.79928857  0.24477864  1
  Hf  Hf1  1  0.50514423  0.69238202  0.12972144  1
  Hf  Hf2  1  0.90073691  0.70888568  0.11597007  1
  Hf  Hf3  1  -0.00258750  0.59484117  -0.00671869  1
  Hf  Hf4  1  0.01246475  0.78708678  0.75598096  1
  Hf  Hf5  1  0.68256033  0.50760189  0.13030795  1
  Hf  Hf6  1  0.90724127  0.91083438  0.86719345  1
  Hf  Hf7  1  0.68802634  0.89835158  0.38789007  1
  Hf  Hf8  1  0.41058368  0.61336890  0.51015868  1
  Hf  Hf9  1  0.81248275  0.42103652  0.49762913  1
  Hf  Hf10  1  -0.00446603  0.38530352  0.75930592  1
  Hf  Hf11  1  0.78642783  0.00970560  0.25988073  1
  Hf  Hf12  1  0.90169408  0.91771448  0.11519116  1
  Hf  Hf13  1  0.58184250  -0.00469571  0.25906365  1
  Hf  Hf14  1  0.79437768  0.61308447  0.24193822  1
  Hf  Hf15  1  0.10526507  0.49012978  0.88459549  1
  Hf  Hf16  1  0.00959070  0.78693262  0.51274936  1
  Hf  Hf17  1  0.01148294  0.38961475  0.24583517  1
  Hf  Hf18  1  0.39329840  -0.00047734  0.74678280  1
  Hf  Hf19  1  0.31258748  0.50911092  0.87880672  1
  Hf  Hf20  1  0.20985474  0.40122096  0.75274189  1
  Hf  Hf21  1  -0.00472602  0.59444430  0.77781467  1
  Hf  Hf22  1  0.21264761  0.39861148  0.00283608  1
  Hf  Hf23  1  0.40198073  0.19997170  0.01068777  1
  Hf  Hf24  1  0.69546837  0.91014845  0.11797660  1
  Hf  Hf25  1  0.19990556  0.38418349  0.50506166  1
  Hf  Hf26  1  0.49123701  0.29495866  0.38056400  1
  Hf  Hf27  1  0.48681240  0.28004955  0.59441309  1
  Hf  Hf28  1  0.89083892  0.09955702  0.39840135  1
  Hf  Hf29  1  0.60400561  0.78733574  0.52418417  1
  Hf  Hf30  1  0.89494450  0.69123278  0.63609088  1
  Hf  Hf31  1  0.18459065  0.60627181  0.49957026  1
  Hf  Hf32  1  0.59056409  0.01821518  0.74649237  1
  Hf  Hf33  1  -0.00504179  0.00181186  0.25571259  1
  Hf  Hf34  1  0.68531567  0.31780832  0.60530933  1
  Hf  Hf35  1  0.71841947  0.30042504  0.12833769  1
  Hf  Hf36  1  0.40275907  -0.00094829  -0.01120994  1
  Hf  Hf37  1  0.91320519  0.30385688  0.38487497  1
  Hf  Hf38  1  0.88991642  0.47826218  0.11834753  1
  Hf  Hf39  1  0.50078535  0.89475103  0.11628108  1
  Zr  Zr40  1  0.19863180  0.19113641  0.74452054  1
  Zr  Zr41  1  0.11206146  0.89704674  0.87650101  1
  Zr  Zr42  1  0.42201367  0.38474176  0.74807819  1
  Zr  Zr43  1  0.40319210  0.60021231  0.74458091  1
  Zr  Zr44  1  0.00498680  0.59627108  0.23493068  1
  Zr  Zr45  1  0.10728126  0.90491019  0.37012771  1
  Zr  Zr46  1  0.80133591  0.03063037  -0.01171661  1
  Zr  Zr47  1  0.09296929  0.69303761  0.36669436  1
  Zr  Zr48  1  0.19771608  0.00572975  0.00984587  1
  Zr  Zr49  1  0.18918979  0.19891297  0.23862493  1
  Zr  Zr50  1  0.08717401  0.29482725  0.11143980  1
  Zr  Zr51  1  0.70179258  0.29579285  0.39202131  1
  Zr  Zr52  1  0.39522678  0.79704730  0.75674724  1
  Zr  Zr53  1  0.51537876  0.48609759  0.60781047  1
  Zr  Zr54  1  0.09851501  0.51214673  0.63867070  1
  Zr  Zr55  1  0.30342165  0.70660361  0.37104194  1
  Zr  Zr56  1  0.31568313  0.29497565  0.88067920  1
  Zr  Zr57  1  0.09996470  0.28094431  0.88180155  1
  Zr  Zr58  1  0.60313958  0.19940338  -0.00057363  1
  Zr  Zr59  1  0.79735262  0.80828222  -0.01075156  1
  Zr  Zr60  1  0.70789076  0.53061747  0.61761913  1
  Zr  Zr61  1  0.51676359  0.70189816  0.36955244  1
  Zr  Zr62  1  0.68759932  0.11076847  0.60413708  1
  Zr  Zr63  1  0.30527886  0.49034985  0.61969102  1
  Zr  Zr64  1  0.68765850  0.70687049  0.86325719  1
  Zr  Zr65  1  0.27987270  0.71279916  0.62503912  1
  Zr  Zr66  1  0.28818684  0.29501790  0.36104170  1
  Zr  Zr67  1  0.02070099  0.20201165  0.50762063  1
  Zr  Zr68  1  0.78850902  0.20173156  0.73726130  1
  Zr  Zr69  1  0.40804438  0.81882790  0.50551324  1
  Zr  Zr70  1  0.50169454  0.49751656  0.38418034  1
  Zr  Zr71  1  0.30349125  0.30427865  0.13190091  1
  Zr  Zr72  1  0.89777520  0.29770382  0.61821202  1
  Zr  Zr73  1  0.09899537  0.88958376  0.11937703  1
  Zr  Zr74  1  0.69985456  0.51598414  0.37716894  1
  Zr  Zr75  1  0.69899674  0.91261669  0.85610982  1
  Zr  Zr76  1  -0.01535960  0.17039641  -0.00492804  1
  Zr  Zr77  1  0.89743944  0.89100938  0.38775008  1
  Zr  Zr78  1  0.79021846  0.59903770  -0.00679333  1
  Zr  Zr79  1  0.30119139  0.49926592  0.37511560  1
  Ta  Ta80  1  0.59515602  0.00318610  -0.01755267  1
  Ta  Ta81  1  0.41972966  0.40681957  0.01149810  1
  Ta  Ta82  1  0.90042200  0.09181432  0.61236111  1
  Ta  Ta83  1  0.58533759  0.80409042  0.73888431  1
  Ta  Ta84  1  -0.01424502  0.59196160  0.49961441  1
  Ta  Ta85  1  0.69135792  0.31150633  0.87355780  1
  Ta  Ta86  1  0.10857186  0.69484698  0.11404584  1
  Ta  Ta87  1  0.80051556  0.80956889  0.24735496  1
  Ta  Ta88  1  0.90320660  0.49964374  0.63462795  1
  Ta  Ta89  1  0.80215949  0.60358011  0.76823056  1
  Ta  Ta90  1  0.51472874  0.29822115  0.13852529  1
  Ta  Ta91  1  0.50925163  0.49296590  0.87564314  1
  Ta  Ta92  1  0.01148118  0.40857382  0.50244480  1
  Ta  Ta93  1  0.40708654  0.18225526  0.24492566  1
  Ta  Ta94  1  0.21311473  0.00266185  0.23866324  1
  Ta  Ta95  1  0.11974103  0.88864512  0.63490490  1
  Ta  Ta96  1  0.30730282  0.70630557  0.12675968  1
  Ta  Ta97  1  0.60190861  0.39883207  0.25368787  1
  Ta  Ta98  1  0.20717467  0.82291970  0.49543678  1
  Ta  Ta99  1  0.21853894  0.18517656  0.50675789  1
  Ta  Ta100  1  -0.00706174  0.79708580  0.24539661  1
  Ta  Ta101  1  0.90685831  0.50959276  0.36700149  1
  Ta  Ta102  1  0.79161912  0.40637050  0.74798198  1
  Ta  Ta103  1  0.88183767  0.28395632  0.87345287  1
  Ta  Ta104  1  0.37811682  0.00876365  0.51307820  1
  Ta  Ta105  1  0.79905248  0.20104501  0.26134341  1
  Ta  Ta106  1  0.40463946  0.40359856  0.24066613  1
  Ta  Ta107  1  0.61076276  0.79660674  0.24953967  1
  Ta  Ta108  1  0.00677280  0.00007360  0.73294993  1
  Ta  Ta109  1  0.69279153  0.49839617  0.87250305  1
  Ta  Ta110  1  0.70532240  0.90129983  0.63689967  1
  Ta  Ta111  1  -0.01154672  0.19495975  0.25477034  1
  Ta  Ta112  1  0.40861540  0.81882057  0.25557884  1
  Ta  Ta113  1  0.10187639  0.48464203  0.37079852  1
  Ta  Ta114  1  0.60629317  0.19022039  0.26268014  1
  Ta  Ta115  1  0.19429294  0.62693674  0.76830087  1
  Ta  Ta116  1  0.60344889  0.40328482  0.00532392  1
  Ta  Ta117  1  0.28837401  0.09763810  0.87209931  1
  Ta  Ta118  1  0.10481709  0.10699757  0.37639859  1
  Ta  Ta119  1  0.01371249  -0.00962962  0.51374099  1
  Ti  Ti120  1  0.89658714  0.70041904  0.37364520  1
  Ti  Ti121  1  0.00372378  0.79573480  -0.01273282  1
  Ti  Ti122  1  0.88476700  0.11580385  0.13067633  1
  Ti  Ti123  1  0.71019249  0.70532727  0.37882512  1
  Ti  Ti124  1  0.11521496  0.08591592  0.62561319  1
  Ti  Ti125  1  0.49325641  0.11576842  0.87198947  1
  Ti  Ti126  1  0.49083692  0.08719630  0.38352455  1
  Ti  Ti127  1  0.30153811  0.89969016  0.87593278  1
  Ti  Ti128  1  0.29778482  0.08762711  0.36950456  1
  Ti  Ti129  1  0.30673160  0.51091573  0.12523732  1
  Ti  Ti130  1  0.40141776  0.19303587  0.74217648  1
  Ti  Ti131  1  0.21498060  0.79430344  0.00084178  1
  Ti  Ti132  1  0.59078423  0.80324948  -0.01541705  1
  Ti  Ti133  1  0.10561801  0.29918125  0.63316752  1
  Ti  Ti134  1  0.79330425  -0.00868204  0.50901416  1
  Ti  Ti135  1  -0.01747620  0.38137454  -0.00358353  1
  Ti  Ti136  1  0.80712408  0.00809219  0.74046433  1
  Ti  Ti137  1  0.69262354  0.10507897  0.12631701  1
  Ti  Ti138  1  0.08539920  0.08960122  0.12604631  1
  Ti  Ti139  1  0.40565625  0.60122405  0.24696906  1
  Ti  Ti140  1  0.57722859  -0.00920432  0.50894470  1
  Ti  Ti141  1  0.08835967  0.08509064  0.86850031  1
  Ti  Ti142  1  -0.00751972  0.18640497  0.74443711  1
  Ti  Ti143  1  0.58627218  0.22355473  0.74860923  1
  Ti  Ti144  1  0.70416050  0.11907190  0.86612649  1
  Ti  Ti145  1  0.20249281  0.59045030  0.24064040  1
  Ti  Ti146  1  0.20843663  0.60683730  0.00015957  1
  Ti  Ti147  1  0.88530188  0.48099237  0.88462378  1
  Ti  Ti148  1  0.59362473  0.60068854  0.74887473  1
  Ti  Ti149  1  0.79961569  0.79118864  0.51538111  1
  Ti  Ti150  1  0.50089197  0.09292969  0.12619665  1
  Ti  Ti151  1  0.40365017  0.60345897  0.00259037  1
  Ti  Ti152  1  0.10701300  0.49651552  0.11499276  1
  Ti  Ti153  1  0.20326688  0.19054480  0.00904946  1
  Ti  Ti154  1  0.80496112  0.39736159  0.25915677  1
  Ti  Ti155  1  0.40550623  0.79239690  -0.01500897  1
  Ti  Ti156  1  0.90310171  0.89615401  0.63038558  1
  Ti  Ti157  1  0.31027838  0.90201678  0.12120037  1
  Ti  Ti158  1  0.69425681  0.71229982  0.11779263  1
  Ti  Ti159  1  0.58666085  0.60150809  -0.00638376  1
  Mo  Mo160  1  0.50905290  0.30145396  0.87678141  1
  Mo  Mo161  1  0.20095323  0.41614343  0.23761866  1
  Mo  Mo162  1  0.89765907  0.70123007  0.87767951  1
  Mo  Mo163  1  0.49531773  0.49660835  0.12935539  1
  Mo  Mo164  1  0.39668473  0.00046598  0.24728679  1
  Mo  Mo165  1  -0.00350191  -0.00529276  -0.00182350  1
  Mo  Mo166  1  0.20593101  0.80246645  0.76095700  1
  Mo  Mo167  1  0.49387082  0.09657019  0.61922645  1
  Mo  Mo168  1  0.70506556  0.70967015  0.65025219  1
  Mo  Mo169  1  0.19415583  0.00409793  0.49864701  1
  Mo  Mo170  1  0.79372803  0.39441174  -0.00561360  1
  Mo  Mo171  1  0.80304281  0.19659747  0.50429076  1
  Mo  Mo172  1  0.50462130  0.69300899  0.62935799  1
  Mo  Mo173  1  0.59980342  0.40203668  0.48891729  1
  Mo  Mo174  1  0.38920175  0.39488411  0.49746217  1
  Mo  Mo175  1  0.30657255  0.09536327  0.12717493  1
  Mo  Mo176  1  0.39060830  0.18901344  0.48644668  1
  Mo  Mo177  1  0.69064376  0.09360620  0.39235227  1
  Mo  Mo178  1  0.89616128  0.29061365  0.13183737  1
  Mo  Mo179  1  0.30048064  0.70338502  0.88843688  1
  Mo  Mo180  1  0.50244887  0.90007863  0.87677233  1
  Mo  Mo181  1  0.80295655  0.80627358  0.74718046  1
  Mo  Mo182  1  0.60089633  0.60593396  0.24616395  1
  Mo  Mo183  1  0.79603817  0.20784108  -0.00531253  1
  Mo  Mo184  1  0.29278053  0.91034508  0.62954678  1
  Mo  Mo185  1  0.29798167  0.29173744  0.62531338  1
  Mo  Mo186  1  0.30665753  0.91366650  0.37000709  1
  Mo  Mo187  1  0.49673783  0.69019510  0.88003453  1
  Mo  Mo188  1  0.90004544  0.09893936  0.85246581  1
  Mo  Mo189  1  0.61141273  0.61069768  0.50332113  1
  Mo  Mo190  1  0.10349449  0.29679761  0.37410498  1
  Mo  Mo191  1  0.19953865  -0.00355102  0.75474181  1
  Mo  Mo192  1  0.50053812  0.90721353  0.62885164  1
  Mo  Mo193  1  0.10626334  0.69757374  0.89843117  1
  Mo  Mo194  1  0.60809242  0.40563730  0.74806655  1
  Mo  Mo195  1  0.80815779  0.61975941  0.49704235  1
  Mo  Mo196  1  0.09623614  0.69895858  0.62833036  1
  Mo  Mo197  1  0.30363892  0.10607131  0.62967624  1
  Mo  Mo198  1  0.59285968  0.18436384  0.48051750  1
  Mo  Mo199  1  0.49382812  0.90047534  0.38129375  1
