# generated using pymatgen
data_HfZrTaTiMo
_symmetry_space_group_name_H-M   'P 1'
_cell_length_a   15.18883669
_cell_length_b   15.18622020
_cell_length_c   16.80013913
_cell_angle_alpha   90.04481156
_cell_angle_beta   90.02635284
_cell_angle_gamma   89.95077639
_symmetry_Int_Tables_number   1
_chemical_formula_structural   HfZrTaTiMo
_chemical_formula_sum   'Hf40 Zr40 Ta40 Ti40 Mo40'
_cell_volume   3875.13417835
_cell_formula_units_Z   40
loop_
 _symmetry_equiv_pos_site_id
 _symmetry_equiv_pos_as_xyz
  1  'x, y, z'
loop_
 _atom_site_type_symbol
 _atom_site_label
 _atom_site_symmetry_multiplicity
 _atom_site_fract_x
 _atom_site_fract_y
 _atom_site_fract_z
 _atom_site_occupancy
  Hf  Hf0  1  0.88794754  0.50275788  0.36259298  1
  Hf  Hf1  1  0.78152805  0.39022520  0.24032627  1
  Hf  Hf2  1  0.00497785  0.57485042  0.76275891  1
  Hf  Hf3  1  0.29512469  0.91143264  0.87734152  1
  Hf  Hf4  1  0.50256395  0.90237778  0.61241804  1
  Hf  Hf5  1  0.90157354  0.69267205  0.87272629  1
  Hf  Hf6  1  0.88879813  0.91115660  0.87524067  1
  Hf  Hf7  1  0.80795121  0.80380494  0.00732616  1
  Hf  Hf8  1  0.71223035  0.89309740  0.37771132  1
  Hf  Hf9  1  0.38974216  0.20326015  0.74351272  1
  Hf  Hf10  1  0.67853884  0.48619403  0.37735858  1
  Hf  Hf11  1  0.11486175  0.66494845  0.63836871  1
  Hf  Hf12  1  0.31123415  0.48095004  0.38974840  1
  Hf  Hf13  1  0.38699378  0.22679374  0.24384019  1
  Hf  Hf14  1  0.69728579  0.29809267  0.64429766  1
  Hf  Hf15  1  0.59596288  0.80407001  0.76031789  1
  Hf  Hf16  1  -0.01187273  0.37984515  0.77243418  1
  Hf  Hf17  1  0.29363932  0.68831958  0.38065492  1
  Hf  Hf18  1  0.60149156  0.79807681  0.25710844  1
  Hf  Hf19  1  0.20378166  0.01613891  0.74276056  1
  Hf  Hf20  1  0.49478462  0.30798347  0.62579172  1
  Hf  Hf21  1  0.82882004  0.78731407  0.23462629  1
  Hf  Hf22  1  0.59648544  0.21501052  0.24989104  1
  Hf  Hf23  1  0.09633137  0.70233850  0.11659809  1
  Hf  Hf24  1  0.12055444  0.69450872  0.86709159  1
  Hf  Hf25  1  0.71432137  0.68039932  0.36283332  1
  Hf  Hf26  1  0.10036884  0.91418148  0.60733079  1
  Hf  Hf27  1  0.70001845  0.09699623  0.63385025  1
  Hf  Hf28  1  0.50201907  0.09680662  0.86985543  1
  Hf  Hf29  1  0.91241307  0.90346709  0.39655132  1
  Hf  Hf30  1  0.80076600  0.80816405  0.74449069  1
  Hf  Hf31  1  0.60394205  -0.00125293  -0.00149322  1
  Hf  Hf32  1  0.38698929  0.42214148  0.75660247  1
  Hf  Hf33  1  0.59797459  0.00403944  0.48349094  1
  Hf  Hf34  1  0.30044998  0.70636806  0.12845473  1
  Hf  Hf35  1  0.60614797  0.78495823  0.49058090  1
  Hf  Hf36  1  0.18299224  0.41115666  0.75708370  1
  Hf  Hf37  1  0.59755521  0.79666453  -0.00634476  1
  Hf  Hf38  1  0.39677581  0.58522513  0.25042105  1
  Hf  Hf39  1  0.40851545  0.20574381  0.00784481  1
  Zr  Zr40  1  0.00391526  0.79587811  0.74192899  1
  Zr  Zr41  1  0.90940460  0.11266903  0.88252405  1
  Zr  Zr42  1  0.00192430  -0.01136228  0.24877968  1
  Zr  Zr43  1  0.50366691  0.29873968  0.86958744  1
  Zr  Zr44  1  0.60488820  0.21724957  0.49322200  1
  Zr  Zr45  1  0.89470382  0.90920827  0.61367623  1
  Zr  Zr46  1  0.80308691  -0.00355686  0.25688591  1
  Zr  Zr47  1  0.89340507  0.50457975  0.12145460  1
  Zr  Zr48  1  0.70990289  0.09178822  0.86155047  1
  Zr  Zr49  1  0.48067975  0.12368769  0.37627107  1
  Zr  Zr50  1  0.20318497  0.00200051  0.26023504  1
  Zr  Zr51  1  0.29142146  0.31087613  0.88539189  1
  Zr  Zr52  1  0.70954688  0.68378908  0.12726608  1
  Zr  Zr53  1  0.78673920  0.38776151  0.49922547  1
  Zr  Zr54  1  0.40293645  0.00349281  0.74101906  1
  Zr  Zr55  1  0.20535403  0.80917852  0.73999948  1
  Zr  Zr56  1  -0.01029164  0.39432656  0.48864900  1
  Zr  Zr57  1  0.79569851  0.41349997  0.77211897  1
  Zr  Zr58  1  0.70361086  0.90447170  0.13168484  1
  Zr  Zr59  1  0.49546637  0.51273574  0.62587482  1
  Zr  Zr60  1  0.40075983  0.80470628  0.75415532  1
  Zr  Zr61  1  0.70215229  0.68940984  0.87092677  1
  Zr  Zr62  1  0.10442808  0.29929725  0.36028534  1
  Zr  Zr63  1  0.89676901  0.50012675  0.63033808  1
  Zr  Zr64  1  0.32018006  0.69645455  0.61603822  1
  Zr  Zr65  1  0.10630919  0.49803130  0.12366564  1
  Zr  Zr66  1  -0.00891142  0.19562520  0.23793560  1
  Zr  Zr67  1  0.22655507  0.39935293  0.25131992  1
  Zr  Zr68  1  0.89185591  0.07178541  0.11049249  1
  Zr  Zr69  1  0.78791903  0.19940483  0.01378565  1
  Zr  Zr70  1  0.29488078  0.10939572  0.12649492  1
  Zr  Zr71  1  0.90568233  0.10890865  0.62639252  1
  Zr  Zr72  1  0.19594957  0.78445380  0.50253063  1
  Zr  Zr73  1  0.70221567  0.68890266  0.63749768  1
  Zr  Zr74  1  0.11198754  0.29805518  0.12890025  1
  Zr  Zr75  1  0.40342869  0.80633756  -0.00639156  1
  Zr  Zr76  1  0.91142473  0.70408700  0.38270127  1
  Zr  Zr77  1  0.00654687  0.00039593  0.75510626  1
  Zr  Zr78  1  0.40430915  0.80665373  0.26567364  1
  Zr  Zr79  1  0.01403292  0.59285734  0.50282757  1
  Ta  Ta80  1  -0.00150437  0.20215206  0.01554323  1
  Ta  Ta81  1  0.48306448  0.48944655  0.11608926  1
  Ta  Ta82  1  0.68415340  0.48545157  0.11490325  1
  Ta  Ta83  1  0.70845445  0.11370107  0.36665251  1
  Ta  Ta84  1  0.31411287  0.33596187  0.10558485  1
  Ta  Ta85  1  -0.00751415  0.39571132  -0.00633888  1
  Ta  Ta86  1  -0.00857590  0.60917369  0.24563310  1
  Ta  Ta87  1  0.58820357  0.59056996  0.00385382  1
  Ta  Ta88  1  0.18707842  0.40249835  0.50016917  1
  Ta  Ta89  1  0.09334574  0.29800940  0.62342443  1
  Ta  Ta90  1  0.30556915  0.91003467  0.60159508  1
  Ta  Ta91  1  0.49809371  0.09465066  0.13601040  1
  Ta  Ta92  1  0.01766853  0.79810467  0.24990764  1
  Ta  Ta93  1  0.30473530  0.90630251  0.12633864  1
  Ta  Ta94  1  0.59585617  0.58482751  0.23883001  1
  Ta  Ta95  1  0.09269732  0.28718113  0.88912087  1
  Ta  Ta96  1  0.10285914  0.09261561  0.11633246  1
  Ta  Ta97  1  0.11124702  0.89814432  0.11876924  1
  Ta  Ta98  1  -0.00180666  0.20152859  0.49302184  1
  Ta  Ta99  1  0.21132088  0.59618074  -0.00462126  1
  Ta  Ta100  1  0.01073307  0.80134952  -0.01174693  1
  Ta  Ta101  1  0.41172338  0.80202185  0.48507985  1
  Ta  Ta102  1  0.20131952  0.80385359  0.25844410  1
  Ta  Ta103  1  0.68909379  0.49784628  0.62824928  1
  Ta  Ta104  1  0.58934328  0.00139557  0.26676924  1
  Ta  Ta105  1  0.30248858  0.90668590  0.38963557  1
  Ta  Ta106  1  0.29972920  0.10927914  0.88279009  1
  Ta  Ta107  1  0.11198115  0.09665464  0.88960498  1
  Ta  Ta108  1  0.79658659  0.20094973  0.23302780  1
  Ta  Ta109  1  0.79691704  0.59639307  0.50578801  1
  Ta  Ta110  1  0.79340420  0.39346323  -0.00666764  1
  Ta  Ta111  1  0.49761242  0.90519267  0.13245116  1
  Ta  Ta112  1  0.20180196  0.01357272  0.49184072  1
  Ta  Ta113  1  0.69716254  0.90266530  0.61686422  1
  Ta  Ta114  1  0.10219932  0.51111242  0.36211027  1
  Ta  Ta115  1  0.09411374  0.09815551  0.37962315  1
  Ta  Ta116  1  0.10082215  0.89080615  0.39098927  1
  Ta  Ta117  1  0.50188998  0.69739538  0.12844570  1
  Ta  Ta118  1  0.49219904  0.68001160  0.86896600  1
  Ta  Ta119  1  0.28532960  0.50550994  0.61497943  1
  Ti  Ti120  1  0.28784634  0.30821879  0.62071612  1
  Ti  Ti121  1  0.19483527  0.20693446  0.75317618  1
  Ti  Ti122  1  0.39882015  0.00413379  0.26195406  1
  Ti  Ti123  1  0.01261458  0.19536778  0.75358956  1
  Ti  Ti124  1  0.50971322  0.69918256  0.62668575  1
  Ti  Ti125  1  0.90055719  0.29819175  0.62676634  1
  Ti  Ti126  1  0.39869592  0.60889173  0.00023247  1
  Ti  Ti127  1  0.89995314  0.10429651  0.37616502  1
  Ti  Ti128  1  0.20438757  0.80251756  -0.00620678  1
  Ti  Ti129  1  0.79862816  0.59181380  -0.00258111  1
  Ti  Ti130  1  0.50968421  0.68206592  0.37281165  1
  Ti  Ti131  1  0.59411056  0.38909553  -0.00283354  1
  Ti  Ti132  1  0.39703609  0.42542454  -0.01860801  1
  Ti  Ti133  1  0.20443669  -0.00161199  0.00254079  1
  Ti  Ti134  1  0.48941944  0.33248954  0.39031863  1
  Ti  Ti135  1  0.19356336  0.60643343  0.24785989  1
  Ti  Ti136  1  0.80406046  0.78798919  0.51376953  1
  Ti  Ti137  1  0.00533077  0.59512867  -0.01151839  1
  Ti  Ti138  1  -0.00877099  0.40047730  0.24481393  1
  Ti  Ti139  1  0.50231516  0.10741438  0.62117123  1
  Ti  Ti140  1  0.29920573  0.11137816  0.61333089  1
  Ti  Ti141  1  0.39761774  0.01470263  0.49258887  1
  Ti  Ti142  1  0.40503287  0.00281436  0.00287957  1
  Ti  Ti143  1  0.59813354  0.19843475  0.01222263  1
  Ti  Ti144  1  0.68730247  0.09474887  0.13628806  1
  Ti  Ti145  1  0.68559354  0.50013565  0.88287081  1
  Ti  Ti146  1  0.20103684  0.20477202  0.00342424  1
  Ti  Ti147  1  0.80229628  0.20147520  0.49730781  1
  Ti  Ti148  1  0.57824984  0.39947681  0.24354123  1
  Ti  Ti149  1  -0.00090686  0.78529060  0.51956861  1
  Ti  Ti150  1  0.69562567  0.28802579  0.86882238  1
  Ti  Ti151  1  0.60503180  -0.00759209  0.75201261  1
  Ti  Ti152  1  0.10369908  0.11224302  0.61249659  1
  Ti  Ti153  1  0.88221394  0.29158549  0.36571330  1
  Ti  Ti154  1  0.79796657  0.01212796  0.49521602  1
  Ti  Ti155  1  0.81343852  0.20617619  0.75593243  1
  Ti  Ti156  1  0.00644463  -0.01069944  -0.00337171  1
  Ti  Ti157  1  0.41544376  0.59594150  0.49326211  1
  Ti  Ti158  1  0.59367337  0.40642333  0.75983959  1
  Ti  Ti159  1  0.20319370  0.20797272  0.49265189  1
  Mo  Mo160  1  0.30053699  0.51248720  0.11752653  1
  Mo  Mo161  1  0.30344414  0.70345283  0.87810648  1
  Mo  Mo162  1  0.59618358  0.19885363  0.74550996  1
  Mo  Mo163  1  0.79728155  0.58912537  0.24230469  1
  Mo  Mo164  1  0.60585451  0.59882665  0.50085040  1
  Mo  Mo165  1  0.10063624  0.47797381  0.62785846  1
  Mo  Mo166  1  0.49923722  0.90496038  0.38263886  1
  Mo  Mo167  1  0.69389497  0.29484547  0.37094394  1
  Mo  Mo168  1  0.89950530  0.30309253  0.12075741  1
  Mo  Mo169  1  0.79619632  -0.00789519  0.00150859  1
  Mo  Mo170  1  0.89291237  0.29173599  0.88724346  1
  Mo  Mo171  1  0.91572593  0.69201331  0.10978664  1
  Mo  Mo172  1  0.30947483  0.28832149  0.39030192  1
  Mo  Mo173  1  0.39026915  0.20458771  0.51317285  1
  Mo  Mo174  1  0.28971805  0.11215383  0.37543983  1
  Mo  Mo175  1  0.50008609  0.50548995  0.37912958  1
  Mo  Mo176  1  0.50570044  0.90326235  0.87641089  1
  Mo  Mo177  1  0.20120944  0.58626758  0.49447987  1
  Mo  Mo178  1  0.19488346  0.40590720  -0.00795071  1
  Mo  Mo179  1  0.69137339  0.29956020  0.11866089  1
  Mo  Mo180  1  0.79425747  -0.00130105  0.74229954  1
  Mo  Mo181  1  0.30112950  0.52538500  0.87520624  1
  Mo  Mo182  1  0.10082697  0.69704652  0.36843330  1
  Mo  Mo183  1  0.59839929  0.58933340  0.75734428  1
  Mo  Mo184  1  0.21833241  0.59088000  0.75587812  1
  Mo  Mo185  1  0.39920391  0.60725307  0.74888113  1
  Mo  Mo186  1  0.39209912  0.39852464  0.51408796  1
  Mo  Mo187  1  0.10144527  0.49280756  0.89136641  1
  Mo  Mo188  1  0.79918534  0.59585543  0.75510341  1
  Mo  Mo189  1  0.69762555  0.90066028  0.87509654  1
  Mo  Mo190  1  0.00246365  0.01199981  0.49519017  1
  Mo  Mo191  1  0.10307723  0.90575175  0.88393910  1
  Mo  Mo192  1  0.19655350  0.19421258  0.25828611  1
  Mo  Mo193  1  0.50401350  0.30623104  0.11343947  1
  Mo  Mo194  1  0.89207280  0.50184197  0.89402637  1
  Mo  Mo195  1  0.50277033  0.50150182  0.87903985  1
  Mo  Mo196  1  0.92493759  0.88172820  0.11518327  1
  Mo  Mo197  1  0.40952327  0.40136297  0.24843169  1
  Mo  Mo198  1  0.59369978  0.40941324  0.50767766  1
  Mo  Mo199  1  0.90091973  0.69150572  0.62850676  1
