# generated using pymatgen
data_HfZrTaTiMo
_symmetry_space_group_name_H-M   'P 1'
_cell_length_a   15.16521383
_cell_length_b   15.18382170
_cell_length_c   16.81615365
_cell_angle_alpha   90.00758465
_cell_angle_beta   89.91472998
_cell_angle_gamma   90.00328516
_symmetry_Int_Tables_number   1
_chemical_formula_structural   HfZrTaTiMo
_chemical_formula_sum   'Hf40 Zr40 Ta40 Ti40 Mo40'
_cell_volume   3872.18247530
_cell_formula_units_Z   40
loop_
 _symmetry_equiv_pos_site_id
 _symmetry_equiv_pos_as_xyz
  1  'x, y, z'
loop_
 _atom_site_type_symbol
 _atom_site_label
 _atom_site_symmetry_multiplicity
 _atom_site_fract_x
 _atom_site_fract_y
 _atom_site_fract_z
 _atom_site_occupancy
  Hf  Hf0  1  0.49336251  0.69921280  0.63263918  1
  Hf  Hf1  1  0.39671352  0.79306328  -0.00747131  1
  Hf  Hf2  1  0.29044040  0.11474853  0.88036288  1
  Hf  Hf3  1  0.90994167  0.49640464  0.62436690  1
  Hf  Hf4  1  0.76773651  0.00250853  0.51675758  1
  Hf  Hf5  1  0.59631450  0.00666316  -0.00187857  1
  Hf  Hf6  1  0.80708274  0.40651584  0.00349686  1
  Hf  Hf7  1  0.69144679  0.49439152  0.88104925  1
  Hf  Hf8  1  0.79328212  0.21531796  0.23896566  1
  Hf  Hf9  1  0.90243654  0.29190936  0.87404254  1
  Hf  Hf10  1  0.38798278  0.20530321  0.25245453  1
  Hf  Hf11  1  0.21585030  0.39276452  0.01970584  1
  Hf  Hf12  1  0.50495441  0.49131380  0.35623101  1
  Hf  Hf13  1  0.18556723  0.00159799  0.00506912  1
  Hf  Hf14  1  0.71075174  0.27508171  0.62630585  1
  Hf  Hf15  1  0.80840341  0.01016516  0.23870028  1
  Hf  Hf16  1  0.39053703  0.60296522  0.49726263  1
  Hf  Hf17  1  0.50080484  0.69044264  0.12698185  1
  Hf  Hf18  1  0.19734239  0.80240169  0.00256502  1
  Hf  Hf19  1  0.11293130  0.29200457  0.88371191  1
  Hf  Hf20  1  0.10103725  0.69622115  0.88398504  1
  Hf  Hf21  1  0.91324552  0.50082584  0.87535690  1
  Hf  Hf22  1  0.41344504  0.41198229  0.74312644  1
  Hf  Hf23  1  0.59693092  0.59679673  0.50319473  1
  Hf  Hf24  1  0.59593697  0.59508143  0.00004033  1
  Hf  Hf25  1  0.61316912  0.79877545  -0.01323494  1
  Hf  Hf26  1  0.50859818  0.48775098  0.14036013  1
  Hf  Hf27  1  0.71667769  0.50656589  0.12383208  1
  Hf  Hf28  1  0.29122168  0.10672684  0.61144439  1
  Hf  Hf29  1  0.00892195  0.39564904  0.00987947  1
  Hf  Hf30  1  0.80383991  0.60192939  0.50564212  1
  Hf  Hf31  1  0.49274740  0.09197314  0.38222328  1
  Hf  Hf32  1  0.38973464  0.00719874  0.00345471  1
  Hf  Hf33  1  0.19960772  0.60802096  0.23897657  1
  Hf  Hf34  1  0.39278361  0.00368958  0.75010580  1
  Hf  Hf35  1  0.89203788  0.91105421  0.37233314  1
  Hf  Hf36  1  0.90107923  0.49182729  0.36822239  1
  Hf  Hf37  1  0.30805818  0.50236265  0.35919879  1
  Hf  Hf38  1  0.79784626  0.59861482  0.75194854  1
  Hf  Hf39  1  0.49436750  0.89854008  0.11360365  1
  Zr  Zr40  1  -0.01936735  0.79835383  -0.00885276  1
  Zr  Zr41  1  0.79706907  0.19459138  0.00386172  1
  Zr  Zr42  1  0.10867348  0.50521637  0.63121086  1
  Zr  Zr43  1  0.09578383  0.89060106  0.38230073  1
  Zr  Zr44  1  0.93212551  0.29043913  0.35878679  1
  Zr  Zr45  1  0.69935318  0.10182637  0.86309059  1
  Zr  Zr46  1  0.42494964  0.40831723  0.50564556  1
  Zr  Zr47  1  0.11416323  0.30809554  0.61172875  1
  Zr  Zr48  1  0.60912146  0.80524683  0.24602636  1
  Zr  Zr49  1  0.69791946  0.10368240  0.36782279  1
  Zr  Zr50  1  0.30962349  0.30674299  0.61270996  1
  Zr  Zr51  1  0.18431414  0.00219011  0.74274382  1
  Zr  Zr52  1  0.39682785  0.80416408  0.25238760  1
  Zr  Zr53  1  0.00666866  0.60768671  0.75623238  1
  Zr  Zr54  1  0.19716034  0.80777422  0.23448238  1
  Zr  Zr55  1  0.90233914  0.70787440  0.37637974  1
  Zr  Zr56  1  0.09925856  0.48655592  0.36413674  1
  Zr  Zr57  1  0.28482338  0.89000180  0.62086704  1
  Zr  Zr58  1  0.58709038  0.00468914  0.23744832  1
  Zr  Zr59  1  0.01437747  0.19517605  0.74378413  1
  Zr  Zr60  1  0.70993154  0.49286577  0.37392635  1
  Zr  Zr61  1  0.51473937  0.10301040  0.62512002  1
  Zr  Zr62  1  0.88294119  0.89647986  0.63774804  1
  Zr  Zr63  1  0.30037012  0.51262730  0.63469123  1
  Zr  Zr64  1  0.68861381  0.89663161  0.37468232  1
  Zr  Zr65  1  0.70112951  0.48310192  0.61992051  1
  Zr  Zr66  1  0.18764325  0.00527181  0.24711863  1
  Zr  Zr67  1  0.80147437  -0.01051989  -0.00021309  1
  Zr  Zr68  1  0.40522471  0.80685958  0.50237029  1
  Zr  Zr69  1  0.40919576  0.21202537  0.74810633  1
  Zr  Zr70  1  -0.02116337  0.00668426  0.51343914  1
  Zr  Zr71  1  0.59399256  0.58825278  0.74565571  1
  Zr  Zr72  1  0.61751905  0.60497736  0.25222143  1
  Zr  Zr73  1  0.17850188  0.20081990  0.26611571  1
  Zr  Zr74  1  0.20677024  0.38769369  0.23984922  1
  Zr  Zr75  1  0.02178900  0.60622617  0.49274607  1
  Zr  Zr76  1  0.29835780  0.91025854  0.39010860  1
  Zr  Zr77  1  0.38577523  0.00665602  0.23748786  1
  Zr  Zr78  1  0.90832022  0.30609768  0.63291581  1
  Zr  Zr79  1  0.50367145  0.70723796  0.37472047  1
  Ta  Ta80  1  0.28884115  0.89868184  0.87250115  1
  Ta  Ta81  1  0.79769164  0.78905795  0.75761808  1
  Ta  Ta82  1  0.20669452  0.20790205  0.74857063  1
  Ta  Ta83  1  0.58710355  0.20145728  0.23943724  1
  Ta  Ta84  1  0.12849191  0.49543165  0.87669020  1
  Ta  Ta85  1  0.90137315  0.09199487  0.85978331  1
  Ta  Ta86  1  0.00431455  0.19869493  0.50756394  1
  Ta  Ta87  1  0.40764812  0.41043579  0.00566963  1
  Ta  Ta88  1  0.21596044  0.59334292  0.01160728  1
  Ta  Ta89  1  0.49559342  0.10989035  0.87657224  1
  Ta  Ta90  1  0.30186681  0.68078963  0.87293120  1
  Ta  Ta91  1  0.90016571  0.90269244  0.85836790  1
  Ta  Ta92  1  0.89517371  0.89001889  0.13163224  1
  Ta  Ta93  1  0.00195216  0.60183097  0.24289253  1
  Ta  Ta94  1  0.79816352  0.39372739  0.75944943  1
  Ta  Ta95  1  0.59681223  0.79712447  0.75660128  1
  Ta  Ta96  1  0.68877308  0.10664101  0.12255555  1
  Ta  Ta97  1  0.28249107  0.12241198  0.11658987  1
  Ta  Ta98  1  0.69280897  0.30119023  0.88106794  1
  Ta  Ta99  1  0.00083373  0.18358840  0.00257247  1
  Ta  Ta100  1  0.81763988  0.38282652  0.49542645  1
  Ta  Ta101  1  0.80643282  0.62133152  -0.01388940  1
  Ta  Ta102  1  0.09054200  0.69566642  0.11421982  1
  Ta  Ta103  1  0.19224630  0.79757296  0.76132707  1
  Ta  Ta104  1  0.49484641  0.90559045  0.86968450  1
  Ta  Ta105  1  -0.00422278  0.79664424  0.24581417  1
  Ta  Ta106  1  0.30635776  0.32009540  0.87428631  1
  Ta  Ta107  1  0.28815683  0.10434903  0.39426272  1
  Ta  Ta108  1  0.71745506  0.71196566  0.11896231  1
  Ta  Ta109  1  0.48359761  0.50349367  0.87965913  1
  Ta  Ta110  1  0.10921654  0.71079828  0.62910423  1
  Ta  Ta111  1  0.09142318  0.09013467  0.87668601  1
  Ta  Ta112  1  0.62056783  0.38173028  0.24917443  1
  Ta  Ta113  1  0.87976474  0.10933126  0.64375577  1
  Ta  Ta114  1  0.49706536  0.69639515  0.87027130  1
  Ta  Ta115  1  0.28075354  0.70476581  0.37679857  1
  Ta  Ta116  1  0.30756216  0.30127960  0.39031485  1
  Ta  Ta117  1  0.90703764  0.70200054  0.62509481  1
  Ta  Ta118  1  0.81391559  0.19029528  0.49424989  1
  Ta  Ta119  1  0.69948807  0.90072163  0.86030074  1
  Ti  Ti120  1  0.70502172  0.89818927  0.12344629  1
  Ti  Ti121  1  0.51419591  0.29315743  0.37387371  1
  Ti  Ti122  1  0.61365749  0.18646444  0.50183614  1
  Ti  Ti123  1  0.70999291  0.70372071  0.37982995  1
  Ti  Ti124  1  0.17343934  0.00296332  0.51117020  1
  Ti  Ti125  1  0.61161771  0.38307725  0.49972514  1
  Ti  Ti126  1  0.20679072  0.41947034  0.49266566  1
  Ti  Ti127  1  0.38799801  0.21530171  0.00329044  1
  Ti  Ti128  1  0.90225270  0.29088275  0.12182763  1
  Ti  Ti129  1  0.79839027  0.80250004  0.50905596  1
  Ti  Ti130  1  0.60073011  0.38981751  0.74553970  1
  Ti  Ti131  1  0.32258039  0.50135766  0.14325480  1
  Ti  Ti132  1  0.10285773  0.27805261  0.12269267  1
  Ti  Ti133  1  0.10199972  0.50209383  0.12524791  1
  Ti  Ti134  1  0.70226891  0.70975739  0.62551420  1
  Ti  Ti135  1  0.00243020  0.80412176  0.50855121  1
  Ti  Ti136  1  -0.00888233  -0.00688101  -0.00434241  1
  Ti  Ti137  1  0.50700219  0.90236938  0.63955795  1
  Ti  Ti138  1  0.60212528  0.20365164  0.75286226  1
  Ti  Ti139  1  0.08484972  0.89746334  0.12442227  1
  Ti  Ti140  1  0.50558505  0.30929303  0.88424013  1
  Ti  Ti141  1  0.01658350  0.39882053  0.75946011  1
  Ti  Ti142  1  0.41325536  0.20552024  0.50106928  1
  Ti  Ti143  1  0.68862142  0.30783700  0.11264152  1
  Ti  Ti144  1  0.58532978  0.20457495  0.00388354  1
  Ti  Ti145  1  0.29179142  0.69883962  0.63362792  1
  Ti  Ti146  1  0.00041908  -0.00522303  0.73714564  1
  Ti  Ti147  1  0.49197043  0.29698735  0.12419193  1
  Ti  Ti148  1  0.00314306  0.59285440  0.00116144  1
  Ti  Ti149  1  0.89837219  0.69764294  0.12359544  1
  Ti  Ti150  1  0.30573219  0.70044619  0.12287040  1
  Ti  Ti151  1  0.39185913  0.79830838  0.75774225  1
  Ti  Ti152  1  0.00337949  0.80387291  0.75339064  1
  Ti  Ti153  1  0.07227185  0.10224095  0.37599175  1
  Ti  Ti154  1  0.71291160  0.29880634  0.37604580  1
  Ti  Ti155  1  0.81416111  0.60441354  0.24619112  1
  Ti  Ti156  1  0.40640953  0.00064799  0.51002116  1
  Ti  Ti157  1  -0.00975097  0.39941828  0.22274963  1
  Ti  Ti158  1  0.07989630  0.09287105  0.12650017  1
  Ti  Ti159  1  0.60440076  0.81503457  0.51018393  1
  Mo  Mo160  1  0.09236745  0.10188431  0.62278795  1
  Mo  Mo161  1  0.59639607  0.39242826  0.00219795  1
  Mo  Mo162  1  -0.01573578  0.17397874  0.23174347  1
  Mo  Mo163  1  0.79826583  0.80404690  -0.01194752  1
  Mo  Mo164  1  0.49146044  0.11571355  0.11289428  1
  Mo  Mo165  1  0.41606645  0.38462093  0.25565469  1
  Mo  Mo166  1  0.69654143  0.70003568  0.87052619  1
  Mo  Mo167  1  0.69886884  0.08980697  0.64270936  1
  Mo  Mo168  1  0.89771597  0.70135871  0.86901373  1
  Mo  Mo169  1  0.49722963  0.90743987  0.38426965  1
  Mo  Mo170  1  0.19853137  0.19457531  0.49420356  1
  Mo  Mo171  1  0.19355369  0.19941315  0.00236668  1
  Mo  Mo172  1  0.11930695  0.29881467  0.40310819  1
  Mo  Mo173  1  0.19031630  0.78379121  0.50176960  1
  Mo  Mo174  1  0.80287470  0.79454193  0.24538009  1
  Mo  Mo175  1  -0.00055447  -0.00547344  0.24808940  1
  Mo  Mo176  1  0.40102603  0.61015538  0.75195023  1
  Mo  Mo177  1  0.58433156  -0.00965032  0.50408683  1
  Mo  Mo178  1  0.50795510  0.49863671  0.62239399  1
  Mo  Mo179  1  0.79773142  0.20593031  0.76179205  1
  Mo  Mo180  1  0.89546060  0.10195601  0.37673874  1
  Mo  Mo181  1  0.09214218  0.90561100  0.87178429  1
  Mo  Mo182  1  0.52300302  0.30416522  0.61959067  1
  Mo  Mo183  1  0.89852728  0.09300171  0.11711689  1
  Mo  Mo184  1  0.68237560  0.89294853  0.64358485  1
  Mo  Mo185  1  0.58717483  0.00002130  0.76287894  1
  Mo  Mo186  1  0.29161039  0.90394829  0.11569873  1
  Mo  Mo187  1  0.39673339  0.60402828  0.25182861  1
  Mo  Mo188  1  0.20503928  0.39464043  0.75658057  1
  Mo  Mo189  1  0.39650374  0.59623929  0.00696802  1
  Mo  Mo190  1  0.00286590  0.39741256  0.49483040  1
  Mo  Mo191  1  0.20429208  0.60806813  0.49522036  1
  Mo  Mo192  1  0.80866384  0.40263753  0.23082126  1
  Mo  Mo193  1  0.30609388  0.30276365  0.12721344  1
  Mo  Mo194  1  0.08941008  0.89110378  0.62216787  1
  Mo  Mo195  1  0.79448800  -0.00335184  0.74864114  1
  Mo  Mo196  1  0.09865738  0.69936138  0.36586738  1
  Mo  Mo197  1  0.30331331  0.49812338  0.87688294  1
  Mo  Mo198  1  0.20450066  0.60662379  0.75750347  1
  Mo  Mo199  1  0.91239254  0.51517053  0.11765113  1
