# generated using pymatgen
data_HfZrTaTiMo
_symmetry_space_group_name_H-M   'P 1'
_cell_length_a   15.20476143
_cell_length_b   15.20429523
_cell_length_c   16.84269133
_cell_angle_alpha   90.02643843
_cell_angle_beta   90.01551545
_cell_angle_gamma   89.92286475
_symmetry_Int_Tables_number   1
_chemical_formula_structural   HfZrTaTiMo
_chemical_formula_sum   'Hf40 Zr40 Ta40 Ti40 Mo40'
_cell_volume   3893.65025003
_cell_formula_units_Z   40
loop_
 _symmetry_equiv_pos_site_id
 _symmetry_equiv_pos_as_xyz
  1  'x, y, z'
loop_
 _atom_site_type_symbol
 _atom_site_label
 _atom_site_symmetry_multiplicity
 _atom_site_fract_x
 _atom_site_fract_y
 _atom_site_fract_z
 _atom_site_occupancy
  Hf  Hf0  1  0.89701849  0.29656456  0.87092566  1
  Hf  Hf1  1  0.40436590  0.81092235  0.48645754  1
  Hf  Hf2  1  0.29485517  0.90261295  0.62240837  1
  Hf  Hf3  1  -0.01810243  0.19621928  0.24398297  1
  Hf  Hf4  1  0.60877130  0.19597650  0.25214377  1
  Hf  Hf5  1  0.27914337  0.71132683  0.11303996  1
  Hf  Hf6  1  0.61007553  0.59069611  0.73652620  1
  Hf  Hf7  1  0.09354822  0.30133378  0.86640118  1
  Hf  Hf8  1  0.60864695  0.01366435  0.76164233  1
  Hf  Hf9  1  -0.00652655  0.39555808  0.50991107  1
  Hf  Hf10  1  0.59927884  0.59941897  0.00394137  1
  Hf  Hf11  1  0.39393484  0.59376737  0.74656268  1
  Hf  Hf12  1  0.90006216  0.68702688  0.37790317  1
  Hf  Hf13  1  0.29252296  0.10021765  0.87308321  1
  Hf  Hf14  1  0.19555627  0.80438970  0.26717598  1
  Hf  Hf15  1  0.01640409  0.80360204  0.75029726  1
  Hf  Hf16  1  0.80119540  0.00936452  0.23673587  1
  Hf  Hf17  1  0.19749829  0.81618746  0.47894573  1
  Hf  Hf18  1  0.79289250  0.59547464  0.52396753  1
  Hf  Hf19  1  0.30600448  0.31091164  0.86506035  1
  Hf  Hf20  1  0.18888761  0.19312747  0.74648818  1
  Hf  Hf21  1  0.17793781  0.20357576  0.00611609  1
  Hf  Hf22  1  0.60267451  0.39079278  0.50613246  1
  Hf  Hf23  1  0.29839585  0.11578977  0.36908260  1
  Hf  Hf24  1  0.50504890  0.69693981  0.61081141  1
  Hf  Hf25  1  0.21894155  0.40216934  0.27256270  1
  Hf  Hf26  1  0.59690828  0.60833902  0.24109366  1
  Hf  Hf27  1  0.00153991  0.40390709  0.73724074  1
  Hf  Hf28  1  0.61111239  0.01033352  0.48468169  1
  Hf  Hf29  1  0.68754510  0.09448045  0.10887351  1
  Hf  Hf30  1  0.89595049  0.09901703  0.89429771  1
  Hf  Hf31  1  0.80527927  0.59597234  0.01072019  1
  Hf  Hf32  1  0.49883234  0.50135759  0.86895727  1
  Hf  Hf33  1  0.50320645  0.30307258  0.87577844  1
  Hf  Hf34  1  0.80651603  0.59759790  0.23573994  1
  Hf  Hf35  1  0.19548256  0.60553954  0.26058629  1
  Hf  Hf36  1  0.78456756  0.40075241  0.73357261  1
  Hf  Hf37  1  0.29646828  0.30870928  0.62688727  1
  Hf  Hf38  1  0.58941282  0.40333931  0.25746302  1
  Hf  Hf39  1  0.51408668  0.69145400  0.38962492  1
  Zr  Zr40  1  0.29102801  0.70207307  0.62215186  1
  Zr  Zr41  1  0.88893933  0.08916970  0.37137090  1
  Zr  Zr42  1  0.79749783  0.79880221  0.23701349  1
  Zr  Zr43  1  -0.00403225  0.02113511  0.74995134  1
  Zr  Zr44  1  0.49903440  0.31766231  0.11831398  1
  Zr  Zr45  1  0.69838776  0.50041003  0.37942467  1
  Zr  Zr46  1  0.77958492  0.18936025  0.50031010  1
  Zr  Zr47  1  0.59946341  0.79479317  0.76187001  1
  Zr  Zr48  1  0.91511468  0.89733125  0.88390227  1
  Zr  Zr49  1  0.20328557  0.41150200  -0.00655890  1
  Zr  Zr50  1  0.51336213  0.91149259  0.62466389  1
  Zr  Zr51  1  0.38981734  0.20231200  0.00845264  1
  Zr  Zr52  1  0.08965427  0.50407321  0.38681948  1
  Zr  Zr53  1  0.39786417  0.80542853  0.76208946  1
  Zr  Zr54  1  0.40120021  0.01165807  0.50077576  1
  Zr  Zr55  1  0.89902260  0.69756464  0.87291558  1
  Zr  Zr56  1  0.40806996  0.79192135  0.26438994  1
  Zr  Zr57  1  0.90750583  0.50036476  0.87404425  1
  Zr  Zr58  1  0.89974796  0.27299090  0.63533607  1
  Zr  Zr59  1  0.50427267  0.90460494  0.13054472  1
  Zr  Zr60  1  0.71838628  0.89960644  0.87420303  1
  Zr  Zr61  1  0.32269611  0.50921574  0.12165835  1
  Zr  Zr62  1  0.21670233  -0.00434307  0.00718622  1
  Zr  Zr63  1  0.10913738  0.88437690  0.12221065  1
  Zr  Zr64  1  0.62140693  0.80647352  0.49799030  1
  Zr  Zr65  1  0.39466264  0.82694699  -0.01589571  1
  Zr  Zr66  1  0.28376724  0.70297389  0.87531235  1
  Zr  Zr67  1  0.28845731  0.31287281  0.12586040  1
  Zr  Zr68  1  0.71276941  0.28930535  0.11459152  1
  Zr  Zr69  1  0.89632001  0.90376198  0.63552065  1
  Zr  Zr70  1  0.10947313  0.50568156  0.60960560  1
  Zr  Zr71  1  0.70109174  0.49017475  0.12672528  1
  Zr  Zr72  1  0.39544438  0.21693170  0.24696987  1
  Zr  Zr73  1  0.01047099  0.39329634  0.24783171  1
  Zr  Zr74  1  0.89151670  0.49485437  0.37770684  1
  Zr  Zr75  1  -0.00165630  0.18990709  0.49579362  1
  Zr  Zr76  1  0.48759556  0.70007996  0.12080534  1
  Zr  Zr77  1  0.49775060  0.10736723  0.88212791  1
  Zr  Zr78  1  0.79126489  0.17366968  0.75572960  1
  Zr  Zr79  1  0.40014236  0.00706627  0.74572147  1
  Ta  Ta80  1  0.09562753  0.09186344  0.36840664  1
  Ta  Ta81  1  -0.00381151  0.80383967  0.50162357  1
  Ta  Ta82  1  0.79728255  0.79110148  0.01323246  1
  Ta  Ta83  1  0.30367486  0.50248105  0.61174247  1
  Ta  Ta84  1  0.00114695  0.78586450  0.24646711  1
  Ta  Ta85  1  0.60213007  0.40166447  -0.00475957  1
  Ta  Ta86  1  0.31171912  0.90940627  0.14426501  1
  Ta  Ta87  1  0.59961098  0.79386866  -0.01511630  1
  Ta  Ta88  1  0.08639774  0.70331689  0.38516802  1
  Ta  Ta89  1  0.18058468  0.20975817  0.25353670  1
  Ta  Ta90  1  0.70943936  0.69530400  0.37780718  1
  Ta  Ta91  1  0.20756281  0.42264316  0.74956250  1
  Ta  Ta92  1  0.40555305  0.20805768  0.74149625  1
  Ta  Ta93  1  0.89147862  0.29891631  0.37873706  1
  Ta  Ta94  1  0.91268248  0.88982592  0.36913755  1
  Ta  Ta95  1  0.59966206  -0.00522958  0.26032681  1
  Ta  Ta96  1  0.80503674  -0.01548333  0.49755133  1
  Ta  Ta97  1  0.49366653  0.29824247  0.38181034  1
  Ta  Ta98  1  0.19354789  -0.01169306  0.75165264  1
  Ta  Ta99  1  0.09807769  0.69474084  0.87847812  1
  Ta  Ta100  1  0.00593862  0.39077111  0.01091859  1
  Ta  Ta101  1  0.11147946  0.50486923  0.12826491  1
  Ta  Ta102  1  0.10038292  0.70784041  0.61232608  1
  Ta  Ta103  1  0.00907387  0.00449236  0.01131368  1
  Ta  Ta104  1  0.70452023  0.68625802  0.87229871  1
  Ta  Ta105  1  0.70442768  0.49215763  0.87426178  1
  Ta  Ta106  1  0.29429966  0.10616818  0.62236881  1
  Ta  Ta107  1  0.90473436  0.90001616  0.11587921  1
  Ta  Ta108  1  0.49876770  0.10147256  0.37016122  1
  Ta  Ta109  1  0.30875834  0.92060670  0.36013452  1
  Ta  Ta110  1  0.80830411  0.79773104  0.50015054  1
  Ta  Ta111  1  0.19686831  0.00857240  0.24788835  1
  Ta  Ta112  1  0.70839771  0.07968765  0.62654225  1
  Ta  Ta113  1  0.58637516  -0.01106961  -0.00877355  1
  Ta  Ta114  1  0.49429610  0.50206821  0.39379233  1
  Ta  Ta115  1  0.79702666  0.39220734  0.52200994  1
  Ta  Ta116  1  0.19769067  0.20202969  0.49591570  1
  Ta  Ta117  1  0.10448732  0.90347341  0.62010567  1
  Ta  Ta118  1  0.51522492  0.12044473  0.62355389  1
  Ta  Ta119  1  0.00915598  0.60171049  0.73809070  1
  Ti  Ti120  1  0.67765722  0.27612007  0.62938115  1
  Ti  Ti121  1  0.19482173  0.00843003  0.49133427  1
  Ti  Ti122  1  0.29892133  0.10091261  0.13767017  1
  Ti  Ti123  1  0.91227857  0.48972568  0.12662517  1
  Ti  Ti124  1  0.01464072  0.59185978  0.00757688  1
  Ti  Ti125  1  0.20300683  0.60359180  0.48953213  1
  Ti  Ti126  1  0.80551591  0.37757546  0.24700717  1
  Ti  Ti127  1  0.00686785  0.79158654  0.00459614  1
  Ti  Ti128  1  0.19974478  0.38930033  0.48476275  1
  Ti  Ti129  1  0.70993425  0.88880803  0.63984582  1
  Ti  Ti130  1  0.91551311  0.69570568  0.12290460  1
  Ti  Ti131  1  0.69497219  0.29574410  0.87786751  1
  Ti  Ti132  1  0.49325688  0.09680383  0.12217244  1
  Ti  Ti133  1  0.89034102  0.11527634  0.10788146  1
  Ti  Ti134  1  0.09427759  0.09858270  0.61982970  1
  Ti  Ti135  1  0.40104192  0.58242561  0.26218025  1
  Ti  Ti136  1  0.40036787  0.20583342  0.50280641  1
  Ti  Ti137  1  0.79979701  -0.00789093  0.00927694  1
  Ti  Ti138  1  0.71484804  0.90044954  0.36807023  1
  Ti  Ti139  1  0.69466194  0.89303048  0.11857511  1
  Ti  Ti140  1  0.58936532  0.39256968  0.74157215  1
  Ti  Ti141  1  0.70060486  0.29185778  0.37749196  1
  Ti  Ti142  1  0.60854878  0.80010937  0.25722872  1
  Ti  Ti143  1  0.80650885  0.39558367  -0.00204827  1
  Ti  Ti144  1  0.38961546  0.40022457  0.49240374  1
  Ti  Ti145  1  0.00289079  -0.01123348  0.24031143  1
  Ti  Ti146  1  0.11846739  0.89330627  0.88531125  1
  Ti  Ti147  1  0.80479184  0.59678122  0.73508091  1
  Ti  Ti148  1  0.10472525  0.50949186  0.87294174  1
  Ti  Ti149  1  0.00243104  -0.00872479  0.49771580  1
  Ti  Ti150  1  0.09070239  0.09827988  0.88126374  1
  Ti  Ti151  1  0.10498634  0.29604034  0.62704111  1
  Ti  Ti152  1  0.49483277  0.49629997  0.61341023  1
  Ti  Ti153  1  0.49065986  0.30440758  0.62421032  1
  Ti  Ti154  1  0.09391722  0.10390829  0.12917675  1
  Ti  Ti155  1  0.69597020  0.10825172  0.89925644  1
  Ti  Ti156  1  0.30613299  0.69185524  0.38226232  1
  Ti  Ti157  1  0.29728088  0.50744924  0.87586264  1
  Ti  Ti158  1  0.90246021  0.70225884  0.62883946  1
  Ti  Ti159  1  0.40033274  0.60465287  -0.01124444  1
  Mo  Mo160  1  0.40564908  0.41094639  0.27018551  1
  Mo  Mo161  1  0.39778847  0.00856221  0.00793936  1
  Mo  Mo162  1  0.09662765  0.30400014  0.13024390  1
  Mo  Mo163  1  0.49842567  0.50226582  0.12349446  1
  Mo  Mo164  1  -0.00442092  0.61018428  0.51380123  1
  Mo  Mo165  1  0.19215441  0.60142764  -0.00143822  1
  Mo  Mo166  1  0.41042204  0.41748421  -0.00757095  1
  Mo  Mo167  1  -0.00294689  0.20065797  0.01035336  1
  Mo  Mo168  1  0.69008746  0.49086476  0.62659695  1
  Mo  Mo169  1  0.39687001  0.59866792  0.50248909  1
  Mo  Mo170  1  0.09813905  0.28658551  0.37913741  1
  Mo  Mo171  1  0.69733264  0.70960093  0.11967118  1
  Mo  Mo172  1  0.00327792  0.59999408  0.24108440  1
  Mo  Mo173  1  0.79580300  -0.00753870  0.75752170  1
  Mo  Mo174  1  0.19186159  0.80217341  0.74685201  1
  Mo  Mo175  1  0.50577105  0.69649303  0.87823786  1
  Mo  Mo176  1  0.90121733  0.49888150  0.62942177  1
  Mo  Mo177  1  0.79803677  0.20382306  0.25287408  1
  Mo  Mo178  1  0.59791816  0.20618529  0.74959669  1
  Mo  Mo179  1  0.79764351  0.20383620  -0.00947867  1
  Mo  Mo180  1  0.19205751  0.79942834  -0.00090121  1
  Mo  Mo181  1  0.39983931  0.40596144  0.73872663  1
  Mo  Mo182  1  0.09328444  0.68992565  0.12719371  1
  Mo  Mo183  1  0.30047910  0.30012376  0.38547941  1
  Mo  Mo184  1  0.89853155  0.08591796  0.61471767  1
  Mo  Mo185  1  0.90215858  0.30269436  0.11684301  1
  Mo  Mo186  1  0.58805619  0.19875367  0.49440515  1
  Mo  Mo187  1  0.00290709  0.19718238  0.74685256  1
  Mo  Mo188  1  0.29328531  0.90909331  0.86769175  1
  Mo  Mo189  1  0.40330779  0.01010156  0.25099516  1
  Mo  Mo190  1  0.18970602  0.60336662  0.74635903  1
  Mo  Mo191  1  0.09359499  0.90894881  0.36871322  1
  Mo  Mo192  1  0.80280236  0.78408303  0.74990900  1
  Mo  Mo193  1  0.59817004  0.20087372  0.00247937  1
  Mo  Mo194  1  0.50676130  0.90378407  0.36517051  1
  Mo  Mo195  1  0.60277397  0.59553373  0.51572449  1
  Mo  Mo196  1  0.50214544  0.90547647  0.87708518  1
  Mo  Mo197  1  0.30331779  0.50636615  0.39410089  1
  Mo  Mo198  1  0.71152577  0.70757142  0.63415715  1
  Mo  Mo199  1  0.69650488  0.09610769  0.36771124  1
