# generated using pymatgen
data_HfZrTaTiMo
_symmetry_space_group_name_H-M   'P 1'
_cell_length_a   15.21464323
_cell_length_b   15.20803660
_cell_length_c   16.85384615
_cell_angle_alpha   90.03330690
_cell_angle_beta   90.02583084
_cell_angle_gamma   89.99690821
_symmetry_Int_Tables_number   1
_chemical_formula_structural   HfZrTaTiMo
_chemical_formula_sum   'Hf40 Zr40 Ta40 Ti40 Mo40'
_cell_volume   3899.72362143
_cell_formula_units_Z   40
loop_
 _symmetry_equiv_pos_site_id
 _symmetry_equiv_pos_as_xyz
  1  'x, y, z'
loop_
 _atom_site_type_symbol
 _atom_site_label
 _atom_site_symmetry_multiplicity
 _atom_site_fract_x
 _atom_site_fract_y
 _atom_site_fract_z
 _atom_site_occupancy
  Hf  Hf0  1  0.91432999  0.51247404  0.62819592  1
  Hf  Hf1  1  0.40545660  0.60648853  0.24922905  1
  Hf  Hf2  1  0.59977706  0.41261095  0.00208588  1
  Hf  Hf3  1  0.91694513  0.68745384  0.11705477  1
  Hf  Hf4  1  0.79683779  -0.00529875  0.47908836  1
  Hf  Hf5  1  0.67759581  0.11422025  0.36562276  1
  Hf  Hf6  1  0.19333021  0.58610016  0.51731266  1
  Hf  Hf7  1  0.68344236  0.89182771  0.36101468  1
  Hf  Hf8  1  0.80231380  0.59673115  0.25288954  1
  Hf  Hf9  1  0.40100437  0.60871299  0.51058953  1
  Hf  Hf10  1  0.29881431  0.70921803  0.37927705  1
  Hf  Hf11  1  0.70236312  0.90251194  0.88054786  1
  Hf  Hf12  1  0.69304950  0.10716174  0.14387990  1
  Hf  Hf13  1  0.80860279  0.59125063  -0.00338695  1
  Hf  Hf14  1  0.71091031  0.70013599  0.61550159  1
  Hf  Hf15  1  0.01097527  0.58934890  0.24697145  1
  Hf  Hf16  1  0.69739287  0.69133762  0.38396181  1
  Hf  Hf17  1  0.80070108  0.19516029  0.72906903  1
  Hf  Hf18  1  0.29261232  0.68364041  0.86788098  1
  Hf  Hf19  1  0.20019244  0.41645021  0.25202969  1
  Hf  Hf20  1  0.69276366  0.49335090  0.39233068  1
  Hf  Hf21  1  0.11262755  0.51791631  0.87876405  1
  Hf  Hf22  1  0.10181937  0.50722506  0.10862538  1
  Hf  Hf23  1  0.79967338  0.01042221  0.01711144  1
  Hf  Hf24  1  0.92326552  0.70324596  0.38592239  1
  Hf  Hf25  1  0.59372531  0.80157624  0.51040223  1
  Hf  Hf26  1  0.91679767  0.49762818  0.38971488  1
  Hf  Hf27  1  0.40371507  0.79784418  0.74826659  1
  Hf  Hf28  1  0.60352209  0.79736624  0.01169508  1
  Hf  Hf29  1  0.47633237  0.10508461  0.35693866  1
  Hf  Hf30  1  0.40018381  0.79253837  0.00094972  1
  Hf  Hf31  1  0.12361178  0.29288468  0.62424572  1
  Hf  Hf32  1  0.29914510  0.29211803  0.13770891  1
  Hf  Hf33  1  0.38636555  0.21562857  0.75854541  1
  Hf  Hf34  1  0.80002444  0.38061263  -0.00206961  1
  Hf  Hf35  1  0.07773240  0.88816563  0.61843167  1
  Hf  Hf36  1  -0.00068321  0.40450775  -0.01434142  1
  Hf  Hf37  1  0.81124339  0.79683596  0.25056812  1
  Hf  Hf38  1  0.60082793  0.20962003  0.75232150  1
  Hf  Hf39  1  0.00533559  0.00385992  0.25972998  1
  Zr  Zr40  1  0.70825671  0.49168313  0.86437975  1
  Zr  Zr41  1  0.69257079  0.09256784  0.61418439  1
  Zr  Zr42  1  0.70392402  0.10578821  0.87404485  1
  Zr  Zr43  1  0.30797751  0.46973570  0.63435331  1
  Zr  Zr44  1  -0.02176702  0.20294208  0.00000050  1
  Zr  Zr45  1  0.80796975  0.39432960  0.50543262  1
  Zr  Zr46  1  0.19341122  0.20410222  -0.01196259  1
  Zr  Zr47  1  0.39511112  0.40075863  0.00924188  1
  Zr  Zr48  1  0.90003431  0.89579210  0.88133705  1
  Zr  Zr49  1  0.80836866  0.00639527  0.25894803  1
  Zr  Zr50  1  0.58205125  0.00387536  0.49289581  1
  Zr  Zr51  1  0.50736565  0.29981318  0.13795082  1
  Zr  Zr52  1  0.00557716  0.19313075  0.74971846  1
  Zr  Zr53  1  0.37624011  0.00686291  0.49856173  1
  Zr  Zr54  1  0.49987723  0.90248229  0.87378843  1
  Zr  Zr55  1  0.60521989  0.60689619  0.75072586  1
  Zr  Zr56  1  0.81020087  0.39873005  0.26309256  1
  Zr  Zr57  1  0.61381243  0.80291272  0.74126803  1
  Zr  Zr58  1  0.00431294  0.00298643  0.01112829  1
  Zr  Zr59  1  0.88377058  0.30109912  0.85591051  1
  Zr  Zr60  1  0.60913735  0.20459954  -0.00163501  1
  Zr  Zr61  1  0.18683483  0.00286687  0.75359941  1
  Zr  Zr62  1  0.49947674  0.30982141  0.87723676  1
  Zr  Zr63  1  0.71684530  0.30000027  0.13811064  1
  Zr  Zr64  1  0.58907312  0.78400975  0.23558447  1
  Zr  Zr65  1  -0.00962784  0.19704507  0.25687836  1
  Zr  Zr66  1  0.09717598  0.29572502  0.12967735  1
  Zr  Zr67  1  0.29666677  0.90580886  0.86825794  1
  Zr  Zr68  1  0.19414731  0.79278156  0.50852700  1
  Zr  Zr69  1  0.58368681  0.00067228  0.01883217  1
  Zr  Zr70  1  0.39261330  0.21487692  0.49279596  1
  Zr  Zr71  1  0.10137570  0.30233414  0.37315119  1
  Zr  Zr72  1  0.02253479  0.79131974  0.24636743  1
  Zr  Zr73  1  0.22016539  0.38374082  0.48954273  1
  Zr  Zr74  1  0.28910874  0.90945460  0.63812280  1
  Zr  Zr75  1  0.48334250  0.11315904  0.62856635  1
  Zr  Zr76  1  0.51519152  0.50279090  0.61421538  1
  Zr  Zr77  1  -0.01461837  -0.00955422  0.74747379  1
  Zr  Zr78  1  0.79869530  0.20211026  0.49363930  1
  Zr  Zr79  1  0.11179219  0.90747658  0.12465938  1
  Ta  Ta80  1  0.30165502  0.51607440  0.12435577  1
  Ta  Ta81  1  0.37308677  -0.00434940  0.24369639  1
  Ta  Ta82  1  0.69594134  0.50549211  0.12584161  1
  Ta  Ta83  1  0.71535537  0.70464119  0.87974265  1
  Ta  Ta84  1  0.70069192  0.89658465  0.13578310  1
  Ta  Ta85  1  0.81344987  0.61454157  0.74776628  1
  Ta  Ta86  1  0.30625385  0.50575163  0.37314799  1
  Ta  Ta87  1  0.47637253  0.10432095  0.14013275  1
  Ta  Ta88  1  0.57748153  -0.00950621  0.24073376  1
  Ta  Ta89  1  0.01201296  0.61841054  0.75033306  1
  Ta  Ta90  1  0.16728372  0.78546861  0.75815842  1
  Ta  Ta91  1  0.01775244  0.40534387  0.75067455  1
  Ta  Ta92  1  0.28047912  0.11610415  0.63099620  1
  Ta  Ta93  1  0.01966316  0.40744430  0.51205621  1
  Ta  Ta94  1  0.39858970  0.19092334  0.00064489  1
  Ta  Ta95  1  0.40474128  0.59606380  0.74387700  1
  Ta  Ta96  1  0.20391458  0.62113522  0.24850705  1
  Ta  Ta97  1  0.50154411  0.70152939  0.38126901  1
  Ta  Ta98  1  0.47889546  0.89108539  0.36792052  1
  Ta  Ta99  1  0.88118108  0.89916213  0.61526123  1
  Ta  Ta100  1  0.19835167  0.80513539  -0.01576051  1
  Ta  Ta101  1  0.39954692  0.80644991  0.51299782  1
  Ta  Ta102  1  0.59502896  0.00351677  0.74603817  1
  Ta  Ta103  1  0.70686819  0.50136452  0.61895093  1
  Ta  Ta104  1  0.29534321  0.69843844  0.63954094  1
  Ta  Ta105  1  0.09553743  0.08749468  0.88125196  1
  Ta  Ta106  1  0.09702867  0.88691382  0.38219509  1
  Ta  Ta107  1  0.09675757  0.09347976  0.60788118  1
  Ta  Ta108  1  0.29567635  0.88986203  0.12044657  1
  Ta  Ta109  1  0.50387867  0.50715688  0.38372774  1
  Ta  Ta110  1  0.80350671  0.79947755  0.01227050  1
  Ta  Ta111  1  0.27350898  0.09003167  0.12132418  1
  Ta  Ta112  1  0.49647898  0.90995367  0.63267104  1
  Ta  Ta113  1  0.51574941  0.30398504  0.36207940  1
  Ta  Ta114  1  0.19406097  0.20213722  0.77047516  1
  Ta  Ta115  1  0.49037381  0.09508168  0.87179770  1
  Ta  Ta116  1  0.40788859  0.41355360  0.25007123  1
  Ta  Ta117  1  0.28738987  0.90844528  0.37342373  1
  Ta  Ta118  1  0.12680780  0.69852981  0.10555197  1
  Ta  Ta119  1  0.91539810  0.30347396  0.62721612  1
  Ti  Ti120  1  0.21491910  0.38458088  0.76571541  1
  Ti  Ti121  1  0.70772422  0.69264759  0.12239858  1
  Ti  Ti122  1  0.59833462  0.40371785  0.74803361  1
  Ti  Ti123  1  0.90605339  0.50830740  0.85960549  1
  Ti  Ti124  1  0.59778201  0.59277742  0.24808442  1
  Ti  Ti125  1  0.19793718  0.58641896  0.73661014  1
  Ti  Ti126  1  0.49166917  0.31223135  0.62521376  1
  Ti  Ti127  1  0.91104482  0.69955047  0.88158406  1
  Ti  Ti128  1  0.40579040  0.59318031  -0.00145050  1
  Ti  Ti129  1  0.60497359  0.40851322  0.25124842  1
  Ti  Ti130  1  0.20243807  0.18156294  0.48414694  1
  Ti  Ti131  1  0.90177623  0.89941770  0.12737827  1
  Ti  Ti132  1  0.20558005  0.40172558  -0.00811289  1
  Ti  Ti133  1  0.49765448  0.68260723  0.11769390  1
  Ti  Ti134  1  0.81094052  0.80099458  0.74621206  1
  Ti  Ti135  1  0.38960833  -0.00105768  0.01161236  1
  Ti  Ti136  1  0.79828950  0.40187313  0.73400590  1
  Ti  Ti137  1  0.50047605  0.50867173  0.86925501  1
  Ti  Ti138  1  0.31155097  0.29442083  0.35128209  1
  Ti  Ti139  1  0.80391022  0.80467264  0.49166744  1
  Ti  Ti140  1  -0.00038896  0.20330275  0.49122350  1
  Ti  Ti141  1  0.89287582  0.09477321  0.87265535  1
  Ti  Ti142  1  0.81197924  0.60335115  0.50328260  1
  Ti  Ti143  1  0.80744886  0.20659731  0.27224537  1
  Ti  Ti144  1  0.19433849  0.17194778  0.25835236  1
  Ti  Ti145  1  0.10898531  0.51625391  0.37930702  1
  Ti  Ti146  1  0.41089709  0.39938459  0.48648272  1
  Ti  Ti147  1  0.68610173  0.30662229  0.61739841  1
  Ti  Ti148  1  0.30284249  0.09729847  0.87999957  1
  Ti  Ti149  1  0.50675899  0.69828491  0.87672757  1
  Ti  Ti150  1  0.78912261  -0.00649177  0.74156650  1
  Ti  Ti151  1  0.89841747  0.48427255  0.12225123  1
  Ti  Ti152  1  0.31369445  0.48907901  0.86806480  1
  Ti  Ti153  1  0.91786409  0.71243291  0.61434218  1
  Ti  Ti154  1  0.39232577  0.79903587  0.23896626  1
  Ti  Ti155  1  0.60312381  0.60341531  -0.00415632  1
  Ti  Ti156  1  0.00426062  0.79636291  0.00154597  1
  Ti  Ti157  1  -0.00510297  -0.00370744  0.48428350  1
  Ti  Ti158  1  0.90519093  0.09513905  0.61058466  1
  Ti  Ti159  1  -0.00291688  0.39615852  0.25016639  1
  Mo  Mo160  1  0.21493711  0.80408086  0.24952363  1
  Mo  Mo161  1  0.90065398  0.30102621  0.12874634  1
  Mo  Mo162  1  0.70240040  0.90285349  0.62390054  1
  Mo  Mo163  1  0.50547784  0.50623237  0.12784635  1
  Mo  Mo164  1  0.19107791  -0.00968823  0.25443620  1
  Mo  Mo165  1  0.09954731  0.30578432  0.87025357  1
  Mo  Mo166  1  0.69477527  0.30253130  0.36984444  1
  Mo  Mo167  1  0.48768631  0.90075146  0.12924636  1
  Mo  Mo168  1  0.90900477  0.30496910  0.38748751  1
  Mo  Mo169  1  0.20490286  0.00025776  -0.00756733  1
  Mo  Mo170  1  0.18744550  -0.00157341  0.50156720  1
  Mo  Mo171  1  0.28703209  0.09863662  0.36743155  1
  Mo  Mo172  1  0.09403410  0.69061468  0.62806733  1
  Mo  Mo173  1  0.01242044  0.60235969  0.50863973  1
  Mo  Mo174  1  0.30355973  0.69888334  0.11562964  1
  Mo  Mo175  1  0.40908542  0.40623937  0.75530053  1
  Mo  Mo176  1  0.30768906  0.28749794  0.62733597  1
  Mo  Mo177  1  0.89236698  0.11303964  0.13303333  1
  Mo  Mo178  1  0.09985023  0.10391409  0.12648083  1
  Mo  Mo179  1  0.58842437  0.21901069  0.49749962  1
  Mo  Mo180  1  0.29827649  0.30029342  0.88646863  1
  Mo  Mo181  1  0.60299072  0.60146484  0.50304281  1
  Mo  Mo182  1  0.00320844  0.60398881  -0.00506622  1
  Mo  Mo183  1  0.11127512  0.69278341  0.37666232  1
  Mo  Mo184  1  0.49198417  0.70713076  0.62614481  1
  Mo  Mo185  1  -0.00719015  0.80497794  0.49713840  1
  Mo  Mo186  1  0.21924857  0.59646027  -0.00474744  1
  Mo  Mo187  1  0.09310222  0.89422786  0.88031376  1
  Mo  Mo188  1  0.38761921  0.20174630  0.24734690  1
  Mo  Mo189  1  0.40036164  0.01124717  0.75043645  1
  Mo  Mo190  1  0.59599278  0.20017065  0.24809680  1
  Mo  Mo191  1  0.10226667  0.08818994  0.39065923  1
  Mo  Mo192  1  0.80179209  0.19308799  0.00221352  1
  Mo  Mo193  1  -0.01765897  0.79207998  0.75053497  1
  Mo  Mo194  1  0.90073747  0.89618421  0.37667331  1
  Mo  Mo195  1  0.70362190  0.30378540  0.86012663  1
  Mo  Mo196  1  0.09500536  0.70385259  0.88731673  1
  Mo  Mo197  1  0.59727663  0.38772446  0.49961703  1
  Mo  Mo198  1  0.10371868  0.48828655  0.63901669  1
  Mo  Mo199  1  0.90362226  0.10397423  0.38749720  1
