# generated using pymatgen
data_HfZrTaTiMo
_symmetry_space_group_name_H-M   'P 1'
_cell_length_a   15.20455532
_cell_length_b   15.22338380
_cell_length_c   16.81670910
_cell_angle_alpha   89.97248908
_cell_angle_beta   90.00544900
_cell_angle_gamma   89.99877683
_symmetry_Int_Tables_number   1
_chemical_formula_structural   HfZrTaTiMo
_chemical_formula_sum   'Hf40 Zr40 Ta40 Ti40 Mo40'
_cell_volume   3892.47542376
_cell_formula_units_Z   40
loop_
 _symmetry_equiv_pos_site_id
 _symmetry_equiv_pos_as_xyz
  1  'x, y, z'
loop_
 _atom_site_type_symbol
 _atom_site_label
 _atom_site_symmetry_multiplicity
 _atom_site_fract_x
 _atom_site_fract_y
 _atom_site_fract_z
 _atom_site_occupancy
  Hf  Hf0  1  0.09650375  0.68600837  0.62032040  1
  Hf  Hf1  1  0.80074666  0.39707320  0.75803323  1
  Hf  Hf2  1  0.40938133  0.41142958  0.50400683  1
  Hf  Hf3  1  0.50804162  0.72496726  0.12226507  1
  Hf  Hf4  1  0.40292518  0.81021099  0.73295783  1
  Hf  Hf5  1  0.60087697  0.00541378  0.75574042  1
  Hf  Hf6  1  -0.00925186  0.21689322  0.25260823  1
  Hf  Hf7  1  0.00847555  0.00316019  0.00082208  1
  Hf  Hf8  1  0.69331707  0.08700564  0.10104679  1
  Hf  Hf9  1  0.12436361  0.70250489  0.12208657  1
  Hf  Hf10  1  0.31182731  0.29133507  0.88157225  1
  Hf  Hf11  1  0.88973446  0.10998212  0.63182497  1
  Hf  Hf12  1  0.30804786  0.49083186  0.86754784  1
  Hf  Hf13  1  0.70760680  0.69689134  0.61908708  1
  Hf  Hf14  1  0.20116355  -0.00730808  0.00736555  1
  Hf  Hf15  1  0.29050363  0.90018133  0.37529338  1
  Hf  Hf16  1  0.79749326  0.79272711  0.23205565  1
  Hf  Hf17  1  0.58674066  0.01523349  0.25371378  1
  Hf  Hf18  1  0.39491598  0.00820579  0.50626013  1
  Hf  Hf19  1  0.70997322  0.50030612  0.35854311  1
  Hf  Hf20  1  0.80309146  0.81036586  0.75086457  1
  Hf  Hf21  1  0.60749887  0.62654721  0.24837827  1
  Hf  Hf22  1  0.60613265  0.59358735  0.75281319  1
  Hf  Hf23  1  0.78999062  -0.00830110  0.24037917  1
  Hf  Hf24  1  0.70400265  0.49055558  0.13687503  1
  Hf  Hf25  1  0.90454457  0.71194550  0.37866316  1
  Hf  Hf26  1  0.92363962  0.50459788  0.37336025  1
  Hf  Hf27  1  0.08390007  0.09446958  0.36498084  1
  Hf  Hf28  1  0.59628581  0.39414930  0.00611159  1
  Hf  Hf29  1  0.90224634  0.89685188  0.88481780  1
  Hf  Hf30  1  0.39626442  0.20972256  0.74735666  1
  Hf  Hf31  1  0.51029437  0.30890142  0.62268902  1
  Hf  Hf32  1  0.91726979  0.47543280  0.13101658  1
  Hf  Hf33  1  0.40204475  0.81245191  0.50543970  1
  Hf  Hf34  1  0.21080190  0.59254753  0.26195526  1
  Hf  Hf35  1  0.81318660  0.58941938  0.01175797  1
  Hf  Hf36  1  0.19354388  0.39783533  -0.00884787  1
  Hf  Hf37  1  0.90054488  0.49165270  0.62512453  1
  Hf  Hf38  1  0.17718741  -0.00029019  0.51064587  1
  Hf  Hf39  1  0.39389593  0.81154250  -0.00167556  1
  Zr  Zr40  1  0.79335179  0.18369368  0.26059228  1
  Zr  Zr41  1  0.29697062  0.87973776  0.13519880  1
  Zr  Zr42  1  0.31245449  0.50053662  0.63185921  1
  Zr  Zr43  1  0.91069738  0.70652840  0.62734274  1
  Zr  Zr44  1  0.40953895  0.79767067  0.26669777  1
  Zr  Zr45  1  0.81249472  0.82157131  0.50591735  1
  Zr  Zr46  1  0.27963048  0.11866738  0.61730949  1
  Zr  Zr47  1  0.40651963  0.60619384  0.00095399  1
  Zr  Zr48  1  0.69529752  0.10832281  0.62171080  1
  Zr  Zr49  1  0.09739996  0.68386807  0.39442415  1
  Zr  Zr50  1  0.70640889  0.28552084  0.12138661  1
  Zr  Zr51  1  0.50345073  0.68760197  0.62256037  1
  Zr  Zr52  1  0.19854616  0.59922189  0.76044342  1
  Zr  Zr53  1  0.17952011  -0.01813723  0.24224567  1
  Zr  Zr54  1  0.50738117  0.50656016  0.35742090  1
  Zr  Zr55  1  0.19360710  0.38566046  0.24995857  1
  Zr  Zr56  1  0.00886596  0.60007418  -0.01089251  1
  Zr  Zr57  1  0.71850526  0.30045245  0.62295350  1
  Zr  Zr58  1  0.40256078  0.19896575  0.25647805  1
  Zr  Zr59  1  0.29380456  0.29312334  0.12060349  1
  Zr  Zr60  1  0.30753237  0.71422380  0.86005890  1
  Zr  Zr61  1  0.59969211  0.80238059  0.49416861  1
  Zr  Zr62  1  0.19337208  0.18734578  -0.00434837  1
  Zr  Zr63  1  0.07889589  0.89050777  0.38415359  1
  Zr  Zr64  1  0.10252539  0.48475505  0.63461565  1
  Zr  Zr65  1  0.50405139  0.49805652  0.87863304  1
  Zr  Zr66  1  0.50166917  0.11123444  0.62054122  1
  Zr  Zr67  1  0.49455565  0.10933584  0.87684022  1
  Zr  Zr68  1  0.01417930  0.38803779  0.49860180  1
  Zr  Zr69  1  0.01241004  0.60559776  0.24221500  1
  Zr  Zr70  1  0.28402353  0.10885139  0.37044930  1
  Zr  Zr71  1  0.61456776  0.40935051  0.49432166  1
  Zr  Zr72  1  0.70733680  0.49576083  0.88485679  1
  Zr  Zr73  1  0.39373497  -0.00159079  0.73457903  1
  Zr  Zr74  1  0.39903830  0.61477283  0.48243983  1
  Zr  Zr75  1  0.50135082  0.50570668  0.13572074  1
  Zr  Zr76  1  0.20408597  0.60303800  -0.01853717  1
  Zr  Zr77  1  0.81684624  0.37803715  0.26330686  1
  Zr  Zr78  1  0.80240381  0.78562612  0.01403555  1
  Zr  Zr79  1  0.60133703  0.81018161  0.74818887  1
  Ta  Ta80  1  0.19189339  0.19205073  0.75674695  1
  Ta  Ta81  1  0.80202181  0.59308958  0.49684433  1
  Ta  Ta82  1  0.70328667  0.09975884  0.89334627  1
  Ta  Ta83  1  0.59713357  0.00032817  0.49496362  1
  Ta  Ta84  1  0.19058190  -0.00573719  0.73837393  1
  Ta  Ta85  1  0.89387283  0.11208366  0.11370985  1
  Ta  Ta86  1  0.67958065  0.89116912  0.10512690  1
  Ta  Ta87  1  0.07694439  0.88803903  0.62724287  1
  Ta  Ta88  1  0.89828868  0.91153489  0.11630411  1
  Ta  Ta89  1  0.00263173  0.81448432  0.23117088  1
  Ta  Ta90  1  0.30369001  0.09042819  0.13945067  1
  Ta  Ta91  1  0.59320565  0.20488183  0.47910730  1
  Ta  Ta92  1  0.81193043  0.60540404  0.23720944  1
  Ta  Ta93  1  0.29745362  0.50889279  0.12479374  1
  Ta  Ta94  1  0.70865852  0.70345288  0.37807228  1
  Ta  Ta95  1  0.80274265  0.60099631  0.75468249  1
  Ta  Ta96  1  0.70302310  0.70349413  0.87986150  1
  Ta  Ta97  1  0.90005044  0.10006806  0.87655263  1
  Ta  Ta98  1  0.20786477  0.38101596  0.75035415  1
  Ta  Ta99  1  0.59830009  0.21299486  0.26559725  1
  Ta  Ta100  1  0.29529904  0.69996641  0.62637005  1
  Ta  Ta101  1  0.29164023  0.09054295  0.86947035  1
  Ta  Ta102  1  0.39960560  0.40062280  0.24451634  1
  Ta  Ta103  1  0.39351772  0.01164274  0.00302628  1
  Ta  Ta104  1  0.29866301  0.48416865  0.37731965  1
  Ta  Ta105  1  -0.00597217  0.20750754  -0.00492751  1
  Ta  Ta106  1  0.80434767  0.20367051  0.48495693  1
  Ta  Ta107  1  0.19331472  0.80349872  -0.00944929  1
  Ta  Ta108  1  0.09226922  0.10542250  0.13625303  1
  Ta  Ta109  1  0.81382259  0.39474123  0.48752945  1
  Ta  Ta110  1  0.00105192  0.19101596  0.50021573  1
  Ta  Ta111  1  0.89852996  0.69758205  0.87076970  1
  Ta  Ta112  1  -0.00201795  0.40149437  -0.02021507  1
  Ta  Ta113  1  0.07964508  0.30509088  0.12007672  1
  Ta  Ta114  1  0.38294841  0.21922903  0.49192651  1
  Ta  Ta115  1  0.10876057  0.49446011  0.11973420  1
  Ta  Ta116  1  0.69216993  0.90375359  0.89850736  1
  Ta  Ta117  1  -0.00575630  0.58814890  0.76558639  1
  Ta  Ta118  1  0.20301857  0.79428706  0.50908812  1
  Ta  Ta119  1  0.21509453  0.37298099  0.50715055  1
  Ti  Ti120  1  0.09264404  0.71511496  0.86452133  1
  Ti  Ti121  1  0.11408672  0.29027863  0.37618191  1
  Ti  Ti122  1  0.08027501  0.09626782  0.63538434  1
  Ti  Ti123  1  0.40515774  0.20324997  0.00723308  1
  Ti  Ti124  1  0.89895819  0.29538934  0.86993379  1
  Ti  Ti125  1  0.89611625  0.90669312  0.36415476  1
  Ti  Ti126  1  0.10201986  0.90101971  0.86389359  1
  Ti  Ti127  1  0.59347049  0.20704631  -0.00833623  1
  Ti  Ti128  1  0.79227081  0.00264806  0.76122158  1
  Ti  Ti129  1  0.41951100  0.40202173  0.74523912  1
  Ti  Ti130  1  0.60792609  0.81794068  0.25764812  1
  Ti  Ti131  1  0.69785344  0.50012112  0.62546363  1
  Ti  Ti132  1  0.61184665  0.61192303  0.00879123  1
  Ti  Ti133  1  0.60232740  0.60017990  0.49060479  1
  Ti  Ti134  1  0.39560740  0.61148908  0.25999729  1
  Ti  Ti135  1  0.70419035  0.91628551  0.62056107  1
  Ti  Ti136  1  0.49380578  0.90685229  0.88060203  1
  Ti  Ti137  1  0.50974444  0.70976882  0.87731943  1
  Ti  Ti138  1  0.49499178  0.30989543  0.37409447  1
  Ti  Ti139  1  0.09248972  0.29312401  0.86241909  1
  Ti  Ti140  1  0.19581220  0.80777386  0.73700423  1
  Ti  Ti141  1  0.49997193  0.11342790  0.12187999  1
  Ti  Ti142  1  0.40434397  0.39459753  0.01212213  1
  Ti  Ti143  1  0.70645598  0.90402719  0.37828746  1
  Ti  Ti144  1  0.49503522  0.92273675  0.12482884  1
  Ti  Ti145  1  0.89463564  0.08948373  0.37918430  1
  Ti  Ti146  1  0.49794517  0.91885563  0.37315498  1
  Ti  Ti147  1  0.40939539  0.60207790  0.74955780  1
  Ti  Ti148  1  0.20089044  0.57943725  0.49692546  1
  Ti  Ti149  1  0.79725049  0.19658765  0.76494165  1
  Ti  Ti150  1  0.09260741  0.09420573  0.86340052  1
  Ti  Ti151  1  0.69309676  0.09458546  0.38244607  1
  Ti  Ti152  1  0.80769536  0.38234831  -0.00612702  1
  Ti  Ti153  1  0.09348627  0.28292125  0.63744175  1
  Ti  Ti154  1  0.00565597  0.79717451  0.01127954  1
  Ti  Ti155  1  -0.01188532  -0.00842899  0.75004662  1
  Ti  Ti156  1  0.19956879  0.78182658  0.26263171  1
  Ti  Ti157  1  0.60560208  0.22403614  0.76787423  1
  Ti  Ti158  1  -0.03025821  -0.01021250  0.51157561  1
  Ti  Ti159  1  0.29537096  0.90720859  0.86910130  1
  Mo  Mo160  1  0.79407364  0.00966517  0.49414762  1
  Mo  Mo161  1  0.91313250  0.69762653  0.12737922  1
  Mo  Mo162  1  0.00433570  0.80631017  0.50370380  1
  Mo  Mo163  1  0.09314919  0.89800576  0.12095499  1
  Mo  Mo164  1  0.80320290  0.20013638  -0.01347282  1
  Mo  Mo165  1  0.51411623  0.50255965  0.62790695  1
  Mo  Mo166  1  0.70036405  0.29860101  0.37940065  1
  Mo  Mo167  1  0.51042739  0.91000234  0.61859040  1
  Mo  Mo168  1  0.89331823  0.91619856  0.63766333  1
  Mo  Mo169  1  0.90095586  0.49519419  0.87306696  1
  Mo  Mo170  1  0.29696008  0.69905823  0.38471998  1
  Mo  Mo171  1  0.29711303  0.30350295  0.63194580  1
  Mo  Mo172  1  0.40076251  0.00237161  0.24774889  1
  Mo  Mo173  1  0.00490511  0.80027797  0.75686463  1
  Mo  Mo174  1  -0.02206622  0.00531832  0.23870032  1
  Mo  Mo175  1  0.28536459  0.89828420  0.62028134  1
  Mo  Mo176  1  0.59533112  0.38838745  0.24736155  1
  Mo  Mo177  1  0.80177115  -0.00253800  0.00019694  1
  Mo  Mo178  1  0.50169555  0.29678983  0.13061660  1
  Mo  Mo179  1  0.69908095  0.29282200  0.88142890  1
  Mo  Mo180  1  0.00226793  0.38859355  0.75974375  1
  Mo  Mo181  1  0.50006938  0.30791852  0.87578360  1
  Mo  Mo182  1  0.58327776  0.00218222  -0.00236729  1
  Mo  Mo183  1  0.11448565  0.48527224  0.38636954  1
  Mo  Mo184  1  0.60384165  0.40006800  0.74763555  1
  Mo  Mo185  1  0.09944924  0.48320951  0.85844215  1
  Mo  Mo186  1  0.49590370  0.10584496  0.38542981  1
  Mo  Mo187  1  0.30573438  0.69157984  0.12665185  1
  Mo  Mo188  1  0.90937775  0.29439700  0.62888390  1
  Mo  Mo189  1  0.90255844  0.29527640  0.11513468  1
  Mo  Mo190  1  -0.00617457  0.19429331  0.75667368  1
  Mo  Mo191  1  -0.00579507  0.59210310  0.50376797  1
  Mo  Mo192  1  0.18124588  0.20252386  0.50311709  1
  Mo  Mo193  1  0.69958642  0.69597657  0.12029849  1
  Mo  Mo194  1  0.59029291  0.79858335  -0.01030043  1
  Mo  Mo195  1  0.51388026  0.71367526  0.37371326  1
  Mo  Mo196  1  0.01469824  0.40149359  0.25702680  1
  Mo  Mo197  1  0.30226187  0.30319420  0.37291159  1
  Mo  Mo198  1  0.19096697  0.19308581  0.24078485  1
  Mo  Mo199  1  0.91263266  0.28783496  0.38332783  1
