# generated using pymatgen
data_HfZrTaTiMo
_symmetry_space_group_name_H-M   'P 1'
_cell_length_a   15.20341999
_cell_length_b   15.21525853
_cell_length_c   16.80907365
_cell_angle_alpha   89.93759227
_cell_angle_beta   90.04377753
_cell_angle_gamma   90.15759101
_symmetry_Int_Tables_number   1
_chemical_formula_structural   HfZrTaTiMo
_chemical_formula_sum   'Hf40 Zr40 Ta40 Ti40 Mo40'
_cell_volume   3888.32343576
_cell_formula_units_Z   40
loop_
 _symmetry_equiv_pos_site_id
 _symmetry_equiv_pos_as_xyz
  1  'x, y, z'
loop_
 _atom_site_type_symbol
 _atom_site_label
 _atom_site_symmetry_multiplicity
 _atom_site_fract_x
 _atom_site_fract_y
 _atom_site_fract_z
 _atom_site_occupancy
  Hf  Hf0  1  0.00806490  0.60650674  0.23790601  1
  Hf  Hf1  1  0.79391515  0.38097166  0.73943167  1
  Hf  Hf2  1  0.50160506  0.10828483  0.39624394  1
  Hf  Hf3  1  0.78970455  0.60555314  -0.00779147  1
  Hf  Hf4  1  0.30946253  0.50083518  0.86162969  1
  Hf  Hf5  1  0.68128762  0.69431986  0.61441617  1
  Hf  Hf6  1  0.68568872  0.28120880  0.37863781  1
  Hf  Hf7  1  0.90599768  0.70214982  0.87200514  1
  Hf  Hf8  1  0.57750184  0.59721982  0.00302366  1
  Hf  Hf9  1  0.21490019  -0.00573561  0.25128453  1
  Hf  Hf10  1  0.60511408  0.60733006  0.75991830  1
  Hf  Hf11  1  0.89321370  0.89714330  0.38432785  1
  Hf  Hf12  1  0.69929298  0.07075783  0.39354675  1
  Hf  Hf13  1  0.77963792  0.79221295  0.76167753  1
  Hf  Hf14  1  0.59751538  0.20058014  0.73279222  1
  Hf  Hf15  1  0.79552850  0.18622536  0.25359970  1
  Hf  Hf16  1  0.01803978  0.61130581  0.01222902  1
  Hf  Hf17  1  0.88725064  0.29577053  0.86917131  1
  Hf  Hf18  1  0.28980565  0.71266884  0.37920388  1
  Hf  Hf19  1  0.12178390  0.49568232  0.13062363  1
  Hf  Hf20  1  0.71169450  0.49965341  0.60947276  1
  Hf  Hf21  1  0.22255867  0.60279847  0.00101513  1
  Hf  Hf22  1  0.40158372  0.21315397  0.00105786  1
  Hf  Hf23  1  0.89536297  0.49688791  0.12916250  1
  Hf  Hf24  1  0.50559196  0.50849179  0.61270826  1
  Hf  Hf25  1  0.01028712  -0.00115334  0.25922339  1
  Hf  Hf26  1  0.10475405  0.51930796  0.86578685  1
  Hf  Hf27  1  0.69530061  0.47636029  0.88494373  1
  Hf  Hf28  1  0.40671048  0.38782998  0.73355926  1
  Hf  Hf29  1  0.20712727  0.00504346  0.51954785  1
  Hf  Hf30  1  0.31190526  0.88869908  0.85498589  1
  Hf  Hf31  1  0.01452278  0.20091999  0.25397376  1
  Hf  Hf32  1  0.90773956  0.09909103  0.37752416  1
  Hf  Hf33  1  0.90814172  0.49435873  0.88878975  1
  Hf  Hf34  1  0.50476080  0.10199358  0.87491075  1
  Hf  Hf35  1  0.80986641  0.19087031  0.50077760  1
  Hf  Hf36  1  0.40860062  0.01546394  0.24953930  1
  Hf  Hf37  1  0.69023021  0.70624112  0.12909262  1
  Hf  Hf38  1  0.00686315  0.01298657  -0.03023450  1
  Hf  Hf39  1  0.58854053  0.38473447  0.49772671  1
  Zr  Zr40  1  0.48211030  0.48858456  0.38183061  1
  Zr  Zr41  1  0.48154404  0.70463683  0.87360246  1
  Zr  Zr42  1  0.48454980  0.70745514  0.37235714  1
  Zr  Zr43  1  0.09665266  0.70153952  0.38197390  1
  Zr  Zr44  1  0.09993810  0.31184870  0.85778590  1
  Zr  Zr45  1  0.21010714  0.01358966  0.73556418  1
  Zr  Zr46  1  0.59447664  0.59553562  0.26249980  1
  Zr  Zr47  1  0.00330180  0.40177999  0.50783109  1
  Zr  Zr48  1  0.69538870  0.07813992  0.12133178  1
  Zr  Zr49  1  0.19405160  0.60633424  0.51700305  1
  Zr  Zr50  1  0.00020743  0.20640969  -0.00821725  1
  Zr  Zr51  1  0.60374465  0.20691445  0.00560436  1
  Zr  Zr52  1  0.21750752  0.39799407  -0.00595592  1
  Zr  Zr53  1  0.11158464  0.50056112  0.37257312  1
  Zr  Zr54  1  0.19653592  0.19672698  -0.01617153  1
  Zr  Zr55  1  0.18831863  0.79143020  0.00077242  1
  Zr  Zr56  1  0.58611437  0.18998099  0.24384975  1
  Zr  Zr57  1  0.11496109  0.89639339  0.38561104  1
  Zr  Zr58  1  0.70830081  0.89992100  0.62062736  1
  Zr  Zr59  1  0.91288823  0.50219119  0.36972420  1
  Zr  Zr60  1  0.30226704  0.30244633  0.12944100  1
  Zr  Zr61  1  0.90768616  0.08441281  0.12763021  1
  Zr  Zr62  1  0.00278406  0.00932637  0.50592344  1
  Zr  Zr63  1  0.60233346  0.39915425  0.73954861  1
  Zr  Zr64  1  0.11294392  0.10193409  0.12285227  1
  Zr  Zr65  1  0.80364407  -0.01954102  -0.01904032  1
  Zr  Zr66  1  -0.01521147  0.81601639  -0.00623634  1
  Zr  Zr67  1  0.39381575  0.81562759  0.24204024  1
  Zr  Zr68  1  0.39025908  0.79203133  0.01158182  1
  Zr  Zr69  1  0.69418841  0.49602702  0.12907501  1
  Zr  Zr70  1  -0.00444653  0.80379954  0.24565590  1
  Zr  Zr71  1  0.30802944  0.09741762  0.86867362  1
  Zr  Zr72  1  0.80315747  0.58218621  0.75879659  1
  Zr  Zr73  1  0.88769581  0.68985708  0.62882945  1
  Zr  Zr74  1  0.88671257  0.70755627  0.12201526  1
  Zr  Zr75  1  0.89886246  0.30279793  0.13688845  1
  Zr  Zr76  1  0.79985679  0.19323146  0.00295065  1
  Zr  Zr77  1  0.10251082  0.89747716  0.85052369  1
  Zr  Zr78  1  -0.00799264  0.42091105  0.73177724  1
  Zr  Zr79  1  0.21078808  -0.01044579  -0.00356098  1
  Ta  Ta80  1  0.00020083  0.79937942  0.51852346  1
  Ta  Ta81  1  0.30985718  0.31075112  0.39239763  1
  Ta  Ta82  1  0.00795352  0.40132534  0.00703985  1
  Ta  Ta83  1  0.59542577  0.80103678  0.49194736  1
  Ta  Ta84  1  0.39864668  0.80932547  0.51599057  1
  Ta  Ta85  1  0.79878176  0.79492755  0.49802765  1
  Ta  Ta86  1  0.19276547  0.20196697  0.50645026  1
  Ta  Ta87  1  0.20764040  0.21214865  0.74118805  1
  Ta  Ta88  1  0.59466667  0.00007591  0.73776422  1
  Ta  Ta89  1  0.49865935  0.90818931  0.87254103  1
  Ta  Ta90  1  0.40726040  0.60206284  0.73457050  1
  Ta  Ta91  1  0.90077149  0.70388361  0.38043473  1
  Ta  Ta92  1  0.80090031  0.39522057  0.48711934  1
  Ta  Ta93  1  0.90541557  0.29885101  0.37184210  1
  Ta  Ta94  1  0.09017921  0.90564408  0.63852491  1
  Ta  Ta95  1  0.69869616  0.10131973  0.86785196  1
  Ta  Ta96  1  0.09594089  0.70043750  0.64627025  1
  Ta  Ta97  1  0.21048189  0.19690814  0.26348599  1
  Ta  Ta98  1  0.10712801  0.29368227  0.38165467  1
  Ta  Ta99  1  0.69548774  0.30432695  0.14052722  1
  Ta  Ta100  1  0.79673134  0.59541082  0.48082568  1
  Ta  Ta101  1  0.30167585  0.10912866  0.39027237  1
  Ta  Ta102  1  0.49353633  0.49470359  0.87365957  1
  Ta  Ta103  1  0.79130108  -0.02638483  0.25391813  1
  Ta  Ta104  1  0.09449141  0.90133592  0.12202419  1
  Ta  Ta105  1  0.10252489  0.30605593  0.62864057  1
  Ta  Ta106  1  0.20250685  0.80740130  0.52984518  1
  Ta  Ta107  1  0.08587922  0.11891402  0.63750782  1
  Ta  Ta108  1  0.51543767  0.90028094  0.12476805  1
  Ta  Ta109  1  0.61403047  0.81059259  0.26394418  1
  Ta  Ta110  1  0.59780120  0.80485187  -0.00421690  1
  Ta  Ta111  1  0.78896141  0.40272752  0.26954479  1
  Ta  Ta112  1  0.28871457  0.69680715  0.84666003  1
  Ta  Ta113  1  0.90702407  0.28235715  0.62188295  1
  Ta  Ta114  1  0.30052710  0.30231625  0.61352021  1
  Ta  Ta115  1  0.39447680  0.61144765  0.51270404  1
  Ta  Ta116  1  0.21444077  0.39407311  0.25976240  1
  Ta  Ta117  1  0.41057949  -0.00656401  0.00863404  1
  Ta  Ta118  1  0.10727251  0.30232064  0.12963160  1
  Ta  Ta119  1  0.79311768  0.60808753  0.26848578  1
  Ti  Ti120  1  0.49395906  0.31972802  0.13174081  1
  Ti  Ti121  1  0.10402010  0.70662285  0.84379299  1
  Ti  Ti122  1  -0.00518537  0.60079268  0.51380130  1
  Ti  Ti123  1  0.39809227  0.21604489  0.26042277  1
  Ti  Ti124  1  0.59084119  0.39567307  0.00821215  1
  Ti  Ti125  1  0.58173566  0.80289645  0.74594498  1
  Ti  Ti126  1  0.31646796  0.30090394  0.86391144  1
  Ti  Ti127  1  0.50446071  0.91186632  0.38615791  1
  Ti  Ti128  1  0.88897754  0.89784959  0.12680746  1
  Ti  Ti129  1  0.59988269  0.60205308  0.47923505  1
  Ti  Ti130  1  0.60043713  -0.00646745  0.25456881  1
  Ti  Ti131  1  0.70281644  0.89081048  0.11803374  1
  Ti  Ti132  1  -0.01845978  0.81001277  0.74124393  1
  Ti  Ti133  1  0.32286518  0.91501978  0.63667912  1
  Ti  Ti134  1  0.79838460  -0.00796248  0.75668196  1
  Ti  Ti135  1  0.40069156  0.18312969  0.72730624  1
  Ti  Ti136  1  0.29971162  0.69564148  0.13424624  1
  Ti  Ti137  1  0.33027120  0.50063626  0.13139760  1
  Ti  Ti138  1  0.79941336  0.18502874  0.74228775  1
  Ti  Ti139  1  0.30380074  0.70899870  0.64203760  1
  Ti  Ti140  1  0.58789018  0.39288344  0.26224642  1
  Ti  Ti141  1  0.20346124  0.40686163  0.50604104  1
  Ti  Ti142  1  0.30689826  0.10064621  0.12325521  1
  Ti  Ti143  1  0.70326921  0.29091661  0.60912168  1
  Ti  Ti144  1  0.21254019  0.60202675  0.24801941  1
  Ti  Ti145  1  0.40819598  0.20968796  0.51269996  1
  Ti  Ti146  1  0.30044517  0.50961999  0.38001190  1
  Ti  Ti147  1  0.49967469  0.09899878  0.11723448  1
  Ti  Ti148  1  0.29665730  0.50410827  0.62708120  1
  Ti  Ti149  1  0.19239657  0.79974670  0.23439543  1
  Ti  Ti150  1  0.79463929  0.38492930  0.00655722  1
  Ti  Ti151  1  0.31353921  0.90807846  0.39066415  1
  Ti  Ti152  1  0.50982810  0.30653921  0.87504559  1
  Ti  Ti153  1  0.20390623  0.40748659  0.73878747  1
  Ti  Ti154  1  -0.01259324  0.01281489  0.75714077  1
  Ti  Ti155  1  0.00987167  0.39748443  0.25137613  1
  Ti  Ti156  1  0.49124482  0.68823157  0.13632397  1
  Ti  Ti157  1  0.69715507  0.09324552  0.61262297  1
  Ti  Ti158  1  0.89407374  0.08584257  0.62816561  1
  Ti  Ti159  1  0.68315194  0.89927095  0.87250133  1
  Mo  Mo160  1  0.30140525  0.11092445  0.61599025  1
  Mo  Mo161  1  0.09512872  0.11246044  0.84131448  1
  Mo  Mo162  1  0.40753976  0.80356962  0.73522149  1
  Mo  Mo163  1  0.69958915  0.70145815  0.38135665  1
  Mo  Mo164  1  0.49857401  0.29484020  0.62194845  1
  Mo  Mo165  1  0.41782050  0.00343347  0.74398185  1
  Mo  Mo166  1  0.59261670  -0.00811620  0.51411510  1
  Mo  Mo167  1  -0.00764887  0.20539974  0.74736257  1
  Mo  Mo168  1  0.10204700  0.50558154  0.62775681  1
  Mo  Mo169  1  0.78323760  0.79706834  -0.01631810  1
  Mo  Mo170  1  -0.00385707  0.60637040  0.74675903  1
  Mo  Mo171  1  0.49588959  0.08955911  0.61094540  1
  Mo  Mo172  1  0.89450362  0.49277210  0.60807707  1
  Mo  Mo173  1  0.69329737  0.28506226  0.87193504  1
  Mo  Mo174  1  0.90065798  0.90054479  0.63095082  1
  Mo  Mo175  1  0.50754443  0.89550380  0.62005649  1
  Mo  Mo176  1  0.49839236  0.70186562  0.61728951  1
  Mo  Mo177  1  0.39736884  -0.00089143  0.50033892  1
  Mo  Mo178  1  0.88918982  0.10140706  0.85808272  1
  Mo  Mo179  1  0.59665804  -0.00578000  -0.00394283  1
  Mo  Mo180  1  0.68789057  0.70343992  0.88223826  1
  Mo  Mo181  1  0.10935289  0.70342053  0.12767535  1
  Mo  Mo182  1  0.60002978  0.19466436  0.51873651  1
  Mo  Mo183  1  0.69724873  0.49175538  0.37919711  1
  Mo  Mo184  1  0.00446793  0.20422069  0.50010433  1
  Mo  Mo185  1  0.69471598  0.89353544  0.38689268  1
  Mo  Mo186  1  0.48719550  0.29130911  0.37861003  1
  Mo  Mo187  1  0.80490570  -0.01013228  0.50983125  1
  Mo  Mo188  1  0.39744388  0.40307602  0.25780958  1
  Mo  Mo189  1  0.20310780  0.59634403  0.73627965  1
  Mo  Mo190  1  0.30354129  0.90601647  0.12733611  1
  Mo  Mo191  1  0.79492239  0.79744670  0.25611507  1
  Mo  Mo192  1  0.41561688  0.40882998  -0.00338338  1
  Mo  Mo193  1  0.39622931  0.59492848  -0.00048986  1
  Mo  Mo194  1  0.38899157  0.60056596  0.25325376  1
  Mo  Mo195  1  0.11704838  0.10576212  0.37892198  1
  Mo  Mo196  1  0.38781833  0.40779850  0.51319875  1
  Mo  Mo197  1  0.20271638  0.80630917  0.72870221  1
  Mo  Mo198  1  0.89081531  0.90085505  0.85800413  1
  Mo  Mo199  1  0.49904513  0.49588018  0.13477228  1
