# generated using pymatgen
data_HfZrTaTiMo
_symmetry_space_group_name_H-M   'P 1'
_cell_length_a   15.22072066
_cell_length_b   15.20779662
_cell_length_c   16.81428810
_cell_angle_alpha   89.98667835
_cell_angle_beta   89.95284338
_cell_angle_gamma   89.86134450
_symmetry_Int_Tables_number   1
_chemical_formula_structural   HfZrTaTiMo
_chemical_formula_sum   'Hf40 Zr40 Ta40 Ti40 Mo40'
_cell_volume   3892.05138641
_cell_formula_units_Z   40
loop_
 _symmetry_equiv_pos_site_id
 _symmetry_equiv_pos_as_xyz
  1  'x, y, z'
loop_
 _atom_site_type_symbol
 _atom_site_label
 _atom_site_symmetry_multiplicity
 _atom_site_fract_x
 _atom_site_fract_y
 _atom_site_fract_z
 _atom_site_occupancy
  Hf  Hf0  1  0.70084485  0.48535850  0.64173818  1
  Hf  Hf1  1  0.70136984  0.89596295  0.87649310  1
  Hf  Hf2  1  0.39544288  0.80728860  0.25614215  1
  Hf  Hf3  1  0.39291841  0.00864238  0.25799912  1
  Hf  Hf4  1  0.51198023  0.48678242  0.10420733  1
  Hf  Hf5  1  0.59930921  0.59365182  0.24892586  1
  Hf  Hf6  1  0.31027758  0.50378120  0.11141664  1
  Hf  Hf7  1  0.80860984  0.38559484  0.22826697  1
  Hf  Hf8  1  0.20066178  0.59002251  0.72940612  1
  Hf  Hf9  1  0.79421618  0.78361018  0.51050964  1
  Hf  Hf10  1  0.41909800  0.39554054  0.24553969  1
  Hf  Hf11  1  0.60165117  0.60816039  0.50259102  1
  Hf  Hf12  1  0.29228117  0.71061299  0.86715676  1
  Hf  Hf13  1  0.68539536  0.90176437  0.62737759  1
  Hf  Hf14  1  0.89968244  0.10150419  0.89822744  1
  Hf  Hf15  1  0.50431882  0.49737086  0.38769392  1
  Hf  Hf16  1  0.70900789  0.49046747  0.37480492  1
  Hf  Hf17  1  0.79993445  0.58875048  0.51298840  1
  Hf  Hf18  1  0.19923034  0.61079476  0.00043195  1
  Hf  Hf19  1  0.89689860  0.69487246  0.87110590  1
  Hf  Hf20  1  0.40204487  -0.01856259  0.49646417  1
  Hf  Hf21  1  0.19035766  0.81210206  0.73580306  1
  Hf  Hf22  1  0.48977320  0.09125360  0.62884043  1
  Hf  Hf23  1  0.20447366  0.01000214  0.73751363  1
  Hf  Hf24  1  0.49439311  0.10630932  0.37655689  1
  Hf  Hf25  1  -0.00586562  -0.00313535  0.27044687  1
  Hf  Hf26  1  -0.00409052  0.59051097  0.00943210  1
  Hf  Hf27  1  0.91141334  0.89820695  0.87657195  1
  Hf  Hf28  1  0.90430157  0.49418219  0.37517307  1
  Hf  Hf29  1  0.59687051  0.20785820  0.23924519  1
  Hf  Hf30  1  0.79482227  0.19328699  0.49209413  1
  Hf  Hf31  1  0.19721975  0.60852864  0.24868847  1
  Hf  Hf32  1  -0.01357274  0.19750416  0.26047886  1
  Hf  Hf33  1  0.10920910  0.29216744  0.13966055  1
  Hf  Hf34  1  0.38459500  0.00749455  -0.00050897  1
  Hf  Hf35  1  0.38751942  0.80674868  -0.00549970  1
  Hf  Hf36  1  0.59420630  0.20151843  0.50368176  1
  Hf  Hf37  1  0.91022970  0.48782252  0.87765966  1
  Hf  Hf38  1  0.00122356  0.80033696  0.25491331  1
  Hf  Hf39  1  0.38362598  0.21497860  -0.01262098  1
  Zr  Zr40  1  0.67716838  0.69482241  0.64880782  1
  Zr  Zr41  1  0.29579651  0.71548520  0.12073180  1
  Zr  Zr42  1  0.90186828  0.90403876  0.60667139  1
  Zr  Zr43  1  0.10153712  0.50765691  0.37347578  1
  Zr  Zr44  1  0.31399499  0.29084679  0.13887650  1
  Zr  Zr45  1  0.49722848  0.69330448  0.11172801  1
  Zr  Zr46  1  0.59886202  0.79782723  0.25197428  1
  Zr  Zr47  1  0.70174732  0.09912446  0.62894172  1
  Zr  Zr48  1  0.59555359  0.80181320  -0.00310327  1
  Zr  Zr49  1  0.79916402  0.59652708  0.23860540  1
  Zr  Zr50  1  0.58748981  -0.00116550  0.75623777  1
  Zr  Zr51  1  0.50151648  0.49163157  0.63043800  1
  Zr  Zr52  1  0.80746983  0.18550478  0.75697456  1
  Zr  Zr53  1  0.19551495  0.00203691  0.27295020  1
  Zr  Zr54  1  0.00098867  0.00355744  0.74545341  1
  Zr  Zr55  1  0.69904617  0.90227574  0.11912267  1
  Zr  Zr56  1  0.10682481  0.30375610  0.61122956  1
  Zr  Zr57  1  0.57171973  0.80538076  0.49978784  1
  Zr  Zr58  1  0.28727849  0.10986000  0.60641690  1
  Zr  Zr59  1  0.71341107  0.29545815  0.89751195  1
  Zr  Zr60  1  0.22164715  0.39420569  0.49525281  1
  Zr  Zr61  1  0.70107113  0.90150048  0.38033513  1
  Zr  Zr62  1  0.40263031  0.60480522  0.73994253  1
  Zr  Zr63  1  0.19759648  0.60078048  0.51913876  1
  Zr  Zr64  1  0.69352715  0.09092571  0.90324094  1
  Zr  Zr65  1  0.80421204  0.79264702  0.00441226  1
  Zr  Zr66  1  0.91099341  0.47917292  0.62562223  1
  Zr  Zr67  1  0.81575366  0.38018041  0.75740070  1
  Zr  Zr68  1  0.10505815  0.09442905  0.88475033  1
  Zr  Zr69  1  0.48581761  0.11190719  0.12275889  1
  Zr  Zr70  1  0.09381934  0.70390567  0.86918011  1
  Zr  Zr71  1  0.30999620  0.49617550  0.37685313  1
  Zr  Zr72  1  0.40175689  0.60234916  0.25018881  1
  Zr  Zr73  1  0.00408765  0.59895972  0.73476364  1
  Zr  Zr74  1  0.61379844  0.39044569  0.50721495  1
  Zr  Zr75  1  0.08363100  0.11016594  0.60098665  1
  Zr  Zr76  1  0.69539608  0.09479045  0.10680913  1
  Zr  Zr77  1  0.20881662  0.38774220  0.00379718  1
  Zr  Zr78  1  0.50017967  0.70837256  0.86051339  1
  Zr  Zr79  1  0.09895379  0.08716191  0.13047899  1
  Ta  Ta80  1  0.31192741  0.72387518  0.62086119  1
  Ta  Ta81  1  0.40193542  0.60460944  0.51579045  1
  Ta  Ta82  1  0.50470256  0.30371098  0.37485500  1
  Ta  Ta83  1  0.80383189  0.59446946  0.74779136  1
  Ta  Ta84  1  0.00255995  0.79544903  0.00753991  1
  Ta  Ta85  1  0.10837661  0.48930139  0.87623502  1
  Ta  Ta86  1  -0.01237161  0.21150913  0.47286384  1
  Ta  Ta87  1  0.09387052  0.70808860  0.38766074  1
  Ta  Ta88  1  0.89976139  0.89465780  0.39218536  1
  Ta  Ta89  1  0.19398838  0.80508330  0.26289537  1
  Ta  Ta90  1  0.29511630  0.70040127  0.38708123  1
  Ta  Ta91  1  0.09803239  0.70856730  0.12639243  1
  Ta  Ta92  1  0.02631261  0.38795712  0.74991864  1
  Ta  Ta93  1  0.39816424  0.39995032  0.76395126  1
  Ta  Ta94  1  -0.00618766  0.60651839  0.51224265  1
  Ta  Ta95  1  0.80333460  0.00286364  0.25002073  1
  Ta  Ta96  1  0.18846275  0.21519259  0.74834052  1
  Ta  Ta97  1  0.09928101  0.29638122  0.88339026  1
  Ta  Ta98  1  0.70157547  0.69471050  0.86020122  1
  Ta  Ta99  1  -0.00192514  0.60125935  0.24120448  1
  Ta  Ta100  1  0.90957750  0.27894903  0.62059349  1
  Ta  Ta101  1  0.89854683  0.69530701  0.37579652  1
  Ta  Ta102  1  0.09987823  0.49706409  0.12863691  1
  Ta  Ta103  1  0.31198503  0.31206066  0.63500358  1
  Ta  Ta104  1  0.10475236  0.30362521  0.36479670  1
  Ta  Ta105  1  0.18521877  0.82867152  -0.00319528  1
  Ta  Ta106  1  0.90791776  0.90767824  0.12582086  1
  Ta  Ta107  1  0.80658654  0.80295912  0.25011787  1
  Ta  Ta108  1  0.01597243  -0.01737620  0.00527113  1
  Ta  Ta109  1  0.60005271  0.59191036  -0.02115154  1
  Ta  Ta110  1  0.59640296  0.00016816  0.25207930  1
  Ta  Ta111  1  0.49203285  0.90885679  0.12384581  1
  Ta  Ta112  1  0.70769807  0.29385554  0.36536390  1
  Ta  Ta113  1  0.59865933  0.39447009  0.77406209  1
  Ta  Ta114  1  0.10268212  0.91499057  0.59475181  1
  Ta  Ta115  1  0.61142753  0.39873746  0.24449422  1
  Ta  Ta116  1  0.79601462  0.59311610  0.00205660  1
  Ta  Ta117  1  0.30274068  0.50716442  0.87828829  1
  Ta  Ta118  1  0.39280743  0.19568820  0.75435146  1
  Ta  Ta119  1  0.80404243  0.79996134  0.74225236  1
  Ti  Ti120  1  0.81292855  0.38133134  0.50107483  1
  Ti  Ti121  1  0.57785545  0.21423293  -0.00254384  1
  Ti  Ti122  1  0.89641984  0.69866379  0.12709676  1
  Ti  Ti123  1  0.91673108  0.30017874  0.89951107  1
  Ti  Ti124  1  0.28514332  0.10743024  0.13047343  1
  Ti  Ti125  1  0.69952538  0.09966075  0.36759414  1
  Ti  Ti126  1  0.20612674  0.80964398  0.50174216  1
  Ti  Ti127  1  0.08887326  0.71595652  0.61360745  1
  Ti  Ti128  1  0.49060421  0.10173755  0.87551540  1
  Ti  Ti129  1  0.49100592  0.91176594  0.87545206  1
  Ti  Ti130  1  0.60009581  0.00260827  0.49522194  1
  Ti  Ti131  1  -0.00284897  0.20083459  0.75526838  1
  Ti  Ti132  1  0.69531109  0.69381596  0.12110362  1
  Ti  Ti133  1  0.28759021  0.30549823  0.86312725  1
  Ti  Ti134  1  0.70391931  0.69601952  0.37241784  1
  Ti  Ti135  1  0.30875882  0.28778617  0.36260911  1
  Ti  Ti136  1  0.70341056  0.49636359  0.10791623  1
  Ti  Ti137  1  -0.00073803  0.40286950  0.24473551  1
  Ti  Ti138  1  0.42292917  0.40267999  -0.02782465  1
  Ti  Ti139  1  0.68991288  0.30892399  0.10450534  1
  Ti  Ti140  1  0.50376322  0.29593859  0.64207907  1
  Ti  Ti141  1  0.29790948  0.89616084  0.38230954  1
  Ti  Ti142  1  0.71140040  0.49754394  0.87780303  1
  Ti  Ti143  1  0.89659580  0.09230654  0.60732624  1
  Ti  Ti144  1  0.80546375  -0.00432264  0.75174451  1
  Ti  Ti145  1  0.39712942  0.82866917  0.74723144  1
  Ti  Ti146  1  0.59858941  0.20083960  0.76308790  1
  Ti  Ti147  1  0.70467176  0.29252814  0.63687220  1
  Ti  Ti148  1  0.01145435  0.20064682  0.01639402  1
  Ti  Ti149  1  0.10368583  0.10342623  0.39021848  1
  Ti  Ti150  1  0.29170404  0.10823344  0.87091713  1
  Ti  Ti151  1  0.28588875  0.91645673  0.87046574  1
  Ti  Ti152  1  0.28204267  0.91231427  0.12984956  1
  Ti  Ti153  1  0.49068462  0.70255295  0.37716121  1
  Ti  Ti154  1  0.80048883  0.19284562  0.23438483  1
  Ti  Ti155  1  0.00594313  0.40133446  0.49369198  1
  Ti  Ti156  1  0.39415326  0.21910143  0.50130459  1
  Ti  Ti157  1  -0.00421141  0.80698463  0.73740153  1
  Ti  Ti158  1  0.20719368  0.40326489  0.25022161  1
  Ti  Ti159  1  0.81755883  0.20478913  0.02611679  1
  Mo  Mo160  1  0.50236465  0.50215340  0.87134922  1
  Mo  Mo161  1  0.30659652  0.49420918  0.62436829  1
  Mo  Mo162  1  0.20517471  0.00440860  0.00203964  1
  Mo  Mo163  1  0.19955346  0.00120860  0.48439253  1
  Mo  Mo164  1  0.41471943  0.38946981  0.50637796  1
  Mo  Mo165  1  0.91182772  0.29644818  0.12204879  1
  Mo  Mo166  1  0.20621152  0.40200063  0.75390577  1
  Mo  Mo167  1  -0.00988583  0.00825314  0.47773940  1
  Mo  Mo168  1  0.49592045  0.70825470  0.64058310  1
  Mo  Mo169  1  0.89545022  0.30622589  0.36969333  1
  Mo  Mo170  1  0.61040268  0.40193726  -0.01979675  1
  Mo  Mo171  1  0.00963440  0.39255791  0.00856759  1
  Mo  Mo172  1  0.29751992  0.90815448  0.61929308  1
  Mo  Mo173  1  0.20057039  0.20838146  0.48002754  1
  Mo  Mo174  1  0.81580767  0.40410887  0.01559614  1
  Mo  Mo175  1  0.49950171  0.90242594  0.36480559  1
  Mo  Mo176  1  0.88247080  0.09754013  0.37364013  1
  Mo  Mo177  1  0.89524377  0.69924620  0.63368881  1
  Mo  Mo178  1  0.81641924  -0.00467253  0.00602228  1
  Mo  Mo179  1  0.10323869  0.49523635  0.61588293  1
  Mo  Mo180  1  0.48241750  0.88965295  0.63182658  1
  Mo  Mo181  1  0.10131585  0.89696550  0.86879994  1
  Mo  Mo182  1  0.60527216  0.58821641  0.76818967  1
  Mo  Mo183  1  0.40126705  0.20093413  0.25700506  1
  Mo  Mo184  1  0.39908951  0.59840602  -0.01438723  1
  Mo  Mo185  1  0.90051308  0.09215035  0.11868377  1
  Mo  Mo186  1  0.29907468  0.10752017  0.39310495  1
  Mo  Mo187  1  0.38971611  0.00890145  0.75657171  1
  Mo  Mo188  1  0.09931706  0.89544594  0.39561797  1
  Mo  Mo189  1  0.59391042  0.80511019  0.75739321  1
  Mo  Mo190  1  0.57975357  0.00165324  -0.00561624  1
  Mo  Mo191  1  0.50778838  0.30639061  0.11513781  1
  Mo  Mo192  1  0.20259254  0.19438642  0.00038122  1
  Mo  Mo193  1  -0.00051683  0.79367568  0.49937943  1
  Mo  Mo194  1  0.20107530  0.19786488  0.26988430  1
  Mo  Mo195  1  0.90532750  0.49911203  0.12193523  1
  Mo  Mo196  1  0.10416337  0.89282953  0.13406548  1
  Mo  Mo197  1  0.39276201  0.79108220  0.49286867  1
  Mo  Mo198  1  0.49748076  0.29070597  0.86196359  1
  Mo  Mo199  1  0.78872553  -0.00059579  0.49303636  1
