# generated using pymatgen
data_HfZrTaTiMo
_symmetry_space_group_name_H-M   'P 1'
_cell_length_a   15.20399011
_cell_length_b   15.21126717
_cell_length_c   16.84283364
_cell_angle_alpha   90.04626888
_cell_angle_beta   89.97661734
_cell_angle_gamma   90.01458852
_symmetry_Int_Tables_number   1
_chemical_formula_structural   HfZrTaTiMo
_chemical_formula_sum   'Hf40 Zr40 Ta40 Ti40 Mo40'
_cell_volume   3895.27335384
_cell_formula_units_Z   40
loop_
 _symmetry_equiv_pos_site_id
 _symmetry_equiv_pos_as_xyz
  1  'x, y, z'
loop_
 _atom_site_type_symbol
 _atom_site_label
 _atom_site_symmetry_multiplicity
 _atom_site_fract_x
 _atom_site_fract_y
 _atom_site_fract_z
 _atom_site_occupancy
  Hf  Hf0  1  0.89586964  0.09643257  0.60728052  1
  Hf  Hf1  1  0.69569320  0.29450913  0.61848105  1
  Hf  Hf2  1  0.01830087  0.39484717  0.24912041  1
  Hf  Hf3  1  0.78895100  0.18907609  0.74690309  1
  Hf  Hf4  1  0.01511910  0.81323577  0.75522342  1
  Hf  Hf5  1  0.69266774  0.89883909  0.61781783  1
  Hf  Hf6  1  0.59250099  0.00313371  0.24236058  1
  Hf  Hf7  1  0.91277106  0.69046036  0.61965573  1
  Hf  Hf8  1  0.58419902  0.19590899  0.73592695  1
  Hf  Hf9  1  0.40912349  0.01463030  -0.00240283  1
  Hf  Hf10  1  0.90132287  0.50123935  0.37596877  1
  Hf  Hf11  1  0.39812946  0.00357890  0.76284760  1
  Hf  Hf12  1  0.79322225  0.00528173  0.00602055  1
  Hf  Hf13  1  0.50368907  0.49608749  0.38887433  1
  Hf  Hf14  1  0.31164169  0.70913901  0.12509972  1
  Hf  Hf15  1  0.80085166  0.79505963  0.74763565  1
  Hf  Hf16  1  0.69863093  0.50874588  0.12080427  1
  Hf  Hf17  1  0.80069899  0.40415896  0.24971057  1
  Hf  Hf18  1  0.61071705  0.59272956  0.25199695  1
  Hf  Hf19  1  0.80643689  0.39449081  0.50449034  1
  Hf  Hf20  1  0.50453322  0.70084975  0.37965033  1
  Hf  Hf21  1  0.31034941  0.50434299  0.11719492  1
  Hf  Hf22  1  0.39583482  0.21919202  -0.00767578  1
  Hf  Hf23  1  0.80059081  0.79531218  0.25781880  1
  Hf  Hf24  1  0.67284385  0.30527827  0.86399471  1
  Hf  Hf25  1  0.39409709  0.19654556  0.73897004  1
  Hf  Hf26  1  0.91035219  0.91039446  0.87465911  1
  Hf  Hf27  1  0.10211793  0.09392886  0.61262535  1
  Hf  Hf28  1  0.71002877  0.68859643  0.38568269  1
  Hf  Hf29  1  0.39437182  0.77536981  -0.02627785  1
  Hf  Hf30  1  0.01068936  0.80885790  -0.00059145  1
  Hf  Hf31  1  0.40907869  0.59870897  0.25264333  1
  Hf  Hf32  1  -0.00035316  0.19927270  -0.00969240  1
  Hf  Hf33  1  0.41490908  0.60373835  0.76196692  1
  Hf  Hf34  1  0.10697292  0.29398434  0.39505108  1
  Hf  Hf35  1  0.29005882  0.11157393  0.11643422  1
  Hf  Hf36  1  0.30380873  0.72091708  0.37176440  1
  Hf  Hf37  1  0.20789377  0.80873473  0.50471160  1
  Hf  Hf38  1  0.70341718  0.69008338  0.61994108  1
  Hf  Hf39  1  0.30126066  0.49890545  0.86656439  1
  Zr  Zr40  1  0.00490906  0.60605525  0.75982543  1
  Zr  Zr41  1  0.19065892  0.02426119  0.25685763  1
  Zr  Zr42  1  0.21390913  0.81950469  0.24558616  1
  Zr  Zr43  1  0.91052172  0.30526614  0.12824182  1
  Zr  Zr44  1  0.00320266  0.40213623  0.74340320  1
  Zr  Zr45  1  0.90203958  0.89801642  0.61439737  1
  Zr  Zr46  1  0.28406218  0.10013479  0.87747004  1
  Zr  Zr47  1  0.19537734  0.60156788  0.24864633  1
  Zr  Zr48  1  0.78833540  -0.00114952  0.26232507  1
  Zr  Zr49  1  0.49998744  0.09787035  0.39285981  1
  Zr  Zr50  1  0.89422940  0.30077473  0.86596365  1
  Zr  Zr51  1  0.58670488  0.58831799  -0.02771373  1
  Zr  Zr52  1  0.80542480  0.40823778  0.00204570  1
  Zr  Zr53  1  0.49822908  0.88476844  0.11086980  1
  Zr  Zr54  1  0.29701707  0.92292932  0.63655213  1
  Zr  Zr55  1  0.38952106  -0.00759311  0.24155702  1
  Zr  Zr56  1  0.89223897  0.10443541  0.13476753  1
  Zr  Zr57  1  0.00303803  0.18176286  0.75366259  1
  Zr  Zr58  1  0.30451761  0.49638314  0.38131610  1
  Zr  Zr59  1  0.89740774  0.11490450  0.38671460  1
  Zr  Zr60  1  0.01040713  0.79152864  0.25087060  1
  Zr  Zr61  1  0.19379434  0.60639376  0.51116133  1
  Zr  Zr62  1  0.40023162  0.60731525  0.51438000  1
  Zr  Zr63  1  -0.00490770  0.59274758  0.23516769  1
  Zr  Zr64  1  0.59558269  0.79519773  0.50416804  1
  Zr  Zr65  1  0.10551123  0.50424704  0.38240665  1
  Zr  Zr66  1  0.00446913  0.59212510  -0.00651077  1
  Zr  Zr67  1  0.70927203  0.89599543  0.87863318  1
  Zr  Zr68  1  0.49150779  0.29911572  0.38851968  1
  Zr  Zr69  1  0.60045320  -0.00175828  0.74093353  1
  Zr  Zr70  1  0.50584566  0.67779594  0.11452411  1
  Zr  Zr71  1  0.78671359  0.20107984  -0.00704553  1
  Zr  Zr72  1  0.59121062  0.38538666  0.00606679  1
  Zr  Zr73  1  0.61471240  0.58295598  0.76513211  1
  Zr  Zr74  1  0.89444310  0.69438091  0.11312375  1
  Zr  Zr75  1  0.69689647  0.28199269  0.38377173  1
  Zr  Zr76  1  0.50934872  0.90731222  0.88533425  1
  Zr  Zr77  1  -0.00285198  -0.00441748  0.26147133  1
  Zr  Zr78  1  0.69505487  0.28499379  0.13432510  1
  Zr  Zr79  1  0.00530955  0.41574735  0.51802310  1
  Ta  Ta80  1  0.79137795  -0.00662244  0.48330003  1
  Ta  Ta81  1  0.01349894  0.39697249  -0.00720464  1
  Ta  Ta82  1  0.19077605  0.21119427  -0.00814479  1
  Ta  Ta83  1  0.29384595  0.31074531  0.12501740  1
  Ta  Ta84  1  0.30399016  0.71170684  0.64434076  1
  Ta  Ta85  1  0.39792698  0.39469274  0.24776211  1
  Ta  Ta86  1  0.09571230  0.90290345  0.61704746  1
  Ta  Ta87  1  0.41575455  0.39801861  0.74304496  1
  Ta  Ta88  1  0.48488260  0.08016402  0.60514169  1
  Ta  Ta89  1  0.79051936  0.40628347  0.74339474  1
  Ta  Ta90  1  0.29643478  0.30938611  0.85787063  1
  Ta  Ta91  1  0.40182184  0.81656616  0.51426852  1
  Ta  Ta92  1  0.58452123  0.17763610  0.00462194  1
  Ta  Ta93  1  0.69099824  0.09697579  0.59544735  1
  Ta  Ta94  1  0.39513113  0.19914535  0.24912602  1
  Ta  Ta95  1  0.78845954  0.60884418  -0.01656377  1
  Ta  Ta96  1  0.37295563  0.20409374  0.51826649  1
  Ta  Ta97  1  0.10962389  0.49077055  0.11476163  1
  Ta  Ta98  1  0.11481957  0.70134881  0.11039792  1
  Ta  Ta99  1  0.30166606  0.30405576  0.38035468  1
  Ta  Ta100  1  0.90168010  0.29383292  0.62634008  1
  Ta  Ta101  1  0.22286402  0.39323009  0.52289033  1
  Ta  Ta102  1  0.12053055  0.71793700  0.87989154  1
  Ta  Ta103  1  0.48333701  0.89533353  0.37304410  1
  Ta  Ta104  1  0.59798955  0.79925071  0.25074003  1
  Ta  Ta105  1  0.70317339  0.49879566  0.61873922  1
  Ta  Ta106  1  0.70148657  0.89494262  0.11917786  1
  Ta  Ta107  1  0.89790187  0.70850223  0.88155423  1
  Ta  Ta108  1  0.68251123  0.89913025  0.38090200  1
  Ta  Ta109  1  0.89765953  0.89737852  0.12302790  1
  Ta  Ta110  1  0.00706242  -0.00415071  0.48314072  1
  Ta  Ta111  1  0.89808210  0.50092431  0.87189907  1
  Ta  Ta112  1  0.69949880  0.49410128  0.38484113  1
  Ta  Ta113  1  0.50223536  0.70608558  0.63598390  1
  Ta  Ta114  1  -0.00086219  0.00688616  0.00574789  1
  Ta  Ta115  1  0.01346044  0.19571666  0.25782990  1
  Ta  Ta116  1  0.69987340  0.70795980  0.11998724  1
  Ta  Ta117  1  0.21601426  0.60922466  -0.00986023  1
  Ta  Ta118  1  0.11197115  0.89691629  0.38144025  1
  Ta  Ta119  1  0.10870412  0.29283464  0.62304370  1
  Ti  Ti120  1  0.29688725  0.11152357  0.37891701  1
  Ti  Ti121  1  0.59576563  0.79069911  0.75711659  1
  Ti  Ti122  1  0.50971827  0.50364908  0.62006311  1
  Ti  Ti123  1  0.27579268  0.88813337  0.87472352  1
  Ti  Ti124  1  0.10435363  0.50890468  0.63249719  1
  Ti  Ti125  1  0.09505321  0.10847723  0.12312354  1
  Ti  Ti126  1  0.80362952  0.59889197  0.24904228  1
  Ti  Ti127  1  0.11016278  0.29770275  0.12217670  1
  Ti  Ti128  1  0.49249778  0.30204142  0.60972979  1
  Ti  Ti129  1  0.90223890  0.88896235  0.38191097  1
  Ti  Ti130  1  0.10835722  0.49746489  0.87056051  1
  Ti  Ti131  1  0.89399371  0.09461191  0.87225591  1
  Ti  Ti132  1  0.19722218  0.19719385  0.74942616  1
  Ti  Ti133  1  0.91775137  0.69149624  0.38400630  1
  Ti  Ti134  1  0.10159139  0.90782421  0.12399313  1
  Ti  Ti135  1  0.11058183  0.30331494  0.86450071  1
  Ti  Ti136  1  0.29480506  0.90240945  0.10482221  1
  Ti  Ti137  1  0.01220468  0.78963044  0.49366155  1
  Ti  Ti138  1  0.59246160  0.19328730  0.24864806  1
  Ti  Ti139  1  0.21103867  0.01164655  0.49172366  1
  Ti  Ti140  1  0.10699581  0.70799516  0.63150749  1
  Ti  Ti141  1  0.81376134  0.59069635  0.50461959  1
  Ti  Ti142  1  0.68210776  0.09220145  0.87527539  1
  Ti  Ti143  1  0.80598519  0.59689691  0.75758508  1
  Ti  Ti144  1  0.18434995  0.00115681  -0.00454964  1
  Ti  Ti145  1  0.59867787  0.40066539  0.50518769  1
  Ti  Ti146  1  0.40479139  0.41119298  -0.00663193  1
  Ti  Ti147  1  0.61530427  0.78713052  -0.01213759  1
  Ti  Ti148  1  0.59309561  0.39674853  0.24936555  1
  Ti  Ti149  1  0.48915367  0.29764438  0.13138477  1
  Ti  Ti150  1  0.20117834  0.22041605  0.25374355  1
  Ti  Ti151  1  0.39949671  0.80512384  0.76144624  1
  Ti  Ti152  1  0.80386244  -0.00002332  0.74300252  1
  Ti  Ti153  1  0.20165130  0.61028456  0.75231449  1
  Ti  Ti154  1  0.17212759  -0.00202555  0.75851849  1
  Ti  Ti155  1  0.79436443  0.19533206  0.25704669  1
  Ti  Ti156  1  0.90719235  0.30120101  0.38065558  1
  Ti  Ti157  1  0.80703818  0.79598191  0.49444628  1
  Ti  Ti158  1  0.30563476  0.50181218  0.63951816  1
  Ti  Ti159  1  0.20467104  0.39938128  -0.00725528  1
  Mo  Mo160  1  0.29525809  0.69997761  0.85711223  1
  Mo  Mo161  1  0.50536479  0.10962506  0.87340014  1
  Mo  Mo162  1  0.50470323  0.47136871  0.86759885  1
  Mo  Mo163  1  0.20179733  0.80626542  0.74504881  1
  Mo  Mo164  1  0.49682171  0.48339372  0.12862416  1
  Mo  Mo165  1  0.38640457  -0.00236690  0.49835589  1
  Mo  Mo166  1  0.08944440  0.09789695  0.87915475  1
  Mo  Mo167  1  0.09687043  0.70774738  0.37812842  1
  Mo  Mo168  1  0.49171720  0.88987152  0.63575627  1
  Mo  Mo169  1  0.10313434  0.10491361  0.38624997  1
  Mo  Mo170  1  0.80014783  0.20071849  0.50107562  1
  Mo  Mo171  1  0.80379561  0.80022100  0.00212936  1
  Mo  Mo172  1  0.30567986  0.91415081  0.38144164  1
  Mo  Mo173  1  0.90261894  0.49667229  0.11306706  1
  Mo  Mo174  1  0.89249251  0.50009693  0.63616655  1
  Mo  Mo175  1  0.10395660  0.91344857  0.88008441  1
  Mo  Mo176  1  0.69008293  0.09564506  0.39221633  1
  Mo  Mo177  1  0.41100410  0.80546760  0.24652831  1
  Mo  Mo178  1  0.60348685  0.00255350  0.01316729  1
  Mo  Mo179  1  0.60848397  0.59082444  0.50668290  1
  Mo  Mo180  1  0.59641305  0.39453437  0.73261486  1
  Mo  Mo181  1  0.00249778  0.60687791  0.50740604  1
  Mo  Mo182  1  0.39868433  0.58805357  -0.01897768  1
  Mo  Mo183  1  -0.00218922  0.20839511  0.50847781  1
  Mo  Mo184  1  -0.00614610  0.00311267  0.74515096  1
  Mo  Mo185  1  0.20128223  0.40544435  0.73874595  1
  Mo  Mo186  1  0.70786457  0.70075876  0.87040570  1
  Mo  Mo187  1  0.29632623  0.30606465  0.64510465  1
  Mo  Mo188  1  0.68980869  0.09701834  0.13014868  1
  Mo  Mo189  1  0.28559524  0.10594348  0.63136647  1
  Mo  Mo190  1  0.71166122  0.48964621  0.87065952  1
  Mo  Mo191  1  0.49367128  0.11117905  0.13127442  1
  Mo  Mo192  1  0.58548251  -0.01300441  0.50126903  1
  Mo  Mo193  1  0.48595761  0.29740408  0.87035660  1
  Mo  Mo194  1  0.39992226  0.40339135  0.52017158  1
  Mo  Mo195  1  0.50543876  0.70289969  0.86428299  1
  Mo  Mo196  1  0.58739354  0.19838473  0.51236608  1
  Mo  Mo197  1  0.20286909  0.80667100  0.00588963  1
  Mo  Mo198  1  0.20155363  0.20193215  0.50492509  1
  Mo  Mo199  1  0.20748080  0.39451782  0.24676271  1
