# generated using pymatgen
data_HfZrTaTiMo
_symmetry_space_group_name_H-M   'P 1'
_cell_length_a   15.19673150
_cell_length_b   15.22117938
_cell_length_c   16.83061641
_cell_angle_alpha   89.98230665
_cell_angle_beta   89.85159626
_cell_angle_gamma   90.06163227
_symmetry_Int_Tables_number   1
_chemical_formula_structural   HfZrTaTiMo
_chemical_formula_sum   'Hf40 Zr40 Ta40 Ti40 Mo40'
_cell_volume   3893.11100725
_cell_formula_units_Z   40
loop_
 _symmetry_equiv_pos_site_id
 _symmetry_equiv_pos_as_xyz
  1  'x, y, z'
loop_
 _atom_site_type_symbol
 _atom_site_label
 _atom_site_symmetry_multiplicity
 _atom_site_fract_x
 _atom_site_fract_y
 _atom_site_fract_z
 _atom_site_occupancy
  Hf  Hf0  1  0.50002866  0.30290142  0.35938010  1
  Hf  Hf1  1  0.00518421  0.20987718  0.25519432  1
  Hf  Hf2  1  0.47044656  0.49589938  0.86914914  1
  Hf  Hf3  1  0.29405580  0.29421240  0.11840112  1
  Hf  Hf4  1  0.10002482  0.30492406  0.11770523  1
  Hf  Hf5  1  0.19326185  0.79464478  0.49406603  1
  Hf  Hf6  1  0.88827389  0.30224963  0.11278527  1
  Hf  Hf7  1  0.09882593  0.69564591  0.63048280  1
  Hf  Hf8  1  0.89482971  0.71846978  0.87129532  1
  Hf  Hf9  1  0.78027794  0.39909895  -0.02261515  1
  Hf  Hf10  1  0.49022355  0.91178874  0.61895004  1
  Hf  Hf11  1  0.19774233  0.18416474  0.49563472  1
  Hf  Hf12  1  0.40338808  0.20921570  0.49219798  1
  Hf  Hf13  1  0.89749096  0.70358955  0.12917167  1
  Hf  Hf14  1  0.30874563  0.31723400  0.88866407  1
  Hf  Hf15  1  0.70951519  0.50904849  0.62795707  1
  Hf  Hf16  1  0.69429233  0.09321131  0.86883184  1
  Hf  Hf17  1  0.51030400  0.10310279  0.35980948  1
  Hf  Hf18  1  0.31553635  0.09847009  0.62255729  1
  Hf  Hf19  1  0.88793145  0.90224976  0.39250544  1
  Hf  Hf20  1  0.90185255  0.51540372  0.36720063  1
  Hf  Hf21  1  0.19916042  0.60246965  -0.00188184  1
  Hf  Hf22  1  0.30145190  0.69214176  0.63410166  1
  Hf  Hf23  1  0.79115266  0.39495338  0.25670988  1
  Hf  Hf24  1  0.70579384  0.08835729  0.37085925  1
  Hf  Hf25  1  0.60979589  0.20245039  0.00844957  1
  Hf  Hf26  1  0.79564249  0.40781486  0.76443332  1
  Hf  Hf27  1  0.20240931  0.18835549  -0.00950673  1
  Hf  Hf28  1  0.11651957  0.50059090  0.86189566  1
  Hf  Hf29  1  0.19453718  0.58574331  0.26357552  1
  Hf  Hf30  1  0.11702690  0.89398480  0.13297911  1
  Hf  Hf31  1  0.50884479  0.70479095  0.62864552  1
  Hf  Hf32  1  0.50521574  0.90983252  0.88397895  1
  Hf  Hf33  1  0.20374028  0.39495487  0.73405083  1
  Hf  Hf34  1  0.90616720  0.10776710  0.38390786  1
  Hf  Hf35  1  0.39707551  0.79853125  0.26061564  1
  Hf  Hf36  1  0.00524030  -0.01376165  0.73960877  1
  Hf  Hf37  1  0.69499417  0.70203236  0.13286188  1
  Hf  Hf38  1  0.20575210  0.38463597  0.51034350  1
  Hf  Hf39  1  0.59435693  0.39743793  0.50711705  1
  Zr  Zr40  1  0.69894949  0.29636612  0.37934758  1
  Zr  Zr41  1  0.89208838  0.51147456  0.12752970  1
  Zr  Zr42  1  0.02290346  0.00009979  -0.00866799  1
  Zr  Zr43  1  0.29596841  0.68433263  0.85605681  1
  Zr  Zr44  1  0.39602260  -0.00915851  0.25526851  1
  Zr  Zr45  1  0.69580812  0.89654558  0.62501873  1
  Zr  Zr46  1  0.78582071  0.61409338  -0.01295030  1
  Zr  Zr47  1  0.39854012  0.81056460  0.75188385  1
  Zr  Zr48  1  0.00419656  -0.00233991  0.25557784  1
  Zr  Zr49  1  0.78686401  0.81053761  0.26092933  1
  Zr  Zr50  1  0.12944170  0.10183547  0.13483259  1
  Zr  Zr51  1  0.40687294  0.01262688  0.75342906  1
  Zr  Zr52  1  0.09066113  0.26831632  0.62957884  1
  Zr  Zr53  1  0.50218840  0.31023462  0.14119480  1
  Zr  Zr54  1  0.08563352  0.48751041  0.62238674  1
  Zr  Zr55  1  0.90387196  0.51338339  0.87273527  1
  Zr  Zr56  1  0.00513252  0.40929407  0.25287596  1
  Zr  Zr57  1  0.01253939  0.01169148  0.51519249  1
  Zr  Zr58  1  0.39632005  0.80383409  0.49356504  1
  Zr  Zr59  1  0.80913004  -0.00144186  -0.01036987  1
  Zr  Zr60  1  0.90406172  0.89889251  0.12344821  1
  Zr  Zr61  1  0.50762624  0.70004430  0.37606530  1
  Zr  Zr62  1  0.00203438  0.40184143  -0.01304876  1
  Zr  Zr63  1  0.09975815  0.69824941  0.13468843  1
  Zr  Zr64  1  0.59020220  0.59624462  -0.00642605  1
  Zr  Zr65  1  0.69903724  0.28437936  0.63018133  1
  Zr  Zr66  1  0.58502446  0.39765974  -0.00836225  1
  Zr  Zr67  1  0.91837746  0.10564859  0.11779043  1
  Zr  Zr68  1  0.49440479  0.88894143  0.11932768  1
  Zr  Zr69  1  0.09498650  0.70148086  0.85268143  1
  Zr  Zr70  1  0.59152620  0.38631774  0.75230214  1
  Zr  Zr71  1  0.36836592  0.40611418  0.26384626  1
  Zr  Zr72  1  0.68503737  0.49013835  0.13522275  1
  Zr  Zr73  1  0.38959097  0.40199019  0.72733103  1
  Zr  Zr74  1  0.29025605  0.49861446  0.12044116  1
  Zr  Zr75  1  0.49420776  0.50328368  0.37569655  1
  Zr  Zr76  1  0.90929038  0.11783678  0.63609125  1
  Zr  Zr77  1  0.71416243  0.10221374  0.12466245  1
  Zr  Zr78  1  0.81135286  0.41103171  0.49637027  1
  Zr  Zr79  1  0.50047990  0.70057167  0.86765285  1
  Ta  Ta80  1  0.31386266  0.10245206  0.87815125  1
  Ta  Ta81  1  0.00268286  0.80081330  -0.00401655  1
  Ta  Ta82  1  0.60996032  0.79730689  -0.00648634  1
  Ta  Ta83  1  0.70174696  0.89514674  0.11479306  1
  Ta  Ta84  1  0.09450060  0.89769343  0.37985135  1
  Ta  Ta85  1  0.49996464  0.09897354  0.13549622  1
  Ta  Ta86  1  0.22211119  0.19637115  0.75615088  1
  Ta  Ta87  1  0.40073755  0.00538058  0.48380851  1
  Ta  Ta88  1  -0.00162172  0.79396889  0.26553154  1
  Ta  Ta89  1  0.49496466  0.69573298  0.12727188  1
  Ta  Ta90  1  -0.00499784  0.38552541  0.75991599  1
  Ta  Ta91  1  0.88239691  0.69286745  0.62061047  1
  Ta  Ta92  1  0.80724827  0.20513572  -0.02521697  1
  Ta  Ta93  1  0.80689565  0.20013322  0.50531759  1
  Ta  Ta94  1  -0.01070040  0.80072906  0.51273803  1
  Ta  Ta95  1  0.28127491  0.90343674  0.62729846  1
  Ta  Ta96  1  0.80476117  0.80785655  0.74276763  1
  Ta  Ta97  1  0.20987910  -0.00891415  0.48868076  1
  Ta  Ta98  1  0.00243689  0.60926110  -0.00309696  1
  Ta  Ta99  1  0.60757808  0.60339898  0.50098900  1
  Ta  Ta100  1  0.20104722  0.80021043  0.27062333  1
  Ta  Ta101  1  0.10085172  0.49590888  0.39183535  1
  Ta  Ta102  1  0.49965485  0.50905436  0.62202197  1
  Ta  Ta103  1  0.09353301  0.50280362  0.12277574  1
  Ta  Ta104  1  0.30007912  0.71398919  0.12865646  1
  Ta  Ta105  1  0.59948543  0.00700142  0.50146380  1
  Ta  Ta106  1  0.61083332  -0.01857979  0.24319694  1
  Ta  Ta107  1  0.38001169  0.19191441  0.25100333  1
  Ta  Ta108  1  0.79595864  0.00386558  0.51723240  1
  Ta  Ta109  1  0.69655754  0.51468288  0.36899051  1
  Ta  Ta110  1  0.59823176  0.00060483  0.00803413  1
  Ta  Ta111  1  0.90367144  0.31580612  0.62839399  1
  Ta  Ta112  1  0.80883207  0.20121906  0.25184591  1
  Ta  Ta113  1  0.00303277  0.19758928  -0.02426397  1
  Ta  Ta114  1  0.08182696  0.69050009  0.38399355  1
  Ta  Ta115  1  0.38962457  0.79842349  -0.00334303  1
  Ta  Ta116  1  0.80352002  0.20748337  0.76417569  1
  Ta  Ta117  1  0.41561570  0.21166356  0.74720164  1
  Ta  Ta118  1  -0.01683234  0.59217001  0.51041988  1
  Ta  Ta119  1  0.11558309  0.08858282  0.85755596  1
  Ti  Ti120  1  0.21428578  0.00172941  0.26512675  1
  Ti  Ti121  1  0.12848290  0.07758697  0.64614018  1
  Ti  Ti122  1  0.60572641  0.19449169  0.50024892  1
  Ti  Ti123  1  0.70257889  0.70761867  0.37759905  1
  Ti  Ti124  1  0.80163445  -0.00072560  0.73998768  1
  Ti  Ti125  1  -0.00796982  0.80102805  0.72910040  1
  Ti  Ti126  1  0.80479888  0.00298152  0.24815452  1
  Ti  Ti127  1  0.10746531  0.29294127  0.86845082  1
  Ti  Ti128  1  0.19891941  0.59229886  0.50201532  1
  Ti  Ti129  1  0.69893558  0.70137468  0.62378617  1
  Ti  Ti130  1  0.10900288  0.10121036  0.36899417  1
  Ti  Ti131  1  -0.01418969  0.59233872  0.73745796  1
  Ti  Ti132  1  0.88996199  0.70108452  0.38582035  1
  Ti  Ti133  1  0.40898728  0.19682191  0.01121316  1
  Ti  Ti134  1  0.60941371  0.80345483  0.75711233  1
  Ti  Ti135  1  0.39396791  0.59972495  0.00464413  1
  Ti  Ti136  1  0.50224689  0.10416890  0.88171225  1
  Ti  Ti137  1  0.39127393  0.60469064  0.25192627  1
  Ti  Ti138  1  0.59818039  0.60407921  0.25212814  1
  Ti  Ti139  1  0.60442810  0.00496704  0.74364035  1
  Ti  Ti140  1  0.29434917  0.68523267  0.38072348  1
  Ti  Ti141  1  0.90721658  0.90330449  0.87126065  1
  Ti  Ti142  1  0.60029837  0.59575310  0.75495787  1
  Ti  Ti143  1  0.49851756  0.28774504  0.87963080  1
  Ti  Ti144  1  0.48736179  0.50354725  0.13379133  1
  Ti  Ti145  1  0.91048751  0.09863261  0.85869680  1
  Ti  Ti146  1  0.51740643  0.11471878  0.62436555  1
  Ti  Ti147  1  0.29276418  0.90203550  0.87012614  1
  Ti  Ti148  1  0.71081812  0.89247190  0.87600365  1
  Ti  Ti149  1  0.39689472  0.00371152  0.00949431  1
  Ti  Ti150  1  0.61554406  0.20724845  0.23810871  1
  Ti  Ti151  1  0.21693550  -0.01015836  -0.00131594  1
  Ti  Ti152  1  0.78868087  0.61294332  0.75990334  1
  Ti  Ti153  1  0.10484208  0.89128562  0.86528833  1
  Ti  Ti154  1  0.51736413  0.90065992  0.37511243  1
  Ti  Ti155  1  0.60924057  0.80583794  0.49732502  1
  Ti  Ti156  1  0.39748671  0.59505284  0.50284777  1
  Ti  Ti157  1  0.09681251  0.30020956  0.38149479  1
  Ti  Ti158  1  0.20017221  0.80008146  -0.00439020  1
  Ti  Ti159  1  0.39529816  0.40039683  0.50628852  1
  Mo  Mo160  1  0.21202790  -0.00809569  0.75838092  1
  Mo  Mo161  1  0.29657353  0.50155430  0.87580453  1
  Mo  Mo162  1  -0.00142153  0.60996608  0.25929764  1
  Mo  Mo163  1  0.29137751  0.50083127  0.39730142  1
  Mo  Mo164  1  0.40546095  0.59402260  0.73479731  1
  Mo  Mo165  1  0.68481620  0.50800875  0.86186272  1
  Mo  Mo166  1  0.30340810  0.28655882  0.62414548  1
  Mo  Mo167  1  0.10272756  0.89438452  0.62050636  1
  Mo  Mo168  1  0.20392914  0.58901075  0.73559875  1
  Mo  Mo169  1  0.90321747  0.30036129  0.37890439  1
  Mo  Mo170  1  0.28923134  0.29673822  0.37300138  1
  Mo  Mo171  1  0.79520713  0.79483714  0.50279278  1
  Mo  Mo172  1  0.30144448  0.09973590  0.37761894  1
  Mo  Mo173  1  0.79316987  0.60800385  0.49802187  1
  Mo  Mo174  1  0.80052122  0.80673041  -0.00370760  1
  Mo  Mo175  1  0.19016881  0.80657243  0.74519749  1
  Mo  Mo176  1  0.59471530  0.40721640  0.25071314  1
  Mo  Mo177  1  0.00998100  0.19650006  0.76646998  1
  Mo  Mo178  1  0.29342987  0.89464761  0.12130756  1
  Mo  Mo179  1  0.30893560  0.09264092  0.12169859  1
  Mo  Mo180  1  -0.00621289  0.21628030  0.48994063  1
  Mo  Mo181  1  0.18643750  0.39126295  0.26066441  1
  Mo  Mo182  1  0.49816003  0.29553260  0.61486979  1
  Mo  Mo183  1  0.69044724  0.29034055  0.86478641  1
  Mo  Mo184  1  0.89569513  0.50104620  0.63531694  1
  Mo  Mo185  1  0.59464950  0.18919987  0.75440717  1
  Mo  Mo186  1  -0.00224031  0.39497233  0.49591507  1
  Mo  Mo187  1  0.29694027  0.89501430  0.38028579  1
  Mo  Mo188  1  0.89747123  0.89832348  0.61749495  1
  Mo  Mo189  1  0.70904689  0.29693507  0.12532882  1
  Mo  Mo190  1  0.79336317  0.60800324  0.25919989  1
  Mo  Mo191  1  0.59471870  0.80086456  0.24972808  1
  Mo  Mo192  1  0.70322925  0.09913210  0.62948445  1
  Mo  Mo193  1  0.30046603  0.50282254  0.60467770  1
  Mo  Mo194  1  0.39751719  0.40596216  0.00739210  1
  Mo  Mo195  1  0.20379649  0.20734836  0.26242407  1
  Mo  Mo196  1  0.90312693  0.29746323  0.87318891  1
  Mo  Mo197  1  0.19567487  0.40109329  -0.00489601  1
  Mo  Mo198  1  0.69303610  0.90329875  0.38711307  1
  Mo  Mo199  1  0.69648638  0.71235714  0.86217518  1
