# generated using pymatgen
data_HfZrTaTiMo
_symmetry_space_group_name_H-M   'P 1'
_cell_length_a   15.17511284
_cell_length_b   15.18060166
_cell_length_c   16.79675130
_cell_angle_alpha   89.93331456
_cell_angle_beta   90.01983779
_cell_angle_gamma   89.90840977
_symmetry_Int_Tables_number   1
_chemical_formula_structural   HfZrTaTiMo
_chemical_formula_sum   'Hf40 Zr40 Ta40 Ti40 Mo40'
_cell_volume   3869.41517131
_cell_formula_units_Z   40
loop_
 _symmetry_equiv_pos_site_id
 _symmetry_equiv_pos_as_xyz
  1  'x, y, z'
loop_
 _atom_site_type_symbol
 _atom_site_label
 _atom_site_symmetry_multiplicity
 _atom_site_fract_x
 _atom_site_fract_y
 _atom_site_fract_z
 _atom_site_occupancy
  Hf  Hf0  1  0.59081671  0.79223046  0.00135713  1
  Hf  Hf1  1  0.59350158  0.79688673  0.48513966  1
  Hf  Hf2  1  0.11282337  0.09406332  0.86619036  1
  Hf  Hf3  1  -0.00306479  0.00710456  0.00754049  1
  Hf  Hf4  1  0.01149097  0.20921241  0.51619672  1
  Hf  Hf5  1  0.39422583  0.79669104  0.01291072  1
  Hf  Hf6  1  0.00330351  0.41067707  0.49939123  1
  Hf  Hf7  1  0.28966968  0.91151224  0.88732903  1
  Hf  Hf8  1  0.68777559  0.69880642  0.13749369  1
  Hf  Hf9  1  0.80199810  0.58994004  0.74473688  1
  Hf  Hf10  1  0.51242161  0.30492325  0.88692424  1
  Hf  Hf11  1  0.00041594  0.59676583  0.00398655  1
  Hf  Hf12  1  0.72790684  0.08859407  0.11671879  1
  Hf  Hf13  1  0.82047015  0.18767376  0.25790799  1
  Hf  Hf14  1  0.80664704  0.38822486  0.73585630  1
  Hf  Hf15  1  0.29329100  0.92814302  0.62077417  1
  Hf  Hf16  1  0.17863151  0.82302938  0.74481926  1
  Hf  Hf17  1  0.89544831  0.47672183  0.12086939  1
  Hf  Hf18  1  0.38737669  0.01846196  0.75492708  1
  Hf  Hf19  1  0.31431819  0.30268615  0.89211581  1
  Hf  Hf20  1  0.61067480  0.40608903  0.00354059  1
  Hf  Hf21  1  0.69444226  0.69392750  0.62190240  1
  Hf  Hf22  1  0.01177275  0.40846587  0.76177910  1
  Hf  Hf23  1  0.70513325  0.47041399  0.37453928  1
  Hf  Hf24  1  0.79785316  0.38604770  0.51843908  1
  Hf  Hf25  1  0.31222905  0.32213329  0.11302178  1
  Hf  Hf26  1  0.61142150  0.17536177  0.25570859  1
  Hf  Hf27  1  0.78451109  0.58302598  0.00682634  1
  Hf  Hf28  1  0.18814216  0.81208025  0.49905568  1
  Hf  Hf29  1  0.42410873  0.00549187  0.23539448  1
  Hf  Hf30  1  0.91263028  0.08690151  0.62851438  1
  Hf  Hf31  1  0.20579487  0.41178354  0.50178690  1
  Hf  Hf32  1  0.49192975  0.11084192  0.61311835  1
  Hf  Hf33  1  0.08022561  0.69931960  0.62656844  1
  Hf  Hf34  1  0.90069315  0.10121159  0.39699512  1
  Hf  Hf35  1  0.69146246  0.89215971  0.85863245  1
  Hf  Hf36  1  0.10355524  0.69711504  0.36334758  1
  Hf  Hf37  1  0.90967046  0.09505776  0.86085805  1
  Hf  Hf38  1  0.01806849  -0.00736158  0.49902774  1
  Hf  Hf39  1  0.39735183  0.81138852  0.49750776  1
  Zr  Zr40  1  0.48921965  0.69728989  0.86414817  1
  Zr  Zr41  1  0.71685733  0.29836781  0.13368160  1
  Zr  Zr42  1  0.58094833  0.58992123  0.25967338  1
  Zr  Zr43  1  0.60529751  -0.00779127  -0.00212936  1
  Zr  Zr44  1  0.31829565  0.31743315  0.37785742  1
  Zr  Zr45  1  0.69744209  0.89089105  0.62715884  1
  Zr  Zr46  1  0.38332351  0.59516517  0.49963697  1
  Zr  Zr47  1  0.10521783  0.10985289  0.35784387  1
  Zr  Zr48  1  -0.00628655  0.39737530  0.26469228  1
  Zr  Zr49  1  0.21734642  0.20326118  0.74572867  1
  Zr  Zr50  1  0.19737963  0.61338762  0.00267162  1
  Zr  Zr51  1  0.89134035  0.70059121  0.88655865  1
  Zr  Zr52  1  0.80025927  0.80745430  0.25789379  1
  Zr  Zr53  1  0.51045255  0.09997236  0.87880994  1
  Zr  Zr54  1  0.09514761  0.90487016  0.35199760  1
  Zr  Zr55  1  0.81070292  -0.01469298  0.74850821  1
  Zr  Zr56  1  0.30012427  0.90903491  0.36055701  1
  Zr  Zr57  1  0.28705219  0.70660820  0.87251144  1
  Zr  Zr58  1  0.30337835  0.11149108  0.35809912  1
  Zr  Zr59  1  0.68372637  0.48865605  0.62161374  1
  Zr  Zr60  1  0.50707855  0.90716943  0.63453596  1
  Zr  Zr61  1  0.58321921  0.59474308  0.01413662  1
  Zr  Zr62  1  0.10468424  0.32611621  0.12673278  1
  Zr  Zr63  1  0.41688818  0.21568589  0.75065149  1
  Zr  Zr64  1  0.00711788  0.59354697  0.24274103  1
  Zr  Zr65  1  0.80409688  0.58564938  0.25229434  1
  Zr  Zr66  1  0.29784987  0.11432779  0.12809890  1
  Zr  Zr67  1  0.59038114  0.58692613  0.48741057  1
  Zr  Zr68  1  0.00124930  0.39845406  -0.02390909  1
  Zr  Zr69  1  0.59382084  0.81133272  0.27200828  1
  Zr  Zr70  1  0.19352019  0.41383721  -0.02098231  1
  Zr  Zr71  1  -0.03198398  0.01011752  0.24535123  1
  Zr  Zr72  1  0.28708459  0.70214898  0.62633835  1
  Zr  Zr73  1  0.90344625  0.88323806  0.61190660  1
  Zr  Zr74  1  0.60473773  0.21211120  0.48887223  1
  Zr  Zr75  1  0.20764849  0.40542531  0.75975740  1
  Zr  Zr76  1  0.42007902  0.21834096  0.24075574  1
  Zr  Zr77  1  0.68789139  0.68230203  0.86664787  1
  Zr  Zr78  1  0.40114583  0.79124520  0.24210596  1
  Zr  Zr79  1  0.39102489  0.80582466  0.74578067  1
  Ta  Ta80  1  0.30620379  0.10510582  0.89961226  1
  Ta  Ta81  1  0.40373562  -0.00185290  0.01752846  1
  Ta  Ta82  1  0.89193620  0.70534881  0.11842999  1
  Ta  Ta83  1  0.19849227  0.80331047  0.22966107  1
  Ta  Ta84  1  0.58903440  0.37869235  0.25949807  1
  Ta  Ta85  1  0.20633866  0.43272646  0.25961673  1
  Ta  Ta86  1  0.00481131  0.20358423  -0.01012112  1
  Ta  Ta87  1  0.08960010  0.71740032  0.87851860  1
  Ta  Ta88  1  0.91122972  0.27640360  0.12132299  1
  Ta  Ta89  1  0.89141110  0.30354632  0.38491776  1
  Ta  Ta90  1  0.78886683  0.80413815  0.00294781  1
  Ta  Ta91  1  0.11950927  0.08553244  0.63664979  1
  Ta  Ta92  1  -0.00390662  0.79020902  0.48859855  1
  Ta  Ta93  1  0.69101770  0.08912781  0.62389486  1
  Ta  Ta94  1  0.50016562  0.49874548  0.87077835  1
  Ta  Ta95  1  0.88336965  0.90796005  0.11665905  1
  Ta  Ta96  1  -0.01481283  0.80709094  0.75463430  1
  Ta  Ta97  1  0.21192359  0.01634479  0.49363733  1
  Ta  Ta98  1  0.80783682  0.59030541  0.49515999  1
  Ta  Ta99  1  0.69804851  0.89920912  0.12969085  1
  Ta  Ta100  1  0.88533297  0.90336069  0.38783810  1
  Ta  Ta101  1  0.79893418  0.19511293  0.73110411  1
  Ta  Ta102  1  0.80239178  0.37650489  -0.01143200  1
  Ta  Ta103  1  0.50050389  0.69503653  0.62895988  1
  Ta  Ta104  1  0.39157448  0.59281861  0.73959104  1
  Ta  Ta105  1  0.31289588  0.51046065  0.87418012  1
  Ta  Ta106  1  0.08777460  0.12166753  0.13780283  1
  Ta  Ta107  1  0.70382064  0.68967386  0.37714268  1
  Ta  Ta108  1  0.62203804  0.20036874  0.00431701  1
  Ta  Ta109  1  0.80335670  0.19529819  0.52140925  1
  Ta  Ta110  1  0.19669425  0.00758065  0.02152653  1
  Ta  Ta111  1  0.10776960  0.30534318  0.37655280  1
  Ta  Ta112  1  0.71252901  0.09927582  0.87229069  1
  Ta  Ta113  1  0.70657247  0.28665401  0.86623728  1
  Ta  Ta114  1  0.40825261  0.40666238  0.74605953  1
  Ta  Ta115  1  0.89951673  0.69602406  0.37536812  1
  Ta  Ta116  1  0.18890049  0.81488810  0.02092714  1
  Ta  Ta117  1  0.37912838  0.58493732  0.25501851  1
  Ta  Ta118  1  0.20866928  0.20561564  0.50817405  1
  Ta  Ta119  1  0.09006731  0.91199169  0.13688407  1
  Ti  Ti120  1  0.19132795  0.20608794  0.00079151  1
  Ti  Ti121  1  0.09250609  0.90438241  0.88479266  1
  Ti  Ti122  1  0.48383773  0.49034135  0.13350733  1
  Ti  Ti123  1  0.49742895  0.90092990  0.86295316  1
  Ti  Ti124  1  -0.00331441  0.80369214  0.01137141  1
  Ti  Ti125  1  0.19922269  0.22728846  0.24564210  1
  Ti  Ti126  1  0.10963276  0.31428007  0.62912805  1
  Ti  Ti127  1  0.48286067  0.69403832  0.37576165  1
  Ti  Ti128  1  0.69515822  0.48243589  0.86412619  1
  Ti  Ti129  1  0.49600435  0.09679966  0.38419031  1
  Ti  Ti130  1  0.48973425  0.48979789  0.61730129  1
  Ti  Ti131  1  0.58664128  0.58508505  0.74285699  1
  Ti  Ti132  1  0.28683322  0.50494487  0.12089578  1
  Ti  Ti133  1  0.70980254  0.08242327  0.38681036  1
  Ti  Ti134  1  0.89202194  0.69361562  0.61791732  1
  Ti  Ti135  1  0.59602082  -0.00693554  0.49174144  1
  Ti  Ti136  1  0.88901168  0.49861078  0.87464506  1
  Ti  Ti137  1  0.92012379  0.50468260  0.62773753  1
  Ti  Ti138  1  0.18832513  0.60213581  0.75371343  1
  Ti  Ti139  1  0.79788987  0.78464082  0.74933645  1
  Ti  Ti140  1  -0.01114717  0.79903072  0.24327315  1
  Ti  Ti141  1  0.79511865  0.79180766  0.49098551  1
  Ti  Ti142  1  0.47808394  0.47560041  0.37690588  1
  Ti  Ti143  1  0.51001928  0.89423798  0.12748984  1
  Ti  Ti144  1  0.09437366  0.70143577  0.12899948  1
  Ti  Ti145  1  0.89998527  0.89568971  0.88439090  1
  Ti  Ti146  1  0.90060892  0.28678700  0.86277489  1
  Ti  Ti147  1  0.51269253  0.30232190  0.11575320  1
  Ti  Ti148  1  0.29990859  0.69621719  0.12890962  1
  Ti  Ti149  1  0.29051331  0.49843956  0.63003445  1
  Ti  Ti150  1  0.41851657  0.19624198  0.01344882  1
  Ti  Ti151  1  0.29067705  0.70088845  0.36921593  1
  Ti  Ti152  1  -0.00123910  0.59791877  0.49197279  1
  Ti  Ti153  1  0.39791953  0.59465164  0.00710603  1
  Ti  Ti154  1  0.69272435  0.48631206  0.14384258  1
  Ti  Ti155  1  0.59671870  0.38131159  0.74541636  1
  Ti  Ti156  1  0.18390121  0.60145269  0.50128298  1
  Ti  Ti157  1  0.00764147  0.20716143  0.73842353  1
  Ti  Ti158  1  -0.00171033  0.60679179  0.75987966  1
  Ti  Ti159  1  0.32549769  0.30210863  0.61363876  1
  Mo  Mo160  1  0.40215753  0.40868964  0.24461985  1
  Mo  Mo161  1  0.20178513  0.61316673  0.24064745  1
  Mo  Mo162  1  0.00509532  0.21052642  0.25947487  1
  Mo  Mo163  1  0.59878295  0.00962703  0.75369777  1
  Mo  Mo164  1  0.59325142  0.39508994  0.49176977  1
  Mo  Mo165  1  0.50778778  0.29654638  0.37405226  1
  Mo  Mo166  1  0.90437277  0.10067361  0.11749456  1
  Mo  Mo167  1  0.09554335  0.90431769  0.62122698  1
  Mo  Mo168  1  0.80441246  -0.01024867  -0.01562133  1
  Mo  Mo169  1  0.91237574  0.29725071  0.63360316  1
  Mo  Mo170  1  0.29821629  0.90445481  0.12690600  1
  Mo  Mo171  1  0.20657775  0.00499286  0.75856104  1
  Mo  Mo172  1  0.10023455  0.52750639  0.86679314  1
  Mo  Mo173  1  0.40845260  0.39854383  0.50755390  1
  Mo  Mo174  1  0.40351013  0.00624062  0.48999552  1
  Mo  Mo175  1  0.20104506  0.00754477  0.22366561  1
  Mo  Mo176  1  0.79502664  -0.00015211  0.50978742  1
  Mo  Mo177  1  0.69358908  0.28614743  0.63098087  1
  Mo  Mo178  1  0.39643347  0.20000833  0.49582199  1
  Mo  Mo179  1  0.29336344  0.51484894  0.38068344  1
  Mo  Mo180  1  0.61165405  -0.00225505  0.25540953  1
  Mo  Mo181  1  0.70214211  0.90246910  0.39026881  1
  Mo  Mo182  1  0.51828990  0.10109668  0.11335307  1
  Mo  Mo183  1  0.01787693  -0.01682973  0.74989093  1
  Mo  Mo184  1  0.79903925  0.38581346  0.25377180  1
  Mo  Mo185  1  0.09839024  0.28475050  0.86854185  1
  Mo  Mo186  1  0.48970879  0.68792353  0.13259700  1
  Mo  Mo187  1  0.10147871  0.50311002  0.12457182  1
  Mo  Mo188  1  0.61147353  0.19400556  0.74616031  1
  Mo  Mo189  1  0.89842350  0.50133758  0.38453113  1
  Mo  Mo190  1  0.71185484  0.28220836  0.37179177  1
  Mo  Mo191  1  0.59544168  0.78897624  0.74737030  1
  Mo  Mo192  1  0.41130944  0.41627605  0.00163489  1
  Mo  Mo193  1  0.49500806  0.91254822  0.37820387  1
  Mo  Mo194  1  0.10505704  0.50448602  0.37887646  1
  Mo  Mo195  1  0.30390627  0.11284401  0.61667347  1
  Mo  Mo196  1  0.81416959  0.19403081  -0.01250603  1
  Mo  Mo197  1  0.78467120  -0.00069600  0.25668683  1
  Mo  Mo198  1  0.10303991  0.51034022  0.63015145  1
  Mo  Mo199  1  0.51229844  0.31241531  0.62125739  1
