# generated using pymatgen
data_HfZrTaTiMo
_symmetry_space_group_name_H-M   'P 1'
_cell_length_a   15.21259962
_cell_length_b   15.21065434
_cell_length_c   16.87620590
_cell_angle_alpha   89.99686673
_cell_angle_beta   89.95361624
_cell_angle_gamma   90.09607208
_symmetry_Int_Tables_number   1
_chemical_formula_structural   HfZrTaTiMo
_chemical_formula_sum   'Hf40 Zr40 Ta40 Ti40 Mo40'
_cell_volume   3905.03916923
_cell_formula_units_Z   40
loop_
 _symmetry_equiv_pos_site_id
 _symmetry_equiv_pos_as_xyz
  1  'x, y, z'
loop_
 _atom_site_type_symbol
 _atom_site_label
 _atom_site_symmetry_multiplicity
 _atom_site_fract_x
 _atom_site_fract_y
 _atom_site_fract_z
 _atom_site_occupancy
  Hf  Hf0  1  0.49143445  0.10190509  0.61717545  1
  Hf  Hf1  1  0.40775621  0.41923701  0.49750410  1
  Hf  Hf2  1  0.50755682  0.08801005  0.36378777  1
  Hf  Hf3  1  0.28489221  0.91763356  0.62876042  1
  Hf  Hf4  1  0.49234970  0.89962542  0.61423452  1
  Hf  Hf5  1  0.59972444  -0.00669698  0.74209931  1
  Hf  Hf6  1  0.49924732  0.92119058  0.89332526  1
  Hf  Hf7  1  0.19668683  0.41374093  -0.01556748  1
  Hf  Hf8  1  0.69435659  0.08977797  0.88195774  1
  Hf  Hf9  1  0.79479654  0.57623399  0.00535192  1
  Hf  Hf10  1  0.80565913  0.60623107  0.49987111  1
  Hf  Hf11  1  0.39872252  0.81404210  0.75281536  1
  Hf  Hf12  1  0.29154807  0.91441417  0.87616040  1
  Hf  Hf13  1  0.69928452  0.89085541  0.88200207  1
  Hf  Hf14  1  0.69968604  0.67063737  0.87133589  1
  Hf  Hf15  1  0.61726900  0.20706482  0.00273427  1
  Hf  Hf16  1  0.80174036  0.79038142  0.74940695  1
  Hf  Hf17  1  0.01364495  0.60434005  0.24527355  1
  Hf  Hf18  1  0.60600902  0.18014306  0.49412788  1
  Hf  Hf19  1  0.70274326  0.28794364  0.37247577  1
  Hf  Hf20  1  0.49428583  0.30062968  0.62025335  1
  Hf  Hf21  1  0.61759246  0.38862403  0.75008736  1
  Hf  Hf22  1  0.81930414  0.39221248  0.49501259  1
  Hf  Hf23  1  0.20100465  0.22243126  0.27009353  1
  Hf  Hf24  1  0.68244627  0.47921536  0.14185763  1
  Hf  Hf25  1  0.01821667  0.40258564  0.24776191  1
  Hf  Hf26  1  0.79606932  0.37662211  0.00885389  1
  Hf  Hf27  1  0.59568720  0.78769027  0.00049764  1
  Hf  Hf28  1  0.40768468  0.59234082  -0.00218289  1
  Hf  Hf29  1  0.19755168  0.61504436  -0.01427039  1
  Hf  Hf30  1  0.38709037  0.79705510  0.49857066  1
  Hf  Hf31  1  0.29491728  0.11864508  0.62689273  1
  Hf  Hf32  1  0.90783239  0.70537051  0.37601403  1
  Hf  Hf33  1  -0.00660301  0.79605184  0.51482696  1
  Hf  Hf34  1  0.39764299  0.18098785  -0.01099939  1
  Hf  Hf35  1  0.29435246  0.70728719  0.12339342  1
  Hf  Hf36  1  0.60967371  0.79914903  0.50593834  1
  Hf  Hf37  1  0.81227912  0.37702898  0.25073186  1
  Hf  Hf38  1  0.29583617  0.70828340  0.64161961  1
  Hf  Hf39  1  0.88902738  0.10233331  0.61872400  1
  Zr  Zr40  1  0.81039782  0.78030503  -0.00553843  1
  Zr  Zr41  1  0.00079082  0.19195617  0.75046493  1
  Zr  Zr42  1  0.58253290  0.58906907  0.26236035  1
  Zr  Zr43  1  0.51092604  0.31154433  0.12572313  1
  Zr  Zr44  1  0.69822195  0.90123629  0.11640044  1
  Zr  Zr45  1  0.40458255  0.41074544  0.25985260  1
  Zr  Zr46  1  0.39545355  0.80667425  0.25374027  1
  Zr  Zr47  1  0.80966320  0.59691524  0.25540710  1
  Zr  Zr48  1  0.29228053  0.49678204  0.12490971  1
  Zr  Zr49  1  0.49968876  0.30081663  0.88040878  1
  Zr  Zr50  1  -0.00138493  0.59655525  0.00591522  1
  Zr  Zr51  1  0.08549089  0.89376659  0.37907905  1
  Zr  Zr52  1  0.40810112  0.40224143  0.74939091  1
  Zr  Zr53  1  0.09809984  0.11976221  0.12558260  1
  Zr  Zr54  1  0.20054597  0.21048764  0.48609855  1
  Zr  Zr55  1  0.08768887  0.09428885  0.38658797  1
  Zr  Zr56  1  0.20555779  0.00534319  0.25473652  1
  Zr  Zr57  1  0.09856932  0.91168951  0.12280590  1
  Zr  Zr58  1  -0.00515786  0.20251112  0.26798889  1
  Zr  Zr59  1  0.11909724  0.50885530  0.38229282  1
  Zr  Zr60  1  0.49070725  0.70116042  0.87049785  1
  Zr  Zr61  1  0.39611631  0.19578717  0.26326272  1
  Zr  Zr62  1  0.60409831  0.42136088  -0.01022519  1
  Zr  Zr63  1  0.69953021  0.49312288  0.37489194  1
  Zr  Zr64  1  0.09574378  0.09373555  0.61342226  1
  Zr  Zr65  1  0.49973855  0.69251953  0.12424904  1
  Zr  Zr66  1  0.70827166  0.27804201  0.61778233  1
  Zr  Zr67  1  0.00234440  0.42148285  0.73514966  1
  Zr  Zr68  1  0.70408067  0.69243296  0.13397335  1
  Zr  Zr69  1  0.58662237  0.18967067  0.75748292  1
  Zr  Zr70  1  0.60324034  0.58896324  0.73136854  1
  Zr  Zr71  1  -0.00630829  0.80732186  0.24773133  1
  Zr  Zr72  1  0.01109434  0.59293170  0.51564836  1
  Zr  Zr73  1  0.39193349  0.21341446  0.47270542  1
  Zr  Zr74  1  0.91282354  0.27651132  0.11828437  1
  Zr  Zr75  1  0.30327142  0.29186406  0.12202070  1
  Zr  Zr76  1  0.76273290  -0.00389550  0.51363966  1
  Zr  Zr77  1  0.89877132  0.30873534  0.86648558  1
  Zr  Zr78  1  0.90586836  0.89805375  0.87615218  1
  Zr  Zr79  1  0.60031607  0.79532765  0.74149863  1
  Ta  Ta80  1  0.10336451  0.70163167  0.63834591  1
  Ta  Ta81  1  0.10525823  0.30603740  0.86592583  1
  Ta  Ta82  1  0.79671027  0.81332987  0.25422099  1
  Ta  Ta83  1  0.10315482  0.70391349  0.12146099  1
  Ta  Ta84  1  0.59319838  0.59008105  0.50427453  1
  Ta  Ta85  1  0.89859337  0.90220746  0.11609527  1
  Ta  Ta86  1  0.90312352  0.29996713  0.62896742  1
  Ta  Ta87  1  0.49185617  0.69286737  0.38515943  1
  Ta  Ta88  1  0.39887924  0.01783215  0.75771844  1
  Ta  Ta89  1  0.49053285  0.90622124  0.11536334  1
  Ta  Ta90  1  0.51224075  0.51035184  0.86805902  1
  Ta  Ta91  1  0.69783072  0.70975722  0.37610644  1
  Ta  Ta92  1  0.30706840  0.50839343  0.86224422  1
  Ta  Ta93  1  0.89077667  0.89535992  0.62084694  1
  Ta  Ta94  1  -0.00194743  0.80042354  0.73935167  1
  Ta  Ta95  1  0.49945858  0.89680849  0.38007535  1
  Ta  Ta96  1  0.50234210  0.09560892  0.12914886  1
  Ta  Ta97  1  0.38477483  0.80201728  -0.00310199  1
  Ta  Ta98  1  0.69079639  0.90809428  0.37069335  1
  Ta  Ta99  1  0.82497837  0.17955460  -0.01341699  1
  Ta  Ta100  1  0.00665901  0.79921212  -0.00074237  1
  Ta  Ta101  1  0.80415941  0.16962931  0.26428500  1
  Ta  Ta102  1  0.79876542  0.00012080  0.74365119  1
  Ta  Ta103  1  0.20749341  0.41287295  0.51762850  1
  Ta  Ta104  1  0.71066834  0.10179840  0.12122543  1
  Ta  Ta105  1  0.19707923  0.20907202  -0.01242680  1
  Ta  Ta106  1  -0.00645327  0.02178465  -0.00567323  1
  Ta  Ta107  1  0.00074100  -0.01027734  0.74448014  1
  Ta  Ta108  1  0.20271323  0.01676582  -0.00147067  1
  Ta  Ta109  1  0.19330524  0.79197400  0.25503065  1
  Ta  Ta110  1  0.48725348  0.68250860  0.61964767  1
  Ta  Ta111  1  0.11114012  0.31959628  0.11843827  1
  Ta  Ta112  1  0.19058125  0.79764813  0.50380475  1
  Ta  Ta113  1  0.71601850  0.49048029  0.61953880  1
  Ta  Ta114  1  0.29532894  0.90110871  0.37667645  1
  Ta  Ta115  1  0.38929959  0.00707700  0.49007594  1
  Ta  Ta116  1  0.31854472  0.51529455  0.63464132  1
  Ta  Ta117  1  0.59569529  0.80242793  0.25538795  1
  Ta  Ta118  1  0.60557270  -0.00261138  0.24113843  1
  Ta  Ta119  1  0.90845201  0.67432776  0.85963869  1
  Ti  Ti120  1  0.28655257  0.69941388  0.37637725  1
  Ti  Ti121  1  0.21308378  0.60830456  0.51095623  1
  Ti  Ti122  1  0.29890202  0.30709660  0.62837832  1
  Ti  Ti123  1  0.31078319  0.51500330  0.37887433  1
  Ti  Ti124  1  0.80620488  0.19095920  0.48352957  1
  Ti  Ti125  1  0.18370708  0.82349289  0.75121987  1
  Ti  Ti126  1  0.79159172  0.19862036  0.76057107  1
  Ti  Ti127  1  0.20681315  0.39995126  0.74882044  1
  Ti  Ti128  1  0.90795960  0.49141026  0.12881807  1
  Ti  Ti129  1  0.09547086  0.32108553  0.38762261  1
  Ti  Ti130  1  0.51135431  0.31396399  0.36998487  1
  Ti  Ti131  1  0.19384924  0.02166846  0.75494803  1
  Ti  Ti132  1  0.29798145  0.90565230  0.12138433  1
  Ti  Ti133  1  0.09565878  0.91053650  0.88055445  1
  Ti  Ti134  1  0.90059166  0.08626443  0.12655862  1
  Ti  Ti135  1  0.37808616  0.20272792  0.77113803  1
  Ti  Ti136  1  0.60537659  0.39680415  0.50286334  1
  Ti  Ti137  1  0.88275842  0.90714435  0.39232254  1
  Ti  Ti138  1  0.09601425  0.10461605  0.87480704  1
  Ti  Ti139  1  0.90250558  0.70398510  0.12848111  1
  Ti  Ti140  1  0.29087754  0.70700686  0.86087870  1
  Ti  Ti141  1  0.80096528  -0.00296594  -0.00338887  1
  Ti  Ti142  1  0.19391715  0.59559705  0.75287332  1
  Ti  Ti143  1  0.20113860  0.59804164  0.24817697  1
  Ti  Ti144  1  0.19430811  0.81064946  -0.00461195  1
  Ti  Ti145  1  0.08461443  0.51259858  0.86704049  1
  Ti  Ti146  1  0.61108888  0.20152361  0.24216602  1
  Ti  Ti147  1  0.00048869  0.40109990  -0.00289474  1
  Ti  Ti148  1  0.91738253  0.48872648  0.37721014  1
  Ti  Ti149  1  0.30648397  0.09272690  0.12863274  1
  Ti  Ti150  1  -0.00935291  0.20913467  0.49463181  1
  Ti  Ti151  1  0.73103555  0.48037393  0.85821904  1
  Ti  Ti152  1  0.01308853  0.39925256  0.51959761  1
  Ti  Ti153  1  0.39387486  0.60550762  0.25072284  1
  Ti  Ti154  1  0.10940769  0.29647577  0.62953070  1
  Ti  Ti155  1  -0.02694109  0.00207519  0.25866180  1
  Ti  Ti156  1  0.19365053  -0.00484929  0.49505054  1
  Ti  Ti157  1  0.09515554  0.71280210  0.86277106  1
  Ti  Ti158  1  0.39638628  0.39872238  -0.00888503  1
  Ti  Ti159  1  0.71153938  0.69899924  0.62043253  1
  Mo  Mo160  1  0.48966322  0.49539814  0.12328949  1
  Mo  Mo161  1  0.11309623  0.70163803  0.37946832  1
  Mo  Mo162  1  0.19722306  0.21045062  0.75342598  1
  Mo  Mo163  1  -0.01662632  -0.00239673  0.50711040  1
  Mo  Mo164  1  0.70090956  0.89242406  0.63219756  1
  Mo  Mo165  1  0.79604814  0.79551200  0.49978536  1
  Mo  Mo166  1  0.39534080  0.60710107  0.50068100  1
  Mo  Mo167  1  0.69714178  0.08897252  0.36608287  1
  Mo  Mo168  1  0.40606048  -0.00785677  0.24367540  1
  Mo  Mo169  1  0.28392483  0.33812269  0.37785541  1
  Mo  Mo170  1  0.01281024  0.20729912  -0.01289875  1
  Mo  Mo171  1  0.28745724  0.10365137  0.87148310  1
  Mo  Mo172  1  0.29833981  0.08435131  0.37240780  1
  Mo  Mo173  1  0.69684772  0.09688355  0.63492316  1
  Mo  Mo174  1  0.60404202  0.59529130  -0.00289346  1
  Mo  Mo175  1  0.89734134  0.69371397  0.63559481  1
  Mo  Mo176  1  0.49369848  0.09715524  0.87771082  1
  Mo  Mo177  1  0.70989109  0.29233642  0.87226826  1
  Mo  Mo178  1  0.12363813  0.50378785  0.62776025  1
  Mo  Mo179  1  0.81295955  0.58336930  0.73444594  1
  Mo  Mo180  1  0.09948461  0.50415865  0.12034436  1
  Mo  Mo181  1  0.59502376  0.00950283  0.01408023  1
  Mo  Mo182  1  0.80505297  0.39334055  0.73616745  1
  Mo  Mo183  1  0.09715243  0.90146941  0.62424535  1
  Mo  Mo184  1  0.50432627  0.50374995  0.38390613  1
  Mo  Mo185  1  0.90994975  0.29699115  0.38123756  1
  Mo  Mo186  1  0.00593166  0.60780024  0.74051608  1
  Mo  Mo187  1  0.90381965  0.49718437  0.61798423  1
  Mo  Mo188  1  0.20189398  0.40892812  0.25282223  1
  Mo  Mo189  1  0.51088433  0.49677262  0.62290135  1
  Mo  Mo190  1  0.39673116  0.60204616  0.75436853  1
  Mo  Mo191  1  0.89347664  0.08601345  0.39347520  1
  Mo  Mo192  1  0.58218447  -0.00727960  0.50112460  1
  Mo  Mo193  1  0.29268601  0.30874953  0.87472432  1
  Mo  Mo194  1  0.60231944  0.38739305  0.25546726  1
  Mo  Mo195  1  0.80302931  -0.01063794  0.24939116  1
  Mo  Mo196  1  0.71445698  0.27776903  0.13675318  1
  Mo  Mo197  1  0.90240037  0.49964570  0.87582116  1
  Mo  Mo198  1  0.38859100  -0.00177761  0.00757487  1
  Mo  Mo199  1  0.90129157  0.09111917  0.86644194  1
