# generated using pymatgen
data_HfZrTaTiMo
_symmetry_space_group_name_H-M   'P 1'
_cell_length_a   15.21646145
_cell_length_b   15.20807504
_cell_length_c   16.85753176
_cell_angle_alpha   90.09011195
_cell_angle_beta   90.00052798
_cell_angle_gamma   89.90938764
_symmetry_Int_Tables_number   1
_chemical_formula_structural   HfZrTaTiMo
_chemical_formula_sum   'Hf40 Zr40 Ta40 Ti40 Mo40'
_cell_volume   3901.04377204
_cell_formula_units_Z   40
loop_
 _symmetry_equiv_pos_site_id
 _symmetry_equiv_pos_as_xyz
  1  'x, y, z'
loop_
 _atom_site_type_symbol
 _atom_site_label
 _atom_site_symmetry_multiplicity
 _atom_site_fract_x
 _atom_site_fract_y
 _atom_site_fract_z
 _atom_site_occupancy
  Hf  Hf0  1  0.21404507  0.40575711  0.24409909  1
  Hf  Hf1  1  0.29154910  0.89320635  0.87159610  1
  Hf  Hf2  1  0.29707731  0.88854981  0.12002271  1
  Hf  Hf3  1  0.40835357  -0.01068088  0.49572802  1
  Hf  Hf4  1  0.80900718  0.79116107  0.00475324  1
  Hf  Hf5  1  0.70818506  0.28458875  0.63524540  1
  Hf  Hf6  1  0.49173678  0.51054698  0.87170381  1
  Hf  Hf7  1  0.78840694  0.00205544  0.76755912  1
  Hf  Hf8  1  0.00470971  0.81655228  -0.00721588  1
  Hf  Hf9  1  0.92246834  0.90333980  0.13617760  1
  Hf  Hf10  1  0.30311810  0.49498558  0.38176782  1
  Hf  Hf11  1  0.79720977  0.60300171  0.22663934  1
  Hf  Hf12  1  0.70094382  0.49588028  0.36631865  1
  Hf  Hf13  1  0.09717235  0.89966443  0.85921394  1
  Hf  Hf14  1  0.21305089  0.20223115  0.75607366  1
  Hf  Hf15  1  0.78146948  0.00629574  0.24361389  1
  Hf  Hf16  1  0.92796434  0.29429652  0.12680881  1
  Hf  Hf17  1  0.91269825  0.30579068  0.62897458  1
  Hf  Hf18  1  0.09767807  0.51387026  0.13197475  1
  Hf  Hf19  1  0.41500846  0.20434631  -0.00751211  1
  Hf  Hf20  1  0.70319701  0.30502955  0.88949297  1
  Hf  Hf21  1  0.81793354  0.19008860  -0.00115858  1
  Hf  Hf22  1  0.18426700  0.80462881  0.49949810  1
  Hf  Hf23  1  0.79538813  0.79753807  0.76040555  1
  Hf  Hf24  1  0.70509220  0.29023384  0.11248961  1
  Hf  Hf25  1  0.60546353  0.39350402  0.50516369  1
  Hf  Hf26  1  0.49306282  0.70272840  0.62952104  1
  Hf  Hf27  1  0.68302503  0.49399037  0.11185365  1
  Hf  Hf28  1  0.60520774  0.60681058  0.75500283  1
  Hf  Hf29  1  -0.01571019  0.00133009  0.75557638  1
  Hf  Hf30  1  0.09883041  0.09454506  0.62022836  1
  Hf  Hf31  1  0.28229637  0.68422629  0.11951633  1
  Hf  Hf32  1  0.40830639  -0.01314570  0.24961895  1
  Hf  Hf33  1  0.51041851  0.30208911  0.13393019  1
  Hf  Hf34  1  0.68298626  0.70749645  0.11545591  1
  Hf  Hf35  1  0.38882682  0.58945017  0.24573028  1
  Hf  Hf36  1  0.91531001  0.29860191  0.88524312  1
  Hf  Hf37  1  0.30427758  0.11100448  0.61695914  1
  Hf  Hf38  1  0.19701708  0.40315412  0.74333841  1
  Hf  Hf39  1  0.80720077  -0.00818916  -0.00293477  1
  Zr  Zr40  1  0.30271337  0.68713429  0.86675962  1
  Zr  Zr41  1  0.18973263  0.20242784  0.01312305  1
  Zr  Zr42  1  0.00621551  0.39829650  0.49020284  1
  Zr  Zr43  1  0.39956928  0.20878357  0.48579413  1
  Zr  Zr44  1  0.71335599  0.29527918  0.36383679  1
  Zr  Zr45  1  0.58621105  0.81829562  0.49004666  1
  Zr  Zr46  1  0.20541702  0.41140043  0.01735955  1
  Zr  Zr47  1  0.28737024  0.10489019  0.36537646  1
  Zr  Zr48  1  0.51669387  0.08429938  0.36928531  1
  Zr  Zr49  1  0.80515313  0.40493842  0.75884597  1
  Zr  Zr50  1  0.81345466  0.40175778  0.23245348  1
  Zr  Zr51  1  0.90078276  0.49960749  0.37245488  1
  Zr  Zr52  1  0.90420176  0.49995657  0.89054606  1
  Zr  Zr53  1  0.68681507  0.88702972  0.88899892  1
  Zr  Zr54  1  0.89754527  0.89214988  0.62557293  1
  Zr  Zr55  1  0.89796804  0.69288420  0.62087873  1
  Zr  Zr56  1  0.87371354  0.10325211  0.61269253  1
  Zr  Zr57  1  0.29438666  0.89793477  0.63128463  1
  Zr  Zr58  1  0.50711819  0.50015338  0.36541973  1
  Zr  Zr59  1  0.49884378  0.90299713  0.87815153  1
  Zr  Zr60  1  -0.00718322  0.61716726  0.24540110  1
  Zr  Zr61  1  0.29516858  0.09609193  0.88647878  1
  Zr  Zr62  1  0.70067114  0.71831612  0.61930956  1
  Zr  Zr63  1  0.40687254  0.78104860  -0.00766655  1
  Zr  Zr64  1  0.10948474  0.31564009  0.87811501  1
  Zr  Zr65  1  0.00372835  0.20520090  0.74954791  1
  Zr  Zr66  1  -0.00088794  -0.01565271  0.49704247  1
  Zr  Zr67  1  0.70610535  0.49974193  0.62887150  1
  Zr  Zr68  1  0.28612354  0.49368556  0.87428377  1
  Zr  Zr69  1  0.89842960  0.70931840  0.38714331  1
  Zr  Zr70  1  0.59327683  0.81432677  0.25732082  1
  Zr  Zr71  1  0.39941658  0.00978645  0.75154285  1
  Zr  Zr72  1  0.59247628  0.59799984  0.50690455  1
  Zr  Zr73  1  0.09530851  0.49731875  0.62245789  1
  Zr  Zr74  1  0.69668636  0.69937235  0.37864489  1
  Zr  Zr75  1  0.80509359  0.80043529  0.24303131  1
  Zr  Zr76  1  0.30136485  0.09444135  0.12743647  1
  Zr  Zr77  1  0.61365272  0.19411553  0.49998348  1
  Zr  Zr78  1  0.41301201  0.40394805  0.50415981  1
  Zr  Zr79  1  0.11767119  0.29005468  0.35899403  1
  Ta  Ta80  1  0.50327052  0.89293182  0.11482352  1
  Ta  Ta81  1  0.49041046  0.69454977  0.12784118  1
  Ta  Ta82  1  0.79843576  0.59509943  0.00537129  1
  Ta  Ta83  1  0.19266792  0.79113370  -0.00494819  1
  Ta  Ta84  1  -0.00213374  0.01978984  -0.00565082  1
  Ta  Ta85  1  0.80118269  0.59976208  0.76551930  1
  Ta  Ta86  1  0.48401699  0.70098603  0.37361956  1
  Ta  Ta87  1  0.21123745  0.38653410  0.49494145  1
  Ta  Ta88  1  0.19637879  0.60879061  0.25952886  1
  Ta  Ta89  1  0.59514038  0.39444498  0.76380246  1
  Ta  Ta90  1  0.00882806  0.60889840  0.49786360  1
  Ta  Ta91  1  0.10191955  0.50516563  0.36987279  1
  Ta  Ta92  1  0.08836106  0.09265882  0.36247924  1
  Ta  Ta93  1  0.30675668  0.30330237  0.62534147  1
  Ta  Ta94  1  0.39126580  0.78995518  0.25055650  1
  Ta  Ta95  1  0.10045038  0.69811165  0.86246593  1
  Ta  Ta96  1  0.79791400  0.19114285  0.76968195  1
  Ta  Ta97  1  0.51408609  0.09826854  0.62455287  1
  Ta  Ta98  1  0.61400809  0.18138991  0.24300879  1
  Ta  Ta99  1  0.50258801  0.29302567  0.63838357  1
  Ta  Ta100  1  0.40263807  0.20048596  0.25256474  1
  Ta  Ta101  1  0.50566373  0.90059412  0.63492067  1
  Ta  Ta102  1  0.11455640  0.29069770  0.61431818  1
  Ta  Ta103  1  0.19813489  0.59963950  0.49969712  1
  Ta  Ta104  1  0.09508971  0.70625903  0.63355694  1
  Ta  Ta105  1  0.31216711  0.30197775  0.13307365  1
  Ta  Ta106  1  0.19521319  0.79734560  0.25630635  1
  Ta  Ta107  1  0.19927788  0.00420735  0.49167800  1
  Ta  Ta108  1  0.51079808  0.30196867  0.35311091  1
  Ta  Ta109  1  0.18328780  -0.00882027  0.00570361  1
  Ta  Ta110  1  0.18470266  -0.01349705  0.24825982  1
  Ta  Ta111  1  0.00466435  0.19676687  0.49045525  1
  Ta  Ta112  1  0.68397368  0.09904577  0.89495400  1
  Ta  Ta113  1  0.29092301  0.69741457  0.62740282  1
  Ta  Ta114  1  0.58868619  0.40081538  -0.01284035  1
  Ta  Ta115  1  0.08453349  0.10333080  0.14211003  1
  Ta  Ta116  1  0.80502824  0.38849066  0.50054813  1
  Ta  Ta117  1  0.41147049  0.20632991  0.76429834  1
  Ta  Ta118  1  0.69649341  0.92581092  0.61937408  1
  Ta  Ta119  1  0.90577630  0.90914945  0.36540130  1
  Ti  Ti120  1  0.39473522  0.59350993  0.74114758  1
  Ti  Ti121  1  0.58005793  0.60702746  -0.00641989  1
  Ti  Ti122  1  0.60134990  0.19308223  0.76138819  1
  Ti  Ti123  1  0.09440155  0.71122979  0.37605775  1
  Ti  Ti124  1  0.51548336  0.09419384  0.12382369  1
  Ti  Ti125  1  0.89350273  0.10409994  0.37610847  1
  Ti  Ti126  1  0.09160731  0.10693529  0.87678298  1
  Ti  Ti127  1  0.59337619  0.60128911  0.24438052  1
  Ti  Ti128  1  0.39035131  0.79578749  0.50027394  1
  Ti  Ti129  1  0.90101865  0.09914654  0.13236584  1
  Ti  Ti130  1  0.09004227  0.72528562  0.13078408  1
  Ti  Ti131  1  0.69102905  0.69078399  0.88680794  1
  Ti  Ti132  1  0.68944714  0.91090105  0.11337903  1
  Ti  Ti133  1  0.40169375  -0.00002725  0.00201127  1
  Ti  Ti134  1  0.59828208  0.00477981  0.75457619  1
  Ti  Ti135  1  0.79979081  0.58985048  0.50016326  1
  Ti  Ti136  1  -0.00611872  0.59383144  0.75090662  1
  Ti  Ti137  1  0.90654415  0.70255937  0.87415627  1
  Ti  Ti138  1  0.29448516  0.69866347  0.38091643  1
  Ti  Ti139  1  0.40519858  0.79403675  0.75333741  1
  Ti  Ti140  1  0.80692118  0.19650484  0.24164092  1
  Ti  Ti141  1  0.09707244  0.89043831  0.64297488  1
  Ti  Ti142  1  0.39998201  0.39538268  -0.00461676  1
  Ti  Ti143  1  0.09298828  0.51103030  0.87896725  1
  Ti  Ti144  1  0.19691470  0.60206658  0.73984563  1
  Ti  Ti145  1  0.19603125  0.00639600  0.74872265  1
  Ti  Ti146  1  0.91080229  0.29562353  0.36353637  1
  Ti  Ti147  1  0.39577412  0.60352652  0.50518038  1
  Ti  Ti148  1  0.48963648  0.49361527  0.12594558  1
  Ti  Ti149  1  0.38640611  0.58379899  0.00740465  1
  Ti  Ti150  1  0.29744983  0.89380564  0.37325501  1
  Ti  Ti151  1  0.39695120  0.39345737  0.75417088  1
  Ti  Ti152  1  0.49856184  0.49103248  0.63883627  1
  Ti  Ti153  1  0.71091753  0.10041365  0.37926748  1
  Ti  Ti154  1  0.90150907  0.50050030  0.62461021  1
  Ti  Ti155  1  0.69335365  0.91821764  0.37868751  1
  Ti  Ti156  1  0.80226283  0.82420152  0.49350497  1
  Ti  Ti157  1  0.00601343  0.40223847  0.01290966  1
  Ti  Ti158  1  0.00092590  0.61818426  0.00871522  1
  Ti  Ti159  1  0.30109873  0.49977515  0.61766988  1
  Mo  Mo160  1  0.30694479  0.30340366  0.87619842  1
  Mo  Mo161  1  0.00915761  0.40529063  0.25132767  1
  Mo  Mo162  1  -0.00616753  0.19746171  0.26137880  1
  Mo  Mo163  1  0.69972269  0.09824155  0.11155411  1
  Mo  Mo164  1  0.89850694  0.10015452  0.87659801  1
  Mo  Mo165  1  0.31295388  0.29800869  0.36474383  1
  Mo  Mo166  1  0.40667373  0.39509402  0.24799288  1
  Mo  Mo167  1  0.50182849  0.30290102  0.86807704  1
  Mo  Mo168  1  0.01447116  0.81270507  0.25424549  1
  Mo  Mo169  1  0.50830096  0.70340974  0.86080421  1
  Mo  Mo170  1  0.20374992  0.19345346  0.23405743  1
  Mo  Mo171  1  0.81325387  0.20707671  0.49396172  1
  Mo  Mo172  1  0.59863198  0.80964339  0.74357552  1
  Mo  Mo173  1  0.10703464  0.90935920  0.12317103  1
  Mo  Mo174  1  0.90499311  0.70064070  0.11667907  1
  Mo  Mo175  1  0.59566587  0.79342759  0.00559371  1
  Mo  Mo176  1  0.00050644  0.79725091  0.50012346  1
  Mo  Mo177  1  -0.00951950  0.00387471  0.25813936  1
  Mo  Mo178  1  0.60192410  0.00064710  0.50397010  1
  Mo  Mo179  1  0.90173146  0.89480527  0.87477319  1
  Mo  Mo180  1  0.60323322  0.39835916  0.24212643  1
  Mo  Mo181  1  0.79060125  0.00480395  0.48784045  1
  Mo  Mo182  1  0.69500733  0.50574324  0.89388641  1
  Mo  Mo183  1  0.01280296  0.19797770  0.00364953  1
  Mo  Mo184  1  0.10644937  0.29802129  0.14747366  1
  Mo  Mo185  1  0.00506241  0.41204641  0.74798545  1
  Mo  Mo186  1  0.60205284  -0.00202160  0.24047471  1
  Mo  Mo187  1  0.50488817  0.09962834  0.87865107  1
  Mo  Mo188  1  0.59879826  0.19905269  0.00111982  1
  Mo  Mo189  1  0.80522659  0.40291656  0.01046588  1
  Mo  Mo190  1  0.48766503  0.89069068  0.37234394  1
  Mo  Mo191  1  0.20071546  0.79458955  0.74437552  1
  Mo  Mo192  1  0.30465150  0.49893766  0.12180962  1
  Mo  Mo193  1  0.69514534  0.10324647  0.63529759  1
  Mo  Mo194  1  0.59174258  0.00295657  0.00908881  1
  Mo  Mo195  1  0.18244537  0.61017201  -0.00270070  1
  Mo  Mo196  1  -0.00423945  0.78789862  0.75670783  1
  Mo  Mo197  1  0.90208893  0.50079811  0.10621023  1
  Mo  Mo198  1  0.10475279  0.90206948  0.37401394  1
  Mo  Mo199  1  0.19484755  0.19775356  0.49752909  1
