# generated using pymatgen
data_HfZrTaTiMo
_symmetry_space_group_name_H-M   'P 1'
_cell_length_a   15.19768625
_cell_length_b   15.21913912
_cell_length_c   16.86485825
_cell_angle_alpha   90.02257871
_cell_angle_beta   89.98440758
_cell_angle_gamma   90.00091272
_symmetry_Int_Tables_number   1
_chemical_formula_structural   HfZrTaTiMo
_chemical_formula_sum   'Hf40 Zr40 Ta40 Ti40 Mo40'
_cell_volume   3900.76876760
_cell_formula_units_Z   40
loop_
 _symmetry_equiv_pos_site_id
 _symmetry_equiv_pos_as_xyz
  1  'x, y, z'
loop_
 _atom_site_type_symbol
 _atom_site_label
 _atom_site_symmetry_multiplicity
 _atom_site_fract_x
 _atom_site_fract_y
 _atom_site_fract_z
 _atom_site_occupancy
  Hf  Hf0  1  0.19987508  0.79937479  0.51134277  1
  Hf  Hf1  1  0.51027908  0.29077914  0.61830067  1
  Hf  Hf2  1  0.79840634  0.20923158  0.00714044  1
  Hf  Hf3  1  0.49255483  0.69910987  0.88233518  1
  Hf  Hf4  1  0.19446292  -0.00124471  0.25239153  1
  Hf  Hf5  1  0.39698617  0.59126029  0.75360546  1
  Hf  Hf6  1  0.89535421  0.10264213  0.86106791  1
  Hf  Hf7  1  0.20049944  0.60245061  0.49481992  1
  Hf  Hf8  1  0.61090610  0.39728177  0.01624658  1
  Hf  Hf9  1  0.78953820  -0.00198088  0.49843974  1
  Hf  Hf10  1  0.41087418  0.41576387  0.25079442  1
  Hf  Hf11  1  0.00786838  0.20133244  -0.00443288  1
  Hf  Hf12  1  0.09390776  0.51194715  0.62197245  1
  Hf  Hf13  1  0.58194944  0.80178349  0.24583942  1
  Hf  Hf14  1  0.39322446  0.00672624  0.75674338  1
  Hf  Hf15  1  0.09456551  0.50106813  0.85812143  1
  Hf  Hf16  1  -0.00850731  -0.00738385  0.25094906  1
  Hf  Hf17  1  0.59488154  0.40029437  0.75482020  1
  Hf  Hf18  1  0.88665430  0.69719556  0.12456937  1
  Hf  Hf19  1  0.30745353  0.71725615  0.36983753  1
  Hf  Hf20  1  0.91915399  0.31263555  0.12223220  1
  Hf  Hf21  1  0.19632316  0.20155352  0.50732290  1
  Hf  Hf22  1  0.28927842  0.89995415  0.88451036  1
  Hf  Hf23  1  0.21410266  0.40521652  0.74681729  1
  Hf  Hf24  1  0.70308123  0.49105475  0.37329036  1
  Hf  Hf25  1  0.19063608  0.00402626  0.50003767  1
  Hf  Hf26  1  0.40034494  -0.01001194  0.23887382  1
  Hf  Hf27  1  0.40613378  0.60633065  0.49120296  1
  Hf  Hf28  1  0.30669930  0.50830500  0.62038996  1
  Hf  Hf29  1  0.29065961  0.50194437  0.12441897  1
  Hf  Hf30  1  0.82136263  0.40627869  0.24824455  1
  Hf  Hf31  1  0.60200005  0.59686348  0.49333549  1
  Hf  Hf32  1  0.80625132  0.60616461  -0.02305305  1
  Hf  Hf33  1  -0.00855765  0.78703105  0.25179026  1
  Hf  Hf34  1  0.09600105  0.67756611  0.12953383  1
  Hf  Hf35  1  0.80950410  0.21343076  0.50052340  1
  Hf  Hf36  1  -0.00247468  0.37856804  0.51504250  1
  Hf  Hf37  1  0.71478019  0.51281097  0.12275178  1
  Hf  Hf38  1  0.50049137  0.69320623  0.63284908  1
  Hf  Hf39  1  0.89194296  0.90186759  0.11466374  1
  Zr  Zr40  1  0.59167808  0.00853449  0.76175726  1
  Zr  Zr41  1  0.60570805  0.19026228  0.48869724  1
  Zr  Zr42  1  -0.00765523  0.39597945  0.72712817  1
  Zr  Zr43  1  0.48748033  0.11784727  0.90208259  1
  Zr  Zr44  1  0.49285136  0.88379217  0.37754342  1
  Zr  Zr45  1  0.39398364  0.21470098  0.24184460  1
  Zr  Zr46  1  0.10258543  0.27921485  0.37511721  1
  Zr  Zr47  1  0.60385423  0.81144023  0.51434641  1
  Zr  Zr48  1  0.21897248  0.17845670  -0.01058652  1
  Zr  Zr49  1  0.00059012  0.19741047  0.24530881  1
  Zr  Zr50  1  0.30747434  0.10308796  0.62509967  1
  Zr  Zr51  1  0.91778929  0.10081157  0.38567333  1
  Zr  Zr52  1  0.39851977  0.21062868  0.48294339  1
  Zr  Zr53  1  0.09757868  0.88760188  0.11789870  1
  Zr  Zr54  1  0.90381513  0.30699457  0.86948897  1
  Zr  Zr55  1  0.31761685  0.30020596  0.87926537  1
  Zr  Zr56  1  0.89382488  0.69983493  0.39550183  1
  Zr  Zr57  1  0.08830665  0.89657242  0.37976574  1
  Zr  Zr58  1  0.41616806  0.20519485  0.75240480  1
  Zr  Zr59  1  0.88121667  0.09336640  0.64410223  1
  Zr  Zr60  1  -0.00383033  0.78127737  -0.01148466  1
  Zr  Zr61  1  0.68842849  0.90007744  0.11326610  1
  Zr  Zr62  1  0.79602744  0.61422130  0.25807934  1
  Zr  Zr63  1  0.71949566  0.69166180  0.63179159  1
  Zr  Zr64  1  0.50418930  0.90660960  0.90240547  1
  Zr  Zr65  1  0.78753531  0.80077217  -0.02684954  1
  Zr  Zr66  1  0.39953396  0.80472246  0.74659603  1
  Zr  Zr67  1  0.19622033  0.59292208  0.25912703  1
  Zr  Zr68  1  0.79693166  0.00253353  0.25444292  1
  Zr  Zr69  1  0.09589177  0.08962034  0.11417594  1
  Zr  Zr70  1  0.50679184  0.09729566  0.35788693  1
  Zr  Zr71  1  0.10322677  0.29041653  0.86205950  1
  Zr  Zr72  1  0.19702194  0.39554180  -0.00405499  1
  Zr  Zr73  1  0.61149861  0.80192706  0.75844840  1
  Zr  Zr74  1  0.58687970  0.60083039  0.25848598  1
  Zr  Zr75  1  0.68246950  0.10501509  0.63232366  1
  Zr  Zr76  1  0.40757059  0.00325960  0.49792900  1
  Zr  Zr77  1  0.01453486  0.78977827  0.73407036  1
  Zr  Zr78  1  0.79421281  0.42424785  0.75476212  1
  Zr  Zr79  1  0.49674378  0.51410303  0.11290639  1
  Ta  Ta80  1  0.19111880  -0.01907411  0.74444711  1
  Ta  Ta81  1  0.50280670  0.09861598  0.11890158  1
  Ta  Ta82  1  0.21162442  0.39504651  0.49879595  1
  Ta  Ta83  1  0.09287082  0.69311708  0.37986132  1
  Ta  Ta84  1  -0.00968920  -0.01881722  0.74745213  1
  Ta  Ta85  1  0.90394427  0.49596394  0.39862534  1
  Ta  Ta86  1  0.71706233  0.31251538  0.62905088  1
  Ta  Ta87  1  0.28511493  0.11043407  0.36489892  1
  Ta  Ta88  1  0.09591870  0.48660739  0.38382582  1
  Ta  Ta89  1  0.61054780  0.39467457  0.49847426  1
  Ta  Ta90  1  0.20475867  0.78174105  0.00304099  1
  Ta  Ta91  1  0.81605269  0.41002950  -0.00374884  1
  Ta  Ta92  1  0.30186470  0.88864218  0.11464694  1
  Ta  Ta93  1  -0.00081550  0.57927828  -0.00892593  1
  Ta  Ta94  1  0.51652599  0.31450658  0.36311771  1
  Ta  Ta95  1  0.37667316  0.01700976  0.00968640  1
  Ta  Ta96  1  0.20918961  0.18825629  0.75158341  1
  Ta  Ta97  1  0.69307967  0.10720280  0.88207732  1
  Ta  Ta98  1  0.51015574  0.31251721  0.89222836  1
  Ta  Ta99  1  0.00035849  0.80013286  0.51821674  1
  Ta  Ta100  1  0.10204026  0.07892250  0.86451463  1
  Ta  Ta101  1  -0.00785848  0.58058703  0.26307897  1
  Ta  Ta102  1  0.30963903  0.30886028  0.62538503  1
  Ta  Ta103  1  0.79799837  0.00377977  -0.01556463  1
  Ta  Ta104  1  0.41211598  0.40543437  0.48835887  1
  Ta  Ta105  1  0.28567115  0.69607632  0.86730951  1
  Ta  Ta106  1  0.18888503  0.59608118  -0.00270138  1
  Ta  Ta107  1  0.60536192  0.61493126  -0.00668163  1
  Ta  Ta108  1  0.71865644  0.90578804  0.63961352  1
  Ta  Ta109  1  0.29822446  0.89730443  0.62702593  1
  Ta  Ta110  1  0.60672812  0.58996556  0.75881692  1
  Ta  Ta111  1  0.69394859  0.71883274  0.38433174  1
  Ta  Ta112  1  0.70144135  0.30009725  0.87864118  1
  Ta  Ta113  1  0.70118273  0.09859711  0.11816993  1
  Ta  Ta114  1  0.87092261  0.50222289  0.60255362  1
  Ta  Ta115  1  0.12122298  0.29303631  0.13015663  1
  Ta  Ta116  1  0.20867481  0.38299239  0.25750799  1
  Ta  Ta117  1  0.48166734  0.71859679  0.10808492  1
  Ta  Ta118  1  0.30439386  0.49657876  0.37493486  1
  Ta  Ta119  1  0.50823032  0.49262802  0.62230555  1
  Ti  Ti120  1  0.20404408  0.79665422  0.24482869  1
  Ti  Ti121  1  0.61189301  0.39493716  0.23161037  1
  Ti  Ti122  1  0.00380118  0.18447484  0.52300288  1
  Ti  Ti123  1  0.40652124  0.22841280  0.02977982  1
  Ti  Ti124  1  0.91248768  0.50698502  0.12140524  1
  Ti  Ti125  1  0.09085284  0.47919024  0.13231017  1
  Ti  Ti126  1  0.50886222  0.92165504  0.62357364  1
  Ti  Ti127  1  0.90398130  0.30644559  0.37150653  1
  Ti  Ti128  1  0.78845542  0.80872929  0.25219711  1
  Ti  Ti129  1  0.81734313  0.80399710  0.76995561  1
  Ti  Ti130  1  0.40940803  0.40051406  0.75233543  1
  Ti  Ti131  1  0.10017655  0.88592035  0.87573046  1
  Ti  Ti132  1  0.89682206  0.09743973  0.11679972  1
  Ti  Ti133  1  0.49330995  0.49777221  0.89387302  1
  Ti  Ti134  1  0.39983107  0.62075883  0.25075715  1
  Ti  Ti135  1  0.49669824  0.90421630  0.10123102  1
  Ti  Ti136  1  0.60207141  0.00194037  0.24058993  1
  Ti  Ti137  1  0.88761179  0.89065583  0.38543644  1
  Ti  Ti138  1  -0.00616025  -0.00889581  0.52315211  1
  Ti  Ti139  1  0.29155512  0.10563726  0.13295331  1
  Ti  Ti140  1  0.90422405  0.68933756  0.61034789  1
  Ti  Ti141  1  0.60597945  0.20927281  0.75877586  1
  Ti  Ti142  1  0.69115382  0.90792804  0.37530245  1
  Ti  Ti143  1  -0.02358823  0.59669801  0.74536223  1
  Ti  Ti144  1  0.10277193  0.69286491  0.86555838  1
  Ti  Ti145  1  0.30142701  0.50346304  0.88035947  1
  Ti  Ti146  1  0.60617012  0.20523893  0.23422899  1
  Ti  Ti147  1  -0.00354828  -0.00707840  -0.01404351  1
  Ti  Ti148  1  0.38010989  0.61061111  0.00003183  1
  Ti  Ti149  1  0.39856945  0.79930054  0.51550099  1
  Ti  Ti150  1  0.09957565  0.09016744  0.64117541  1
  Ti  Ti151  1  0.00004822  0.19459566  0.74019706  1
  Ti  Ti152  1  0.69314997  0.50011599  0.88313774  1
  Ti  Ti153  1  0.11280834  0.29233531  0.63480442  1
  Ti  Ti154  1  0.70357164  0.10508260  0.36475244  1
  Ti  Ti155  1  0.79912471  0.20144293  0.23827404  1
  Ti  Ti156  1  0.29700488  0.90649781  0.37426561  1
  Ti  Ti157  1  0.60403138  0.20735360  0.01830274  1
  Ti  Ti158  1  0.68575772  0.70776281  0.12059045  1
  Ti  Ti159  1  0.70769142  0.29672986  0.36322811  1
  Mo  Mo160  1  0.69633101  0.69769494  0.86170952  1
  Mo  Mo161  1  0.59693710  0.79819066  -0.00483043  1
  Mo  Mo162  1  0.29868544  0.70130606  0.63016794  1
  Mo  Mo163  1  0.10051286  0.69329239  0.62080850  1
  Mo  Mo164  1  0.38938683  0.79943828  -0.00350127  1
  Mo  Mo165  1  0.70482142  0.91053148  0.87226064  1
  Mo  Mo166  1  0.50271658  0.09903583  0.62326938  1
  Mo  Mo167  1  0.50002764  0.70431381  0.37660865  1
  Mo  Mo168  1  0.91411969  0.90451989  0.87513737  1
  Mo  Mo169  1  0.78717782  0.20835221  0.75699054  1
  Mo  Mo170  1  0.30034047  0.30882704  0.12415668  1
  Mo  Mo171  1  0.60476880  -0.00129613  0.49996239  1
  Mo  Mo172  1  0.71381441  0.30051548  0.13467214  1
  Mo  Mo173  1  0.39014932  0.80334520  0.24063393  1
  Mo  Mo174  1  0.79327221  -0.00656377  0.76904634  1
  Mo  Mo175  1  0.88940822  0.88712554  0.62797246  1
  Mo  Mo176  1  0.09745807  0.09118550  0.38315467  1
  Mo  Mo177  1  0.68904054  0.50088989  0.62229122  1
  Mo  Mo178  1  0.50951982  0.30503054  0.13308333  1
  Mo  Mo179  1  0.79187120  0.60111636  0.49338561  1
  Mo  Mo180  1  0.60172412  0.01245481  0.00244667  1
  Mo  Mo181  1  0.79447507  0.39296703  0.49283009  1
  Mo  Mo182  1  0.09801828  0.90454602  0.62186845  1
  Mo  Mo183  1  0.30421466  0.30713438  0.37667803  1
  Mo  Mo184  1  0.20502525  0.79257226  0.74056553  1
  Mo  Mo185  1  0.80107727  0.80651474  0.50730337  1
  Mo  Mo186  1  0.89792245  0.29398823  0.63143809  1
  Mo  Mo187  1  0.19039020  -0.01230784  -0.00393810  1
  Mo  Mo188  1  0.50297482  0.49761993  0.37256573  1
  Mo  Mo189  1  0.00127906  0.59478473  0.49815026  1
  Mo  Mo190  1  0.79919569  0.60974102  0.76213610  1
  Mo  Mo191  1  0.91328340  0.69353182  0.86316779  1
  Mo  Mo192  1  0.28974631  0.09129398  0.86841528  1
  Mo  Mo193  1  0.40336268  0.41213160  0.00338981  1
  Mo  Mo194  1  0.90310910  0.49967229  0.87253810  1
  Mo  Mo195  1  0.20219389  0.19294945  0.24756012  1
  Mo  Mo196  1  0.19210916  0.61302766  0.74439505  1
  Mo  Mo197  1  0.00608847  0.40204037  0.00026868  1
  Mo  Mo198  1  0.29400708  0.69771887  0.12701988  1
  Mo  Mo199  1  0.01235324  0.40543739  0.25750819  1
