# generated using pymatgen
data_HfZrTaTiMo
_symmetry_space_group_name_H-M   'P 1'
_cell_length_a   15.20533954
_cell_length_b   15.20452766
_cell_length_c   16.85303750
_cell_angle_alpha   89.93102624
_cell_angle_beta   89.99000640
_cell_angle_gamma   90.02693062
_symmetry_Int_Tables_number   1
_chemical_formula_structural   HfZrTaTiMo
_chemical_formula_sum   'Hf40 Zr40 Ta40 Ti40 Mo40'
_cell_volume   3896.25052234
_cell_formula_units_Z   40
loop_
 _symmetry_equiv_pos_site_id
 _symmetry_equiv_pos_as_xyz
  1  'x, y, z'
loop_
 _atom_site_type_symbol
 _atom_site_label
 _atom_site_symmetry_multiplicity
 _atom_site_fract_x
 _atom_site_fract_y
 _atom_site_fract_z
 _atom_site_occupancy
  Hf  Hf0  1  0.40390419  0.60839017  0.50969613  1
  Hf  Hf1  1  0.39260405  0.60294820  0.74508677  1
  Hf  Hf2  1  0.39292403  0.78885896  0.25658310  1
  Hf  Hf3  1  0.39661880  0.81397994  -0.00277358  1
  Hf  Hf4  1  -0.00582846  -0.00524138  0.49762800  1
  Hf  Hf5  1  0.39235392  0.39796833  -0.00429227  1
  Hf  Hf6  1  0.00349228  0.79399872  0.75740819  1
  Hf  Hf7  1  0.20013059  0.58933619  -0.00145648  1
  Hf  Hf8  1  0.09822882  0.68657610  0.36294150  1
  Hf  Hf9  1  0.69670566  0.28219774  0.63690196  1
  Hf  Hf10  1  0.80149830  0.60090130  0.75027023  1
  Hf  Hf11  1  0.09426093  0.11357248  0.87474565  1
  Hf  Hf12  1  0.20046445  -0.01911870  0.49051538  1
  Hf  Hf13  1  0.50037893  0.89763721  0.87103213  1
  Hf  Hf14  1  0.50706345  0.09285417  0.63176493  1
  Hf  Hf15  1  0.30700432  0.90741833  0.12469153  1
  Hf  Hf16  1  0.21486041  0.39815887  0.26365508  1
  Hf  Hf17  1  0.90901000  0.29098027  0.88827556  1
  Hf  Hf18  1  0.59978793  0.79776245  0.23600461  1
  Hf  Hf19  1  0.16616303  0.21309962  0.49085987  1
  Hf  Hf20  1  0.81577202  0.60346027  0.23882403  1
  Hf  Hf21  1  0.11055690  0.50377810  0.13751223  1
  Hf  Hf22  1  0.70478846  0.30111351  0.87090817  1
  Hf  Hf23  1  0.90020917  0.70011108  0.89159943  1
  Hf  Hf24  1  0.49471040  0.29544946  0.85826887  1
  Hf  Hf25  1  0.21594791  0.01429593  -0.00141504  1
  Hf  Hf26  1  0.39149093  0.81212375  0.49031021  1
  Hf  Hf27  1  0.37280580  0.19150295  0.75019430  1
  Hf  Hf28  1  0.90437399  0.70465615  0.37102064  1
  Hf  Hf29  1  0.31321117  0.90920369  0.62917228  1
  Hf  Hf30  1  0.90909616  0.49340589  0.62137374  1
  Hf  Hf31  1  0.79470867  0.19820875  0.00643011  1
  Hf  Hf32  1  0.79353846  0.40752880  0.24716165  1
  Hf  Hf33  1  0.59408789  0.19592425  -0.00279327  1
  Hf  Hf34  1  0.51255599  0.68762159  0.37749673  1
  Hf  Hf35  1  0.89904255  0.29986343  0.36738954  1
  Hf  Hf36  1  0.79796521  0.80101800  0.75219916  1
  Hf  Hf37  1  0.80836690  0.80980097  0.22601651  1
  Hf  Hf38  1  0.57842591  0.00132445  0.01459464  1
  Hf  Hf39  1  -0.00542118  -0.00907443  0.23357979  1
  Zr  Zr40  1  0.00391687  0.59436415  0.50220719  1
  Zr  Zr41  1  0.90285079  0.49464061  0.88887955  1
  Zr  Zr42  1  0.01146696  0.38901115  0.75683370  1
  Zr  Zr43  1  0.77358407  0.18722166  0.48610679  1
  Zr  Zr44  1  0.68518019  0.50234968  0.37726100  1
  Zr  Zr45  1  0.79449068  0.39363435  0.49401411  1
  Zr  Zr46  1  0.28018002  0.31660448  0.61123506  1
  Zr  Zr47  1  0.01792689  0.58968995  0.75503571  1
  Zr  Zr48  1  0.68683134  0.10244480  0.14567510  1
  Zr  Zr49  1  0.30528721  0.10987300  0.59951414  1
  Zr  Zr50  1  0.60936535  0.81032561  0.01264071  1
  Zr  Zr51  1  0.80243860  0.80090219  0.50119663  1
  Zr  Zr52  1  0.10483835  0.90002836  0.88369454  1
  Zr  Zr53  1  0.49970235  0.50397677  0.87127764  1
  Zr  Zr54  1  0.49441209  0.29954689  0.13459603  1
  Zr  Zr55  1  0.49721661  0.68197082  0.10910954  1
  Zr  Zr56  1  0.09355891  0.30279451  0.13694003  1
  Zr  Zr57  1  0.49949415  0.29837068  0.63720015  1
  Zr  Zr58  1  0.30757414  0.09379993  0.39184900  1
  Zr  Zr59  1  0.38630253  0.18221950  -0.00174553  1
  Zr  Zr60  1  0.20971503  0.58555477  0.49066417  1
  Zr  Zr61  1  0.41526221  0.57899518  0.24937932  1
  Zr  Zr62  1  0.60264415  0.40025485  -0.00243242  1
  Zr  Zr63  1  0.09839768  0.09586652  0.62972572  1
  Zr  Zr64  1  -0.00285506  -0.00287500  0.75609818  1
  Zr  Zr65  1  0.69874769  0.49191204  0.62688247  1
  Zr  Zr66  1  0.87364552  0.09624757  0.62845525  1
  Zr  Zr67  1  0.50756742  0.12048580  0.36745623  1
  Zr  Zr68  1  0.40629440  0.80131429  0.75195456  1
  Zr  Zr69  1  0.19867914  0.79877010  0.24584182  1
  Zr  Zr70  1  0.49040125  0.09001252  0.86075927  1
  Zr  Zr71  1  0.10939268  0.69167254  0.62932444  1
  Zr  Zr72  1  0.90220710  0.89634714  0.62750945  1
  Zr  Zr73  1  0.30454008  0.29695676  0.39486272  1
  Zr  Zr74  1  0.09265175  0.89075402  0.36456275  1
  Zr  Zr75  1  0.50065901  0.32538991  0.37000472  1
  Zr  Zr76  1  -0.02299763  0.19415171  0.49576787  1
  Zr  Zr77  1  0.60418706  0.80608179  0.50112618  1
  Zr  Zr78  1  0.78832107  -0.01041409  0.01438422  1
  Zr  Zr79  1  0.50126566  0.91334035  0.37170407  1
  Ta  Ta80  1  0.38729599  0.40374622  0.74635665  1
  Ta  Ta81  1  0.20728890  0.80015285  0.76189502  1
  Ta  Ta82  1  0.79783504  0.60305830  0.49973783  1
  Ta  Ta83  1  0.70959791  0.69606741  0.11008813  1
  Ta  Ta84  1  0.60736037  0.79925223  0.74813284  1
  Ta  Ta85  1  0.60507304  0.01764775  0.49843157  1
  Ta  Ta86  1  0.79022734  -0.00488983  0.48691404  1
  Ta  Ta87  1  0.10373056  0.90198239  0.11678801  1
  Ta  Ta88  1  0.69998624  0.50283141  0.11338761  1
  Ta  Ta89  1  0.20083761  0.41901663  0.75595695  1
  Ta  Ta90  1  0.69454060  0.91463991  0.62720785  1
  Ta  Ta91  1  0.91100978  0.50067910  0.11045011  1
  Ta  Ta92  1  -0.01298037  0.19962135  0.74869531  1
  Ta  Ta93  1  0.70314445  0.90995742  0.35523641  1
  Ta  Ta94  1  0.19001771  0.21294963  0.00387319  1
  Ta  Ta95  1  0.11394160  0.89025904  0.63012891  1
  Ta  Ta96  1  0.60160371  0.61227247  0.75032255  1
  Ta  Ta97  1  0.00008886  0.79821262  0.01164244  1
  Ta  Ta98  1  0.19532467  0.19489929  0.25844597  1
  Ta  Ta99  1  0.70431963  0.50764567  0.87883571  1
  Ta  Ta100  1  0.01830069  0.38956149  0.49374356  1
  Ta  Ta101  1  0.29308754  0.29928370  0.12811981  1
  Ta  Ta102  1  0.19882636  0.00802121  0.24685542  1
  Ta  Ta103  1  0.78836989  0.00100830  0.76578534  1
  Ta  Ta104  1  0.00055977  0.00571057  0.01153181  1
  Ta  Ta105  1  0.50554696  0.69526157  0.88676589  1
  Ta  Ta106  1  0.89652692  0.89956132  0.89103783  1
  Ta  Ta107  1  0.29547387  0.69213888  0.11496443  1
  Ta  Ta108  1  0.90575863  0.50518628  0.37601332  1
  Ta  Ta109  1  0.89531179  0.89880019  0.36806243  1
  Ta  Ta110  1  0.40776951  0.41606999  0.51314349  1
  Ta  Ta111  1  0.69811458  0.70087976  0.88684727  1
  Ta  Ta112  1  0.89857134  0.29820763  0.62589619  1
  Ta  Ta113  1  0.08737634  0.09906751  0.36696856  1
  Ta  Ta114  1  0.39080010  0.00044355  0.25284444  1
  Ta  Ta115  1  -0.00379817  0.19549362  0.24520736  1
  Ta  Ta116  1  0.17875800  0.22094476  0.74679149  1
  Ta  Ta117  1  0.69916632  0.30633102  0.13054314  1
  Ta  Ta118  1  0.01141257  0.79975577  0.50280784  1
  Ta  Ta119  1  0.02485024  0.40126760  -0.00222771  1
  Ti  Ti120  1  0.28138159  0.30227667  0.87441988  1
  Ti  Ti121  1  0.31616034  0.49786927  0.12185149  1
  Ti  Ti122  1  0.90300719  0.69674283  0.62191738  1
  Ti  Ti123  1  0.60341808  -0.00317661  0.74969737  1
  Ti  Ti124  1  0.20010410  0.79964521  -0.00072424  1
  Ti  Ti125  1  -0.00437044  0.78596227  0.22543496  1
  Ti  Ti126  1  0.69971938  0.90060647  0.87842269  1
  Ti  Ti127  1  0.09884315  0.69193269  0.12269459  1
  Ti  Ti128  1  0.21846160  0.60193653  0.25439398  1
  Ti  Ti129  1  -0.00854558  0.40688464  0.25051069  1
  Ti  Ti130  1  0.80262531  0.59666631  0.00401865  1
  Ti  Ti131  1  0.20363198  0.78772917  0.48875833  1
  Ti  Ti132  1  0.09768069  0.49036161  0.36470032  1
  Ti  Ti133  1  0.70870151  0.70610761  0.37041617  1
  Ti  Ti134  1  0.30379659  0.70274576  0.88252254  1
  Ti  Ti135  1  0.88728710  0.08901326  0.35884256  1
  Ti  Ti136  1  0.80054027  0.20453126  0.24531008  1
  Ti  Ti137  1  0.60589105  0.40670194  0.75612769  1
  Ti  Ti138  1  0.32223012  0.49793151  0.37625143  1
  Ti  Ti139  1  0.50544424  0.71274354  0.62325570  1
  Ti  Ti140  1  0.29353205  0.70353660  0.62867135  1
  Ti  Ti141  1  0.79489335  0.19063268  0.76138518  1
  Ti  Ti142  1  0.21728059  0.01011801  0.75822402  1
  Ti  Ti143  1  0.00159837  0.19589461  0.01433058  1
  Ti  Ti144  1  0.68594736  0.29282538  0.36074066  1
  Ti  Ti145  1  0.60081799  0.58948799  0.51009816  1
  Ti  Ti146  1  0.89522508  0.30890212  0.12010723  1
  Ti  Ti147  1  0.89840383  0.10301323  0.12934896  1
  Ti  Ti148  1  0.12164766  0.48355033  0.61931675  1
  Ti  Ti149  1  0.10583833  0.69068805  0.88199551  1
  Ti  Ti150  1  0.58537153  0.41804911  0.23779163  1
  Ti  Ti151  1  0.50180694  0.50223458  0.63567140  1
  Ti  Ti152  1  0.89025709  0.09364597  0.88428962  1
  Ti  Ti153  1  0.38630975  0.20676317  0.24987171  1
  Ti  Ti154  1  0.80801293  0.39619083  0.75172065  1
  Ti  Ti155  1  0.69320559  0.09613391  0.34878518  1
  Ti  Ti156  1  0.47947594  0.09555787  0.13987841  1
  Ti  Ti157  1  0.70133619  0.70084411  0.62371294  1
  Ti  Ti158  1  0.61400385  0.59998919  0.24191176  1
  Ti  Ti159  1  0.29730687  0.50525066  0.87764570  1
  Mo  Mo160  1  0.50594407  0.50310131  0.38495927  1
  Mo  Mo161  1  0.61213342  0.18731888  0.76353303  1
  Mo  Mo162  1  0.51092939  0.90010938  0.62490048  1
  Mo  Mo163  1  0.80386873  0.00383632  0.24649088  1
  Mo  Mo164  1  0.08634726  0.30597678  0.62507458  1
  Mo  Mo165  1  0.00630553  0.59383372  0.24776800  1
  Mo  Mo166  1  0.90442298  0.90047532  0.11125130  1
  Mo  Mo167  1  0.69669749  0.09307496  0.62942015  1
  Mo  Mo168  1  0.19893760  0.40718600  0.48298372  1
  Mo  Mo169  1  0.60660243  0.59897683  -0.00657449  1
  Mo  Mo170  1  0.80257610  0.79974062  0.00904818  1
  Mo  Mo171  1  0.58950759  0.39661763  0.51104574  1
  Mo  Mo172  1  0.43093501  0.21041713  0.50748548  1
  Mo  Mo173  1  0.40035221  0.00508156  0.00409780  1
  Mo  Mo174  1  0.00777783  0.60002349  0.00072987  1
  Mo  Mo175  1  0.10197175  0.29961404  0.88186472  1
  Mo  Mo176  1  0.20995960  0.60878440  0.76286706  1
  Mo  Mo177  1  0.69722126  0.09280152  0.87835024  1
  Mo  Mo178  1  0.11243808  0.49714587  0.88050695  1
  Mo  Mo179  1  0.80696712  0.39865676  0.01165155  1
  Mo  Mo180  1  0.20926416  0.39562981  0.00358997  1
  Mo  Mo181  1  0.39447440  0.40011342  0.24538333  1
  Mo  Mo182  1  0.30312407  0.69333787  0.37350616  1
  Mo  Mo183  1  0.29331180  0.11033699  0.13683406  1
  Mo  Mo184  1  0.29708276  0.89864085  0.36769072  1
  Mo  Mo185  1  0.10079336  0.10253768  0.12670384  1
  Mo  Mo186  1  0.39552441  -0.00334350  0.74750013  1
  Mo  Mo187  1  0.59923715  0.21439953  0.24547232  1
  Mo  Mo188  1  0.59897333  0.20915735  0.49878321  1
  Mo  Mo189  1  0.69570655  0.90295491  0.13944716  1
  Mo  Mo190  1  0.30201847  0.90734639  0.87086455  1
  Mo  Mo191  1  0.08905444  0.30054950  0.35709402  1
  Mo  Mo192  1  0.50566400  0.49532953  0.11451102  1
  Mo  Mo193  1  0.30165772  0.50675537  0.62916194  1
  Mo  Mo194  1  0.28631571  0.10748042  0.86908513  1
  Mo  Mo195  1  0.41375709  0.00046173  0.49807360  1
  Mo  Mo196  1  0.39653624  0.60112802  -0.00482709  1
  Mo  Mo197  1  0.58984322  -0.00125320  0.24099575  1
  Mo  Mo198  1  0.90875462  0.69085141  0.10843172  1
  Mo  Mo199  1  0.49450138  0.90511305  0.13876116  1
