# generated using pymatgen
data_HfZrTaTiMo
_symmetry_space_group_name_H-M   'P 1'
_cell_length_a   15.17208191
_cell_length_b   15.17429195
_cell_length_c   16.81268284
_cell_angle_alpha   89.96776518
_cell_angle_beta   89.98349299
_cell_angle_gamma   90.04189398
_symmetry_Int_Tables_number   1
_chemical_formula_structural   HfZrTaTiMo
_chemical_formula_sum   'Hf40 Zr40 Ta40 Ti40 Mo40'
_cell_volume   3870.70819529
_cell_formula_units_Z   40
loop_
 _symmetry_equiv_pos_site_id
 _symmetry_equiv_pos_as_xyz
  1  'x, y, z'
loop_
 _atom_site_type_symbol
 _atom_site_label
 _atom_site_symmetry_multiplicity
 _atom_site_fract_x
 _atom_site_fract_y
 _atom_site_fract_z
 _atom_site_occupancy
  Hf  Hf0  1  0.58543354  0.40327545  0.50607423  1
  Hf  Hf1  1  0.00291116  0.80104430  0.01098543  1
  Hf  Hf2  1  0.69934345  0.51183847  0.38598155  1
  Hf  Hf3  1  0.40645036  0.58448527  0.74554430  1
  Hf  Hf4  1  0.09030808  0.29802391  0.38601234  1
  Hf  Hf5  1  0.80440011  0.38592153  0.00263281  1
  Hf  Hf6  1  0.81732638  0.60668281  0.51688677  1
  Hf  Hf7  1  0.80437732  0.19802007  0.51313915  1
  Hf  Hf8  1  0.80740842  0.19248281  0.72911033  1
  Hf  Hf9  1  0.09811011  0.70225191  0.36957521  1
  Hf  Hf10  1  0.89095450  0.69116401  0.12199218  1
  Hf  Hf11  1  0.71495763  0.71722866  0.38899422  1
  Hf  Hf12  1  0.30456371  0.68819312  0.87763325  1
  Hf  Hf13  1  0.09371563  0.10933740  0.13942471  1
  Hf  Hf14  1  0.90317753  0.90581565  0.87178862  1
  Hf  Hf15  1  0.10218352  0.91369165  0.13542940  1
  Hf  Hf16  1  0.40128312  0.78187402  0.24410056  1
  Hf  Hf17  1  0.50283861  0.71355858  0.87878908  1
  Hf  Hf18  1  0.70210042  0.90203270  0.86811408  1
  Hf  Hf19  1  0.21051058  0.38921508  0.75385047  1
  Hf  Hf20  1  0.68561374  0.51157768  0.62131493  1
  Hf  Hf21  1  0.51310908  0.68747989  0.61705919  1
  Hf  Hf22  1  0.39371831  0.40183890  0.01527677  1
  Hf  Hf23  1  0.40650721  0.58171924  0.50392588  1
  Hf  Hf24  1  0.29781016  0.90225480  0.37235924  1
  Hf  Hf25  1  0.60581209  0.20389456  -0.00231474  1
  Hf  Hf26  1  0.69946541  0.31352037  0.85703032  1
  Hf  Hf27  1  -0.00601050  0.20202355  0.26374331  1
  Hf  Hf28  1  0.38028733  0.00233721  0.75424495  1
  Hf  Hf29  1  0.80507112  0.39800744  0.52009948  1
  Hf  Hf30  1  0.22148740  0.59295294  0.24996283  1
  Hf  Hf31  1  0.09208803  0.50349334  0.37761459  1
  Hf  Hf32  1  -0.01221763  0.80258817  0.24220370  1
  Hf  Hf33  1  0.68203591  0.70231188  0.10357231  1
  Hf  Hf34  1  0.68851980  0.09134194  0.62592935  1
  Hf  Hf35  1  0.90972460  0.70360442  0.87405922  1
  Hf  Hf36  1  0.18330361  0.19033735  -0.00208183  1
  Hf  Hf37  1  0.60558176  0.59874616  0.76057783  1
  Hf  Hf38  1  0.10974045  0.71090957  0.87245982  1
  Hf  Hf39  1  0.01396287  0.81635681  0.74478752  1
  Zr  Zr40  1  0.69900111  0.91175968  0.11730370  1
  Zr  Zr41  1  0.39003906  0.00457002  -0.00343266  1
  Zr  Zr42  1  0.01061897  0.01736779  0.00187871  1
  Zr  Zr43  1  0.90470197  0.68396647  0.36795221  1
  Zr  Zr44  1  0.20510134  0.39959530  0.50202620  1
  Zr  Zr45  1  0.29075069  0.88941656  0.87286440  1
  Zr  Zr46  1  0.11393588  0.71336847  0.62658387  1
  Zr  Zr47  1  0.38500676  0.79898109  0.50969180  1
  Zr  Zr48  1  0.79998068  0.19611945  0.25351462  1
  Zr  Zr49  1  0.20957725  0.60453677  0.74790912  1
  Zr  Zr50  1  0.50915446  0.29421153  0.36226634  1
  Zr  Zr51  1  0.50027183  0.70284617  0.38862051  1
  Zr  Zr52  1  0.30166708  0.29379741  0.88293751  1
  Zr  Zr53  1  0.10034055  0.09080684  0.60620549  1
  Zr  Zr54  1  0.60250135  0.61509750  0.25398606  1
  Zr  Zr55  1  0.59076327  -0.00170489  -0.01756803  1
  Zr  Zr56  1  0.20418721  0.79430303  0.02047153  1
  Zr  Zr57  1  0.60329495  0.41394423  0.00589188  1
  Zr  Zr58  1  0.19095352  0.39564316  0.24569875  1
  Zr  Zr59  1  0.81152712  0.40054114  0.24622724  1
  Zr  Zr60  1  0.60386274  0.40099874  0.23834580  1
  Zr  Zr61  1  0.90085986  0.29232623  0.86378303  1
  Zr  Zr62  1  0.20241638  0.79880433  0.24762765  1
  Zr  Zr63  1  0.21373281  0.60728051  0.49626778  1
  Zr  Zr64  1  0.70426535  0.70305313  0.88503525  1
  Zr  Zr65  1  0.90808152  0.48317891  0.85353230  1
  Zr  Zr66  1  0.01116142  0.58524382  -0.00589696  1
  Zr  Zr67  1  0.80688043  0.60158234  0.74406938  1
  Zr  Zr68  1  0.79789373  0.58068235  -0.01333161  1
  Zr  Zr69  1  0.49554016  0.91879660  0.62183957  1
  Zr  Zr70  1  0.70908204  0.30399500  0.37933017  1
  Zr  Zr71  1  0.60079383  0.81868597  0.25439938  1
  Zr  Zr72  1  0.41076924  0.80243597  0.01324163  1
  Zr  Zr73  1  0.68931305  0.09807919  0.37868071  1
  Zr  Zr74  1  0.61102725  0.82140094  0.50512149  1
  Zr  Zr75  1  0.58753713  0.00852646  0.76276915  1
  Zr  Zr76  1  0.10267839  0.49286442  0.63355931  1
  Zr  Zr77  1  0.22046962  0.18778846  0.48646277  1
  Zr  Zr78  1  0.40128890  0.19826588  0.24323124  1
  Zr  Zr79  1  0.90976553  0.10220609  0.87249877  1
  Ta  Ta80  1  0.70771978  0.50751610  0.12528887  1
  Ta  Ta81  1  0.19094362  0.80789548  0.48959934  1
  Ta  Ta82  1  0.38795391  0.01592839  0.49730845  1
  Ta  Ta83  1  0.29276790  0.09387005  0.12791797  1
  Ta  Ta84  1  0.08113506  0.90849664  0.37575957  1
  Ta  Ta85  1  0.90559237  0.08617822  0.38550108  1
  Ta  Ta86  1  0.20182225  0.19692166  0.26293707  1
  Ta  Ta87  1  -0.01441259  0.79583002  0.50471171  1
  Ta  Ta88  1  0.20260018  0.18744805  0.74956782  1
  Ta  Ta89  1  0.49336974  0.49874382  0.88060076  1
  Ta  Ta90  1  0.09661619  0.67745324  0.13642167  1
  Ta  Ta91  1  0.48870792  0.49478788  0.36498763  1
  Ta  Ta92  1  0.59794968  0.80187765  0.74372460  1
  Ta  Ta93  1  0.39049263  0.41186996  0.23321976  1
  Ta  Ta94  1  0.70666964  0.90529879  0.63929621  1
  Ta  Ta95  1  0.88705316  0.89020864  0.37663467  1
  Ta  Ta96  1  0.71070232  0.71413029  0.62171903  1
  Ta  Ta97  1  0.80630433  -0.00561335  0.25214917  1
  Ta  Ta98  1  0.40094541  0.59799096  0.00418835  1
  Ta  Ta99  1  0.28768180  0.29034060  0.12284433  1
  Ta  Ta100  1  0.48577284  0.11584630  0.87358500  1
  Ta  Ta101  1  0.20704414  0.58658397  0.00896111  1
  Ta  Ta102  1  0.50133638  0.91836659  0.38274252  1
  Ta  Ta103  1  0.70869045  0.11121039  0.86813226  1
  Ta  Ta104  1  0.50619402  0.09561474  0.12748138  1
  Ta  Ta105  1  0.31157211  0.28847595  0.62847080  1
  Ta  Ta106  1  0.79589275  -0.01117191  0.50358563  1
  Ta  Ta107  1  0.68883202  0.30310801  0.63594643  1
  Ta  Ta108  1  0.00234138  0.59562690  0.51639542  1
  Ta  Ta109  1  0.01215509  0.19230217  0.73351958  1
  Ta  Ta110  1  -0.00861157  0.39685925  0.51479580  1
  Ta  Ta111  1  0.59252919  0.20173947  0.51037176  1
  Ta  Ta112  1  0.89706577  0.91229437  0.12455462  1
  Ta  Ta113  1  0.49885537  0.52405362  0.12977170  1
  Ta  Ta114  1  0.40654438  -0.00604510  0.24785078  1
  Ta  Ta115  1  0.30865787  0.30903288  0.36688887  1
  Ta  Ta116  1  0.39579658  0.79348734  0.73670968  1
  Ta  Ta117  1  0.18931673  0.40069023  0.00072897  1
  Ta  Ta118  1  0.49693072  0.30564647  0.87669433  1
  Ta  Ta119  1  0.39800881  0.38766579  0.49976068  1
  Ti  Ti120  1  0.40009884  0.19770397  0.00931763  1
  Ti  Ti121  1  0.90058906  0.91082035  0.62884693  1
  Ti  Ti122  1  0.50313829  0.29690891  0.12792680  1
  Ti  Ti123  1  0.79223136  0.79771252  0.24128651  1
  Ti  Ti124  1  0.80653486  0.80217796  0.74527776  1
  Ti  Ti125  1  0.58901855  0.20617371  0.75005751  1
  Ti  Ti126  1  0.29589967  0.09291217  0.62486236  1
  Ti  Ti127  1  0.30295924  0.90646425  0.13296288  1
  Ti  Ti128  1  0.17408147  -0.00393075  0.74815881  1
  Ti  Ti129  1  0.10298105  0.91855121  0.88238123  1
  Ti  Ti130  1  0.48565810  0.11605946  0.62611184  1
  Ti  Ti131  1  0.20166162  0.00944287  0.26135776  1
  Ti  Ti132  1  0.91381251  0.49545654  0.12543165  1
  Ti  Ti133  1  0.57808707  0.40527369  0.74395512  1
  Ti  Ti134  1  0.90360292  0.28847155  0.11779916  1
  Ti  Ti135  1  0.90166184  0.48681242  0.37949437  1
  Ti  Ti136  1  0.69752249  0.91378517  0.37447270  1
  Ti  Ti137  1  0.80196063  0.81083981  0.00091300  1
  Ti  Ti138  1  0.00548548  0.39243142  -0.00033537  1
  Ti  Ti139  1  0.09102438  0.29287388  0.86913369  1
  Ti  Ti140  1  0.31066314  0.48796620  0.62848052  1
  Ti  Ti141  1  0.28140153  0.09364758  0.87856821  1
  Ti  Ti142  1  -0.00784874  0.19858865  0.50607796  1
  Ti  Ti143  1  -0.00360185  0.40107923  0.24979102  1
  Ti  Ti144  1  0.79825295  0.01531253  -0.00170042  1
  Ti  Ti145  1  0.39704864  0.20691286  0.75289888  1
  Ti  Ti146  1  0.00432659  0.60225443  0.74064485  1
  Ti  Ti147  1  0.40770978  0.20323372  0.49369463  1
  Ti  Ti148  1  0.10874166  0.29182516  0.62101277  1
  Ti  Ti149  1  0.10697971  0.49296529  0.86392833  1
  Ti  Ti150  1  0.89548482  0.10303702  0.12168571  1
  Ti  Ti151  1  0.50752300  0.90155686  0.12585104  1
  Ti  Ti152  1  0.80515292  0.59570044  0.24792121  1
  Ti  Ti153  1  0.10169038  0.08948316  0.38391869  1
  Ti  Ti154  1  0.50009764  0.09899253  0.37175031  1
  Ti  Ti155  1  0.27930754  0.89818532  0.62531602  1
  Ti  Ti156  1  0.09364934  0.90846203  0.60886336  1
  Ti  Ti157  1  0.70435434  0.29202556  0.12596801  1
  Ti  Ti158  1  0.70063201  0.10187437  0.12688841  1
  Ti  Ti159  1  0.09075004  0.30136607  0.12530247  1
  Mo  Mo160  1  0.20198588  -0.00015014  0.00743855  1
  Mo  Mo161  1  -0.00130656  0.00680264  0.74487450  1
  Mo  Mo162  1  0.60552092  0.60188895  0.49297104  1
  Mo  Mo163  1  0.60094919  0.80881135  -0.00462519  1
  Mo  Mo164  1  0.40077120  0.39372704  0.75527153  1
  Mo  Mo165  1  0.80909867  0.80957340  0.51169855  1
  Mo  Mo166  1  0.00746303  0.38690548  0.73745877  1
  Mo  Mo167  1  0.31218613  0.09746978  0.36598758  1
  Mo  Mo168  1  0.50183332  0.70485462  0.11914336  1
  Mo  Mo169  1  0.29873830  0.69718870  0.37898245  1
  Mo  Mo170  1  0.10263332  0.10674507  0.86636320  1
  Mo  Mo171  1  0.09510923  0.49021879  0.12506607  1
  Mo  Mo172  1  0.79594278  0.19446350  0.00263895  1
  Mo  Mo173  1  0.30882871  0.68612882  0.12105947  1
  Mo  Mo174  1  0.20325689  -0.01043579  0.49183377  1
  Mo  Mo175  1  0.69337549  0.48986385  0.86225425  1
  Mo  Mo176  1  0.90396535  0.49674920  0.64049261  1
  Mo  Mo177  1  -0.00601028  0.21541128  0.00417942  1
  Mo  Mo178  1  0.60227232  0.19367962  0.23552982  1
  Mo  Mo179  1  0.91126140  0.29684251  0.63319899  1
  Mo  Mo180  1  0.20870866  0.81525707  0.74778925  1
  Mo  Mo181  1  0.59211176  0.59561361  -0.00806585  1
  Mo  Mo182  1  0.49299876  0.90021030  0.85745950  1
  Mo  Mo183  1  0.49477925  0.29414512  0.62913256  1
  Mo  Mo184  1  0.80372649  -0.00309974  0.74742184  1
  Mo  Mo185  1  0.30630078  0.70469202  0.62657468  1
  Mo  Mo186  1  0.49663681  0.48747813  0.62672440  1
  Mo  Mo187  1  0.59712819  0.01091885  0.24736112  1
  Mo  Mo188  1  0.90618809  0.30030447  0.38729579  1
  Mo  Mo189  1  -0.00972130  0.00401656  0.25637352  1
  Mo  Mo190  1  -0.00268648  0.58402201  0.24432735  1
  Mo  Mo191  1  0.30766116  0.49249196  0.37448600  1
  Mo  Mo192  1  0.40373694  0.59757745  0.25314730  1
  Mo  Mo193  1  0.90152578  0.08711250  0.61606649  1
  Mo  Mo194  1  0.79200103  0.40137600  0.72860861  1
  Mo  Mo195  1  0.29728847  0.49457918  0.12005929  1
  Mo  Mo196  1  0.58852840  0.01385427  0.50443382  1
  Mo  Mo197  1  0.91013063  0.70897790  0.63339002  1
  Mo  Mo198  1  0.29752945  0.49391867  0.88497570  1
  Mo  Mo199  1  -0.00907263  -0.00895231  0.49354176  1
