# generated using pymatgen
data_HfZrTaTiMo
_symmetry_space_group_name_H-M   'P 1'
_cell_length_a   15.20853182
_cell_length_b   15.20943741
_cell_length_c   16.84416719
_cell_angle_alpha   89.97311151
_cell_angle_beta   90.03756043
_cell_angle_gamma   89.91333980
_symmetry_Int_Tables_number   1
_chemical_formula_structural   HfZrTaTiMo
_chemical_formula_sum   'Hf40 Zr40 Ta40 Ti40 Mo40'
_cell_volume   3896.27270412
_cell_formula_units_Z   40
loop_
 _symmetry_equiv_pos_site_id
 _symmetry_equiv_pos_as_xyz
  1  'x, y, z'
loop_
 _atom_site_type_symbol
 _atom_site_label
 _atom_site_symmetry_multiplicity
 _atom_site_fract_x
 _atom_site_fract_y
 _atom_site_fract_z
 _atom_site_occupancy
  Hf  Hf0  1  0.39517680  0.39928838  0.73349574  1
  Hf  Hf1  1  0.40625809  0.80436361  0.48931290  1
  Hf  Hf2  1  0.11092159  0.69130285  0.60864483  1
  Hf  Hf3  1  0.28757254  0.49707158  0.86585797  1
  Hf  Hf4  1  0.08096483  0.91233592  0.37101065  1
  Hf  Hf5  1  0.70589239  0.89618666  0.88052499  1
  Hf  Hf6  1  0.59440442  0.19487741  0.49994543  1
  Hf  Hf7  1  0.39863813  0.60286366  0.49157798  1
  Hf  Hf8  1  0.39796060  0.79974581  0.26202336  1
  Hf  Hf9  1  0.78046181  0.59851393  0.25786575  1
  Hf  Hf10  1  0.10903368  0.10492595  0.63614031  1
  Hf  Hf11  1  0.01023271  0.18261762  0.50461158  1
  Hf  Hf12  1  0.90231619  0.31417053  0.87923494  1
  Hf  Hf13  1  0.11397275  0.69658280  0.86972141  1
  Hf  Hf14  1  0.30277403  0.89947346  0.12619026  1
  Hf  Hf15  1  0.60333537  0.79451014  0.24071080  1
  Hf  Hf16  1  0.70374917  0.90923430  0.39044114  1
  Hf  Hf17  1  0.89844640  0.29324155  0.37305656  1
  Hf  Hf18  1  0.19822556  0.01148545  0.25552712  1
  Hf  Hf19  1  0.32461519  0.70087913  0.87202038  1
  Hf  Hf20  1  0.08979134  0.89824127  0.13436181  1
  Hf  Hf21  1  0.22607830  0.79872862  0.73855415  1
  Hf  Hf22  1  0.88900701  0.70577970  0.12918170  1
  Hf  Hf23  1  0.79466181  0.60062818  0.48873256  1
  Hf  Hf24  1  0.59890413  0.60314653  0.75506046  1
  Hf  Hf25  1  0.00786396  0.78333042  0.74739602  1
  Hf  Hf26  1  0.20719589  0.79443068  0.00825881  1
  Hf  Hf27  1  0.00735657  0.21320870  0.75191767  1
  Hf  Hf28  1  0.90471961  0.90373375  0.64013385  1
  Hf  Hf29  1  0.69093938  0.89905693  0.61546324  1
  Hf  Hf30  1  0.88454154  0.48211791  0.14186856  1
  Hf  Hf31  1  0.30214738  0.90254359  0.88376969  1
  Hf  Hf32  1  0.80180351  0.00811684  0.75433640  1
  Hf  Hf33  1  0.00795358  -0.00320804  -0.01436916  1
  Hf  Hf34  1  0.49423267  0.91142462  0.11610456  1
  Hf  Hf35  1  0.79427133  0.81272427  0.24783271  1
  Hf  Hf36  1  0.70178083  0.10023753  0.11840253  1
  Hf  Hf37  1  0.49214578  0.09584411  0.36334732  1
  Hf  Hf38  1  -0.00150123  0.79729840  -0.00690290  1
  Hf  Hf39  1  0.69114051  0.30945267  0.62130892  1
  Zr  Zr40  1  0.00837003  0.20283105  0.00233304  1
  Zr  Zr41  1  0.19885772  0.59301882  0.24956178  1
  Zr  Zr42  1  0.38443655  0.58830824  0.00579157  1
  Zr  Zr43  1  -0.00258385  0.59968452  0.25484802  1
  Zr  Zr44  1  0.21240564  0.40154831  0.01179574  1
  Zr  Zr45  1  0.89530561  0.71413441  0.37199404  1
  Zr  Zr46  1  0.59483866  0.00352688  0.76288825  1
  Zr  Zr47  1  0.09717686  0.70216684  0.38266086  1
  Zr  Zr48  1  0.31856264  0.10440326  0.12529856  1
  Zr  Zr49  1  0.58945068  0.59308870  -0.00599128  1
  Zr  Zr50  1  0.10812603  0.09769915  0.12138577  1
  Zr  Zr51  1  0.79540954  0.40623218  0.74844485  1
  Zr  Zr52  1  0.80067518  0.20283665  0.74374109  1
  Zr  Zr53  1  0.48258954  0.69374927  0.12681547  1
  Zr  Zr54  1  0.11665490  0.29026430  0.38063708  1
  Zr  Zr55  1  0.69115681  0.09211905  0.61846754  1
  Zr  Zr56  1  0.39422358  0.58034570  0.26957728  1
  Zr  Zr57  1  0.38941984  0.19581902  0.50582289  1
  Zr  Zr58  1  0.59689618  0.00643678  -0.00724176  1
  Zr  Zr59  1  0.19053373  0.39272791  0.73836933  1
  Zr  Zr60  1  0.91581672  0.08578899  0.36447844  1
  Zr  Zr61  1  0.50563901  0.30900670  0.38031429  1
  Zr  Zr62  1  0.60415229  -0.00270553  0.24276673  1
  Zr  Zr63  1  -0.00951095  0.81202854  0.50645283  1
  Zr  Zr64  1  0.07708027  0.49826988  0.87642928  1
  Zr  Zr65  1  0.39390832  -0.00502543  0.75081588  1
  Zr  Zr66  1  0.80744637  0.19967460  0.50953609  1
  Zr  Zr67  1  -0.01027185  0.59016200  0.01673479  1
  Zr  Zr68  1  0.01215125  0.38849886  0.24902154  1
  Zr  Zr69  1  0.68454520  0.49648957  0.12486780  1
  Zr  Zr70  1  0.70534604  0.10714369  0.37472545  1
  Zr  Zr71  1  0.90023699  0.68333512  0.87549259  1
  Zr  Zr72  1  0.69533013  0.70194894  0.87617095  1
  Zr  Zr73  1  0.21487999  0.20763223  0.00122182  1
  Zr  Zr74  1  0.11025739  0.91011743  0.63045996  1
  Zr  Zr75  1  0.49751403  0.87004284  0.88445124  1
  Zr  Zr76  1  0.79076584  0.78894124  0.74121509  1
  Zr  Zr77  1  0.70156044  0.51114040  0.61792392  1
  Zr  Zr78  1  0.59457608  0.21463127  0.00071025  1
  Zr  Zr79  1  0.19058084  0.60147173  0.01781910  1
  Ta  Ta80  1  -0.00941189  0.41712250  0.74167460  1
  Ta  Ta81  1  0.80426097  0.20952860  0.00910852  1
  Ta  Ta82  1  0.00888955  0.19150773  0.24021701  1
  Ta  Ta83  1  0.59477839  0.40196146  0.25039504  1
  Ta  Ta84  1  0.47917755  0.47839290  0.12831685  1
  Ta  Ta85  1  0.80483043  0.21114682  0.23294664  1
  Ta  Ta86  1  0.20923856  0.81039815  0.49712057  1
  Ta  Ta87  1  0.30816120  0.10407199  0.87949006  1
  Ta  Ta88  1  0.19766751  0.79928321  0.25527297  1
  Ta  Ta89  1  0.40096037  0.40394525  0.51134185  1
  Ta  Ta90  1  0.58621505  0.59576736  0.26251172  1
  Ta  Ta91  1  0.80482562  0.00235884  0.24155274  1
  Ta  Ta92  1  0.90323785  0.89550261  0.86802457  1
  Ta  Ta93  1  0.82915888  -0.00182869  0.50775064  1
  Ta  Ta94  1  0.21389835  0.19793261  0.75705802  1
  Ta  Ta95  1  0.68668572  0.48709763  0.38064925  1
  Ta  Ta96  1  0.09100125  0.49224136  0.60975102  1
  Ta  Ta97  1  0.90053460  0.10426640  0.87958041  1
  Ta  Ta98  1  0.90413378  0.09520316  0.12306370  1
  Ta  Ta99  1  0.90080141  0.68070545  0.62129944  1
  Ta  Ta100  1  0.19409158  0.59743425  0.73775696  1
  Ta  Ta101  1  0.89435832  0.48804705  0.37005380  1
  Ta  Ta102  1  0.91301078  0.30964436  0.62059775  1
  Ta  Ta103  1  0.11007490  0.30533171  0.87524534  1
  Ta  Ta104  1  0.50003413  0.70141475  0.62420082  1
  Ta  Ta105  1  0.68581374  0.70363512  0.37967799  1
  Ta  Ta106  1  0.80853938  -0.00057093  -0.00488367  1
  Ta  Ta107  1  0.29793826  0.91301387  0.37352844  1
  Ta  Ta108  1  0.29102036  0.70044493  0.38056068  1
  Ta  Ta109  1  0.50339142  0.50020941  0.62224493  1
  Ta  Ta110  1  0.48522558  0.49633564  0.86687847  1
  Ta  Ta111  1  0.60752867  0.21352299  0.24130576  1
  Ta  Ta112  1  -0.00705719  0.58717224  0.49052453  1
  Ta  Ta113  1  0.30753115  0.90378043  0.61566164  1
  Ta  Ta114  1  0.50115169  0.89825778  0.62296846  1
  Ta  Ta115  1  0.69608014  0.30311724  0.87580110  1
  Ta  Ta116  1  0.40435182  0.20080394  0.74231870  1
  Ta  Ta117  1  -0.00148328  0.39040378  0.01765674  1
  Ta  Ta118  1  0.61177552  0.79156917  0.01907198  1
  Ta  Ta119  1  0.29042387  0.51139885  0.61260944  1
  Ti  Ti120  1  0.58917180  0.59801264  0.48835292  1
  Ti  Ti121  1  0.89660724  0.90261356  0.11895840  1
  Ti  Ti122  1  0.29069347  0.11396444  0.37126967  1
  Ti  Ti123  1  0.28444793  0.29313005  0.61679686  1
  Ti  Ti124  1  0.09476729  0.70603079  0.13753684  1
  Ti  Ti125  1  0.70397002  0.30395985  0.37601723  1
  Ti  Ti126  1  0.10897265  0.90136465  0.86191374  1
  Ti  Ti127  1  0.39828738  0.00139533  0.49753343  1
  Ti  Ti128  1  0.81897707  0.58910342  0.74810416  1
  Ti  Ti129  1  0.59444700  0.79573615  0.49479561  1
  Ti  Ti130  1  0.79845554  0.79848330  0.50539335  1
  Ti  Ti131  1  0.00377742  0.00822927  0.76222006  1
  Ti  Ti132  1  0.39739489  0.21391620  0.25306972  1
  Ti  Ti133  1  0.58778604  0.40060767  -0.00998367  1
  Ti  Ti134  1  0.19484741  0.01584209  0.49012690  1
  Ti  Ti135  1  0.20496381  0.00122780  -0.00165665  1
  Ti  Ti136  1  0.69163122  0.70185114  0.61963551  1
  Ti  Ti137  1  0.29744963  0.09344373  0.62725523  1
  Ti  Ti138  1  0.22571767  0.40067020  0.24415537  1
  Ti  Ti139  1  0.00090853  0.39355355  0.49636753  1
  Ti  Ti140  1  0.10228120  0.48892465  0.13219989  1
  Ti  Ti141  1  0.32063565  0.29988979  0.87362241  1
  Ti  Ti142  1  0.49532610  0.29801213  0.12641391  1
  Ti  Ti143  1  0.59234069  0.39860715  0.75691972  1
  Ti  Ti144  1  0.50049112  0.29901201  0.62259739  1
  Ti  Ti145  1  0.78934640  0.60396364  0.00788564  1
  Ti  Ti146  1  0.49210563  0.11426921  0.87838109  1
  Ti  Ti147  1  0.39426308  0.60727325  0.73638692  1
  Ti  Ti148  1  0.49611969  0.09191581  0.62434099  1
  Ti  Ti149  1  0.11349531  0.10004065  0.86880371  1
  Ti  Ti150  1  0.30292526  0.31150613  0.38487434  1
  Ti  Ti151  1  0.59552499  0.20505948  0.75459024  1
  Ti  Ti152  1  0.11548173  0.49298691  0.38926374  1
  Ti  Ti153  1  0.70636688  0.11169115  0.88249005  1
  Ti  Ti154  1  0.80264442  0.40231427  0.50002186  1
  Ti  Ti155  1  0.79413947  0.40008066  0.00334824  1
  Ti  Ti156  1  0.49761192  0.10721791  0.12953783  1
  Ti  Ti157  1  0.50265479  0.90295994  0.37186003  1
  Ti  Ti158  1  0.20515709  0.21713034  0.23845561  1
  Ti  Ti159  1  0.70605986  0.49635435  0.87889241  1
  Mo  Mo160  1  0.40979617  0.38958555  -0.00744646  1
  Mo  Mo161  1  0.20260712  0.39519953  0.50945390  1
  Mo  Mo162  1  0.30440055  0.49989199  0.12994486  1
  Mo  Mo163  1  0.90161429  0.49875634  0.60979981  1
  Mo  Mo164  1  0.41435242  0.79300678  0.73933579  1
  Mo  Mo165  1  0.69704500  0.69585501  0.12603708  1
  Mo  Mo166  1  0.50167888  0.30372633  0.86081561  1
  Mo  Mo167  1  0.59154845  0.79640777  0.74112724  1
  Mo  Mo168  1  0.88993399  0.90459924  0.37521849  1
  Mo  Mo169  1  0.49959191  0.68871615  0.87679514  1
  Mo  Mo170  1  0.19846042  0.59889118  0.49763594  1
  Mo  Mo171  1  0.10041047  0.30194905  0.61867806  1
  Mo  Mo172  1  0.10949496  0.30172239  0.13440536  1
  Mo  Mo173  1  -0.00357585  0.80723058  0.24631927  1
  Mo  Mo174  1  0.49984779  0.49360207  0.38500762  1
  Mo  Mo175  1  0.89889090  0.29568559  0.12446749  1
  Mo  Mo176  1  0.32142954  0.31371757  0.13098702  1
  Mo  Mo177  1  0.90889685  0.09850242  0.63435040  1
  Mo  Mo178  1  0.20606340  0.19283198  0.50269663  1
  Mo  Mo179  1  0.39752137  0.00568307  0.25893902  1
  Mo  Mo180  1  0.39825373  0.01185242  -0.00729853  1
  Mo  Mo181  1  0.40788895  0.20657486  -0.00245780  1
  Mo  Mo182  1  0.20270842  0.00639517  0.75827680  1
  Mo  Mo183  1  0.57605249  -0.00942705  0.49687466  1
  Mo  Mo184  1  0.29277380  0.48510018  0.39252488  1
  Mo  Mo185  1  0.11061177  0.10318300  0.36734977  1
  Mo  Mo186  1  0.50304131  0.70236749  0.37334858  1
  Mo  Mo187  1  0.69840376  0.30930168  0.12359392  1
  Mo  Mo188  1  0.40111520  0.38927572  0.25656899  1
  Mo  Mo189  1  0.88546695  0.49803961  0.88472837  1
  Mo  Mo190  1  -0.00946153  -0.00227669  0.24099731  1
  Mo  Mo191  1  0.80162707  0.80339306  0.00471791  1
  Mo  Mo192  1  0.00309027  0.59211326  0.73938985  1
  Mo  Mo193  1  0.71209800  0.89979646  0.11082752  1
  Mo  Mo194  1  0.28959600  0.70372708  0.14061132  1
  Mo  Mo195  1  0.78717205  0.39042913  0.25936277  1
  Mo  Mo196  1  0.00656348  0.00394699  0.50752279  1
  Mo  Mo197  1  0.59883117  0.40483966  0.50448356  1
  Mo  Mo198  1  0.30557184  0.70449951  0.61464482  1
  Mo  Mo199  1  0.40299893  0.79734908  0.00822934  1
