# generated using pymatgen
data_HfZrTaTiMo
_symmetry_space_group_name_H-M   'P 1'
_cell_length_a   15.21255762
_cell_length_b   15.21918731
_cell_length_c   16.82140648
_cell_angle_alpha   90.02729145
_cell_angle_beta   90.03809086
_cell_angle_gamma   89.89421048
_symmetry_Int_Tables_number   1
_chemical_formula_structural   HfZrTaTiMo
_chemical_formula_sum   'Hf40 Zr40 Ta40 Ti40 Mo40'
_cell_volume   3894.53057882
_cell_formula_units_Z   40
loop_
 _symmetry_equiv_pos_site_id
 _symmetry_equiv_pos_as_xyz
  1  'x, y, z'
loop_
 _atom_site_type_symbol
 _atom_site_label
 _atom_site_symmetry_multiplicity
 _atom_site_fract_x
 _atom_site_fract_y
 _atom_site_fract_z
 _atom_site_occupancy
  Hf  Hf0  1  0.49864404  0.50513763  0.87684877  1
  Hf  Hf1  1  0.89738642  0.89984540  0.61182114  1
  Hf  Hf2  1  0.31251848  0.52053768  0.38194701  1
  Hf  Hf3  1  0.69899562  0.90176758  0.35607491  1
  Hf  Hf4  1  0.60506075  0.59357458  0.74064294  1
  Hf  Hf5  1  0.39085096  0.39467721  -0.00531580  1
  Hf  Hf6  1  0.59206741  0.79877186  0.73991279  1
  Hf  Hf7  1  0.69432966  0.11053073  0.35874276  1
  Hf  Hf8  1  0.68861682  0.71741306  0.88028245  1
  Hf  Hf9  1  0.79751828  0.61949728  0.25703430  1
  Hf  Hf10  1  0.28544472  0.89353507  0.38046550  1
  Hf  Hf11  1  0.09860105  0.29601754  0.14265781  1
  Hf  Hf12  1  0.60652189  0.58636903  0.50323051  1
  Hf  Hf13  1  0.88285471  0.30086280  0.62738323  1
  Hf  Hf14  1  0.80472949  0.81071589  0.75160615  1
  Hf  Hf15  1  0.69270544  0.11667953  0.63120648  1
  Hf  Hf16  1  0.19716972  0.41462183  0.48733435  1
  Hf  Hf17  1  0.28583288  0.89685709  0.62138820  1
  Hf  Hf18  1  0.51812540  0.29026649  0.36546420  1
  Hf  Hf19  1  0.31672838  0.29872357  0.37542373  1
  Hf  Hf20  1  0.19036202  0.00982643  -0.00645460  1
  Hf  Hf21  1  0.11417080  0.30283120  0.86271846  1
  Hf  Hf22  1  0.61659382  0.37746506  0.49847732  1
  Hf  Hf23  1  0.50361874  0.89467708  0.13927337  1
  Hf  Hf24  1  0.11011085  0.30492129  0.63203109  1
  Hf  Hf25  1  -0.00507709  0.40809062  0.74657856  1
  Hf  Hf26  1  0.29916947  0.10645071  0.12042999  1
  Hf  Hf27  1  0.60627618  -0.02442241  0.00440891  1
  Hf  Hf28  1  0.87646986  0.30574885  0.36379013  1
  Hf  Hf29  1  -0.00638873  0.78637973  0.48523715  1
  Hf  Hf30  1  0.38389951  0.00351880  0.24535566  1
  Hf  Hf31  1  0.89054449  0.09461314  0.62226922  1
  Hf  Hf32  1  0.32228582  0.29959929  0.60511198  1
  Hf  Hf33  1  0.79858174  0.60405603  0.75523535  1
  Hf  Hf34  1  0.29925510  0.10168184  0.61176552  1
  Hf  Hf35  1  0.19593551  0.59611698  0.74878281  1
  Hf  Hf36  1  0.91620600  0.09235921  0.89488074  1
  Hf  Hf37  1  0.01049840  0.60200267  0.26158974  1
  Hf  Hf38  1  0.80474524  0.40623671  -0.00431358  1
  Hf  Hf39  1  0.39608085  0.38573124  0.75853529  1
  Zr  Zr40  1  0.30206070  0.30291020  0.14746629  1
  Zr  Zr41  1  0.70314205  0.48732349  0.36345277  1
  Zr  Zr42  1  0.59766073  0.39725302  -0.00854427  1
  Zr  Zr43  1  0.38618634  0.78306059  0.49416698  1
  Zr  Zr44  1  0.40328138  0.60032809  0.74959972  1
  Zr  Zr45  1  0.19088027  0.39266576  0.00654709  1
  Zr  Zr46  1  0.30693038  0.50258389  0.61376572  1
  Zr  Zr47  1  0.09561999  0.70693845  0.13401921  1
  Zr  Zr48  1  0.79759936  0.20265266  0.23519275  1
  Zr  Zr49  1  0.20453845  0.59913860  0.00351511  1
  Zr  Zr50  1  -0.00217134  0.39819192  0.49924751  1
  Zr  Zr51  1  0.40025453  -0.00989313  0.75046543  1
  Zr  Zr52  1  0.90146314  0.50286330  0.13678368  1
  Zr  Zr53  1  0.60494034  0.00048740  0.49780256  1
  Zr  Zr54  1  -0.00434510  0.60880525  0.00561147  1
  Zr  Zr55  1  0.60325339  -0.00147909  0.75752082  1
  Zr  Zr56  1  0.18719177  0.20837368  0.48735535  1
  Zr  Zr57  1  0.30332143  0.89282187  0.87150855  1
  Zr  Zr58  1  0.60272660  0.79478917  0.49609949  1
  Zr  Zr59  1  0.52277056  0.28600766  0.62942098  1
  Zr  Zr60  1  0.49836162  0.68227395  0.37476724  1
  Zr  Zr61  1  0.20617411  0.80457434  0.00400995  1
  Zr  Zr62  1  -0.02305781  0.19096314  0.48201192  1
  Zr  Zr63  1  0.19434275  0.18336763  0.26899415  1
  Zr  Zr64  1  -0.00380312  0.62219397  0.75237702  1
  Zr  Zr65  1  0.00996064  0.18679779  0.75580108  1
  Zr  Zr66  1  0.50225039  0.28972450  0.13184437  1
  Zr  Zr67  1  0.49225760  0.09884198  0.36478114  1
  Zr  Zr68  1  0.39853526  0.59676989  0.24130024  1
  Zr  Zr69  1  0.81086528  0.61702637  0.48022597  1
  Zr  Zr70  1  0.18481602  0.00826066  0.75732889  1
  Zr  Zr71  1  -0.00146843  0.00665865  0.25519729  1
  Zr  Zr72  1  0.79622389  0.61052645  0.00372645  1
  Zr  Zr73  1  0.79180672  0.81163898  0.01693594  1
  Zr  Zr74  1  0.91199985  0.10534074  0.11073986  1
  Zr  Zr75  1  0.09461036  0.50267616  0.87640943  1
  Zr  Zr76  1  0.80308815  0.20229950  0.77137452  1
  Zr  Zr77  1  0.89557129  0.51238516  0.62046734  1
  Zr  Zr78  1  0.09309337  0.08645057  0.60893478  1
  Zr  Zr79  1  0.39532010  0.60594871  0.00549720  1
  Ta  Ta80  1  0.49637341  0.89652544  0.36043793  1
  Ta  Ta81  1  0.70396979  0.90582706  0.62075066  1
  Ta  Ta82  1  0.49415772  0.09760318  0.62122559  1
  Ta  Ta83  1  0.29927983  0.70108959  0.86524777  1
  Ta  Ta84  1  0.59677950  0.60691816  0.00660158  1
  Ta  Ta85  1  0.50267174  0.49585631  0.12357246  1
  Ta  Ta86  1  0.10118830  0.49308970  0.13536763  1
  Ta  Ta87  1  0.60608521  0.20017834  0.78150652  1
  Ta  Ta88  1  0.29573650  0.09231634  0.39223091  1
  Ta  Ta89  1  0.40868192  0.19696500  -0.01307158  1
  Ta  Ta90  1  0.09051493  0.90639542  0.11951906  1
  Ta  Ta91  1  0.18129489  0.80233453  0.75126289  1
  Ta  Ta92  1  0.69349124  0.50247547  0.13006475  1
  Ta  Ta93  1  0.71446293  0.08603269  0.89394253  1
  Ta  Ta94  1  0.91012487  0.30618722  0.11600604  1
  Ta  Ta95  1  0.38812648  0.79980387  0.25185305  1
  Ta  Ta96  1  0.60661954  0.19224966  -0.01037759  1
  Ta  Ta97  1  0.12664910  0.70755977  0.36119089  1
  Ta  Ta98  1  0.10185098  0.51118052  0.62079877  1
  Ta  Ta99  1  0.20742631  0.62400378  0.50064491  1
  Ta  Ta100  1  0.41462377  0.18956769  0.76488424  1
  Ta  Ta101  1  0.09637623  0.89711427  0.38245794  1
  Ta  Ta102  1  -0.01081371  -0.01732062  0.75225870  1
  Ta  Ta103  1  0.49290654  0.69109668  0.61868781  1
  Ta  Ta104  1  0.91096888  0.49581238  0.36229683  1
  Ta  Ta105  1  0.09914631  0.71350729  0.87881265  1
  Ta  Ta106  1  0.79272843  0.40072027  0.76994526  1
  Ta  Ta107  1  0.70795223  0.29781013  0.11085935  1
  Ta  Ta108  1  0.01713086  0.59754669  0.47991357  1
  Ta  Ta109  1  0.30303557  0.10333556  0.87883800  1
  Ta  Ta110  1  0.22471407  0.20943214  0.75050127  1
  Ta  Ta111  1  0.39782944  -0.00603293  0.00600880  1
  Ta  Ta112  1  0.80005312  -0.00403120  0.23241420  1
  Ta  Ta113  1  0.50262371  0.48431269  0.62090919  1
  Ta  Ta114  1  0.02234815  0.20822563  -0.00531193  1
  Ta  Ta115  1  0.50548970  0.69755041  0.13172805  1
  Ta  Ta116  1  0.77195270  0.21283958  0.49592757  1
  Ta  Ta117  1  0.49265548  0.89331418  0.62171943  1
  Ta  Ta118  1  0.07671377  0.90150052  0.88374715  1
  Ta  Ta119  1  0.40280351  -0.00801296  0.49845527  1
  Ti  Ti120  1  0.70763348  0.70472822  0.62174180  1
  Ti  Ti121  1  0.40789219  0.80250653  0.01000094  1
  Ti  Ti122  1  -0.00654425  0.19628065  0.26284875  1
  Ti  Ti123  1  0.49134137  0.70592772  0.87685430  1
  Ti  Ti124  1  0.50628009  0.88471706  0.88032503  1
  Ti  Ti125  1  0.19725168  0.42004562  0.26505605  1
  Ti  Ti126  1  0.80204234  -0.00280693  0.02283405  1
  Ti  Ti127  1  0.69426268  0.70703282  0.13037081  1
  Ti  Ti128  1  0.89471163  0.90553644  0.37160857  1
  Ti  Ti129  1  0.28884159  0.49088934  0.86942675  1
  Ti  Ti130  1  0.80220000  0.40773336  0.49796884  1
  Ti  Ti131  1  0.60695343  0.38943388  0.76550675  1
  Ti  Ti132  1  0.90687114  0.71913656  0.87918763  1
  Ti  Ti133  1  0.79254469  0.80574125  0.48775847  1
  Ti  Ti134  1  0.49980599  0.09944236  0.12623078  1
  Ti  Ti135  1  0.61395207  0.38979027  0.24265864  1
  Ti  Ti136  1  0.90235099  0.70685041  0.62224284  1
  Ti  Ti137  1  0.70241471  0.47857104  0.63284488  1
  Ti  Ti138  1  0.29601961  0.49908450  0.13337103  1
  Ti  Ti139  1  0.68873742  0.09759914  0.12236263  1
  Ti  Ti140  1  0.29658554  0.70694398  0.63681334  1
  Ti  Ti141  1  0.29889829  0.71260400  0.13347543  1
  Ti  Ti142  1  0.79766695  0.00182927  0.75662433  1
  Ti  Ti143  1  0.10206135  0.10327243  0.12438245  1
  Ti  Ti144  1  0.09346065  0.08113277  0.38929693  1
  Ti  Ti145  1  0.41482419  0.40701294  0.25794225  1
  Ti  Ti146  1  0.08658500  0.31547799  0.36210638  1
  Ti  Ti147  1  0.09673460  0.70669417  0.62229403  1
  Ti  Ti148  1  0.80144199  0.01055540  0.48769053  1
  Ti  Ti149  1  0.60608667  0.78621462  0.25664883  1
  Ti  Ti150  1  0.69858379  0.50715855  0.87795046  1
  Ti  Ti151  1  0.90181076  0.50659125  0.87959700  1
  Ti  Ti152  1  0.88603389  0.90457823  0.88704522  1
  Ti  Ti153  1  0.90947153  0.30514938  0.89127958  1
  Ti  Ti154  1  0.08984469  0.89513947  0.61131153  1
  Ti  Ti155  1  0.59710379  0.58928030  0.25272265  1
  Ti  Ti156  1  0.21268479  0.20576368  -0.00838577  1
  Ti  Ti157  1  -0.00675163  0.80617032  0.25630162  1
  Ti  Ti158  1  0.50355505  0.08289664  0.88652753  1
  Ti  Ti159  1  0.19327131  -0.01345555  0.24549402  1
  Mo  Mo160  1  0.69981034  0.90468650  0.87650122  1
  Mo  Mo161  1  0.80608685  0.80599155  0.24052093  1
  Mo  Mo162  1  -0.00609208  0.80617177  0.00244694  1
  Mo  Mo163  1  0.60031758  0.19585121  0.23027534  1
  Mo  Mo164  1  -0.00121336  0.81048968  0.74834994  1
  Mo  Mo165  1  0.40706564  0.19235255  0.49843458  1
  Mo  Mo166  1  0.59705215  -0.00095010  0.24020221  1
  Mo  Mo167  1  0.20682694  0.60387747  0.24145417  1
  Mo  Mo168  1  0.58909366  0.78892880  0.00742327  1
  Mo  Mo169  1  0.39349634  0.19754256  0.24990688  1
  Mo  Mo170  1  0.39708228  0.79435587  0.74520353  1
  Mo  Mo171  1  0.88608501  0.09464658  0.37284370  1
  Mo  Mo172  1  0.50376574  0.29226750  0.87724602  1
  Mo  Mo173  1  0.30522937  0.29662942  0.87347520  1
  Mo  Mo174  1  0.42000562  0.40447959  0.49053663  1
  Mo  Mo175  1  0.50399882  0.48543699  0.37657628  1
  Mo  Mo176  1  0.18822194  0.79476278  0.50626836  1
  Mo  Mo177  1  -0.01170658  -0.00982294  0.48613082  1
  Mo  Mo178  1  0.00119142  0.39819631  0.00204108  1
  Mo  Mo179  1  0.19453936  -0.00606321  0.49975247  1
  Mo  Mo180  1  0.10729845  0.10182119  0.87353532  1
  Mo  Mo181  1  0.71034770  0.29620634  0.89235726  1
  Mo  Mo182  1  0.70615109  0.30494572  0.63959298  1
  Mo  Mo183  1  0.40707247  0.59569111  0.50917062  1
  Mo  Mo184  1  0.90036784  0.71370215  0.13712045  1
  Mo  Mo185  1  0.80355283  0.20211821  0.00272676  1
  Mo  Mo186  1  0.29615098  0.90109651  0.12285597  1
  Mo  Mo187  1  0.19687897  0.81283139  0.24034504  1
  Mo  Mo188  1  0.69971428  0.29767636  0.36375493  1
  Mo  Mo189  1  0.69560501  0.89842859  0.14483604  1
  Mo  Mo190  1  0.00104122  0.39563817  0.25290402  1
  Mo  Mo191  1  0.69912729  0.70553574  0.36755179  1
  Mo  Mo192  1  0.20382209  0.40019956  0.73893832  1
  Mo  Mo193  1  0.90828259  0.71244076  0.36588412  1
  Mo  Mo194  1  0.59936402  0.18854075  0.50083326  1
  Mo  Mo195  1  0.00053976  -0.00305020  0.00479331  1
  Mo  Mo196  1  0.10859135  0.50553070  0.37316764  1
  Mo  Mo197  1  0.79918569  0.40440544  0.23177625  1
  Mo  Mo198  1  0.30028703  0.70489726  0.36699548  1
  Mo  Mo199  1  0.90722860  0.89455468  0.12954827  1
