# generated using pymatgen
data_HfZrTaTiMo
_symmetry_space_group_name_H-M   'P 1'
_cell_length_a   15.21958324
_cell_length_b   15.21596280
_cell_length_c   16.79538361
_cell_angle_alpha   90.02495837
_cell_angle_beta   89.98471297
_cell_angle_gamma   89.90337105
_symmetry_Int_Tables_number   1
_chemical_formula_structural   HfZrTaTiMo
_chemical_formula_sum   'Hf40 Zr40 Ta40 Ti40 Mo40'
_cell_volume   3889.47918378
_cell_formula_units_Z   40
loop_
 _symmetry_equiv_pos_site_id
 _symmetry_equiv_pos_as_xyz
  1  'x, y, z'
loop_
 _atom_site_type_symbol
 _atom_site_label
 _atom_site_symmetry_multiplicity
 _atom_site_fract_x
 _atom_site_fract_y
 _atom_site_fract_z
 _atom_site_occupancy
  Hf  Hf0  1  0.69901636  0.50240605  0.88402470  1
  Hf  Hf1  1  0.01282115  0.59319360  0.72365952  1
  Hf  Hf2  1  0.19715473  0.02755293  0.26121456  1
  Hf  Hf3  1  0.29562088  0.31118979  0.86244412  1
  Hf  Hf4  1  0.10289799  0.10556969  0.12264088  1
  Hf  Hf5  1  0.78917368  0.80245100  0.74221221  1
  Hf  Hf6  1  0.59832131  0.20508618  0.49283921  1
  Hf  Hf7  1  0.80828187  0.59813773  0.24333675  1
  Hf  Hf8  1  0.19391765  0.40666133  0.25201899  1
  Hf  Hf9  1  0.69791157  0.30438309  0.88484401  1
  Hf  Hf10  1  0.29346841  0.90716756  0.13474967  1
  Hf  Hf11  1  0.00769850  -0.01041307  -0.00642886  1
  Hf  Hf12  1  0.79597383  0.19744037  0.76072919  1
  Hf  Hf13  1  0.79466834  0.40012164  0.74433221  1
  Hf  Hf14  1  0.51219933  0.90354835  0.60591284  1
  Hf  Hf15  1  0.90758450  0.89182577  0.85841481  1
  Hf  Hf16  1  0.20555148  0.61410295  0.25541865  1
  Hf  Hf17  1  0.47988551  0.10122854  0.38686991  1
  Hf  Hf18  1  0.59067444  0.40158811  0.00951193  1
  Hf  Hf19  1  0.60976543  0.61037118  0.24740031  1
  Hf  Hf20  1  0.49778230  0.10274779  0.62805933  1
  Hf  Hf21  1  0.80192688  0.19349982  0.25587440  1
  Hf  Hf22  1  0.91318081  0.69372428  0.86824309  1
  Hf  Hf23  1  0.80311650  0.18872126  0.48730683  1
  Hf  Hf24  1  0.49997010  0.50503358  0.37514448  1
  Hf  Hf25  1  0.49545939  0.08921319  0.86401259  1
  Hf  Hf26  1  0.49719010  0.90387041  0.12817873  1
  Hf  Hf27  1  0.20043223  0.19296055  0.51965543  1
  Hf  Hf28  1  0.00240645  0.18024625  0.25837707  1
  Hf  Hf29  1  0.29775358  0.71188642  0.86741066  1
  Hf  Hf30  1  0.91126613  0.49080306  0.36842729  1
  Hf  Hf31  1  0.80251371  0.79228306  0.25600986  1
  Hf  Hf32  1  0.29561593  0.09946483  0.85062335  1
  Hf  Hf33  1  0.69887361  0.70227766  0.87492531  1
  Hf  Hf34  1  0.39261321  0.79929974  0.26289068  1
  Hf  Hf35  1  0.20193346  0.81548277  -0.00314524  1
  Hf  Hf36  1  0.81316991  -0.00378090  0.26059081  1
  Hf  Hf37  1  -0.00570686  0.39301771  0.50938645  1
  Hf  Hf38  1  0.00264266  0.39439374  0.00100866  1
  Hf  Hf39  1  0.10395370  0.89313633  0.37650503  1
  Zr  Zr40  1  0.08948963  0.90539407  0.14136492  1
  Zr  Zr41  1  0.60578109  0.40872118  0.49493982  1
  Zr  Zr42  1  0.60047795  0.20181831  0.76017932  1
  Zr  Zr43  1  0.80579609  0.79787950  0.00854848  1
  Zr  Zr44  1  0.80927046  -0.00043908  0.00050756  1
  Zr  Zr45  1  0.49495017  0.30071570  0.36830385  1
  Zr  Zr46  1  0.80099505  0.59270196  0.50544906  1
  Zr  Zr47  1  0.00769746  0.58992422  0.51495520  1
  Zr  Zr48  1  0.81581018  0.59642312  0.01719929  1
  Zr  Zr49  1  0.60214489  0.80146851  0.26960187  1
  Zr  Zr50  1  0.10160100  0.30090812  0.37200835  1
  Zr  Zr51  1  0.90214978  0.10013546  0.63573755  1
  Zr  Zr52  1  -0.01855182  0.19497461  0.00259724  1
  Zr  Zr53  1  0.38961303  0.40267770  0.24500639  1
  Zr  Zr54  1  0.18243784  0.21050012  -0.01882570  1
  Zr  Zr55  1  0.60594481  0.40165630  0.24114552  1
  Zr  Zr56  1  0.30025509  0.50937345  0.87807316  1
  Zr  Zr57  1  0.37493053  0.19429378  0.25038702  1
  Zr  Zr58  1  0.69990703  0.09364653  0.12540683  1
  Zr  Zr59  1  0.69670170  0.89302162  0.12844798  1
  Zr  Zr60  1  0.49982262  0.09859161  0.12409175  1
  Zr  Zr61  1  0.80373528  0.59939320  0.73193917  1
  Zr  Zr62  1  0.39298520  0.38947424  0.50485055  1
  Zr  Zr63  1  0.68902623  0.70427725  0.61526449  1
  Zr  Zr64  1  0.50091205  0.70080994  0.60961744  1
  Zr  Zr65  1  0.39680946  0.20203446  -0.00984821  1
  Zr  Zr66  1  0.09753219  0.51005514  0.12203789  1
  Zr  Zr67  1  0.50264367  0.30714595  0.63404198  1
  Zr  Zr68  1  0.90052347  0.49531192  0.87344037  1
  Zr  Zr69  1  0.00468691  0.00116752  0.50948305  1
  Zr  Zr70  1  0.29686747  0.91519624  0.37980235  1
  Zr  Zr71  1  0.69484423  0.28925558  0.11989065  1
  Zr  Zr72  1  0.69838637  0.09417388  0.62267031  1
  Zr  Zr73  1  0.09753217  0.50514929  0.87457164  1
  Zr  Zr74  1  0.31066009  0.90668633  0.85149515  1
  Zr  Zr75  1  0.29266610  0.51170927  0.62154324  1
  Zr  Zr76  1  0.10465514  0.89362132  0.84801986  1
  Zr  Zr77  1  0.39936669  0.60484623  0.25262522  1
  Zr  Zr78  1  0.39737561  0.61191043  0.74368854  1
  Zr  Zr79  1  0.40356381  0.61042493  0.00547911  1
  Ta  Ta80  1  0.81018195  0.80132848  0.49755212  1
  Ta  Ta81  1  0.10612082  0.70998780  0.13150358  1
  Ta  Ta82  1  0.48675154  0.29722468  0.12479559  1
  Ta  Ta83  1  0.80087156  0.39170044  0.50194335  1
  Ta  Ta84  1  0.81054550  0.38414499  0.01315691  1
  Ta  Ta85  1  0.50517686  0.70440658  0.87217666  1
  Ta  Ta86  1  0.60272254  0.60873696  0.01210319  1
  Ta  Ta87  1  0.00877156  0.79552719  0.52004989  1
  Ta  Ta88  1  0.90928294  0.69837861  0.38096630  1
  Ta  Ta89  1  0.20445762  0.00901235  -0.00955697  1
  Ta  Ta90  1  0.09116128  0.09770917  0.85062874  1
  Ta  Ta91  1  0.19020530  0.61856512  0.00205919  1
  Ta  Ta92  1  0.28569339  0.50029867  0.38762420  1
  Ta  Ta93  1  0.18780825  0.41073074  0.74281525  1
  Ta  Ta94  1  0.08814021  0.30452096  0.13686051  1
  Ta  Ta95  1  0.19924175  -0.01073565  0.52943870  1
  Ta  Ta96  1  0.50393294  0.50450394  0.87557509  1
  Ta  Ta97  1  0.28401783  0.30061759  0.11724548  1
  Ta  Ta98  1  0.90152509  0.09362730  0.86170069  1
  Ta  Ta99  1  0.10205717  0.69583774  0.38702191  1
  Ta  Ta100  1  0.59787393  -0.00380525  -0.01192441  1
  Ta  Ta101  1  0.60502323  0.00216089  0.27434255  1
  Ta  Ta102  1  0.00732071  0.78675345  0.00226467  1
  Ta  Ta103  1  0.18779528  0.40249179  0.50732131  1
  Ta  Ta104  1  0.59755397  0.59565936  0.74979330  1
  Ta  Ta105  1  0.49886999  0.90423268  0.39111898  1
  Ta  Ta106  1  0.18858353  0.20879918  0.74525628  1
  Ta  Ta107  1  0.39668588  0.60326746  0.49306073  1
  Ta  Ta108  1  0.60328473  -0.02169297  0.75263332  1
  Ta  Ta109  1  0.70361827  0.29968615  0.62332545  1
  Ta  Ta110  1  0.30383694  0.09997833  0.64792427  1
  Ta  Ta111  1  0.40692523  0.41000274  0.74716324  1
  Ta  Ta112  1  0.70451428  0.90475101  0.60975690  1
  Ta  Ta113  1  0.39034454  0.80995219  0.49957902  1
  Ta  Ta114  1  0.70958793  0.50084528  0.37160915  1
  Ta  Ta115  1  0.29685121  0.50506231  0.11358188  1
  Ta  Ta116  1  0.90835728  0.89621352  0.38370117  1
  Ta  Ta117  1  0.00258064  0.19541470  0.49543207  1
  Ta  Ta118  1  0.29662368  0.10288679  0.11518628  1
  Ta  Ta119  1  0.89771835  0.89755197  0.63124292  1
  Ti  Ti120  1  0.50386038  0.70871998  0.12792748  1
  Ti  Ti121  1  0.40429821  0.80523959  0.00059363  1
  Ti  Ti122  1  0.50185207  0.88825267  0.87216319  1
  Ti  Ti123  1  0.19879784  0.40436602  0.00007749  1
  Ti  Ti124  1  0.79687221  0.19052862  -0.00843837  1
  Ti  Ti125  1  0.70364518  0.30421201  0.36741925  1
  Ti  Ti126  1  0.61932654  0.00489281  0.47862913  1
  Ti  Ti127  1  0.10156031  0.70084130  0.86315043  1
  Ti  Ti128  1  0.49648472  0.50426535  0.12569856  1
  Ti  Ti129  1  0.80801239  0.39188369  0.23865275  1
  Ti  Ti130  1  0.70476125  0.50069750  0.12193166  1
  Ti  Ti131  1  0.69429990  0.89794155  0.87788802  1
  Ti  Ti132  1  0.40432050  0.00298066  0.25607508  1
  Ti  Ti133  1  0.29448165  0.28958784  0.38420499  1
  Ti  Ti134  1  0.00948714  0.59595834  0.25710006  1
  Ti  Ti135  1  0.39581405  -0.00427466  -0.00317737  1
  Ti  Ti136  1  0.59712973  0.79801273  0.00339421  1
  Ti  Ti137  1  0.30097862  0.29941899  0.63874079  1
  Ti  Ti138  1  0.59387654  0.19459063  0.25586210  1
  Ti  Ti139  1  0.79001974  -0.00151976  0.75738888  1
  Ti  Ti140  1  0.49663934  0.31161098  0.86632720  1
  Ti  Ti141  1  0.08852076  0.29471100  0.63300984  1
  Ti  Ti142  1  0.00200427  0.79508602  0.25627978  1
  Ti  Ti143  1  0.30017372  0.70888436  0.12399786  1
  Ti  Ti144  1  0.29537982  0.70829486  0.61004965  1
  Ti  Ti145  1  0.89963244  0.29721417  0.37137945  1
  Ti  Ti146  1  0.49909761  0.70206631  0.38833834  1
  Ti  Ti147  1  0.38538668  0.01247578  0.51078457  1
  Ti  Ti148  1  0.89626083  0.29576011  0.62942888  1
  Ti  Ti149  1  0.50377281  0.50746552  0.61824069  1
  Ti  Ti150  1  0.91130665  0.29907527  0.86737445  1
  Ti  Ti151  1  0.28956659  0.70956831  0.39049316  1
  Ti  Ti152  1  0.19689081  0.78988524  0.72551247  1
  Ti  Ti153  1  0.61382846  0.79894495  0.47864334  1
  Ti  Ti154  1  0.91174691  0.48420607  0.13283182  1
  Ti  Ti155  1  0.39691104  0.40132505  0.00309414  1
  Ti  Ti156  1  0.69003806  0.49427184  0.62272351  1
  Ti  Ti157  1  0.41411318  0.80893594  0.73389799  1
  Ti  Ti158  1  0.91827198  0.70056714  0.13004971  1
  Ti  Ti159  1  0.59523922  0.19282076  -0.01057572  1
  Mo  Mo160  1  0.70891957  0.69186605  0.38530967  1
  Mo  Mo161  1  0.10354992  0.48613009  0.62638447  1
  Mo  Mo162  1  0.59734180  0.41400116  0.75101183  1
  Mo  Mo163  1  -0.00608330  -0.00105146  0.74153303  1
  Mo  Mo164  1  -0.00106514  0.79037751  0.72423689  1
  Mo  Mo165  1  0.19777882  -0.00214172  0.72961185  1
  Mo  Mo166  1  -0.00957525  0.39532991  0.24667649  1
  Mo  Mo167  1  0.39514987  0.21097229  0.75455715  1
  Mo  Mo168  1  0.38850134  0.19786772  0.51021661  1
  Mo  Mo169  1  0.11140452  0.09639787  0.38890443  1
  Mo  Mo170  1  0.69656952  0.10566611  0.37045325  1
  Mo  Mo171  1  -0.00349880  -0.00512857  0.26434516  1
  Mo  Mo172  1  0.59771126  0.80070662  0.75029842  1
  Mo  Mo173  1  0.19991631  0.79641516  0.25350933  1
  Mo  Mo174  1  0.30987357  0.89879879  0.63268857  1
  Mo  Mo175  1  0.90045732  0.70451820  0.62038976  1
  Mo  Mo176  1  0.11664590  0.69219542  0.61482365  1
  Mo  Mo177  1  0.20031174  0.21160509  0.24648423  1
  Mo  Mo178  1  0.89088789  0.48424395  0.62372844  1
  Mo  Mo179  1  0.28561961  0.10767871  0.39337324  1
  Mo  Mo180  1  0.89852499  0.28757289  0.12975537  1
  Mo  Mo181  1  0.09941949  0.89638384  0.63884042  1
  Mo  Mo182  1  0.19811188  0.80184861  0.51200835  1
  Mo  Mo183  1  0.09348622  0.30506354  0.86313775  1
  Mo  Mo184  1  0.20141804  0.60744071  0.74810704  1
  Mo  Mo185  1  -0.00484359  0.20871074  0.75497856  1
  Mo  Mo186  1  0.10020677  0.50403880  0.37444699  1
  Mo  Mo187  1  0.00561156  0.60999934  0.00342094  1
  Mo  Mo188  1  0.70975766  0.89936186  0.38571710  1
  Mo  Mo189  1  -0.00383021  0.39171716  0.73872746  1
  Mo  Mo190  1  0.41266902  -0.00461859  0.73815773  1
  Mo  Mo191  1  0.09833989  0.10258210  0.64337717  1
  Mo  Mo192  1  0.80363220  -0.00689646  0.48922483  1
  Mo  Mo193  1  0.91251365  0.89350059  0.13297836  1
  Mo  Mo194  1  0.69867048  0.08902225  0.87979661  1
  Mo  Mo195  1  0.20143087  0.59952470  0.49298373  1
  Mo  Mo196  1  0.69662081  0.69566679  0.12208069  1
  Mo  Mo197  1  0.60057185  0.60132486  0.48550539  1
  Mo  Mo198  1  0.90987097  0.07857394  0.12766052  1
  Mo  Mo199  1  0.90944763  0.09770837  0.38399732  1
