# generated using pymatgen
data_HfZrTaTiMo
_symmetry_space_group_name_H-M   'P 1'
_cell_length_a   15.20609658
_cell_length_b   15.20620478
_cell_length_c   16.82287762
_cell_angle_alpha   89.98037500
_cell_angle_beta   90.00849734
_cell_angle_gamma   89.98773552
_symmetry_Int_Tables_number   1
_chemical_formula_structural   HfZrTaTiMo
_chemical_formula_sum   'Hf40 Zr40 Ta40 Ti40 Mo40'
_cell_volume   3889.90347421
_cell_formula_units_Z   40
loop_
 _symmetry_equiv_pos_site_id
 _symmetry_equiv_pos_as_xyz
  1  'x, y, z'
loop_
 _atom_site_type_symbol
 _atom_site_label
 _atom_site_symmetry_multiplicity
 _atom_site_fract_x
 _atom_site_fract_y
 _atom_site_fract_z
 _atom_site_occupancy
  Hf  Hf0  1  0.70695692  0.29781125  0.86742321  1
  Hf  Hf1  1  0.69673532  0.10384259  0.12593113  1
  Hf  Hf2  1  0.60389515  0.79597116  0.24949178  1
  Hf  Hf3  1  0.68587765  0.10465441  0.37720853  1
  Hf  Hf4  1  0.70481458  0.69530783  0.88612514  1
  Hf  Hf5  1  0.90988987  0.69139570  0.38022615  1
  Hf  Hf6  1  0.29590182  0.49994882  0.37488614  1
  Hf  Hf7  1  0.28674124  0.28097780  0.37658711  1
  Hf  Hf8  1  0.50008904  0.90697379  0.62406052  1
  Hf  Hf9  1  0.70945939  0.90557347  0.89594382  1
  Hf  Hf10  1  -0.00463846  0.78970750  0.74298832  1
  Hf  Hf11  1  0.50756121  0.68917730  0.37474606  1
  Hf  Hf12  1  0.40472485  0.59950589  -0.00200833  1
  Hf  Hf13  1  0.40048247  0.59826431  0.24622577  1
  Hf  Hf14  1  0.29035570  0.49756795  0.11965951  1
  Hf  Hf15  1  0.09808752  0.71056187  0.11947751  1
  Hf  Hf16  1  0.59350541  0.18126129  0.75286426  1
  Hf  Hf17  1  0.39116647  0.80540400  0.76591554  1
  Hf  Hf18  1  0.69040286  0.51004925  0.63824694  1
  Hf  Hf19  1  0.11556097  0.10767967  0.37305095  1
  Hf  Hf20  1  0.59559402  0.20187438  -0.00820292  1
  Hf  Hf21  1  0.91127987  0.90785291  0.37004814  1
  Hf  Hf22  1  0.83420860  0.79759810  0.00672371  1
  Hf  Hf23  1  0.08052213  0.10250834  0.84854392  1
  Hf  Hf24  1  0.90847250  0.52811846  0.61718151  1
  Hf  Hf25  1  0.40024152  0.38716117  0.24978637  1
  Hf  Hf26  1  0.18866043  0.40213487  0.24936710  1
  Hf  Hf27  1  -0.00085629  0.20924538  0.25092727  1
  Hf  Hf28  1  0.50702856  0.50234187  0.85798610  1
  Hf  Hf29  1  -0.00776088  0.39168234  -0.01997546  1
  Hf  Hf30  1  0.39618296  0.39867740  -0.01487638  1
  Hf  Hf31  1  0.10326636  0.10007163  0.13213841  1
  Hf  Hf32  1  -0.00895273  -0.01516804  -0.00277945  1
  Hf  Hf33  1  0.19931515  0.59899960  0.50805399  1
  Hf  Hf34  1  0.89524476  0.08469741  0.13922756  1
  Hf  Hf35  1  0.39427890  0.38991313  0.50412982  1
  Hf  Hf36  1  0.89265476  0.91145526  0.62991407  1
  Hf  Hf37  1  0.09844948  0.31071328  0.12160936  1
  Hf  Hf38  1  0.08882917  0.30485475  0.38099757  1
  Hf  Hf39  1  0.00072105  0.80100840  0.50580157  1
  Zr  Zr40  1  0.78794163  0.80330971  0.75143630  1
  Zr  Zr41  1  0.40064144  0.60131094  0.50486919  1
  Zr  Zr42  1  0.20832879  -0.00757588  0.75003513  1
  Zr  Zr43  1  0.49863480  0.89707509  0.11222506  1
  Zr  Zr44  1  0.51041580  0.70062071  0.63263647  1
  Zr  Zr45  1  0.40160559  0.20499529  -0.01583595  1
  Zr  Zr46  1  0.30071223  0.70847395  0.11574908  1
  Zr  Zr47  1  0.90064158  0.11327595  0.37217759  1
  Zr  Zr48  1  0.09332165  0.69182562  0.62449320  1
  Zr  Zr49  1  0.69759630  0.48983340  0.13662658  1
  Zr  Zr50  1  0.08993616  0.51362650  0.37891588  1
  Zr  Zr51  1  0.11501432  0.91264437  0.38525198  1
  Zr  Zr52  1  0.12008383  0.50396746  0.88563396  1
  Zr  Zr53  1  0.71069839  0.69077101  0.11694292  1
  Zr  Zr54  1  0.80886420  0.80029016  0.24803241  1
  Zr  Zr55  1  0.39752799  0.18148649  0.50209851  1
  Zr  Zr56  1  0.30003613  0.10049477  0.10676705  1
  Zr  Zr57  1  0.10776306  0.90470946  0.62630529  1
  Zr  Zr58  1  0.71082093  0.91133008  0.11143098  1
  Zr  Zr59  1  -0.00104530  0.18779330  -0.00513018  1
  Zr  Zr60  1  0.49647258  0.49622728  0.63872300  1
  Zr  Zr61  1  0.18903868  -0.00015699  -0.01726078  1
  Zr  Zr62  1  0.69045807  0.89307107  0.61448574  1
  Zr  Zr63  1  0.38676037  0.18518032  0.24947719  1
  Zr  Zr64  1  0.42357237  0.00486841  0.76374198  1
  Zr  Zr65  1  0.88627710  0.30398449  0.12364590  1
  Zr  Zr66  1  0.70909171  0.50047621  0.86488452  1
  Zr  Zr67  1  0.40045239  0.80552473  0.25791137  1
  Zr  Zr68  1  -0.00651130  0.20158002  0.51933545  1
  Zr  Zr69  1  0.09891677  0.30836891  0.64771085  1
  Zr  Zr70  1  0.30022801  0.10005249  0.87532814  1
  Zr  Zr71  1  0.80099733  0.18218397  0.73057627  1
  Zr  Zr72  1  0.89476670  0.50521068  0.11598744  1
  Zr  Zr73  1  0.79032083  0.40309089  0.51183183  1
  Zr  Zr74  1  0.81304083  0.39736162  0.73673143  1
  Zr  Zr75  1  0.68722426  0.49547510  0.36366128  1
  Zr  Zr76  1  0.79993612  0.00508694  0.49260728  1
  Zr  Zr77  1  0.80449010  0.20410606  -0.00479790  1
  Zr  Zr78  1  -0.00299226  0.40404457  0.50718793  1
  Zr  Zr79  1  -0.00596301  0.61342565  -0.00251352  1
  Ta  Ta80  1  0.40315610  0.20891339  0.76365054  1
  Ta  Ta81  1  0.19412307  0.61372674  0.24912970  1
  Ta  Ta82  1  0.59191663  -0.00227032  0.25538751  1
  Ta  Ta83  1  0.59195361  0.79145164  -0.00453691  1
  Ta  Ta84  1  0.40701762  0.80809135  0.49266422  1
  Ta  Ta85  1  0.21473831  0.00609445  0.24944977  1
  Ta  Ta86  1  0.29658670  0.90469752  0.11412397  1
  Ta  Ta87  1  0.49081859  0.28631008  0.63055053  1
  Ta  Ta88  1  0.19095044  0.22423099  -0.02140358  1
  Ta  Ta89  1  0.59324595  0.80527756  0.76640298  1
  Ta  Ta90  1  0.59961270  0.39689219  -0.00596841  1
  Ta  Ta91  1  0.58967558  0.19885661  0.24904555  1
  Ta  Ta92  1  0.01742965  0.79871158  0.25609487  1
  Ta  Ta93  1  0.50532520  0.49012321  0.12829759  1
  Ta  Ta94  1  0.50108244  0.09239407  0.11841068  1
  Ta  Ta95  1  0.50034616  0.48777542  0.37166819  1
  Ta  Ta96  1  0.29366200  0.49449303  0.63560799  1
  Ta  Ta97  1  -0.01979457  0.41138066  0.25523543  1
  Ta  Ta98  1  0.40179669  -0.00670104  0.24755093  1
  Ta  Ta99  1  0.20175262  0.39369801  0.51262275  1
  Ta  Ta100  1  0.68777146  0.30489365  0.12874024  1
  Ta  Ta101  1  0.21756667  0.80326707  0.50048562  1
  Ta  Ta102  1  0.19007093  0.80413241  -0.01555573  1
  Ta  Ta103  1  0.60121836  0.58873371  0.00098110  1
  Ta  Ta104  1  0.70687546  0.69036544  0.37528252  1
  Ta  Ta105  1  0.88811984  0.49951278  0.38231025  1
  Ta  Ta106  1  0.91052635  0.90560614  0.86011421  1
  Ta  Ta107  1  0.28934492  0.68615120  0.88057528  1
  Ta  Ta108  1  0.50771671  0.29074054  0.37657391  1
  Ta  Ta109  1  0.79430334  0.20784856  0.51478932  1
  Ta  Ta110  1  0.69926511  0.29811399  0.37721627  1
  Ta  Ta111  1  0.19862696  0.60282639  0.74891376  1
  Ta  Ta112  1  0.19948296  0.19696161  0.52600704  1
  Ta  Ta113  1  0.80863051  0.59450053  0.25291905  1
  Ta  Ta114  1  0.10904299  0.70671070  0.37932319  1
  Ta  Ta115  1  0.39356500  0.80587128  -0.01812649  1
  Ta  Ta116  1  0.20832955  0.81038193  0.25524473  1
  Ta  Ta117  1  0.50109251  0.69474050  0.87174562  1
  Ta  Ta118  1  0.59056656  0.39111851  0.50547704  1
  Ta  Ta119  1  0.81865356  0.60973355  0.75043103  1
  Ti  Ti120  1  0.48238023  0.08700967  0.37338334  1
  Ti  Ti121  1  0.91267716  0.28764335  0.85628595  1
  Ti  Ti122  1  0.01186424  0.01386506  0.51419497  1
  Ti  Ti123  1  0.79811279  0.79474885  0.49511786  1
  Ti  Ti124  1  0.49755701  0.29625616  0.12431978  1
  Ti  Ti125  1  0.10076605  0.50348787  0.63564794  1
  Ti  Ti126  1  0.88822705  0.08892502  0.86233922  1
  Ti  Ti127  1  0.39256419  0.60199432  0.75159747  1
  Ti  Ti128  1  0.00154291  0.60380697  0.24298629  1
  Ti  Ti129  1  0.09998473  0.50478927  0.11258473  1
  Ti  Ti130  1  0.60617296  0.59127927  0.49989342  1
  Ti  Ti131  1  0.00141468  0.41640730  0.76286505  1
  Ti  Ti132  1  0.68978252  0.08499225  0.61678821  1
  Ti  Ti133  1  0.39271177  0.39274476  0.75769204  1
  Ti  Ti134  1  0.92239350  0.89211442  0.13889854  1
  Ti  Ti135  1  0.10877127  0.90420413  0.13033226  1
  Ti  Ti136  1  0.21561432  0.01248998  0.51553395  1
  Ti  Ti137  1  0.57881741  -0.00315259  0.48991045  1
  Ti  Ti138  1  0.70380529  0.09138688  0.88311305  1
  Ti  Ti139  1  0.20042947  0.79691433  0.76013921  1
  Ti  Ti140  1  0.50736515  0.69049073  0.12409821  1
  Ti  Ti141  1  0.30169576  0.70437095  0.62860413  1
  Ti  Ti142  1  0.79179139  0.00103031  0.26131890  1
  Ti  Ti143  1  0.60151611  0.79101591  0.49150640  1
  Ti  Ti144  1  0.29207321  0.29860064  0.11841305  1
  Ti  Ti145  1  0.09419836  0.70634138  0.87454849  1
  Ti  Ti146  1  0.90178271  0.69621098  0.87497739  1
  Ti  Ti147  1  0.69350399  0.89512206  0.37749633  1
  Ti  Ti148  1  0.29789722  0.70374715  0.37645593  1
  Ti  Ti149  1  0.20980963  0.40361052  0.75820110  1
  Ti  Ti150  1  0.30872808  0.89703022  0.62207861  1
  Ti  Ti151  1  0.59330163  0.38504445  0.74900449  1
  Ti  Ti152  1  0.31397470  0.91625900  0.38464380  1
  Ti  Ti153  1  0.68819989  0.29627683  0.62664058  1
  Ti  Ti154  1  0.79137614  0.21203828  0.25413723  1
  Ti  Ti155  1  0.20745741  0.20639828  0.74834513  1
  Ti  Ti156  1  0.31841976  0.10348015  0.63853148  1
  Ti  Ti157  1  0.70929915  0.69635465  0.61943759  1
  Ti  Ti158  1  0.61623409  -0.00756712  0.75887590  1
  Ti  Ti159  1  0.59652347  0.19661813  0.50704261  1
  Mo  Mo160  1  0.30820735  0.50771712  0.86339766  1
  Mo  Mo161  1  0.90112262  0.50392294  0.87362670  1
  Mo  Mo162  1  0.80031186  0.39171780  0.25860347  1
  Mo  Mo163  1  0.88810628  0.70882089  0.61728493  1
  Mo  Mo164  1  0.20255820  0.60343792  0.00066986  1
  Mo  Mo165  1  0.89852632  0.09820962  0.61973975  1
  Mo  Mo166  1  0.50573476  0.30382221  0.86426444  1
  Mo  Mo167  1  0.39309639  -0.00570058  0.50700085  1
  Mo  Mo168  1  0.00952820  0.80896082  -0.00603385  1
  Mo  Mo169  1  0.29200412  0.31121200  0.86673669  1
  Mo  Mo170  1  0.89787653  0.30585552  0.63174895  1
  Mo  Mo171  1  0.19909819  0.20672947  0.24449950  1
  Mo  Mo172  1  0.40592847  -0.00429657  -0.01085499  1
  Mo  Mo173  1  0.00929462  -0.00760752  0.24868053  1
  Mo  Mo174  1  0.59104642  0.38498737  0.25116468  1
  Mo  Mo175  1  0.81074065  0.00493197  -0.00029526  1
  Mo  Mo176  1  0.00076094  0.60444749  0.49555276  1
  Mo  Mo177  1  0.60882760  0.61831758  0.75065311  1
  Mo  Mo178  1  0.80128799  0.59075211  -0.00389339  1
  Mo  Mo179  1  0.78863626  -0.00001662  0.75045198  1
  Mo  Mo180  1  0.30301447  0.30128006  0.63554231  1
  Mo  Mo181  1  0.09274174  0.89472953  0.85839497  1
  Mo  Mo182  1  0.79121155  0.60782772  0.49633200  1
  Mo  Mo183  1  0.00104194  0.59927781  0.76278455  1
  Mo  Mo184  1  -0.01206477  0.00720123  0.73767837  1
  Mo  Mo185  1  0.88540917  0.30777551  0.37422071  1
  Mo  Mo186  1  0.79041098  0.40482013  -0.00898534  1
  Mo  Mo187  1  0.50883011  0.09786752  0.62402966  1
  Mo  Mo188  1  0.50681568  0.90091724  0.37912287  1
  Mo  Mo189  1  0.20103407  0.40114081  -0.00191729  1
  Mo  Mo190  1  0.59427448  0.59801887  0.24658590  1
  Mo  Mo191  1  -0.00775168  0.20541127  0.73494125  1
  Mo  Mo192  1  0.10814883  0.10121065  0.63811535  1
  Mo  Mo193  1  0.29078626  0.08851386  0.37904920  1
  Mo  Mo194  1  0.29647060  0.89219962  0.87816558  1
  Mo  Mo195  1  0.50721369  0.89984760  0.88842425  1
  Mo  Mo196  1  0.10004966  0.29938893  0.85443213  1
  Mo  Mo197  1  0.59899710  0.00418195  -0.00188880  1
  Mo  Mo198  1  0.90850929  0.70151471  0.13799394  1
  Mo  Mo199  1  0.51419294  0.09311780  0.88299747  1
