# generated using pymatgen
data_HfZrTaTiMo
_symmetry_space_group_name_H-M   'P 1'
_cell_length_a   15.20465988
_cell_length_b   15.20792094
_cell_length_c   16.85075691
_cell_angle_alpha   89.94695990
_cell_angle_beta   89.94771244
_cell_angle_gamma   90.02782257
_symmetry_Int_Tables_number   1
_chemical_formula_structural   HfZrTaTiMo
_chemical_formula_sum   'Hf40 Zr40 Ta40 Ti40 Mo40'
_cell_volume   3896.41809132
_cell_formula_units_Z   40
loop_
 _symmetry_equiv_pos_site_id
 _symmetry_equiv_pos_as_xyz
  1  'x, y, z'
loop_
 _atom_site_type_symbol
 _atom_site_label
 _atom_site_symmetry_multiplicity
 _atom_site_fract_x
 _atom_site_fract_y
 _atom_site_fract_z
 _atom_site_occupancy
  Hf  Hf0  1  0.60139540  0.59878959  0.24796860  1
  Hf  Hf1  1  0.80154951  0.01000986  0.00123244  1
  Hf  Hf2  1  0.00444628  0.60273764  0.75261611  1
  Hf  Hf3  1  0.80859638  0.59778272  0.49151769  1
  Hf  Hf4  1  0.90479554  0.49108052  0.12708397  1
  Hf  Hf5  1  0.19979133  0.80241106  0.49380718  1
  Hf  Hf6  1  0.00704320  0.59855283  0.00176591  1
  Hf  Hf7  1  0.69867148  0.89968336  0.87792527  1
  Hf  Hf8  1  0.69755498  0.48907463  0.87020527  1
  Hf  Hf9  1  0.70651384  0.09105017  0.13985266  1
  Hf  Hf10  1  0.30769138  0.50298564  0.14717692  1
  Hf  Hf11  1  0.09355634  0.29904107  0.87959842  1
  Hf  Hf12  1  -0.01075924  0.19389982  0.00724707  1
  Hf  Hf13  1  0.50114933  0.09328921  0.87697719  1
  Hf  Hf14  1  0.48481510  0.49032259  0.87412238  1
  Hf  Hf15  1  -0.00170858  -0.02530116  0.24669675  1
  Hf  Hf16  1  0.70413423  0.28150592  0.63834833  1
  Hf  Hf17  1  0.50583193  0.28919098  0.86616197  1
  Hf  Hf18  1  0.30100235  0.89888367  0.86059871  1
  Hf  Hf19  1  0.30931185  0.90932233  0.60784794  1
  Hf  Hf20  1  0.90443390  0.70343423  0.12915214  1
  Hf  Hf21  1  0.39987094  0.81868713  0.26701488  1
  Hf  Hf22  1  0.40693633  0.79536379  0.73500268  1
  Hf  Hf23  1  0.11703847  0.50258910  0.87541557  1
  Hf  Hf24  1  0.80406280  -0.01062367  0.48708691  1
  Hf  Hf25  1  0.20216519  0.60807449  0.00852795  1
  Hf  Hf26  1  0.01652296  0.39711272  0.74059416  1
  Hf  Hf27  1  0.29489720  0.11441430  0.85921897  1
  Hf  Hf28  1  0.21321710  0.40992566  0.73488885  1
  Hf  Hf29  1  0.69675359  0.09349543  0.35997934  1
  Hf  Hf30  1  0.39340545  -0.00398095  0.00146648  1
  Hf  Hf31  1  0.20429285  0.39482841  0.48699909  1
  Hf  Hf32  1  -0.00562423  0.20017693  0.75063967  1
  Hf  Hf33  1  0.20470167  0.41029381  0.01407590  1
  Hf  Hf34  1  0.79681759  -0.00129251  0.75184792  1
  Hf  Hf35  1  0.59263261  0.79962228  0.01524816  1
  Hf  Hf36  1  0.00017238  0.79632463  0.73548249  1
  Hf  Hf37  1  0.19657184  0.82476527  0.27245977  1
  Hf  Hf38  1  0.59097509  0.60350466  0.74671841  1
  Hf  Hf39  1  0.67852140  0.30240225  0.37279814  1
  Zr  Zr40  1  0.30751667  0.32394924  0.87601351  1
  Zr  Zr41  1  0.49598951  0.30899555  0.12068986  1
  Zr  Zr42  1  0.00781989  0.39923808  0.49057507  1
  Zr  Zr43  1  0.91128797  0.29564155  0.61415338  1
  Zr  Zr44  1  0.19523563  0.20483531  0.00545599  1
  Zr  Zr45  1  -0.00632977  0.79749116  0.50393392  1
  Zr  Zr46  1  0.59807990  0.21457590  0.23839716  1
  Zr  Zr47  1  0.38702936  0.59667008  0.74231527  1
  Zr  Zr48  1  0.39596622  0.60906786  0.48990686  1
  Zr  Zr49  1  0.48717367  0.91958556  0.40185801  1
  Zr  Zr50  1  0.59513663  0.38649325  0.51710577  1
  Zr  Zr51  1  0.90538562  0.50350501  0.62689923  1
  Zr  Zr52  1  0.29799484  0.29982126  0.13979419  1
  Zr  Zr53  1  0.61077189  0.19268378  0.00752121  1
  Zr  Zr54  1  0.89962529  0.90082733  0.62321153  1
  Zr  Zr55  1  0.78723491  0.19131963  0.49115698  1
  Zr  Zr56  1  0.79768663  0.40079191  0.49536364  1
  Zr  Zr57  1  0.80008617  0.60453051  0.76596491  1
  Zr  Zr58  1  0.10181136  0.90181159  0.86908727  1
  Zr  Zr59  1  0.41143452  0.01058584  0.73599667  1
  Zr  Zr60  1  0.09969498  0.70739912  0.14638812  1
  Zr  Zr61  1  0.90615510  0.89906194  0.87468650  1
  Zr  Zr62  1  0.89149047  0.10368574  0.61986654  1
  Zr  Zr63  1  0.79510893  0.39845145  0.24962184  1
  Zr  Zr64  1  0.68953497  0.88259465  0.37695664  1
  Zr  Zr65  1  0.10555709  0.09456655  0.14257535  1
  Zr  Zr66  1  0.20007564  0.01078314  -0.00116791  1
  Zr  Zr67  1  0.90512047  0.28665574  0.37458531  1
  Zr  Zr68  1  0.50230536  0.89135456  0.87607924  1
  Zr  Zr69  1  0.79952218  0.82281504  0.23668346  1
  Zr  Zr70  1  0.60563969  0.39464611  -0.00392930  1
  Zr  Zr71  1  0.80152577  0.59373853  -0.00814009  1
  Zr  Zr72  1  0.39294173  0.59469508  -0.00404456  1
  Zr  Zr73  1  0.70148544  0.87979782  0.61913887  1
  Zr  Zr74  1  0.50725099  0.48661294  0.38462634  1
  Zr  Zr75  1  0.51971605  0.71417615  0.38672953  1
  Zr  Zr76  1  0.58523972  -0.01598426  0.24323761  1
  Zr  Zr77  1  0.30565290  0.71276630  0.14055427  1
  Zr  Zr78  1  0.19593588  0.80038728  0.72649644  1
  Zr  Zr79  1  0.19352535  0.80935631  0.00624100  1
  Ta  Ta80  1  0.49760164  0.49969962  0.61665793  1
  Ta  Ta81  1  0.29496756  0.12194929  0.62312395  1
  Ta  Ta82  1  0.88186547  0.69979348  0.62740100  1
  Ta  Ta83  1  0.18319594  0.01604596  0.50845991  1
  Ta  Ta84  1  0.89181833  0.70827279  0.36325718  1
  Ta  Ta85  1  0.69682344  0.49390128  0.12191348  1
  Ta  Ta86  1  -0.00713642  0.59403343  0.26084754  1
  Ta  Ta87  1  0.50899576  0.71124694  0.61021124  1
  Ta  Ta88  1  0.19104176  0.60231331  0.47962182  1
  Ta  Ta89  1  0.69599984  0.10164379  0.86619924  1
  Ta  Ta90  1  0.40384197  0.60862344  0.26893912  1
  Ta  Ta91  1  0.09146764  0.70593784  0.36821487  1
  Ta  Ta92  1  0.19348080  0.01125238  0.72956424  1
  Ta  Ta93  1  0.19433304  0.60791133  0.73951706  1
  Ta  Ta94  1  0.60821570  0.79826928  0.74611273  1
  Ta  Ta95  1  0.70087990  0.50683338  0.37233949  1
  Ta  Ta96  1  0.09118688  0.30113274  0.14651653  1
  Ta  Ta97  1  0.49980085  0.50322674  0.12652399  1
  Ta  Ta98  1  0.20747669  0.60606382  0.27346840  1
  Ta  Ta99  1  0.00821026  0.00418076  0.73933525  1
  Ta  Ta100  1  0.02420807  0.18438532  0.49122513  1
  Ta  Ta101  1  0.69277930  0.70731289  0.88382611  1
  Ta  Ta102  1  0.61775188  0.60305658  0.50875638  1
  Ta  Ta103  1  0.68096638  0.08030539  0.62592405  1
  Ta  Ta104  1  0.69974483  0.69248764  0.11876916  1
  Ta  Ta105  1  0.80263979  0.80621712  0.01213572  1
  Ta  Ta106  1  0.91194860  0.47919931  0.87879321  1
  Ta  Ta107  1  0.20019526  0.19739449  0.27172121  1
  Ta  Ta108  1  0.59554341  0.59989938  0.00045644  1
  Ta  Ta109  1  0.30393601  0.09959099  0.14270898  1
  Ta  Ta110  1  0.81295757  0.38609920  0.75554325  1
  Ta  Ta111  1  0.48753032  0.09686567  0.12622751  1
  Ta  Ta112  1  0.39588812  0.20066348  0.00280226  1
  Ta  Ta113  1  0.00166637  -0.01344337  0.01466198  1
  Ta  Ta114  1  0.31267373  0.30451188  0.61067666  1
  Ta  Ta115  1  0.10502932  0.49792596  0.15100142  1
  Ta  Ta116  1  0.09733333  0.49661698  0.36331735  1
  Ta  Ta117  1  0.80865326  0.38463637  0.00042508  1
  Ta  Ta118  1  0.10965296  0.51168679  0.61173071  1
  Ta  Ta119  1  0.70436389  0.49858483  0.63618186  1
  Ti  Ti120  1  0.71176656  0.28597345  0.86112220  1
  Ti  Ti121  1  0.39988108  0.03131744  0.50929597  1
  Ti  Ti122  1  0.90298154  0.09572018  0.13906433  1
  Ti  Ti123  1  0.79703178  0.60256836  0.25243907  1
  Ti  Ti124  1  0.58570521  0.18132684  0.73969060  1
  Ti  Ti125  1  0.90060816  0.70792319  0.88235862  1
  Ti  Ti126  1  0.60060560  0.79334849  0.23118713  1
  Ti  Ti127  1  0.78949147  0.78288840  0.49128160  1
  Ti  Ti128  1  0.20743104  0.19982266  0.48270963  1
  Ti  Ti129  1  0.09135190  0.09478322  0.87245680  1
  Ti  Ti130  1  0.91235186  0.08446290  0.36566465  1
  Ti  Ti131  1  0.41808792  0.39940196  0.25935477  1
  Ti  Ti132  1  -0.00381898  0.38979025  0.25875826  1
  Ti  Ti133  1  0.20491100  0.39490034  0.26685293  1
  Ti  Ti134  1  0.49591158  0.70013439  0.87590309  1
  Ti  Ti135  1  0.48058086  0.89763161  0.12531514  1
  Ti  Ti136  1  0.40839881  0.39625104  0.73398677  1
  Ti  Ti137  1  0.30709540  0.49833916  0.37384474  1
  Ti  Ti138  1  0.60132028  0.39469232  0.74030069  1
  Ti  Ti139  1  0.28728833  0.91553586  0.13648021  1
  Ti  Ti140  1  0.00322878  0.39097206  0.01158918  1
  Ti  Ti141  1  0.19469407  0.21276883  0.73923320  1
  Ti  Ti142  1  0.40051514  0.19601606  0.25690298  1
  Ti  Ti143  1  0.30236121  0.50306698  0.60548039  1
  Ti  Ti144  1  0.49191064  0.69378039  0.12807507  1
  Ti  Ti145  1  0.58060891  0.18871728  0.50839217  1
  Ti  Ti146  1  0.29350999  0.69448291  0.61100987  1
  Ti  Ti147  1  0.80048534  0.20502244  0.00735929  1
  Ti  Ti148  1  0.81099479  0.20114005  0.24503547  1
  Ti  Ti149  1  0.08779490  0.91725399  0.38823912  1
  Ti  Ti150  1  0.30274954  0.08486353  0.37315330  1
  Ti  Ti151  1  0.32101334  0.29893565  0.37815221  1
  Ti  Ti152  1  0.09800351  0.70873855  0.87646495  1
  Ti  Ti153  1  0.29264352  0.69748085  0.86869605  1
  Ti  Ti154  1  0.60049632  -0.00344746  0.01446312  1
  Ti  Ti155  1  0.49776380  0.11396229  0.37496900  1
  Ti  Ti156  1  0.51605320  0.91745380  0.60839639  1
  Ti  Ti157  1  0.89585775  0.10748823  0.87258730  1
  Ti  Ti158  1  0.39037710  0.79325016  -0.00183419  1
  Ti  Ti159  1  -0.00050891  0.60052786  0.48560499  1
  Mo  Mo160  1  0.40006023  0.40026164  0.50333015  1
  Mo  Mo161  1  0.90334965  0.29219260  0.13024876  1
  Mo  Mo162  1  -0.00277784  0.79646170  0.26042855  1
  Mo  Mo163  1  0.49297779  0.10648615  0.62073410  1
  Mo  Mo164  1  0.29612698  0.50919554  0.86748015  1
  Mo  Mo165  1  0.00096661  0.00328097  0.49788760  1
  Mo  Mo166  1  0.89884237  0.89700917  0.38073042  1
  Mo  Mo167  1  0.71354906  0.30342005  0.12406555  1
  Mo  Mo168  1  0.40085906  0.80724186  0.51247010  1
  Mo  Mo169  1  0.10648860  0.29747966  0.36213173  1
  Mo  Mo170  1  0.09301529  0.69006470  0.61181695  1
  Mo  Mo171  1  0.60059479  0.40954852  0.24408901  1
  Mo  Mo172  1  0.60501485  0.01244450  0.49569833  1
  Mo  Mo173  1  0.09864803  0.11353010  0.62458250  1
  Mo  Mo174  1  0.60465305  0.79782343  0.50595437  1
  Mo  Mo175  1  -0.00408617  0.79600341  0.00051615  1
  Mo  Mo176  1  0.79767451  0.78812395  0.75918434  1
  Mo  Mo177  1  -0.00166914  0.19409340  0.25075658  1
  Mo  Mo178  1  0.30192257  0.70757974  0.37745962  1
  Mo  Mo179  1  0.90129078  0.90364203  0.11576447  1
  Mo  Mo180  1  0.80178173  0.00561658  0.25536942  1
  Mo  Mo181  1  0.70215151  0.68817905  0.62822562  1
  Mo  Mo182  1  0.90079832  0.50322282  0.36663357  1
  Mo  Mo183  1  0.39745584  0.39710053  0.00232647  1
  Mo  Mo184  1  0.79294219  0.19508073  0.75256916  1
  Mo  Mo185  1  0.12135428  0.29018952  0.61640277  1
  Mo  Mo186  1  0.10051410  0.90781251  0.61804188  1
  Mo  Mo187  1  0.39289619  0.20982340  0.74480163  1
  Mo  Mo188  1  0.69503920  0.89889042  0.11652301  1
  Mo  Mo189  1  0.49572775  0.29247916  0.37477858  1
  Mo  Mo190  1  0.39198738  0.00539191  0.25464028  1
  Mo  Mo191  1  0.29553458  0.91425527  0.40302720  1
  Mo  Mo192  1  0.49662821  0.29236632  0.63637598  1
  Mo  Mo193  1  0.89830284  0.29717278  0.87880374  1
  Mo  Mo194  1  0.70327682  0.69280771  0.36724402  1
  Mo  Mo195  1  0.10047077  0.09789710  0.36700839  1
  Mo  Mo196  1  0.09990075  0.89516724  0.12668047  1
  Mo  Mo197  1  0.59950444  -0.00738616  0.74789718  1
  Mo  Mo198  1  0.20595254  0.00135739  0.26448618  1
  Mo  Mo199  1  0.39705222  0.20766657  0.49173469  1
