# generated using pymatgen
data_HfZrTaTiMo
_symmetry_space_group_name_H-M   'P 1'
_cell_length_a   15.17234943
_cell_length_b   15.18867663
_cell_length_c   16.79687417
_cell_angle_alpha   90.01266397
_cell_angle_beta   89.95922545
_cell_angle_gamma   89.86632855
_symmetry_Int_Tables_number   1
_chemical_formula_structural   HfZrTaTiMo
_chemical_formula_sum   'Hf40 Zr40 Ta40 Ti40 Mo40'
_cell_volume   3870.79292329
_cell_formula_units_Z   40
loop_
 _symmetry_equiv_pos_site_id
 _symmetry_equiv_pos_as_xyz
  1  'x, y, z'
loop_
 _atom_site_type_symbol
 _atom_site_label
 _atom_site_symmetry_multiplicity
 _atom_site_fract_x
 _atom_site_fract_y
 _atom_site_fract_z
 _atom_site_occupancy
  Hf  Hf0  1  0.71803363  0.70279310  0.88091335  1
  Hf  Hf1  1  0.48663895  0.29605569  0.62273720  1
  Hf  Hf2  1  0.49555309  0.49479123  0.61943985  1
  Hf  Hf3  1  0.30054911  0.91710122  0.86588599  1
  Hf  Hf4  1  0.89475801  0.29683487  0.12038402  1
  Hf  Hf5  1  0.11430993  0.09815214  0.87856152  1
  Hf  Hf6  1  0.60252014  0.38832468  0.49641367  1
  Hf  Hf7  1  0.39423647  0.60507552  0.74973464  1
  Hf  Hf8  1  0.77930643  0.19487258  0.48016105  1
  Hf  Hf9  1  -0.00873848  0.19953287  0.75507013  1
  Hf  Hf10  1  0.78936993  0.41492604  0.01425153  1
  Hf  Hf11  1  0.89894471  0.88840801  0.88628573  1
  Hf  Hf12  1  0.39197518  0.60444198  0.28050526  1
  Hf  Hf13  1  0.61754148  0.79645559  0.74355945  1
  Hf  Hf14  1  0.80541861  0.60288315  0.72969120  1
  Hf  Hf15  1  0.89229517  0.30004623  0.88688032  1
  Hf  Hf16  1  0.48620695  0.09090037  0.35760200  1
  Hf  Hf17  1  0.20689361  0.60471674  0.48942244  1
  Hf  Hf18  1  0.50639527  0.10615460  0.63054386  1
  Hf  Hf19  1  0.70094316  0.68357856  0.38358425  1
  Hf  Hf20  1  0.81755849  0.37976218  0.50133221  1
  Hf  Hf21  1  0.61161581  0.59257404  0.01159949  1
  Hf  Hf22  1  0.70754873  0.90986560  0.62222763  1
  Hf  Hf23  1  0.59544387  0.80326455  0.49082820  1
  Hf  Hf24  1  0.39227257  0.80652285  0.48288685  1
  Hf  Hf25  1  0.80759953  0.00007373  0.25152006  1
  Hf  Hf26  1  0.20782692  0.58563494  -0.00185491  1
  Hf  Hf27  1  0.28488771  0.31200664  0.61442382  1
  Hf  Hf28  1  0.91537050  0.48398030  0.61946952  1
  Hf  Hf29  1  0.00679446  -0.00831370  0.75460796  1
  Hf  Hf30  1  0.69077451  0.29599973  0.88352631  1
  Hf  Hf31  1  0.91476467  0.90070944  0.62148528  1
  Hf  Hf32  1  0.28787585  0.71442890  0.62540314  1
  Hf  Hf33  1  0.38321883  0.40121545  0.75679565  1
  Hf  Hf34  1  0.01820534  0.77438142  0.74734506  1
  Hf  Hf35  1  0.28446911  0.71358578  0.86279173  1
  Hf  Hf36  1  0.80535956  0.80225608  0.26629878  1
  Hf  Hf37  1  0.70299139  0.49965692  0.86677995  1
  Hf  Hf38  1  0.79859544  0.21260395  0.25487629  1
  Hf  Hf39  1  0.67950987  0.29286421  0.12402662  1
  Zr  Zr40  1  0.50080557  0.12305895  0.11833143  1
  Zr  Zr41  1  0.48200502  0.50083387  0.13037377  1
  Zr  Zr42  1  0.49078983  0.29671335  0.37623234  1
  Zr  Zr43  1  0.41308768  0.81550563  0.26890920  1
  Zr  Zr44  1  0.40095790  0.61315110  -0.01160657  1
  Zr  Zr45  1  0.69402180  0.27271779  0.62802472  1
  Zr  Zr46  1  0.11202646  0.48626158  0.14380752  1
  Zr  Zr47  1  0.10456727  0.49705912  0.87182694  1
  Zr  Zr48  1  0.90017407  0.69984461  0.13359643  1
  Zr  Zr49  1  0.37773522  0.41752946  -0.00771879  1
  Zr  Zr50  1  0.10206990  0.69660259  0.37040025  1
  Zr  Zr51  1  0.49839695  0.70159423  0.61961814  1
  Zr  Zr52  1  0.17774910  0.19922156  0.50641876  1
  Zr  Zr53  1  0.21336842  0.80437563  0.26018484  1
  Zr  Zr54  1  0.80752157  0.80187623  0.49190610  1
  Zr  Zr55  1  0.11108656  0.88635259  0.87926072  1
  Zr  Zr56  1  0.30568175  0.68708638  0.13308227  1
  Zr  Zr57  1  0.29232264  0.11838361  0.36976849  1
  Zr  Zr58  1  0.88941781  0.11265026  0.62326252  1
  Zr  Zr59  1  0.59652370  0.59313260  0.24896143  1
  Zr  Zr60  1  0.30370185  0.91412516  0.64483612  1
  Zr  Zr61  1  0.80685250  0.00130664  0.48128185  1
  Zr  Zr62  1  0.89847686  0.50070921  0.86964922  1
  Zr  Zr63  1  0.50374164  0.72080519  0.12219256  1
  Zr  Zr64  1  0.50450224  0.90183931  0.87030152  1
  Zr  Zr65  1  0.11092677  0.69355725  0.13897513  1
  Zr  Zr66  1  0.61094737  0.00511510  0.00370539  1
  Zr  Zr67  1  0.51129093  0.70651936  0.86944657  1
  Zr  Zr68  1  0.00518063  0.81255893  0.25396062  1
  Zr  Zr69  1  0.69979370  0.48368332  0.37047688  1
  Zr  Zr70  1  0.09583776  0.09264484  0.36565591  1
  Zr  Zr71  1  0.81391508  0.79856394  0.74207365  1
  Zr  Zr72  1  0.60277522  0.80332146  0.26134674  1
  Zr  Zr73  1  0.60245943  0.01818013  0.49755340  1
  Zr  Zr74  1  0.50616933  0.49999585  0.86766881  1
  Zr  Zr75  1  0.00640966  0.00198875  0.00967518  1
  Zr  Zr76  1  0.00082214  0.58969547  0.01124498  1
  Zr  Zr77  1  0.90181985  0.48808745  0.36880777  1
  Zr  Zr78  1  0.49819741  0.90458422  0.63901507  1
  Zr  Zr79  1  0.01728576  0.00963480  0.50660214  1
  Ta  Ta80  1  0.61097957  0.59687403  0.73276293  1
  Ta  Ta81  1  0.90265745  0.69022902  0.38098217  1
  Ta  Ta82  1  0.01463548  0.79817514  0.49649752  1
  Ta  Ta83  1  0.89521942  0.09621123  0.88200355  1
  Ta  Ta84  1  0.00246395  0.39014135  0.74826342  1
  Ta  Ta85  1  0.70294488  0.89115438  0.12548790  1
  Ta  Ta86  1  0.61748882  0.01306937  0.76130106  1
  Ta  Ta87  1  0.00173479  0.39621221  0.00967752  1
  Ta  Ta88  1  0.11581517  0.88653936  0.63089298  1
  Ta  Ta89  1  0.48648217  0.29810909  0.88094425  1
  Ta  Ta90  1  0.50108311  0.10852191  0.88866267  1
  Ta  Ta91  1  0.67961848  0.10890711  0.35108610  1
  Ta  Ta92  1  0.00387610  0.00516508  0.22938189  1
  Ta  Ta93  1  0.09327171  0.29726475  0.88494488  1
  Ta  Ta94  1  0.40049465  0.00407333  0.00565622  1
  Ta  Ta95  1  0.89742824  0.89756294  0.11723297  1
  Ta  Ta96  1  0.80250657  0.38634938  0.74120374  1
  Ta  Ta97  1  0.38470356  0.21955910  0.23858893  1
  Ta  Ta98  1  0.39801995  0.00690688  0.50112014  1
  Ta  Ta99  1  0.27900504  0.30483977  0.88453356  1
  Ta  Ta100  1  0.18684209  0.60726381  0.73999872  1
  Ta  Ta101  1  0.30006042  0.92643461  0.37181046  1
  Ta  Ta102  1  0.71053945  0.69689811  0.13055621  1
  Ta  Ta103  1  0.30405417  0.11094545  0.62954811  1
  Ta  Ta104  1  0.38646331  0.20286570  0.75988290  1
  Ta  Ta105  1  0.30889177  0.89935068  0.11945791  1
  Ta  Ta106  1  0.58468834  0.39557211  0.00814329  1
  Ta  Ta107  1  0.28835346  0.11051727  0.10857049  1
  Ta  Ta108  1  0.58917128  0.19785163  0.76536360  1
  Ta  Ta109  1  0.41263870  0.59735772  0.48255260  1
  Ta  Ta110  1  0.11229568  0.89907430  0.11573814  1
  Ta  Ta111  1  0.59938589  0.39383487  0.74589154  1
  Ta  Ta112  1  0.79979595  0.59038502  0.51007851  1
  Ta  Ta113  1  -0.00133757  0.59255360  0.25663225  1
  Ta  Ta114  1  0.29618234  0.31135013  0.11328624  1
  Ta  Ta115  1  0.21272386  0.38115420  0.25963634  1
  Ta  Ta116  1  0.00532051  0.78954236  0.00463591  1
  Ta  Ta117  1  0.10483791  0.48476632  0.36983969  1
  Ta  Ta118  1  0.19475563  0.21169106  0.74815028  1
  Ta  Ta119  1  -0.00355409  0.19448398  0.00704544  1
  Ti  Ti120  1  0.70347543  0.09808702  0.13717844  1
  Ti  Ti121  1  0.20835392  -0.00011897  0.50549027  1
  Ti  Ti122  1  0.10666005  0.28953228  0.11730275  1
  Ti  Ti123  1  0.59317385  0.38674747  0.24914951  1
  Ti  Ti124  1  0.69030760  0.91349718  0.37113514  1
  Ti  Ti125  1  0.10965010  0.09165597  0.63947321  1
  Ti  Ti126  1  0.91469446  0.69197186  0.87919159  1
  Ti  Ti127  1  0.61162187  0.80292337  0.00352911  1
  Ti  Ti128  1  0.29959857  0.50380071  0.61131102  1
  Ti  Ti129  1  0.20699233  0.79513922  0.00451403  1
  Ti  Ti130  1  0.40338418  0.81041987  -0.00241568  1
  Ti  Ti131  1  -0.00303772  0.38085629  0.24891657  1
  Ti  Ti132  1  0.80335448  0.00236866  0.75663358  1
  Ti  Ti133  1  0.00597218  0.58855186  0.73815527  1
  Ti  Ti134  1  -0.00055729  0.19206929  0.23455776  1
  Ti  Ti135  1  0.09188738  0.29457059  0.37642963  1
  Ti  Ti136  1  0.70911637  0.90233353  0.88091313  1
  Ti  Ti137  1  0.30373688  0.47961526  0.38834700  1
  Ti  Ti138  1  0.07612449  0.30207698  0.61621690  1
  Ti  Ti139  1  0.00459633  0.58950223  0.49525878  1
  Ti  Ti140  1  0.39710611  0.40413046  0.25513631  1
  Ti  Ti141  1  0.10956032  0.49514973  0.61279773  1
  Ti  Ti142  1  0.19029280  0.40510647  0.74484703  1
  Ti  Ti143  1  0.39549303  0.20039114  0.49741953  1
  Ti  Ti144  1  0.89008048  0.50023463  0.14503270  1
  Ti  Ti145  1  0.78930159  0.18493090  0.00478358  1
  Ti  Ti146  1  0.78577379  0.18833344  0.76100908  1
  Ti  Ti147  1  0.80574563  0.60702362  0.00837900  1
  Ti  Ti148  1  0.91311361  0.69470279  0.60838444  1
  Ti  Ti149  1  0.90687779  0.11040514  0.37005658  1
  Ti  Ti150  1  0.80273989  -0.00250779  0.00749402  1
  Ti  Ti151  1  0.19945366  0.00320267  0.23569964  1
  Ti  Ti152  1  0.40805946  0.02136192  0.76168490  1
  Ti  Ti153  1  0.39301370  0.00802122  0.22836515  1
  Ti  Ti154  1  0.19826008  0.81448796  0.48671729  1
  Ti  Ti155  1  0.30318141  0.11511897  0.89379252  1
  Ti  Ti156  1  0.19316083  0.19946960  0.24113482  1
  Ti  Ti157  1  0.70087263  0.48957889  0.62175919  1
  Ti  Ti158  1  0.58845599  -0.00683322  0.23492463  1
  Ti  Ti159  1  0.92802287  0.91002083  0.37737661  1
  Mo  Mo160  1  0.59803067  0.20585739  -0.00849011  1
  Mo  Mo161  1  0.60792190  0.59255250  0.51133655  1
  Mo  Mo162  1  0.09419848  0.69356859  0.88080977  1
  Mo  Mo163  1  0.29275106  0.49725091  0.14224992  1
  Mo  Mo164  1  0.58834159  0.19252686  0.49167198  1
  Mo  Mo165  1  0.20569988  0.58202703  0.27380786  1
  Mo  Mo166  1  0.39575912  0.21092719  -0.00443410  1
  Mo  Mo167  1  0.50136421  0.49368752  0.38101168  1
  Mo  Mo168  1  0.50118450  0.90782164  0.11560357  1
  Mo  Mo169  1  0.49936533  0.91482511  0.37544385  1
  Mo  Mo170  1  -0.02182455  0.21526975  0.49233159  1
  Mo  Mo171  1  0.79369751  0.40350207  0.23693383  1
  Mo  Mo172  1  0.69533779  0.29812842  0.36289220  1
  Mo  Mo173  1  0.70840943  0.09602480  0.88030538  1
  Mo  Mo174  1  0.48426019  0.30895367  0.12562317  1
  Mo  Mo175  1  0.90749683  0.29542886  0.36288939  1
  Mo  Mo176  1  0.89591384  0.29394677  0.63132985  1
  Mo  Mo177  1  0.69943409  0.09599086  0.63377626  1
  Mo  Mo178  1  0.50842904  0.69777935  0.38876939  1
  Mo  Mo179  1  0.28811944  0.50329550  0.85920033  1
  Mo  Mo180  1  0.21018819  0.02194421  0.75095645  1
  Mo  Mo181  1  0.80002063  0.80029074  0.00479653  1
  Mo  Mo182  1  0.70354119  0.69087409  0.60856565  1
  Mo  Mo183  1  0.10068704  0.10239744  0.12713856  1
  Mo  Mo184  1  0.01126619  0.39082640  0.49454021  1
  Mo  Mo185  1  0.09728943  0.69291851  0.60945099  1
  Mo  Mo186  1  0.19241821  0.20245787  0.00295706  1
  Mo  Mo187  1  0.70028328  0.49761085  0.13682080  1
  Mo  Mo188  1  0.80274166  0.60150252  0.25297483  1
  Mo  Mo189  1  0.28699289  0.30063252  0.38154534  1
  Mo  Mo190  1  0.19823791  0.80169661  0.74804592  1
  Mo  Mo191  1  0.39283486  0.40153105  0.49859142  1
  Mo  Mo192  1  0.18672909  0.39921691  0.00254888  1
  Mo  Mo193  1  0.10967240  0.91197286  0.37480611  1
  Mo  Mo194  1  0.89154242  0.09952532  0.12142601  1
  Mo  Mo195  1  0.40512967  0.80547711  0.75356238  1
  Mo  Mo196  1  0.19098941  0.40312045  0.49722571  1
  Mo  Mo197  1  0.58733322  0.19938832  0.24554139  1
  Mo  Mo198  1  0.21047608  -0.00580305  0.00823583  1
  Mo  Mo199  1  0.30027671  0.70538034  0.38397463  1
