# generated using pymatgen
data_HfZrTaTiMo
_symmetry_space_group_name_H-M   'P 1'
_cell_length_a   15.21271369
_cell_length_b   15.20604099
_cell_length_c   16.83418723
_cell_angle_alpha   89.99360631
_cell_angle_beta   90.04612199
_cell_angle_gamma   89.79243335
_symmetry_Int_Tables_number   1
_chemical_formula_structural   HfZrTaTiMo
_chemical_formula_sum   'Hf40 Zr40 Ta40 Ti40 Mo40'
_cell_volume   3894.14400954
_cell_formula_units_Z   40
loop_
 _symmetry_equiv_pos_site_id
 _symmetry_equiv_pos_as_xyz
  1  'x, y, z'
loop_
 _atom_site_type_symbol
 _atom_site_label
 _atom_site_symmetry_multiplicity
 _atom_site_fract_x
 _atom_site_fract_y
 _atom_site_fract_z
 _atom_site_occupancy
  Hf  Hf0  1  0.00564982  0.38947825  0.75750268  1
  Hf  Hf1  1  0.91682050  0.49071646  0.10710790  1
  Hf  Hf2  1  0.10841536  0.51322267  0.37660375  1
  Hf  Hf3  1  0.60101757  0.80619790  0.00641478  1
  Hf  Hf4  1  0.50289001  0.71084852  0.37468851  1
  Hf  Hf5  1  0.29993958  0.51719705  0.63526117  1
  Hf  Hf6  1  -0.00551465  0.00070052  0.49536038  1
  Hf  Hf7  1  0.70715061  0.08357651  0.14650479  1
  Hf  Hf8  1  0.40053826  0.00411901  0.72913690  1
  Hf  Hf9  1  0.48990845  0.11632534  0.85973522  1
  Hf  Hf10  1  0.17937521  0.20985770  0.76074591  1
  Hf  Hf11  1  0.29790707  0.69599643  0.37374460  1
  Hf  Hf12  1  0.10596081  0.30501466  0.12591351  1
  Hf  Hf13  1  0.79379527  0.19819573  0.01260247  1
  Hf  Hf14  1  0.71138353  0.29027265  0.35638819  1
  Hf  Hf15  1  0.68138039  0.29294543  0.14506025  1
  Hf  Hf16  1  0.20171830  0.21476825  0.48593051  1
  Hf  Hf17  1  0.90741569  0.28290180  0.63841037  1
  Hf  Hf18  1  0.00627941  0.59366536  0.24067958  1
  Hf  Hf19  1  0.60609347  0.01348080  0.73279945  1
  Hf  Hf20  1  0.09955262  0.91460562  0.87818795  1
  Hf  Hf21  1  0.68477904  0.89506986  0.37933055  1
  Hf  Hf22  1  0.40662802  0.60570287  0.50539871  1
  Hf  Hf23  1  -0.00197262  0.39629333  0.51338418  1
  Hf  Hf24  1  0.09003087  0.12304149  0.61702411  1
  Hf  Hf25  1  0.27930483  0.91581198  0.12973283  1
  Hf  Hf26  1  0.80219194  0.79169618  0.49083054  1
  Hf  Hf27  1  0.50354188  0.47952938  0.13331109  1
  Hf  Hf28  1  0.91312741  0.68667243  0.63215419  1
  Hf  Hf29  1  0.21975028  0.61055060  0.00261648  1
  Hf  Hf30  1  0.10980809  0.89057359  0.62412557  1
  Hf  Hf31  1  0.71517360  0.49276633  0.12769859  1
  Hf  Hf32  1  0.19595301  0.41145135  0.74912668  1
  Hf  Hf33  1  0.80351746  0.60426053  -0.00472563  1
  Hf  Hf34  1  0.89915225  0.90499137  0.36534854  1
  Hf  Hf35  1  0.39808213  0.59235124  0.24980919  1
  Hf  Hf36  1  0.20140159  0.00162612  0.49167199  1
  Hf  Hf37  1  0.29066752  0.71619895  0.62629197  1
  Hf  Hf38  1  0.09256170  0.31552421  0.36263643  1
  Hf  Hf39  1  0.71361622  0.49054718  0.36324597  1
  Zr  Zr40  1  0.60188245  0.39271994  -0.00996145  1
  Zr  Zr41  1  0.20028725  0.20696301  -0.00572243  1
  Zr  Zr42  1  0.49954772  0.30995038  0.36096488  1
  Zr  Zr43  1  0.69959397  0.69402834  0.63168087  1
  Zr  Zr44  1  0.10239253  0.70461261  0.88246622  1
  Zr  Zr45  1  0.70356247  0.89637387  0.86713199  1
  Zr  Zr46  1  0.11218414  0.49454357  0.89737835  1
  Zr  Zr47  1  0.38603946  0.00727145  0.00055367  1
  Zr  Zr48  1  0.81261292  0.58627665  0.75432645  1
  Zr  Zr49  1  0.90307378  0.70469157  0.88036790  1
  Zr  Zr50  1  0.40861065  0.19379469  0.49472233  1
  Zr  Zr51  1  0.01304542  0.78579583  0.48424403  1
  Zr  Zr52  1  0.21504645  0.40606250  0.24445688  1
  Zr  Zr53  1  0.69145666  0.70265361  0.86559315  1
  Zr  Zr54  1  0.58611362  0.00586653  0.50625663  1
  Zr  Zr55  1  0.87583059  0.89578963  0.13758951  1
  Zr  Zr56  1  0.49687438  0.11315830  0.13742261  1
  Zr  Zr57  1  0.49741889  0.90050347  0.86824630  1
  Zr  Zr58  1  0.89986359  0.27490778  0.87518980  1
  Zr  Zr59  1  0.19992883  0.82295292  -0.00143768  1
  Zr  Zr60  1  0.31045320  0.48261387  0.38503312  1
  Zr  Zr61  1  0.30696224  0.71075279  0.12993068  1
  Zr  Zr62  1  0.40534090  0.39125404  0.51940350  1
  Zr  Zr63  1  0.59197906  0.60098872  -0.00052630  1
  Zr  Zr64  1  -0.00171408  0.01386746  0.74770776  1
  Zr  Zr65  1  0.59746662  0.00452619  0.00219380  1
  Zr  Zr66  1  0.20240457  0.00527085  0.74506745  1
  Zr  Zr67  1  0.90960410  0.48154062  0.36874723  1
  Zr  Zr68  1  0.59011240  0.20329023  -0.00604168  1
  Zr  Zr69  1  0.70923179  0.90208552  0.61740332  1
  Zr  Zr70  1  0.90513160  0.89496452  0.61982740  1
  Zr  Zr71  1  0.69890944  0.27615956  0.63818420  1
  Zr  Zr72  1  0.39714801  0.40260297  -0.01388426  1
  Zr  Zr73  1  0.70990801  0.71297944  0.12195296  1
  Zr  Zr74  1  0.80720238  0.58250588  0.50711906  1
  Zr  Zr75  1  0.61391097  0.19598827  0.48872963  1
  Zr  Zr76  1  0.70537773  0.49048109  0.87239816  1
  Zr  Zr77  1  0.08389303  0.10509208  0.36667767  1
  Zr  Zr78  1  0.61090720  0.60814754  0.24209474  1
  Zr  Zr79  1  0.51753096  0.50487358  0.37600303  1
  Ta  Ta80  1  0.00376595  -0.00446574  0.01951454  1
  Ta  Ta81  1  0.82812954  0.38401906  0.23635510  1
  Ta  Ta82  1  0.20310149  0.80802148  0.47921512  1
  Ta  Ta83  1  0.11165725  0.50429850  0.10646119  1
  Ta  Ta84  1  0.80713481  0.00455998  0.75325770  1
  Ta  Ta85  1  0.70973482  0.10288563  0.87126259  1
  Ta  Ta86  1  0.20460819  0.19911032  0.25728543  1
  Ta  Ta87  1  0.40222565  0.79765126  -0.00197840  1
  Ta  Ta88  1  0.39402903  -0.00299673  0.51558993  1
  Ta  Ta89  1  0.18961156  0.80375390  0.26365740  1
  Ta  Ta90  1  0.31195269  0.09327265  0.37030420  1
  Ta  Ta91  1  0.47981606  0.90925381  0.37688764  1
  Ta  Ta92  1  0.19857631  0.60804043  0.23883527  1
  Ta  Ta93  1  0.11023125  0.09077089  0.13141183  1
  Ta  Ta94  1  0.49576280  0.50867666  0.85828119  1
  Ta  Ta95  1  0.89806640  0.68387261  0.36276852  1
  Ta  Ta96  1  0.58789404  0.79369860  0.50795130  1
  Ta  Ta97  1  0.90378336  0.90368762  0.88159168  1
  Ta  Ta98  1  0.19657074  0.40742872  0.51457453  1
  Ta  Ta99  1  0.40078416  0.39881544  0.75029140  1
  Ta  Ta100  1  0.29900831  0.11527999  0.62326080  1
  Ta  Ta101  1  0.01371519  0.58881823  0.75855854  1
  Ta  Ta102  1  0.70498073  0.48483636  0.63180400  1
  Ta  Ta103  1  0.19106848  0.61145425  0.50311025  1
  Ta  Ta104  1  0.79041262  0.78758677  0.26124263  1
  Ta  Ta105  1  0.80152146  -0.00634839  0.00203330  1
  Ta  Ta106  1  0.09297717  0.50946817  0.62726233  1
  Ta  Ta107  1  -0.01193430  0.20946549  0.23131156  1
  Ta  Ta108  1  0.31114019  0.70448056  0.86313914  1
  Ta  Ta109  1  0.79192151  0.02355952  0.48212460  1
  Ta  Ta110  1  0.59783015  0.39460827  0.75184182  1
  Ta  Ta111  1  0.59184077  0.81042500  0.24502258  1
  Ta  Ta112  1  0.90285211  0.69602909  0.12727671  1
  Ta  Ta113  1  0.29578705  0.11197627  0.13372946  1
  Ta  Ta114  1  0.79938793  0.37915439  0.50628959  1
  Ta  Ta115  1  0.69731597  0.68973963  0.37702880  1
  Ta  Ta116  1  0.39784167  0.80702438  0.73799456  1
  Ta  Ta117  1  0.09868226  0.71049228  0.11961672  1
  Ta  Ta118  1  -0.01026208  0.00686015  0.23832486  1
  Ta  Ta119  1  0.91037003  0.48875156  0.89506921  1
  Ti  Ti120  1  0.29049820  0.09971539  0.87173244  1
  Ti  Ti121  1  0.31431566  0.30284676  0.12470303  1
  Ti  Ti122  1  0.40891197  0.60544346  -0.00419265  1
  Ti  Ti123  1  0.87967682  0.09874374  0.62138417  1
  Ti  Ti124  1  -0.00668016  0.18671058  0.02077065  1
  Ti  Ti125  1  0.59212920  0.80535198  0.73542489  1
  Ti  Ti126  1  0.39273542  0.00118992  0.24907807  1
  Ti  Ti127  1  0.49096428  0.90009503  0.12811919  1
  Ti  Ti128  1  0.00778803  0.37792562  -0.00508212  1
  Ti  Ti129  1  0.30624853  0.49750494  0.11898467  1
  Ti  Ti130  1  0.07902973  0.11156046  0.88721540  1
  Ti  Ti131  1  0.69607203  0.29016936  0.86192429  1
  Ti  Ti132  1  0.49560841  0.69588545  0.63025086  1
  Ti  Ti133  1  0.49725681  0.70273116  0.12697668  1
  Ti  Ti134  1  0.39905938  0.20802278  -0.00172488  1
  Ti  Ti135  1  0.58852649  -0.00093140  0.25902427  1
  Ti  Ti136  1  0.20076643  0.80325112  0.75779281  1
  Ti  Ti137  1  0.30502152  0.90349325  0.87293147  1
  Ti  Ti138  1  0.80675491  0.80294944  0.74735813  1
  Ti  Ti139  1  -0.01717598  0.20120146  0.49313350  1
  Ti  Ti140  1  0.59639774  0.59695309  0.74513363  1
  Ti  Ti141  1  0.30559058  0.51532632  0.86258680  1
  Ti  Ti142  1  0.80629906  0.39155020  0.75117680  1
  Ti  Ti143  1  0.00136167  0.79939923  0.75424938  1
  Ti  Ti144  1  0.39597622  0.81190995  0.50648925  1
  Ti  Ti145  1  0.00351870  0.79903880  0.25184015  1
  Ti  Ti146  1  0.60706079  0.39822099  0.51003831  1
  Ti  Ti147  1  0.29115880  0.29969076  0.63416360  1
  Ti  Ti148  1  0.00143965  0.59613424  0.49975432  1
  Ti  Ti149  1  0.50710317  0.49706680  0.63470550  1
  Ti  Ti150  1  0.90135499  0.28814068  0.36904934  1
  Ti  Ti151  1  -0.01047537  0.80432983  0.01210583  1
  Ti  Ti152  1  0.39425379  0.80900992  0.25224448  1
  Ti  Ti153  1  0.49478511  0.70292395  0.86327365  1
  Ti  Ti154  1  0.39567974  0.20611469  0.25931616  1
  Ti  Ti155  1  0.30026792  0.30460489  0.86940843  1
  Ti  Ti156  1  0.49323217  0.28097836  0.64397111  1
  Ti  Ti157  1  0.19299995  -0.00319639  0.26505391  1
  Ti  Ti158  1  0.10415888  0.69644044  0.63570090  1
  Ti  Ti159  1  0.60739339  0.59479398  0.50911826  1
  Mo  Mo160  1  0.81141179  0.59790086  0.24511855  1
  Mo  Mo161  1  0.10475846  0.30341361  0.62181196  1
  Mo  Mo162  1  0.59519128  0.20098646  0.75839120  1
  Mo  Mo163  1  0.60696496  0.39956478  0.24890489  1
  Mo  Mo164  1  0.29416153  0.90211873  0.61969846  1
  Mo  Mo165  1  0.89462222  0.30122346  0.11063040  1
  Mo  Mo166  1  0.19193327  0.01445120  0.00059856  1
  Mo  Mo167  1  0.09622183  0.69760296  0.36909754  1
  Mo  Mo168  1  0.09085260  0.90114643  0.13927182  1
  Mo  Mo169  1  0.40726415  0.60781438  0.74484188  1
  Mo  Mo170  1  0.48585407  0.29433472  0.13534845  1
  Mo  Mo171  1  0.21418380  0.40115666  0.00145282  1
  Mo  Mo172  1  0.80484236  0.39054798  -0.00038105  1
  Mo  Mo173  1  0.89168975  0.11214934  0.36477317  1
  Mo  Mo174  1  0.10091666  0.29811603  0.88757589  1
  Mo  Mo175  1  0.90008787  0.09630081  0.12573915  1
  Mo  Mo176  1  0.00768967  0.60728647  0.00908982  1
  Mo  Mo177  1  0.30324614  0.90174718  0.37141474  1
  Mo  Mo178  1  0.68326812  0.90115058  0.13634317  1
  Mo  Mo179  1  0.50016614  0.11018984  0.63109719  1
  Mo  Mo180  1  0.79919064  0.18169813  0.75650861  1
  Mo  Mo181  1  0.19789638  0.61085807  0.75505618  1
  Mo  Mo182  1  0.38099096  0.20479799  0.74751605  1
  Mo  Mo183  1  0.80361915  0.81126707  0.00048470  1
  Mo  Mo184  1  0.79278831  -0.00708338  0.26673591  1
  Mo  Mo185  1  0.90089443  0.08390885  0.89063844  1
  Mo  Mo186  1  0.09628433  0.90310138  0.36328756  1
  Mo  Mo187  1  0.01141607  0.39703737  0.23831059  1
  Mo  Mo188  1  0.49687103  0.88984252  0.62272298  1
  Mo  Mo189  1  0.49578362  0.09288869  0.36402777  1
  Mo  Mo190  1  0.80863378  0.20047456  0.49419436  1
  Mo  Mo191  1  0.59446882  0.18973380  0.26393880  1
  Mo  Mo192  1  0.70794256  0.09944573  0.62328677  1
  Mo  Mo193  1  0.69973566  0.09513124  0.35571297  1
  Mo  Mo194  1  0.81143876  0.18994629  0.24062201  1
  Mo  Mo195  1  0.90097776  0.48934486  0.63226856  1
  Mo  Mo196  1  0.49375028  0.30695950  0.85753670  1
  Mo  Mo197  1  -0.00614176  0.19091774  0.75503275  1
  Mo  Mo198  1  0.40046265  0.39602251  0.24437797  1
  Mo  Mo199  1  0.29459359  0.29554879  0.37489506  1
