# generated using pymatgen
data_HfZrTaTiMo
_symmetry_space_group_name_H-M   'P 1'
_cell_length_a   15.21291408
_cell_length_b   15.21812668
_cell_length_c   16.84274733
_cell_angle_alpha   90.00562934
_cell_angle_beta   89.95301573
_cell_angle_gamma   90.02261182
_symmetry_Int_Tables_number   1
_chemical_formula_structural   HfZrTaTiMo
_chemical_formula_sum   'Hf40 Zr40 Ta40 Ti40 Mo40'
_cell_volume   3899.29739037
_cell_formula_units_Z   40
loop_
 _symmetry_equiv_pos_site_id
 _symmetry_equiv_pos_as_xyz
  1  'x, y, z'
loop_
 _atom_site_type_symbol
 _atom_site_label
 _atom_site_symmetry_multiplicity
 _atom_site_fract_x
 _atom_site_fract_y
 _atom_site_fract_z
 _atom_site_occupancy
  Hf  Hf0  1  0.08871042  0.30753248  0.13576020  1
  Hf  Hf1  1  0.40284772  0.40190215  0.25708562  1
  Hf  Hf2  1  0.79954187  0.80822309  0.25320587  1
  Hf  Hf3  1  0.39724037  0.59088509  0.00877771  1
  Hf  Hf4  1  0.70159783  0.90626539  0.11181095  1
  Hf  Hf5  1  0.28763703  0.71032442  0.89013351  1
  Hf  Hf6  1  0.89412480  0.09309927  0.11548220  1
  Hf  Hf7  1  0.49873860  0.90392532  0.85864508  1
  Hf  Hf8  1  0.09470707  0.11363452  0.37359753  1
  Hf  Hf9  1  0.78826702  0.19659982  0.74103855  1
  Hf  Hf10  1  0.91831626  0.90566898  0.88223697  1
  Hf  Hf11  1  0.30723407  0.50335992  0.87118765  1
  Hf  Hf12  1  0.59452799  0.39458646  0.74620027  1
  Hf  Hf13  1  0.70546891  0.69866056  0.61773411  1
  Hf  Hf14  1  0.40210586  0.81348939  0.48834236  1
  Hf  Hf15  1  0.90138580  0.30270198  0.37712302  1
  Hf  Hf16  1  0.10798725  0.69012202  0.35728077  1
  Hf  Hf17  1  0.28943200  0.51114441  0.37549347  1
  Hf  Hf18  1  0.81068383  0.59513247  0.49518724  1
  Hf  Hf19  1  0.91162194  0.69789899  0.62825421  1
  Hf  Hf20  1  0.09616884  0.10114464  0.87010185  1
  Hf  Hf21  1  0.90289220  0.68149890  0.13209437  1
  Hf  Hf22  1  0.89740233  0.90850278  0.37645450  1
  Hf  Hf23  1  0.78952088  0.20070653  0.24665691  1
  Hf  Hf24  1  0.18574125  0.40155996  0.50022072  1
  Hf  Hf25  1  0.38798027  0.20313882  0.50193592  1
  Hf  Hf26  1  0.70817398  0.50122747  0.11080955  1
  Hf  Hf27  1  0.80101986  0.39580610  -0.01695500  1
  Hf  Hf28  1  0.71346716  0.91241224  0.88039297  1
  Hf  Hf29  1  0.59328616  0.17617134  0.25562985  1
  Hf  Hf30  1  0.61351152  0.38729328  0.24115420  1
  Hf  Hf31  1  0.70454877  0.70097301  0.12400863  1
  Hf  Hf32  1  0.29171200  0.08258570  0.39210974  1
  Hf  Hf33  1  0.18616670  0.42565541  0.24593746  1
  Hf  Hf34  1  0.60668224  0.78796208  -0.01364176  1
  Hf  Hf35  1  0.59845389  0.59237186  0.74970436  1
  Hf  Hf36  1  0.70394516  0.70336256  0.38011826  1
  Hf  Hf37  1  0.11409555  0.89249330  0.89856232  1
  Hf  Hf38  1  0.79706221  0.21988330  0.52656676  1
  Hf  Hf39  1  0.60821694  0.79209297  0.75384182  1
  Zr  Zr40  1  -0.01343470  0.39276190  0.51327730  1
  Zr  Zr41  1  0.49077080  0.70224204  0.62178108  1
  Zr  Zr42  1  0.11319783  0.49699317  0.86910844  1
  Zr  Zr43  1  0.50699275  0.70410458  0.13079644  1
  Zr  Zr44  1  0.49738050  0.27935239  0.13219579  1
  Zr  Zr45  1  0.50406334  0.70167535  0.37138012  1
  Zr  Zr46  1  0.49958283  0.06987314  0.39806551  1
  Zr  Zr47  1  0.01393058  0.38696385  -0.01686374  1
  Zr  Zr48  1  0.11480849  0.72166013  0.61927697  1
  Zr  Zr49  1  0.09633820  0.70402633  0.12873169  1
  Zr  Zr50  1  0.58381963  0.19158847  -0.00748231  1
  Zr  Zr51  1  0.89111394  0.29717602  0.11206512  1
  Zr  Zr52  1  0.01419363  0.59251217  0.49624026  1
  Zr  Zr53  1  0.47932788  0.28684553  0.86588012  1
  Zr  Zr54  1  0.68919843  0.10338272  0.11472371  1
  Zr  Zr55  1  0.39737445  0.40449800  0.49347811  1
  Zr  Zr56  1  0.29659605  0.87819052  0.63746604  1
  Zr  Zr57  1  0.60567500  0.59019852  0.25487056  1
  Zr  Zr58  1  0.29519538  0.29887471  0.14086215  1
  Zr  Zr59  1  0.01113418  0.80381489  0.48324421  1
  Zr  Zr60  1  0.61267177  0.00162732  0.73282234  1
  Zr  Zr61  1  0.29640344  0.70814698  0.12616054  1
  Zr  Zr62  1  0.20714892  0.00692138  0.24461928  1
  Zr  Zr63  1  0.30373236  0.90992099  0.86621849  1
  Zr  Zr64  1  0.90181016  0.49594536  0.64296645  1
  Zr  Zr65  1  0.79575624  0.60254441  0.76900975  1
  Zr  Zr66  1  0.27541749  0.31041682  0.86900419  1
  Zr  Zr67  1  0.40623628  0.81668197  0.00468482  1
  Zr  Zr68  1  0.70027511  0.29214415  0.38388335  1
  Zr  Zr69  1  0.29800731  0.50392200  0.61998025  1
  Zr  Zr70  1  0.81570933  0.79905236  0.75915337  1
  Zr  Zr71  1  0.18047931  0.21668161  -0.00370665  1
  Zr  Zr72  1  0.20112696  0.61968015  0.74642324  1
  Zr  Zr73  1  0.49927670  0.28897228  0.37774542  1
  Zr  Zr74  1  0.90857405  0.89149791  0.11554126  1
  Zr  Zr75  1  0.92346260  0.89753166  0.62415496  1
  Zr  Zr76  1  0.89279557  0.10547712  0.38800702  1
  Zr  Zr77  1  0.81376489  0.40930819  0.24138009  1
  Zr  Zr78  1  0.79578030  0.39522818  0.76768637  1
  Zr  Zr79  1  0.80167101  0.60705617  -0.01987275  1
  Ta  Ta80  1  0.49317688  0.29646341  0.62243886  1
  Ta  Ta81  1  0.70558344  0.49062790  0.38612911  1
  Ta  Ta82  1  0.21461158  0.01508842  0.00787830  1
  Ta  Ta83  1  0.29050635  0.08636472  0.61270269  1
  Ta  Ta84  1  0.58579832  0.19129634  0.73799923  1
  Ta  Ta85  1  0.90573372  0.09933312  0.62166985  1
  Ta  Ta86  1  0.90617764  0.69637097  0.36108985  1
  Ta  Ta87  1  0.40241557  0.60296436  0.74882758  1
  Ta  Ta88  1  0.49588008  0.09485728  0.60722243  1
  Ta  Ta89  1  0.49581958  0.68623908  0.87500814  1
  Ta  Ta90  1  0.49845944  0.49392050  0.12458075  1
  Ta  Ta91  1  0.38889672  0.39444180  0.73563310  1
  Ta  Ta92  1  0.70091262  0.49370170  0.61884557  1
  Ta  Ta93  1  0.30200404  0.70999294  0.36109853  1
  Ta  Ta94  1  0.03294689  0.81243528  0.75688823  1
  Ta  Ta95  1  0.40791134  0.82690122  0.25316774  1
  Ta  Ta96  1  0.38281216  0.19087526  -0.00072852  1
  Ta  Ta97  1  0.79464352  -0.00471963  0.51953043  1
  Ta  Ta98  1  0.21057666  0.42884331  0.02234531  1
  Ta  Ta99  1  0.09905630  0.30232033  0.64170099  1
  Ta  Ta100  1  0.80894974  0.00216932  0.73527065  1
  Ta  Ta101  1  0.29847538  0.10843663  0.12885151  1
  Ta  Ta102  1  0.60573163  0.38939534  0.51020928  1
  Ta  Ta103  1  0.09753255  0.10787520  0.12872172  1
  Ta  Ta104  1  0.59893815  0.59042270  0.49871891  1
  Ta  Ta105  1  0.80379245  0.80323045  0.49708013  1
  Ta  Ta106  1  0.59321547  0.39611379  0.00336753  1
  Ta  Ta107  1  0.78683459  0.00636343  0.25585979  1
  Ta  Ta108  1  0.20964789  0.19449817  0.73415617  1
  Ta  Ta109  1  0.39919946  0.01737351  0.73843555  1
  Ta  Ta110  1  0.30564576  0.10858306  0.86486973  1
  Ta  Ta111  1  -0.00446058  0.00278987  0.24646226  1
  Ta  Ta112  1  0.89036971  0.09340885  0.87761809  1
  Ta  Ta113  1  0.69490560  0.09213199  0.40141010  1
  Ta  Ta114  1  0.39868146  0.39023541  0.00787597  1
  Ta  Ta115  1  0.18377781  -0.00760521  0.74533457  1
  Ta  Ta116  1  0.20669958  0.81272178  0.24922022  1
  Ta  Ta117  1  0.20800214  0.61422469  0.50070949  1
  Ta  Ta118  1  0.39419681  0.60050555  0.24667921  1
  Ta  Ta119  1  0.18763584  0.20284701  0.51210096  1
  Ti  Ti120  1  0.58918897  -0.00358213  -0.00691522  1
  Ti  Ti121  1  0.69141897  0.10066164  0.87239132  1
  Ti  Ti122  1  0.79248609  0.19525293  -0.01055357  1
  Ti  Ti123  1  0.90952130  0.27900465  0.87363931  1
  Ti  Ti124  1  0.60508277  0.80930537  0.50487620  1
  Ti  Ti125  1  0.20788205  0.81102144  0.48360680  1
  Ti  Ti126  1  -0.00640286  0.20137582  0.24937738  1
  Ti  Ti127  1  0.40016399  0.60738286  0.49405765  1
  Ti  Ti128  1  0.67913200  0.50590575  0.88766564  1
  Ti  Ti129  1  0.00778229  0.60083056  -0.00545245  1
  Ti  Ti130  1  0.28043801  0.29032406  0.36570663  1
  Ti  Ti131  1  0.09754663  0.50523163  0.64020803  1
  Ti  Ti132  1  0.00264237  0.61845396  0.76602682  1
  Ti  Ti133  1  0.81360771  0.79538019  -0.01144340  1
  Ti  Ti134  1  0.49405908  0.48923744  0.87823651  1
  Ti  Ti135  1  0.91165948  0.50193299  0.87090068  1
  Ti  Ti136  1  0.69012145  0.90899929  0.38344919  1
  Ti  Ti137  1  0.40625416  0.01264528  -0.00706148  1
  Ti  Ti138  1  0.09588583  0.08958710  0.62663102  1
  Ti  Ti139  1  0.59240920  -0.01389694  0.25135858  1
  Ti  Ti140  1  0.60285035  0.80856882  0.25102268  1
  Ti  Ti141  1  0.00555340  0.81172828  0.25465569  1
  Ti  Ti142  1  0.49765827  0.89722590  0.63391224  1
  Ti  Ti143  1  0.49977350  0.49843019  0.61938875  1
  Ti  Ti144  1  0.00958123  0.00485459  0.49816422  1
  Ti  Ti145  1  0.90964462  0.49706726  0.37441612  1
  Ti  Ti146  1  0.00205384  0.39216728  0.75778961  1
  Ti  Ti147  1  0.11258218  0.91308044  0.36972435  1
  Ti  Ti148  1  0.31549875  0.91617515  0.12425536  1
  Ti  Ti149  1  0.00886355  0.57062409  0.24713964  1
  Ti  Ti150  1  0.38628785  0.17957881  0.26372445  1
  Ti  Ti151  1  0.10865557  0.90550303  0.11707050  1
  Ti  Ti152  1  0.50745264  0.49732297  0.37769918  1
  Ti  Ti153  1  0.09390931  0.31067891  0.36509745  1
  Ti  Ti154  1  0.48595262  0.07823315  0.12901496  1
  Ti  Ti155  1  -0.00501699  0.18743467  0.74239488  1
  Ti  Ti156  1  0.00811088  0.01012685  0.00566951  1
  Ti  Ti157  1  0.00269055  0.20508273  0.51552295  1
  Ti  Ti158  1  0.68498470  0.29386903  0.87462408  1
  Ti  Ti159  1  0.80416062  0.59501697  0.25830892  1
  Mo  Mo160  1  0.79640516  0.40777991  0.50547726  1
  Mo  Mo161  1  0.20240593  0.60771570  0.24835885  1
  Mo  Mo162  1  0.19061619  -0.00568753  0.50317095  1
  Mo  Mo163  1  0.92048351  0.70615362  0.87773603  1
  Mo  Mo164  1  0.08867472  0.51109006  0.11765894  1
  Mo  Mo165  1  0.10924005  0.91272059  0.61855310  1
  Mo  Mo166  1  0.69078405  0.30589701  0.63310750  1
  Mo  Mo167  1  0.20412037  0.80115843  0.75655272  1
  Mo  Mo168  1  0.00095904  0.79557756  0.00580799  1
  Mo  Mo169  1  0.69910632  0.70107657  0.87825796  1
  Mo  Mo170  1  0.30472449  0.50681150  0.13275357  1
  Mo  Mo171  1  0.09191080  0.28522041  0.84156325  1
  Mo  Mo172  1  0.91651163  0.50102440  0.11437547  1
  Mo  Mo173  1  0.60396867  -0.01779562  0.52117558  1
  Mo  Mo174  1  0.90598431  0.29647117  0.64187156  1
  Mo  Mo175  1  0.50766330  0.90593693  0.12304825  1
  Mo  Mo176  1  0.39577328  0.19741303  0.73223265  1
  Mo  Mo177  1  0.30884643  0.69770626  0.61747775  1
  Mo  Mo178  1  -0.00989899  0.19293094  -0.00817682  1
  Mo  Mo179  1  0.69721425  0.09917173  0.61474001  1
  Mo  Mo180  1  -0.00665047  0.39789043  0.25044068  1
  Mo  Mo181  1  0.40879508  0.00606513  0.25047737  1
  Mo  Mo182  1  0.79595290  0.00544405  -0.00909985  1
  Mo  Mo183  1  0.29310714  0.29524730  0.62256025  1
  Mo  Mo184  1  0.59900993  0.19514939  0.51672859  1
  Mo  Mo185  1  0.09475225  0.49783922  0.37906411  1
  Mo  Mo186  1  0.49158949  0.09388267  0.86660177  1
  Mo  Mo187  1  0.39460385  -0.01124439  0.51776915  1
  Mo  Mo188  1  0.40312103  0.78749056  0.75741606  1
  Mo  Mo189  1  0.19581308  0.60499978  0.00193854  1
  Mo  Mo190  1  0.19245597  0.20459771  0.25627034  1
  Mo  Mo191  1  0.09678051  0.70424779  0.89209350  1
  Mo  Mo192  1  0.20315101  0.81561649  0.01931911  1
  Mo  Mo193  1  0.19717716  0.40236143  0.73667495  1
  Mo  Mo194  1  0.69713655  0.30137982  0.10743041  1
  Mo  Mo195  1  0.30442179  0.90190734  0.37118856  1
  Mo  Mo196  1  0.59048709  0.59045795  -0.00471845  1
  Mo  Mo197  1  0.51151372  0.89698255  0.37868106  1
  Mo  Mo198  1  0.70843568  0.89030575  0.62273327  1
  Mo  Mo199  1  -0.00055212  0.00165303  0.75216678  1
