# generated using pymatgen
data_HfZrTaTiMo
_symmetry_space_group_name_H-M   'P 1'
_cell_length_a   15.22566579
_cell_length_b   15.22281056
_cell_length_c   16.83143676
_cell_angle_alpha   90.00079753
_cell_angle_beta   90.00806905
_cell_angle_gamma   90.00217045
_symmetry_Int_Tables_number   1
_chemical_formula_structural   HfZrTaTiMo
_chemical_formula_sum   'Hf40 Zr40 Ta40 Ti40 Mo40'
_cell_volume   3901.14704646
_cell_formula_units_Z   40
loop_
 _symmetry_equiv_pos_site_id
 _symmetry_equiv_pos_as_xyz
  1  'x, y, z'
loop_
 _atom_site_type_symbol
 _atom_site_label
 _atom_site_symmetry_multiplicity
 _atom_site_fract_x
 _atom_site_fract_y
 _atom_site_fract_z
 _atom_site_occupancy
  Hf  Hf0  1  0.09591195  0.71175170  0.61121626  1
  Hf  Hf1  1  0.00245836  0.80376617  0.00631139  1
  Hf  Hf2  1  0.40972754  -0.01441300  0.50146281  1
  Hf  Hf3  1  0.39463186  0.39188053  0.26080009  1
  Hf  Hf4  1  0.89588635  0.70247551  0.62140166  1
  Hf  Hf5  1  0.09849607  0.29280009  0.87426908  1
  Hf  Hf6  1  0.21635677  0.20853051  0.74374976  1
  Hf  Hf7  1  0.59776648  0.60472318  0.51547145  1
  Hf  Hf8  1  0.71704082  0.10998228  0.87648268  1
  Hf  Hf9  1  0.81272417  -0.01147863  0.25997989  1
  Hf  Hf10  1  -0.00811502  0.60757685  0.47757108  1
  Hf  Hf11  1  -0.01088912  0.81071832  0.75338879  1
  Hf  Hf12  1  0.59943699  0.39990705  0.51393259  1
  Hf  Hf13  1  0.78969413  0.79898103  0.49753514  1
  Hf  Hf14  1  0.09498977  0.50242704  0.88375946  1
  Hf  Hf15  1  0.00613104  0.22869933  0.25288098  1
  Hf  Hf16  1  -0.00641808  0.19924464  0.01112523  1
  Hf  Hf17  1  0.60234210  0.00479248  0.75728263  1
  Hf  Hf18  1  0.59886165  0.60891531  0.73686706  1
  Hf  Hf19  1  0.29637516  0.49748176  0.12826818  1
  Hf  Hf20  1  0.49992742  0.30747429  0.12004657  1
  Hf  Hf21  1  0.39220027  0.19641562  0.01105806  1
  Hf  Hf22  1  0.29006035  0.69632710  0.61872187  1
  Hf  Hf23  1  0.30206720  0.07888367  0.14478099  1
  Hf  Hf24  1  0.20205479  0.61188985  -0.00611402  1
  Hf  Hf25  1  0.69132421  0.50165309  0.37870489  1
  Hf  Hf26  1  0.29732721  0.89173070  0.63010501  1
  Hf  Hf27  1  0.70328119  0.89774359  0.87700269  1
  Hf  Hf28  1  0.61042440  0.79672641  0.24642827  1
  Hf  Hf29  1  0.49808369  0.68862847  0.87919170  1
  Hf  Hf30  1  0.58457932  0.40942504  0.74217634  1
  Hf  Hf31  1  0.20577511  0.60955390  0.76677777  1
  Hf  Hf32  1  0.47829280  0.28930531  0.62257829  1
  Hf  Hf33  1  0.91531166  0.10229534  0.61398200  1
  Hf  Hf34  1  0.69963423  0.90602557  0.62936271  1
  Hf  Hf35  1  0.69004892  0.51389576  0.87251756  1
  Hf  Hf36  1  0.39939164  0.59241674  0.49654795  1
  Hf  Hf37  1  -0.00529092  0.59907028  0.26478601  1
  Hf  Hf38  1  0.90271895  0.49760615  0.62043048  1
  Hf  Hf39  1  0.40754429  0.18284179  0.47924449  1
  Zr  Zr40  1  0.80749126  0.20759409  0.49831533  1
  Zr  Zr41  1  0.41722387  0.18722775  0.25225397  1
  Zr  Zr42  1  -0.01410800  0.39746190  -0.00161576  1
  Zr  Zr43  1  0.88966984  0.10421861  0.13299347  1
  Zr  Zr44  1  0.49828526  0.50633517  0.13042246  1
  Zr  Zr45  1  0.00229793  0.60308159  0.75523835  1
  Zr  Zr46  1  -0.00308389  0.82630118  0.25138308  1
  Zr  Zr47  1  0.10469438  0.30778694  0.61249548  1
  Zr  Zr48  1  0.31451007  0.48513700  0.88410221  1
  Zr  Zr49  1  0.70986608  0.31240168  0.87703377  1
  Zr  Zr50  1  0.08978633  0.90953899  0.87151657  1
  Zr  Zr51  1  0.20080377  -0.01366528  0.00916064  1
  Zr  Zr52  1  0.19464067  0.19064181  0.01103731  1
  Zr  Zr53  1  0.29830838  0.89892823  0.86395177  1
  Zr  Zr54  1  0.38674552  0.38429027  0.48336350  1
  Zr  Zr55  1  0.48791176  0.69990711  0.12911961  1
  Zr  Zr56  1  0.30848406  0.07106548  0.35627896  1
  Zr  Zr57  1  0.58738547  0.80909492  0.49869726  1
  Zr  Zr58  1  0.80718589  0.80184209  -0.00093753  1
  Zr  Zr59  1  0.09150339  0.50624784  0.12537635  1
  Zr  Zr60  1  0.52069686  0.29669414  0.37137737  1
  Zr  Zr61  1  0.09830094  0.90890103  0.60784676  1
  Zr  Zr62  1  0.48885083  0.10474365  0.87727338  1
  Zr  Zr63  1  0.09634729  0.08747814  0.14902830  1
  Zr  Zr64  1  0.71118116  0.90281389  0.12377132  1
  Zr  Zr65  1  0.82033878  -0.00400732  0.75077094  1
  Zr  Zr66  1  0.40761268  0.57887615  0.74003764  1
  Zr  Zr67  1  0.17680602  0.39378847  0.26104739  1
  Zr  Zr68  1  0.62050396  0.20249961  0.23612385  1
  Zr  Zr69  1  0.59827195  -0.00260848  -0.00171413  1
  Zr  Zr70  1  0.29121424  0.47809636  0.61712421  1
  Zr  Zr71  1  0.51676342  0.09843082  0.62903019  1
  Zr  Zr72  1  0.78877637  0.60095131  0.25017076  1
  Zr  Zr73  1  0.60657021  0.20703168  0.00152962  1
  Zr  Zr74  1  0.11367775  0.11271364  0.37292431  1
  Zr  Zr75  1  0.50405917  0.69774569  0.36922508  1
  Zr  Zr76  1  0.09864866  0.50848070  0.61637335  1
  Zr  Zr77  1  0.73642546  0.30944956  0.11121724  1
  Zr  Zr78  1  0.38181395  0.79398695  0.00073112  1
  Zr  Zr79  1  0.70165888  0.29096287  0.63605753  1
  Ta  Ta80  1  0.90490367  0.90188268  0.60412028  1
  Ta  Ta81  1  -0.00535177  0.39239299  0.75590129  1
  Ta  Ta82  1  0.60606011  0.00265162  0.49088227  1
  Ta  Ta83  1  0.38615468  0.37365103  0.74927018  1
  Ta  Ta84  1  0.91875301  0.10270603  0.87495654  1
  Ta  Ta85  1  0.49010713  0.89921663  0.13431219  1
  Ta  Ta86  1  0.80465750  0.40545132  0.74758123  1
  Ta  Ta87  1  0.39590109  0.00266545  0.74463414  1
  Ta  Ta88  1  0.19704522  0.60203752  0.47807432  1
  Ta  Ta89  1  0.79895438  0.00240203  0.49066713  1
  Ta  Ta90  1  0.79929962  0.59191680  0.00427206  1
  Ta  Ta91  1  0.49037406  0.31863068  0.88749143  1
  Ta  Ta92  1  0.89872734  0.69816558  0.87709561  1
  Ta  Ta93  1  0.70334969  0.10242183  0.37185883  1
  Ta  Ta94  1  0.70173795  0.89268664  0.36809343  1
  Ta  Ta95  1  -0.00577881  0.39778751  0.47722195  1
  Ta  Ta96  1  0.88092868  0.71872210  0.36681066  1
  Ta  Ta97  1  0.61891145  0.40615313  0.24073974  1
  Ta  Ta98  1  0.80031763  0.60558613  0.75183994  1
  Ta  Ta99  1  0.88950378  0.49656531  0.87436773  1
  Ta  Ta100  1  0.71144003  0.30534219  0.37402493  1
  Ta  Ta101  1  0.09651994  0.91376306  0.38486240  1
  Ta  Ta102  1  0.28782011  0.69400410  0.14291177  1
  Ta  Ta103  1  0.69467421  0.69054523  0.11392185  1
  Ta  Ta104  1  0.49506096  0.89430489  0.86836626  1
  Ta  Ta105  1  0.38824670  0.79647490  0.48928768  1
  Ta  Ta106  1  0.38721716  0.59802008  0.26381961  1
  Ta  Ta107  1  0.30963560  0.10674429  0.62130448  1
  Ta  Ta108  1  0.70932539  0.50523205  0.62741554  1
  Ta  Ta109  1  0.49581886  0.89371156  0.63648038  1
  Ta  Ta110  1  0.91413985  0.09999350  0.37933652  1
  Ta  Ta111  1  0.79307759  0.60178644  0.49220711  1
  Ta  Ta112  1  0.49101297  0.90573757  0.35846422  1
  Ta  Ta113  1  0.60265511  0.42360223  0.00394075  1
  Ta  Ta114  1  0.10323796  0.70925913  0.13673621  1
  Ta  Ta115  1  0.88639901  0.49299382  0.12593440  1
  Ta  Ta116  1  0.20043413  0.39063333  0.00803173  1
  Ta  Ta117  1  0.19808226  0.01019288  0.73941131  1
  Ta  Ta118  1  0.60004568  0.00514263  0.24939859  1
  Ta  Ta119  1  0.59129413  0.79914086  0.00277710  1
  Ti  Ti120  1  0.59791672  0.59668837  0.24892569  1
  Ti  Ti121  1  0.39824140  -0.01225251  0.00362975  1
  Ti  Ti122  1  0.90810225  0.30284024  0.62233533  1
  Ti  Ti123  1  0.00955973  0.19819678  0.74535235  1
  Ti  Ti124  1  0.50376296  0.09144464  0.12081397  1
  Ti  Ti125  1  0.19386145  0.79649195  -0.00119532  1
  Ti  Ti126  1  0.19831390  0.79804277  0.47657379  1
  Ti  Ti127  1  0.28948002  0.29369342  0.13581847  1
  Ti  Ti128  1  0.60995716  0.19384435  0.49725213  1
  Ti  Ti129  1  0.29713596  0.09493324  0.87258192  1
  Ti  Ti130  1  0.81971889  0.20609037  0.75018575  1
  Ti  Ti131  1  0.48761383  0.70933804  0.62446190  1
  Ti  Ti132  1  0.10827597  0.09922945  0.87184618  1
  Ti  Ti133  1  0.19461752  0.40351086  0.75545157  1
  Ti  Ti134  1  0.58869473  0.21080264  0.76273708  1
  Ti  Ti135  1  0.71184221  0.10069138  0.62756052  1
  Ti  Ti136  1  0.30102478  0.28928755  0.88465794  1
  Ti  Ti137  1  0.89594582  0.70682606  0.13357007  1
  Ti  Ti138  1  0.39418107  0.78695640  0.75570039  1
  Ti  Ti139  1  0.69889440  0.70299440  0.88134143  1
  Ti  Ti140  1  0.40466820  0.58927802  -0.00144107  1
  Ti  Ti141  1  0.70500989  0.10039158  0.11572568  1
  Ti  Ti142  1  0.50086233  0.49564716  0.36870834  1
  Ti  Ti143  1  -0.00704846  0.61073706  0.00312585  1
  Ti  Ti144  1  0.11115511  0.10864142  0.60758963  1
  Ti  Ti145  1  0.00018579  -0.00493392  0.00771054  1
  Ti  Ti146  1  0.81108497  0.20499363  0.25989559  1
  Ti  Ti147  1  0.21499553  0.00118161  0.49806602  1
  Ti  Ti148  1  0.28916361  0.49101928  0.37586585  1
  Ti  Ti149  1  0.79816245  0.79796727  0.75525106  1
  Ti  Ti150  1  0.21673671  0.21307317  0.49420078  1
  Ti  Ti151  1  0.81617830  0.39846490  0.25871569  1
  Ti  Ti152  1  0.28814515  0.87990355  0.14950317  1
  Ti  Ti153  1  0.19103032  0.60646859  0.27297290  1
  Ti  Ti154  1  0.81710387  0.00605514  -0.00357329  1
  Ti  Ti155  1  0.80187781  0.40528688  0.49783668  1
  Ti  Ti156  1  0.59641261  0.80063850  0.75321004  1
  Ti  Ti157  1  0.70052577  0.70783427  0.62996728  1
  Ti  Ti158  1  0.00906531  0.00781665  0.74141210  1
  Ti  Ti159  1  0.18934469  0.79876186  0.75826119  1
  Mo  Mo160  1  0.80290236  0.40597377  -0.00769255  1
  Mo  Mo161  1  -0.00051482  0.00836697  0.26132194  1
  Mo  Mo162  1  0.09584671  0.50349773  0.37979784  1
  Mo  Mo163  1  0.29474271  0.28918552  0.61926475  1
  Mo  Mo164  1  0.52036840  0.08873090  0.37279253  1
  Mo  Mo165  1  0.39300055  0.39431985  0.00840629  1
  Mo  Mo166  1  0.49581768  0.49614574  0.62325782  1
  Mo  Mo167  1  -0.01228845  0.41069193  0.26564832  1
  Mo  Mo168  1  0.29923296  0.69415971  0.37193855  1
  Mo  Mo169  1  0.60036607  0.60985954  0.00054061  1
  Mo  Mo170  1  0.50115385  0.49333180  0.88021634  1
  Mo  Mo171  1  0.29844291  0.88690551  0.36686449  1
  Mo  Mo172  1  0.40025556  0.19476594  0.75767011  1
  Mo  Mo173  1  0.19411093  0.79041721  0.26753090  1
  Mo  Mo174  1  0.80083648  0.79587732  0.24475650  1
  Mo  Mo175  1  0.00467379  0.01041156  0.49700529  1
  Mo  Mo176  1  0.10113433  0.30037271  0.38947971  1
  Mo  Mo177  1  0.09292053  0.71120332  0.37496570  1
  Mo  Mo178  1  0.88601046  0.49924636  0.37858289  1
  Mo  Mo179  1  0.18934320  -0.02389015  0.25263476  1
  Mo  Mo180  1  0.70042283  0.50299917  0.12402485  1
  Mo  Mo181  1  0.69590830  0.70054838  0.37498973  1
  Mo  Mo182  1  0.81502009  0.19889416  -0.00836604  1
  Mo  Mo183  1  0.39434832  0.79223268  0.25401615  1
  Mo  Mo184  1  0.20812434  0.20410803  0.24743950  1
  Mo  Mo185  1  0.10582507  0.89368062  0.12741958  1
  Mo  Mo186  1  0.90088817  0.29182218  0.86308893  1
  Mo  Mo187  1  0.89756598  0.91061797  0.87367982  1
  Mo  Mo188  1  0.09286573  0.70303141  0.88096795  1
  Mo  Mo189  1  0.91200487  0.31116184  0.13142718  1
  Mo  Mo190  1  0.19468716  0.40133444  0.47988165  1
  Mo  Mo191  1  0.89670897  0.29960822  0.37895149  1
  Mo  Mo192  1  0.10149622  0.30732394  0.12335067  1
  Mo  Mo193  1  0.00780103  0.20605485  0.49680761  1
  Mo  Mo194  1  0.28824319  0.27933060  0.36168133  1
  Mo  Mo195  1  0.29837781  0.70058098  0.87254223  1
  Mo  Mo196  1  0.89918102  0.90697960  0.39170513  1
  Mo  Mo197  1  0.40782709  -0.01406628  0.24148492  1
  Mo  Mo198  1  0.91022928  0.90762142  0.12231626  1
  Mo  Mo199  1  -0.00466280  0.80623058  0.48396070  1
