# generated using pymatgen
data_HfZrTaTiMo
_symmetry_space_group_name_H-M   'P 1'
_cell_length_a   15.21673781
_cell_length_b   15.21490605
_cell_length_c   16.82983144
_cell_angle_alpha   90.03984539
_cell_angle_beta   90.00760023
_cell_angle_gamma   90.07603283
_symmetry_Int_Tables_number   1
_chemical_formula_structural   HfZrTaTiMo
_chemical_formula_sum   'Hf40 Zr40 Ta40 Ti40 Mo40'
_cell_volume   3896.45897244
_cell_formula_units_Z   40
loop_
 _symmetry_equiv_pos_site_id
 _symmetry_equiv_pos_as_xyz
  1  'x, y, z'
loop_
 _atom_site_type_symbol
 _atom_site_label
 _atom_site_symmetry_multiplicity
 _atom_site_fract_x
 _atom_site_fract_y
 _atom_site_fract_z
 _atom_site_occupancy
  Hf  Hf0  1  0.10135765  0.08975378  0.37763400  1
  Hf  Hf1  1  0.60052459  0.39326487  0.75124706  1
  Hf  Hf2  1  0.60649673  0.38946981  0.25694984  1
  Hf  Hf3  1  0.80221711  0.40315062  0.76010470  1
  Hf  Hf4  1  0.91159970  0.29150410  0.87239867  1
  Hf  Hf5  1  0.09643557  0.29530470  0.35844913  1
  Hf  Hf6  1  0.89113108  0.08778271  0.60524286  1
  Hf  Hf7  1  0.89629691  0.11208656  0.38500123  1
  Hf  Hf8  1  0.62277467  0.21416830  0.52446531  1
  Hf  Hf9  1  0.60870148  0.61237104  0.26316097  1
  Hf  Hf10  1  0.32680215  0.30544442  0.38218318  1
  Hf  Hf11  1  0.21227071  0.82127879  -0.01135355  1
  Hf  Hf12  1  0.89895102  0.90735429  0.38671803  1
  Hf  Hf13  1  0.79026987  0.79378650  0.49000050  1
  Hf  Hf14  1  0.49175093  0.71751873  0.37089050  1
  Hf  Hf15  1  0.57865964  0.40214096  0.48203459  1
  Hf  Hf16  1  0.58079962  0.00833522  0.24502439  1
  Hf  Hf17  1  0.42290771  0.20699039  0.51661445  1
  Hf  Hf18  1  0.70650843  0.30184846  0.11200425  1
  Hf  Hf19  1  0.09502933  0.09578479  0.60641444  1
  Hf  Hf20  1  0.69526590  0.09751530  0.38308071  1
  Hf  Hf21  1  0.20721145  0.61048752  0.75318579  1
  Hf  Hf22  1  0.60379443  0.60892981  0.00526675  1
  Hf  Hf23  1  0.20396488  0.20076438  0.74460796  1
  Hf  Hf24  1  0.10789434  0.90402128  0.12041682  1
  Hf  Hf25  1  0.70051855  0.29557834  0.89068092  1
  Hf  Hf26  1  -0.01898971  0.00114629  0.01064924  1
  Hf  Hf27  1  -0.00188354  0.82000879  0.75051691  1
  Hf  Hf28  1  0.39699469  0.78766336  0.75358663  1
  Hf  Hf29  1  0.69434427  0.69391513  0.62517141  1
  Hf  Hf30  1  0.08457995  0.91192017  0.88466657  1
  Hf  Hf31  1  -0.00562870  0.59735422  0.49662600  1
  Hf  Hf32  1  0.18658168  -0.00266906  0.74845666  1
  Hf  Hf33  1  0.88224767  0.89317047  0.12841013  1
  Hf  Hf34  1  0.50062199  0.29400967  0.88262578  1
  Hf  Hf35  1  0.40239522  0.57951955  0.47447160  1
  Hf  Hf36  1  0.09723674  0.09738231  0.14047915  1
  Hf  Hf37  1  0.29870971  0.09611442  0.61080709  1
  Hf  Hf38  1  0.89275990  0.30226258  0.63071162  1
  Hf  Hf39  1  -0.00300499  0.21907298  0.49569992  1
  Zr  Zr40  1  0.81416624  0.40655115  -0.00615880  1
  Zr  Zr41  1  0.78490171  -0.00695392  0.24928585  1
  Zr  Zr42  1  0.19814145  0.59482649  0.49434918  1
  Zr  Zr43  1  0.02153791  0.40845798  0.01849166  1
  Zr  Zr44  1  0.19556218  0.59188438  0.01540361  1
  Zr  Zr45  1  0.61071736  0.81232372  -0.00189313  1
  Zr  Zr46  1  0.49494407  0.50525057  0.87427796  1
  Zr  Zr47  1  0.69206410  0.09003709  0.88061224  1
  Zr  Zr48  1  0.79107751  0.18980126  0.74999355  1
  Zr  Zr49  1  0.09872880  0.30593462  0.63023392  1
  Zr  Zr50  1  0.30680051  0.50610406  0.62744726  1
  Zr  Zr51  1  0.00232455  0.19820000  0.00380032  1
  Zr  Zr52  1  0.22262124  0.18501723  0.25567970  1
  Zr  Zr53  1  0.23360251  0.39389364  0.02852784  1
  Zr  Zr54  1  0.09868885  0.50913086  0.87135267  1
  Zr  Zr55  1  0.30609757  0.29912776  0.87768389  1
  Zr  Zr56  1  0.30463923  0.88820464  0.60384575  1
  Zr  Zr57  1  0.80512911  0.79566058  0.74854066  1
  Zr  Zr58  1  0.69501944  0.48861115  0.62063710  1
  Zr  Zr59  1  0.22039662  0.40174012  0.23577941  1
  Zr  Zr60  1  0.58907285  0.81179604  0.50154700  1
  Zr  Zr61  1  0.10988763  0.30374431  0.87464702  1
  Zr  Zr62  1  0.80034787  0.58507118  0.49487824  1
  Zr  Zr63  1  0.31224783  0.69468928  0.88837765  1
  Zr  Zr64  1  0.50717431  0.71008991  0.13667901  1
  Zr  Zr65  1  -0.00496015  0.80976743  0.25153649  1
  Zr  Zr66  1  0.30926702  0.71863452  0.11815842  1
  Zr  Zr67  1  0.79348245  0.37504559  0.48330773  1
  Zr  Zr68  1  0.19936315  0.39823905  0.49710387  1
  Zr  Zr69  1  0.48725942  0.68964997  0.61782294  1
  Zr  Zr70  1  0.70573637  0.51130691  0.13274518  1
  Zr  Zr71  1  0.09618946  0.90023310  0.59972417  1
  Zr  Zr72  1  0.10217818  0.49808186  0.36039495  1
  Zr  Zr73  1  0.79831861  0.20402756  0.24800971  1
  Zr  Zr74  1  0.47564627  0.90667270  0.11797676  1
  Zr  Zr75  1  0.09683500  0.70371411  0.62257746  1
  Zr  Zr76  1  0.59010671  0.01196899  0.52370690  1
  Zr  Zr77  1  0.40119229  -0.00494039  0.74493989  1
  Zr  Zr78  1  0.00444903  0.60214023  0.23742226  1
  Zr  Zr79  1  -0.01504025  0.60658753  0.00901807  1
  Ta  Ta80  1  0.19625627  0.79579836  0.25424266  1
  Ta  Ta81  1  0.38366215  0.82537207  0.25976869  1
  Ta  Ta82  1  0.39620782  0.19206220  0.00193572  1
  Ta  Ta83  1  0.59501064  0.40905478  0.00459807  1
  Ta  Ta84  1  0.09432323  0.70410049  0.37601512  1
  Ta  Ta85  1  0.89421969  0.69089309  0.36876312  1
  Ta  Ta86  1  0.20405964  0.60799684  0.23839744  1
  Ta  Ta87  1  0.30417951  0.49400152  0.87505393  1
  Ta  Ta88  1  0.40568406  0.20213310  0.73973596  1
  Ta  Ta89  1  0.90648632  0.29191969  0.13051646  1
  Ta  Ta90  1  0.31864353  0.08340174  0.39281199  1
  Ta  Ta91  1  0.10563601  0.89382636  0.39085688  1
  Ta  Ta92  1  0.48171697  0.92456041  0.38067791  1
  Ta  Ta93  1  0.50331097  0.11627557  0.38212106  1
  Ta  Ta94  1  -0.00746837  0.40949803  0.49417022  1
  Ta  Ta95  1  0.78346395  0.79353853  0.26740853  1
  Ta  Ta96  1  0.10792890  0.29075237  0.14033317  1
  Ta  Ta97  1  0.41519823  0.19569247  0.25001524  1
  Ta  Ta98  1  0.71108169  0.90527879  0.62759612  1
  Ta  Ta99  1  0.20061707  0.80636430  0.76118032  1
  Ta  Ta100  1  0.49876165  0.90152790  0.87707539  1
  Ta  Ta101  1  0.29463341  0.09586534  0.87631616  1
  Ta  Ta102  1  0.50015038  0.50034668  0.13684093  1
  Ta  Ta103  1  0.60541396  0.00051720  0.73985863  1
  Ta  Ta104  1  0.69841483  0.50837478  0.87673895  1
  Ta  Ta105  1  0.80167050  0.59866152  0.75023398  1
  Ta  Ta106  1  0.70255692  0.69739292  0.86706154  1
  Ta  Ta107  1  0.39977370  0.39885365  0.74659472  1
  Ta  Ta108  1  0.21646287  -0.02056875  0.26421611  1
  Ta  Ta109  1  0.20483404  0.40595165  0.74584675  1
  Ta  Ta110  1  0.59620748  0.80551341  0.74721147  1
  Ta  Ta111  1  0.09683775  0.71234538  0.11579924  1
  Ta  Ta112  1  0.60137169  0.59978127  0.47754807  1
  Ta  Ta113  1  0.80889909  0.79720766  -0.00791279  1
  Ta  Ta114  1  0.40403942  0.58571611  0.01239475  1
  Ta  Ta115  1  0.20522740  0.18967572  0.01211444  1
  Ta  Ta116  1  0.89336239  0.49405355  0.13942322  1
  Ta  Ta117  1  0.81546017  -0.00962151  0.74872706  1
  Ta  Ta118  1  0.39445433  0.60212300  0.25859482  1
  Ta  Ta119  1  0.48804296  0.10769688  0.11722436  1
  Ti  Ti120  1  0.80961992  0.17900794  0.00806906  1
  Ti  Ti121  1  0.70881536  0.49924323  0.36359325  1
  Ti  Ti122  1  0.70922644  0.72003769  0.13139007  1
  Ti  Ti123  1  -0.00638734  0.60979352  0.74970889  1
  Ti  Ti124  1  0.59493654  0.60208310  0.75115757  1
  Ti  Ti125  1  0.37728908  -0.01225793  -0.01221320  1
  Ti  Ti126  1  0.58805482  0.00404868  0.00385876  1
  Ti  Ti127  1  0.59501460  0.19789513  0.73412714  1
  Ti  Ti128  1  0.60188822  0.82144569  0.26145211  1
  Ti  Ti129  1  0.49671742  0.49727684  0.62370019  1
  Ti  Ti130  1  0.90480838  0.70861957  0.87599141  1
  Ti  Ti131  1  0.90017065  0.48961492  0.35486269  1
  Ti  Ti132  1  0.88923261  0.69851304  0.13084688  1
  Ti  Ti133  1  0.59750886  0.19400164  0.00582129  1
  Ti  Ti134  1  0.40987240  0.39482995  0.24596147  1
  Ti  Ti135  1  0.00185327  0.40960543  0.75278784  1
  Ti  Ti136  1  0.30059982  0.07673618  0.12298458  1
  Ti  Ti137  1  0.50802257  0.70024682  0.87546884  1
  Ti  Ti138  1  0.29562080  0.70012116  0.61435588  1
  Ti  Ti139  1  -0.00162755  0.39108070  0.23887178  1
  Ti  Ti140  1  0.28995461  0.70601845  0.37723928  1
  Ti  Ti141  1  0.30722766  0.30718790  0.61932623  1
  Ti  Ti142  1  0.90237809  0.08144702  0.87202396  1
  Ti  Ti143  1  -0.00167618  0.17993883  0.74675939  1
  Ti  Ti144  1  0.90452842  0.89741764  0.60176996  1
  Ti  Ti145  1  0.20707605  0.20176168  0.49126454  1
  Ti  Ti146  1  0.49482753  0.09831308  0.87275687  1
  Ti  Ti147  1  0.89944159  0.51423819  0.87199832  1
  Ti  Ti148  1  0.78238156  -0.01240328  0.00394983  1
  Ti  Ti149  1  0.79675318  0.60675732  -0.00194653  1
  Ti  Ti150  1  0.09370010  0.50215433  0.63140251  1
  Ti  Ti151  1  0.60121321  0.19958278  0.24235591  1
  Ti  Ti152  1  -0.00860818  0.00655195  0.25035059  1
  Ti  Ti153  1  0.69603450  0.09155453  0.11904249  1
  Ti  Ti154  1  0.09569965  0.10531458  0.87600278  1
  Ti  Ti155  1  0.09530464  0.70830705  0.88379546  1
  Ti  Ti156  1  0.70263278  0.89789854  0.86614344  1
  Ti  Ti157  1  0.90023960  0.70164494  0.62083692  1
  Ti  Ti158  1  0.49896512  0.30157466  0.11600138  1
  Ti  Ti159  1  0.90408113  0.50203373  0.63036049  1
  Mo  Mo160  1  0.80048276  0.19863657  0.50004251  1
  Mo  Mo161  1  0.20464478  0.00246994  0.48714398  1
  Mo  Mo162  1  0.40325164  0.59350714  0.75135757  1
  Mo  Mo163  1  -0.00619020  0.00700474  0.74781612  1
  Mo  Mo164  1  0.32168994  0.27138766  0.12925097  1
  Mo  Mo165  1  0.68386909  0.90220794  0.37835346  1
  Mo  Mo166  1  0.30257463  0.50084126  0.35585905  1
  Mo  Mo167  1  0.39953231  0.39943704  0.49942329  1
  Mo  Mo168  1  0.38960556  0.01440369  0.25404953  1
  Mo  Mo169  1  -0.00535232  0.79769678  0.00448468  1
  Mo  Mo170  1  0.41284729  0.39835001  0.01253865  1
  Mo  Mo171  1  0.00055839  0.19597519  0.24599455  1
  Mo  Mo172  1  0.49541776  0.49584884  0.35451403  1
  Mo  Mo173  1  0.30256402  0.89065727  0.39310480  1
  Mo  Mo174  1  0.80455643  0.39823514  0.25391807  1
  Mo  Mo175  1  -0.00858273  0.78802506  0.48938902  1
  Mo  Mo176  1  -0.00309052  -0.00008468  0.48905774  1
  Mo  Mo177  1  0.50473654  0.89093287  0.63516731  1
  Mo  Mo178  1  0.49833031  0.31367822  0.63328478  1
  Mo  Mo179  1  0.51297848  0.29027768  0.37056346  1
  Mo  Mo180  1  0.80282018  0.60480395  0.25459622  1
  Mo  Mo181  1  0.41155349  -0.00354942  0.51175986  1
  Mo  Mo182  1  0.29533598  0.90409011  0.12515289  1
  Mo  Mo183  1  0.31728774  0.50764661  0.13892456  1
  Mo  Mo184  1  0.19828083  0.78942636  0.48946646  1
  Mo  Mo185  1  0.69950906  0.28802372  0.36931110  1
  Mo  Mo186  1  0.88948885  0.90335519  0.88225317  1
  Mo  Mo187  1  0.39663416  0.79206354  0.49353160  1
  Mo  Mo188  1  0.88966159  0.09918964  0.12681018  1
  Mo  Mo189  1  0.10103324  0.50004941  0.13571986  1
  Mo  Mo190  1  0.49987093  0.10186845  0.64068316  1
  Mo  Mo191  1  0.70820723  0.09677093  0.63600579  1
  Mo  Mo192  1  0.30030882  0.90636721  0.86618124  1
  Mo  Mo193  1  0.68768742  0.89552759  0.12382068  1
  Mo  Mo194  1  0.41009958  0.79955266  -0.01476030  1
  Mo  Mo195  1  0.69544992  0.70177319  0.37792465  1
  Mo  Mo196  1  0.78600561  -0.00682535  0.50013568  1
  Mo  Mo197  1  0.19480336  0.01545226  -0.00617725  1
  Mo  Mo198  1  0.70390647  0.30589930  0.63524744  1
  Mo  Mo199  1  0.90443186  0.30802407  0.36199610  1
