# generated using pymatgen
data_HfZrTaTiMo
_symmetry_space_group_name_H-M   'P 1'
_cell_length_a   15.21667781
_cell_length_b   15.21205737
_cell_length_c   16.84998915
_cell_angle_alpha   90.01082586
_cell_angle_beta   89.98640017
_cell_angle_gamma   90.00389866
_symmetry_Int_Tables_number   1
_chemical_formula_structural   HfZrTaTiMo
_chemical_formula_sum   'Hf40 Zr40 Ta40 Ti40 Mo40'
_cell_volume   3900.38434144
_cell_formula_units_Z   40
loop_
 _symmetry_equiv_pos_site_id
 _symmetry_equiv_pos_as_xyz
  1  'x, y, z'
loop_
 _atom_site_type_symbol
 _atom_site_label
 _atom_site_symmetry_multiplicity
 _atom_site_fract_x
 _atom_site_fract_y
 _atom_site_fract_z
 _atom_site_occupancy
  Hf  Hf0  1  0.38681373  0.19265128  0.50716816  1
  Hf  Hf1  1  0.19374395  0.39355212  0.73010912  1
  Hf  Hf2  1  0.59272485  0.20167555  0.25257642  1
  Hf  Hf3  1  0.90909521  0.90566072  0.62822196  1
  Hf  Hf4  1  0.30528455  0.90502495  0.12807605  1
  Hf  Hf5  1  0.79772733  0.39823240  0.24889313  1
  Hf  Hf6  1  0.19592057  0.01055157  0.00420353  1
  Hf  Hf7  1  0.19661685  0.17913522  0.72836223  1
  Hf  Hf8  1  0.91246702  0.69457642  0.86499625  1
  Hf  Hf9  1  0.59637602  0.61072039  0.23408188  1
  Hf  Hf10  1  0.89757158  0.30519934  0.87440551  1
  Hf  Hf11  1  0.01439611  0.40732833  0.25499063  1
  Hf  Hf12  1  0.11906174  0.70088711  0.86198147  1
  Hf  Hf13  1  -0.00654883  0.20172965  0.25223752  1
  Hf  Hf14  1  0.69567362  0.10634125  0.86798356  1
  Hf  Hf15  1  0.10593114  0.69868381  0.37598965  1
  Hf  Hf16  1  0.20267718  0.59887140  -0.00528955  1
  Hf  Hf17  1  0.60413739  0.60185560  0.75248767  1
  Hf  Hf18  1  0.30321837  0.29765028  0.86077004  1
  Hf  Hf19  1  0.80241699  0.00233609  0.48790694  1
  Hf  Hf20  1  0.01189743  0.80835947  0.50391905  1
  Hf  Hf21  1  0.40857064  0.80888036  0.75985565  1
  Hf  Hf22  1  0.90152931  0.30619512  0.12487293  1
  Hf  Hf23  1  0.10695034  0.50747726  0.12257891  1
  Hf  Hf24  1  0.90146315  0.71246820  0.36188484  1
  Hf  Hf25  1  0.79601708  0.79513555  0.75018221  1
  Hf  Hf26  1  0.51037489  0.70323557  0.62213996  1
  Hf  Hf27  1  0.49924290  0.47666998  0.12533892  1
  Hf  Hf28  1  0.38810586  -0.00965766  0.49122637  1
  Hf  Hf29  1  0.40614219  0.59065839  0.50501711  1
  Hf  Hf30  1  0.79906352  -0.00092708  0.75404412  1
  Hf  Hf31  1  0.49005856  0.09091324  0.63146056  1
  Hf  Hf32  1  0.29367987  0.08052079  0.35506645  1
  Hf  Hf33  1  0.79655334  0.19170225  0.00581801  1
  Hf  Hf34  1  0.50132123  0.29933367  0.87903127  1
  Hf  Hf35  1  0.30787025  0.70672353  0.37905625  1
  Hf  Hf36  1  0.20180743  0.59923515  0.25174144  1
  Hf  Hf37  1  0.30586619  0.51336650  0.85303955  1
  Hf  Hf38  1  0.59388318  0.00110910  0.26509265  1
  Hf  Hf39  1  0.11324347  0.90886914  0.36999550  1
  Zr  Zr40  1  0.48052452  0.10031861  0.86818250  1
  Zr  Zr41  1  0.81008933  0.79506164  0.50972366  1
  Zr  Zr42  1  0.09896275  0.30238745  0.39305055  1
  Zr  Zr43  1  0.40550518  0.78979500  0.00105098  1
  Zr  Zr44  1  0.30912133  0.70226489  0.63553306  1
  Zr  Zr45  1  0.80012575  -0.00870821  0.26699464  1
  Zr  Zr46  1  0.59963336  -0.01487794  -0.01048075  1
  Zr  Zr47  1  0.00818553  0.19099040  -0.00015860  1
  Zr  Zr48  1  0.70677028  0.51145938  0.12398982  1
  Zr  Zr49  1  0.88471511  0.31140086  0.61589548  1
  Zr  Zr50  1  -0.01039920  -0.00753606  -0.00037394  1
  Zr  Zr51  1  0.49163018  0.69012688  0.87339333  1
  Zr  Zr52  1  0.81178684  0.61636934  0.00279840  1
  Zr  Zr53  1  0.81771499  0.59189740  0.50587417  1
  Zr  Zr54  1  0.68270161  0.89548401  0.61338666  1
  Zr  Zr55  1  0.69767963  0.30902485  0.88743575  1
  Zr  Zr56  1  0.10662043  0.29633271  0.87182597  1
  Zr  Zr57  1  0.61345592  0.40652215  0.75239036  1
  Zr  Zr58  1  0.69811874  0.50237250  0.36696063  1
  Zr  Zr59  1  0.89368017  0.30433974  0.38186085  1
  Zr  Zr60  1  0.68197353  0.30429697  0.12132074  1
  Zr  Zr61  1  0.02028166  0.01169502  0.75193274  1
  Zr  Zr62  1  0.29698794  0.29194310  0.37650644  1
  Zr  Zr63  1  0.49430710  0.08951280  0.13033531  1
  Zr  Zr64  1  0.80464951  0.57612432  0.75035610  1
  Zr  Zr65  1  0.58220344  0.20353639  0.49095571  1
  Zr  Zr66  1  0.39195180  0.19219531  0.00396802  1
  Zr  Zr67  1  0.01050493  0.41571152  -0.00413155  1
  Zr  Zr68  1  0.58567118  -0.01609291  0.76054354  1
  Zr  Zr69  1  0.88820538  0.09057255  0.13229038  1
  Zr  Zr70  1  0.70441802  0.69298035  0.37426295  1
  Zr  Zr71  1  0.69774315  0.10025187  0.62413561  1
  Zr  Zr72  1  0.11568411  0.30533793  0.11892473  1
  Zr  Zr73  1  -0.00210570  0.78409669  0.00367998  1
  Zr  Zr74  1  0.00033679  0.81140740  0.24464773  1
  Zr  Zr75  1  0.68705834  0.30547021  0.61248148  1
  Zr  Zr76  1  0.90610977  0.11508442  0.61973609  1
  Zr  Zr77  1  0.50838619  0.69904966  0.38305460  1
  Zr  Zr78  1  0.69447755  0.88463056  0.38487717  1
  Zr  Zr79  1  0.30722748  0.49396662  0.38249294  1
  Ta  Ta80  1  0.29608136  0.10047227  0.14450938  1
  Ta  Ta81  1  0.19388873  0.20174310  0.24939436  1
  Ta  Ta82  1  0.40868875  0.79055697  0.24064010  1
  Ta  Ta83  1  0.41075714  0.38952474  0.51582544  1
  Ta  Ta84  1  0.10737156  0.70730616  0.63576945  1
  Ta  Ta85  1  0.91548950  0.69040806  0.63940981  1
  Ta  Ta86  1  0.10477171  0.90426692  0.87965826  1
  Ta  Ta87  1  0.39483705  -0.00774833  -0.00528142  1
  Ta  Ta88  1  0.29898376  0.90791748  0.63052148  1
  Ta  Ta89  1  0.19266747  0.18868319  0.51586041  1
  Ta  Ta90  1  0.91151125  0.51372149  0.13478285  1
  Ta  Ta91  1  0.19562922  -0.00089464  0.50633081  1
  Ta  Ta92  1  0.50445814  0.49421240  0.88487190  1
  Ta  Ta93  1  0.51206425  0.88454633  0.12481990  1
  Ta  Ta94  1  0.39634887  0.58996598  0.00703699  1
  Ta  Ta95  1  0.00852665  0.80867892  0.74853171  1
  Ta  Ta96  1  0.29609427  0.89560023  0.87989352  1
  Ta  Ta97  1  0.30908022  0.50156072  0.63608138  1
  Ta  Ta98  1  0.19837175  0.59953561  0.51346394  1
  Ta  Ta99  1  0.09906217  0.50575611  0.85917812  1
  Ta  Ta100  1  0.10187935  0.09583931  0.13591325  1
  Ta  Ta101  1  0.87644992  0.88779221  0.12344451  1
  Ta  Ta102  1  0.70280751  0.69427686  0.62182495  1
  Ta  Ta103  1  0.20546596  0.40062891  0.52304021  1
  Ta  Ta104  1  -0.00318159  0.42008819  0.50422549  1
  Ta  Ta105  1  0.80448935  0.40835635  0.00818656  1
  Ta  Ta106  1  0.20889791  0.80327120  0.24343584  1
  Ta  Ta107  1  0.90270590  0.10442601  0.86929848  1
  Ta  Ta108  1  0.31672659  0.30117910  0.13901158  1
  Ta  Ta109  1  0.91080826  0.51524249  0.36144454  1
  Ta  Ta110  1  0.58798425  0.20518284  0.74459014  1
  Ta  Ta111  1  -0.01309386  0.40999286  0.74232179  1
  Ta  Ta112  1  0.48755403  0.30933492  0.36593540  1
  Ta  Ta113  1  0.20914986  0.40016751  0.25466382  1
  Ta  Ta114  1  0.58693929  0.00632647  0.47890584  1
  Ta  Ta115  1  0.08247983  0.29510533  0.61325244  1
  Ta  Ta116  1  0.21481500  0.80740466  0.50596253  1
  Ta  Ta117  1  0.68416270  0.30669112  0.37557334  1
  Ta  Ta118  1  0.59290418  0.61128631  0.01072028  1
  Ta  Ta119  1  0.38826794  0.39775677  -0.00298529  1
  Ti  Ti120  1  0.30097376  0.69329537  0.12714811  1
  Ti  Ti121  1  0.70212598  0.73036295  0.12140719  1
  Ti  Ti122  1  0.79604343  0.21217664  0.75017594  1
  Ti  Ti123  1  0.90029243  0.89936294  0.87100199  1
  Ti  Ti124  1  0.69779217  0.70312248  0.88484799  1
  Ti  Ti125  1  0.10785756  0.50260028  0.38583946  1
  Ti  Ti126  1  0.89907244  0.69647116  0.14082542  1
  Ti  Ti127  1  0.09766888  0.90003416  0.12460910  1
  Ti  Ti128  1  0.27576577  0.09782616  0.87131760  1
  Ti  Ti129  1  0.90638315  0.10047874  0.37825862  1
  Ti  Ti130  1  -0.00055794  0.20815555  0.74997106  1
  Ti  Ti131  1  0.20279876  0.79984847  0.00430136  1
  Ti  Ti132  1  0.37720589  0.00615319  0.75470629  1
  Ti  Ti133  1  0.20781568  0.20850552  0.00534372  1
  Ti  Ti134  1  0.60472513  0.80587316  0.24519111  1
  Ti  Ti135  1  0.09963473  0.10535603  0.37430067  1
  Ti  Ti136  1  0.60785028  0.58950321  0.50515959  1
  Ti  Ti137  1  0.78951990  0.81501888  -0.00894164  1
  Ti  Ti138  1  -0.00052784  0.00106264  0.25339262  1
  Ti  Ti139  1  0.78570595  0.18994038  0.25742113  1
  Ti  Ti140  1  0.29912774  0.49028458  0.12631178  1
  Ti  Ti141  1  0.79070161  0.19767125  0.48583935  1
  Ti  Ti142  1  0.60490001  0.80033754  0.76052623  1
  Ti  Ti143  1  0.50549210  0.49250209  0.36769140  1
  Ti  Ti144  1  0.00652529  0.60762830  0.50409874  1
  Ti  Ti145  1  0.51195906  0.49355802  0.62551434  1
  Ti  Ti146  1  0.71048699  0.49440913  0.61958411  1
  Ti  Ti147  1  0.20437007  0.81460075  0.74973695  1
  Ti  Ti148  1  0.48170319  0.89148079  0.37380806  1
  Ti  Ti149  1  0.00802554  0.01014169  0.49785373  1
  Ti  Ti150  1  0.70140068  0.50463750  0.89369513  1
  Ti  Ti151  1  0.90368240  0.50032979  0.87889887  1
  Ti  Ti152  1  0.79266988  -0.00203738  -0.00757288  1
  Ti  Ti153  1  0.09184933  0.51254343  0.63152980  1
  Ti  Ti154  1  0.49193261  0.89392870  0.61192343  1
  Ti  Ti155  1  0.09860297  0.69901881  0.12705620  1
  Ti  Ti156  1  0.59434250  0.19305803  0.01126162  1
  Ti  Ti157  1  0.41170723  0.39050864  0.73690899  1
  Ti  Ti158  1  0.79258998  0.40663273  0.48834655  1
  Ti  Ti159  1  0.40031780  0.59339912  0.24328972  1
  Mo  Mo160  1  0.49316376  0.29599031  0.12155397  1
  Mo  Mo161  1  0.49478101  0.29903520  0.63009018  1
  Mo  Mo162  1  0.90503330  0.49934724  0.61973518  1
  Mo  Mo163  1  0.70580088  0.89227804  0.87250949  1
  Mo  Mo164  1  0.39998914  0.80224636  0.50332715  1
  Mo  Mo165  1  0.59479093  0.39944413  0.25473374  1
  Mo  Mo166  1  0.40013723  0.40181544  0.25184105  1
  Mo  Mo167  1  0.10749010  0.89758953  0.62264708  1
  Mo  Mo168  1  0.10045675  0.10285671  0.87789649  1
  Mo  Mo169  1  0.91207347  0.90856471  0.37897331  1
  Mo  Mo170  1  0.69844070  0.08864962  0.12471222  1
  Mo  Mo171  1  0.29681971  0.09023914  0.62559949  1
  Mo  Mo172  1  0.00826181  0.60299307  0.25174677  1
  Mo  Mo173  1  0.69832654  0.91532101  0.12643657  1
  Mo  Mo174  1  0.00505440  0.60497665  -0.00078580  1
  Mo  Mo175  1  0.18781748  -0.00565164  0.23975478  1
  Mo  Mo176  1  0.39570187  0.20139448  0.73999945  1
  Mo  Mo177  1  0.41196070  0.58973097  0.74410913  1
  Mo  Mo178  1  0.29732282  0.70429534  0.86993110  1
  Mo  Mo179  1  0.60738075  0.79426635  -0.00106019  1
  Mo  Mo180  1  0.48800750  0.10152822  0.36769886  1
  Mo  Mo181  1  0.29850256  0.88746874  0.36525653  1
  Mo  Mo182  1  0.80724488  0.60790238  0.24148832  1
  Mo  Mo183  1  0.39878915  0.19487881  0.25135580  1
  Mo  Mo184  1  0.59480368  0.40766186  -0.00415520  1
  Mo  Mo185  1  0.59288750  0.80017680  0.50220450  1
  Mo  Mo186  1  0.59002480  0.41150990  0.49681381  1
  Mo  Mo187  1  0.69847638  0.10933193  0.38044019  1
  Mo  Mo188  1  0.20334551  0.60119279  0.73698995  1
  Mo  Mo189  1  0.80222958  0.39846023  0.75517647  1
  Mo  Mo190  1  0.29760322  0.29969995  0.62735210  1
  Mo  Mo191  1  0.39981944  -0.01745026  0.25174545  1
  Mo  Mo192  1  0.09359465  0.09382244  0.61459532  1
  Mo  Mo193  1  0.00881178  0.59870217  0.74656481  1
  Mo  Mo194  1  0.49824919  0.69259381  0.12532174  1
  Mo  Mo195  1  0.19971089  -0.01149441  0.75397165  1
  Mo  Mo196  1  0.79164337  0.80052019  0.24432758  1
  Mo  Mo197  1  0.49378188  0.89700725  0.87754448  1
  Mo  Mo198  1  0.21831451  0.40481430  -0.00727100  1
  Mo  Mo199  1  -0.00171391  0.20061724  0.49296565  1
