# generated using pymatgen
data_HfZrTaTiMo
_symmetry_space_group_name_H-M   'P 1'
_cell_length_a   15.20650504
_cell_length_b   15.21638043
_cell_length_c   16.83930280
_cell_angle_alpha   89.97880059
_cell_angle_beta   90.00193350
_cell_angle_gamma   90.03324732
_symmetry_Int_Tables_number   1
_chemical_formula_structural   HfZrTaTiMo
_chemical_formula_sum   'Hf40 Zr40 Ta40 Ti40 Mo40'
_cell_volume   3896.41109485
_cell_formula_units_Z   40
loop_
 _symmetry_equiv_pos_site_id
 _symmetry_equiv_pos_as_xyz
  1  'x, y, z'
loop_
 _atom_site_type_symbol
 _atom_site_label
 _atom_site_symmetry_multiplicity
 _atom_site_fract_x
 _atom_site_fract_y
 _atom_site_fract_z
 _atom_site_occupancy
  Hf  Hf0  1  0.20104945  0.39143947  0.00380700  1
  Hf  Hf1  1  0.91091433  0.69610503  0.36897148  1
  Hf  Hf2  1  0.30091383  0.50781413  0.63748520  1
  Hf  Hf3  1  0.48537005  0.69395363  0.37542542  1
  Hf  Hf4  1  0.71158192  0.48265085  0.88195832  1
  Hf  Hf5  1  0.58568273  0.80441504  0.25063245  1
  Hf  Hf6  1  0.59879759  0.20122959  -0.00652830  1
  Hf  Hf7  1  0.61138893  0.39956121  0.24589284  1
  Hf  Hf8  1  0.80615671  0.39417800  0.51055626  1
  Hf  Hf9  1  0.88942756  0.10348741  0.39445534  1
  Hf  Hf10  1  0.38762592  0.01269968  -0.00654593  1
  Hf  Hf11  1  0.71264424  0.27153069  0.63142926  1
  Hf  Hf12  1  0.91343581  0.69833425  0.62577575  1
  Hf  Hf13  1  0.50585612  0.89946879  0.89524215  1
  Hf  Hf14  1  0.48430473  0.69599298  0.62222474  1
  Hf  Hf15  1  0.78734944  0.58760030  0.74390473  1
  Hf  Hf16  1  0.61613513  0.40317897  0.73664890  1
  Hf  Hf17  1  -0.00805840  0.01854870  0.74326732  1
  Hf  Hf18  1  -0.01591796  0.81486388  -0.00712293  1
  Hf  Hf19  1  0.19894371  0.00092210  0.74703047  1
  Hf  Hf20  1  0.89743236  0.71784775  0.13164863  1
  Hf  Hf21  1  -0.00062455  0.59041408  0.01278684  1
  Hf  Hf22  1  0.50549881  0.89964718  0.62910012  1
  Hf  Hf23  1  0.80705032  0.00798534  0.24789466  1
  Hf  Hf24  1  -0.01107455  0.20223495  0.24438840  1
  Hf  Hf25  1  0.40006267  0.61538302  0.76440273  1
  Hf  Hf26  1  0.39606159  0.80926763  0.76287888  1
  Hf  Hf27  1  0.91783482  0.49138590  0.62927407  1
  Hf  Hf28  1  0.39883019  0.19860677  0.24952549  1
  Hf  Hf29  1  0.69155008  0.09734432  0.11821632  1
  Hf  Hf30  1  0.59659809  0.58591432  0.50448698  1
  Hf  Hf31  1  0.51201627  0.50506830  0.88101197  1
  Hf  Hf32  1  0.49039625  0.91289207  0.37455672  1
  Hf  Hf33  1  0.22024947  0.61253197  0.24122821  1
  Hf  Hf34  1  0.80513711  -0.00652564  0.00864552  1
  Hf  Hf35  1  0.29683731  0.09071210  0.37722360  1
  Hf  Hf36  1  0.38815817  -0.00955009  0.24080972  1
  Hf  Hf37  1  0.59491686  0.77202235  0.77163039  1
  Hf  Hf38  1  0.10837245  0.71755455  0.12017655  1
  Hf  Hf39  1  0.49979067  0.30291537  0.11397673  1
  Zr  Zr40  1  0.68952867  0.70009245  0.12674993  1
  Zr  Zr41  1  0.29233256  0.89299291  0.10762227  1
  Zr  Zr42  1  0.10764950  0.49375529  0.12771419  1
  Zr  Zr43  1  0.70237757  0.89196174  0.12723408  1
  Zr  Zr44  1  0.10555010  0.50437098  0.36521782  1
  Zr  Zr45  1  0.70290004  0.90469626  0.37581927  1
  Zr  Zr46  1  0.10119651  0.29071556  0.86597379  1
  Zr  Zr47  1  0.40489076  0.40659745  0.75518576  1
  Zr  Zr48  1  0.80832817  0.80083677  0.49229951  1
  Zr  Zr49  1  0.69817762  0.69091237  0.37451702  1
  Zr  Zr50  1  0.58991193  0.59301443  0.24436038  1
  Zr  Zr51  1  0.67925053  0.10285816  0.37824090  1
  Zr  Zr52  1  0.79626447  0.20683660  0.24241631  1
  Zr  Zr53  1  0.59323964  0.20178175  0.24360437  1
  Zr  Zr54  1  0.20308511  0.78485522  0.49050386  1
  Zr  Zr55  1  0.90140432  0.30206310  0.88963328  1
  Zr  Zr56  1  0.39695395  0.39384774  -0.01176486  1
  Zr  Zr57  1  0.61382407  -0.01429338  0.75604959  1
  Zr  Zr58  1  0.09718110  0.91324737  0.12898783  1
  Zr  Zr59  1  0.41019617  0.39983690  0.51642313  1
  Zr  Zr60  1  0.11317416  0.69346995  0.89516948  1
  Zr  Zr61  1  0.30460354  0.10974967  0.63475606  1
  Zr  Zr62  1  0.80357107  0.59401228  0.00627544  1
  Zr  Zr63  1  0.10267803  0.30485814  0.37474477  1
  Zr  Zr64  1  0.78835312  0.80738497  0.75434664  1
  Zr  Zr65  1  0.10180579  0.89057746  0.62729052  1
  Zr  Zr66  1  0.89422783  0.69299497  0.87206696  1
  Zr  Zr67  1  0.31106037  0.30994963  0.37413758  1
  Zr  Zr68  1  -0.00293171  0.59400308  0.23782451  1
  Zr  Zr69  1  0.60250617  0.38964410  0.51734021  1
  Zr  Zr70  1  -0.00092087  0.02637722  -0.00470012  1
  Zr  Zr71  1  0.40402258  0.00711362  0.50687631  1
  Zr  Zr72  1  0.69282918  0.70181738  0.61928078  1
  Zr  Zr73  1  0.00048161  0.80085683  0.75762027  1
  Zr  Zr74  1  0.87143911  0.10592644  0.60951647  1
  Zr  Zr75  1  0.79489030  0.58865901  0.24274603  1
  Zr  Zr76  1  0.37917411  0.60091514  0.49801346  1
  Zr  Zr77  1  0.10176549  0.31522011  0.62633866  1
  Zr  Zr78  1  0.09697081  0.91031940  0.87339671  1
  Zr  Zr79  1  0.09631102  0.10725442  0.38874444  1
  Ta  Ta80  1  0.81677262  0.39604653  0.24676406  1
  Ta  Ta81  1  0.82012136  0.37712106  0.74182672  1
  Ta  Ta82  1  0.29694289  0.30011179  0.64273758  1
  Ta  Ta83  1  0.20423339  0.78590715  0.75676903  1
  Ta  Ta84  1  0.50860208  0.29597627  0.86476223  1
  Ta  Ta85  1  0.21100701  0.41482987  0.50259110  1
  Ta  Ta86  1  0.50219482  0.89885542  0.10595299  1
  Ta  Ta87  1  0.80663221  0.58958291  0.50391407  1
  Ta  Ta88  1  0.20169304  -0.00761572  0.50904607  1
  Ta  Ta89  1  0.09697841  0.49319271  0.88635889  1
  Ta  Ta90  1  0.91093166  0.49136230  0.86912838  1
  Ta  Ta91  1  0.70783492  0.90967654  0.61251623  1
  Ta  Ta92  1  0.21391690  0.40062377  0.24104463  1
  Ta  Ta93  1  0.38916441  0.78752721  0.24196453  1
  Ta  Ta94  1  0.49366157  0.27716895  0.64587446  1
  Ta  Ta95  1  0.10614379  0.90707474  0.37344526  1
  Ta  Ta96  1  0.40636082  0.00889394  0.75936083  1
  Ta  Ta97  1  0.70649652  0.28439941  0.87091268  1
  Ta  Ta98  1  0.88150423  0.91988543  0.86632218  1
  Ta  Ta99  1  0.58938916  0.80307763  0.49562409  1
  Ta  Ta100  1  0.40711298  0.20365729  0.50296451  1
  Ta  Ta101  1  0.19889141  0.19362503  0.00217616  1
  Ta  Ta102  1  0.29520489  0.90017433  0.88384273  1
  Ta  Ta103  1  0.28459409  0.50987317  0.87539666  1
  Ta  Ta104  1  0.70971459  0.08514141  0.88274031  1
  Ta  Ta105  1  0.90167912  0.49185888  0.37764308  1
  Ta  Ta106  1  0.30462492  0.89322829  0.63075660  1
  Ta  Ta107  1  -0.00528741  -0.00856861  0.50247614  1
  Ta  Ta108  1  -0.01746729  0.21582388  0.73721642  1
  Ta  Ta109  1  0.48861436  0.09655706  0.11149591  1
  Ta  Ta110  1  0.11110823  0.52124575  0.61969010  1
  Ta  Ta111  1  0.49835359  0.48759190  0.37188536  1
  Ta  Ta112  1  0.00629815  0.80085509  0.49273625  1
  Ta  Ta113  1  0.50682284  0.50155714  0.10563800  1
  Ta  Ta114  1  0.38653785  0.20347101  -0.01474636  1
  Ta  Ta115  1  0.02161255  0.59463375  0.75431981  1
  Ta  Ta116  1  0.70654175  0.30264680  0.38068523  1
  Ta  Ta117  1  0.89565956  0.90317693  0.62443472  1
  Ta  Ta118  1  0.39169496  0.80676367  0.49691422  1
  Ta  Ta119  1  0.09135677  0.11290166  0.61025716  1
  Ti  Ti120  1  0.28235225  0.10947851  0.86276277  1
  Ti  Ti121  1  0.01248242  0.60515853  0.49534064  1
  Ti  Ti122  1  0.20674449  0.82068689  0.25862103  1
  Ti  Ti123  1  0.29855158  0.29680364  0.12639901  1
  Ti  Ti124  1  0.90271198  0.30070549  0.38416589  1
  Ti  Ti125  1  0.58983496  0.19358323  0.50759770  1
  Ti  Ti126  1  0.29485469  0.29746929  0.85519821  1
  Ti  Ti127  1  0.00340640  -0.00097879  0.26111098  1
  Ti  Ti128  1  0.30195068  0.70506642  0.89746017  1
  Ti  Ti129  1  0.00978640  0.40424765  0.49769429  1
  Ti  Ti130  1  0.78453981  0.79400809  -0.01550249  1
  Ti  Ti131  1  0.70386230  0.49228116  0.37776226  1
  Ti  Ti132  1  0.30778860  0.50864162  0.36728827  1
  Ti  Ti133  1  0.40395539  0.59548137  0.23258130  1
  Ti  Ti134  1  0.30082651  0.69676623  0.10179089  1
  Ti  Ti135  1  0.89946612  0.11335017  0.86909446  1
  Ti  Ti136  1  0.50973838  0.29570329  0.37676944  1
  Ti  Ti137  1  0.19982792  0.19832356  0.24923610  1
  Ti  Ti138  1  0.50155390  0.10135002  0.87893911  1
  Ti  Ti139  1  0.81220754  0.19266298  0.01064262  1
  Ti  Ti140  1  0.81224697  0.80841714  0.26211487  1
  Ti  Ti141  1  0.39592710  0.59441222  -0.00074800  1
  Ti  Ti142  1  0.09713341  0.30120543  0.13417296  1
  Ti  Ti143  1  0.20898834  0.20920678  0.50510969  1
  Ti  Ti144  1  0.71015215  0.30701021  0.10878795  1
  Ti  Ti145  1  0.10735533  0.70465632  0.36069608  1
  Ti  Ti146  1  0.70239634  0.48720511  0.11019998  1
  Ti  Ti147  1  0.10059546  0.10336809  0.13360556  1
  Ti  Ti148  1  0.49182649  0.70710217  0.10578343  1
  Ti  Ti149  1  0.27807879  0.69985899  0.62850213  1
  Ti  Ti150  1  0.28932494  0.10268116  0.12522402  1
  Ti  Ti151  1  0.19155657  0.01332349  -0.01016713  1
  Ti  Ti152  1  0.18742444  0.41577515  0.75350054  1
  Ti  Ti153  1  0.00710488  0.21015746  0.01480517  1
  Ti  Ti154  1  0.60497732  0.60696483  -0.00291112  1
  Ti  Ti155  1  0.90922913  0.90814530  0.13550377  1
  Ti  Ti156  1  0.60210516  0.18163203  0.75560722  1
  Ti  Ti157  1  0.58559870  0.00592595  0.24337762  1
  Ti  Ti158  1  0.59765710  0.00566578  0.50627910  1
  Ti  Ti159  1  0.40729847  0.40766392  0.23961683  1
  Mo  Mo160  1  0.89722290  0.47919508  0.12203082  1
  Mo  Mo161  1  0.68059410  0.09178004  0.62122537  1
  Mo  Mo162  1  0.49317963  0.69515897  0.89578828  1
  Mo  Mo163  1  0.00175801  0.39684130  0.00625878  1
  Mo  Mo164  1  0.19647208  0.80690551  -0.00521132  1
  Mo  Mo165  1  0.71166830  0.49789031  0.62589057  1
  Mo  Mo166  1  0.80259882  0.38939848  0.00076346  1
  Mo  Mo167  1  0.91009704  0.29272034  0.61445217  1
  Mo  Mo168  1  0.19606420  0.01206660  0.25018686  1
  Mo  Mo169  1  0.09985924  0.69598175  0.62454277  1
  Mo  Mo170  1  0.20197699  0.60453318  0.75873280  1
  Mo  Mo171  1  0.79780927  0.00539375  0.74968036  1
  Mo  Mo172  1  0.20928427  0.59322150  0.00931591  1
  Mo  Mo173  1  0.00176859  0.40739924  0.74983215  1
  Mo  Mo174  1  0.50513674  0.10164795  0.63625820  1
  Mo  Mo175  1  0.50644155  0.50391127  0.63766464  1
  Mo  Mo176  1  0.39886082  0.79753780  -0.00305759  1
  Mo  Mo177  1  0.70188415  0.89434956  0.88667624  1
  Mo  Mo178  1  0.90900570  0.09786842  0.12709831  1
  Mo  Mo179  1  0.60640791  0.39669654  -0.00382219  1
  Mo  Mo180  1  0.09468341  0.11404865  0.86903184  1
  Mo  Mo181  1  0.90444520  0.30405473  0.11382426  1
  Mo  Mo182  1  0.79657114  0.18620030  0.75829364  1
  Mo  Mo183  1  0.29595255  0.89655579  0.37272125  1
  Mo  Mo184  1  0.39934729  0.19698900  0.77043014  1
  Mo  Mo185  1  0.31653925  0.49376285  0.12605221  1
  Mo  Mo186  1  0.91535356  0.90331455  0.37413732  1
  Mo  Mo187  1  0.19510397  0.59556394  0.48999625  1
  Mo  Mo188  1  0.19053664  0.19996777  0.74107837  1
  Mo  Mo189  1  0.68951933  0.68270180  0.87896901  1
  Mo  Mo190  1  0.78294139  0.20487128  0.49056549  1
  Mo  Mo191  1  0.79297738  -0.00455744  0.49666146  1
  Mo  Mo192  1  0.59905859  0.00450490  -0.00028492  1
  Mo  Mo193  1  0.29988906  0.70165720  0.36177865  1
  Mo  Mo194  1  0.60281013  0.79485179  -0.00659762  1
  Mo  Mo195  1  -0.00354252  0.39270667  0.25400273  1
  Mo  Mo196  1  0.00314006  0.81050007  0.25977867  1
  Mo  Mo197  1  0.59292342  0.58734151  0.74741847  1
  Mo  Mo198  1  -0.00379096  0.21037023  0.50578222  1
  Mo  Mo199  1  0.49083099  0.10930715  0.37565504  1
