# generated using pymatgen
data_HfZrTaTiMo
_symmetry_space_group_name_H-M   'P 1'
_cell_length_a   15.18166972
_cell_length_b   15.19001958
_cell_length_c   16.82520736
_cell_angle_alpha   90.03305804
_cell_angle_beta   90.02594144
_cell_angle_gamma   90.09515457
_symmetry_Int_Tables_number   1
_chemical_formula_structural   HfZrTaTiMo
_chemical_formula_sum   'Hf40 Zr40 Ta40 Ti40 Mo40'
_cell_volume   3880.05232252
_cell_formula_units_Z   40
loop_
 _symmetry_equiv_pos_site_id
 _symmetry_equiv_pos_as_xyz
  1  'x, y, z'
loop_
 _atom_site_type_symbol
 _atom_site_label
 _atom_site_symmetry_multiplicity
 _atom_site_fract_x
 _atom_site_fract_y
 _atom_site_fract_z
 _atom_site_occupancy
  Hf  Hf0  1  0.09629679  0.30465223  0.12427369  1
  Hf  Hf1  1  0.82289408  0.01617369  0.00033421  1
  Hf  Hf2  1  0.29142122  0.71650166  0.38914652  1
  Hf  Hf3  1  0.80163265  0.59043043  0.24964812  1
  Hf  Hf4  1  0.08820875  0.08891298  0.88666506  1
  Hf  Hf5  1  0.62031949  0.00053067  0.75909273  1
  Hf  Hf6  1  0.89234801  0.28264468  0.88095193  1
  Hf  Hf7  1  0.39343944  0.20482480  0.76489140  1
  Hf  Hf8  1  0.48737125  0.50633199  0.13075787  1
  Hf  Hf9  1  0.40482343  -0.00893537  -0.00183757  1
  Hf  Hf10  1  0.78448160  0.79899209  0.74567268  1
  Hf  Hf11  1  0.01370761  0.38936533  0.76461217  1
  Hf  Hf12  1  0.78947155  0.81318824  0.00584128  1
  Hf  Hf13  1  0.49555952  0.30476932  0.64126533  1
  Hf  Hf14  1  0.10946451  0.88966145  0.36784653  1
  Hf  Hf15  1  0.51715749  0.88717114  0.86826573  1
  Hf  Hf16  1  0.79561137  0.60826057  0.01125116  1
  Hf  Hf17  1  0.59916911  0.21213240  0.48979190  1
  Hf  Hf18  1  0.30492728  0.91125458  0.36924900  1
  Hf  Hf19  1  0.19829427  0.19800787  0.50002459  1
  Hf  Hf20  1  0.50027334  0.51655032  0.86978207  1
  Hf  Hf21  1  0.41289944  0.78655486  -0.00887444  1
  Hf  Hf22  1  0.30033298  0.68593688  0.87704283  1
  Hf  Hf23  1  0.80481818  0.79266166  0.25907692  1
  Hf  Hf24  1  0.88825208  0.69459500  0.86340802  1
  Hf  Hf25  1  0.88992798  0.29362545  0.12762925  1
  Hf  Hf26  1  0.68870055  0.30622394  0.88443297  1
  Hf  Hf27  1  0.10527329  0.48769364  0.62220945  1
  Hf  Hf28  1  0.60112572  0.60812938  0.24739093  1
  Hf  Hf29  1  0.39831020  0.20279233  0.50224068  1
  Hf  Hf30  1  0.89806787  0.70892122  0.62322092  1
  Hf  Hf31  1  0.39577189  0.39868471  -0.00295512  1
  Hf  Hf32  1  0.50160290  0.30103012  0.35334993  1
  Hf  Hf33  1  0.70497967  0.10324057  0.61471495  1
  Hf  Hf34  1  0.51170856  0.10461098  0.88564482  1
  Hf  Hf35  1  0.49094444  0.71281488  0.13504197  1
  Hf  Hf36  1  0.10575262  0.69462207  0.39507209  1
  Hf  Hf37  1  0.69694301  0.70635671  0.39108918  1
  Hf  Hf38  1  0.29440719  0.70641965  0.62011174  1
  Hf  Hf39  1  0.69029832  0.31138778  0.62825945  1
  Zr  Zr40  1  0.91209002  0.89844018  0.87415425  1
  Zr  Zr41  1  0.49328982  0.70125914  0.38193394  1
  Zr  Zr42  1  0.61838868  0.62573015  0.74145308  1
  Zr  Zr43  1  0.81606437  0.20234584  0.48718211  1
  Zr  Zr44  1  0.09272607  0.28299648  0.62250093  1
  Zr  Zr45  1  0.37859462  0.60150075  0.25119868  1
  Zr  Zr46  1  0.49493080  0.29039103  0.12575605  1
  Zr  Zr47  1  0.90035014  0.90092189  0.14113312  1
  Zr  Zr48  1  0.89870770  0.29720310  0.62941723  1
  Zr  Zr49  1  0.39354805  0.59182788  0.51031285  1
  Zr  Zr50  1  0.29849303  0.10511171  0.64004600  1
  Zr  Zr51  1  0.51504414  0.71282675  0.61041514  1
  Zr  Zr52  1  0.90629467  0.50206423  0.11937938  1
  Zr  Zr53  1  0.60476351  0.41597703  0.01129623  1
  Zr  Zr54  1  -0.00974957  0.38713645  0.48566578  1
  Zr  Zr55  1  0.19538980  0.79704381  -0.00321940  1
  Zr  Zr56  1  0.41391443  0.39894297  0.50190002  1
  Zr  Zr57  1  0.00416733  0.39910983  -0.01145361  1
  Zr  Zr58  1  0.28686756  0.50979698  0.37535042  1
  Zr  Zr59  1  0.10619678  0.09056630  0.37115245  1
  Zr  Zr60  1  0.79932998  0.40680008  0.75478725  1
  Zr  Zr61  1  0.81265525  0.00321401  0.74908537  1
  Zr  Zr62  1  0.22395684  0.00849623  0.23153303  1
  Zr  Zr63  1  0.20736886  0.58454527  0.74464909  1
  Zr  Zr64  1  0.19009364  0.41635932  0.24679905  1
  Zr  Zr65  1  0.10807823  0.10549567  0.12283119  1
  Zr  Zr66  1  -0.01807605  0.40349621  0.26703167  1
  Zr  Zr67  1  -0.00311192  0.59754059  0.26819487  1
  Zr  Zr68  1  0.28332932  0.68806402  0.11281173  1
  Zr  Zr69  1  -0.00519206  0.78861872  0.01261134  1
  Zr  Zr70  1  0.30359026  0.30154642  0.35691344  1
  Zr  Zr71  1  0.19032839  -0.00324346  0.74404170  1
  Zr  Zr72  1  0.50504732  0.10408821  0.63519715  1
  Zr  Zr73  1  0.70704940  0.52266000  0.87206320  1
  Zr  Zr74  1  0.70216217  0.10673320  0.12311813  1
  Zr  Zr75  1  0.49924256  0.91044179  0.63461756  1
  Zr  Zr76  1  0.69244132  0.49535087  0.37536357  1
  Zr  Zr77  1  0.70210052  0.88839347  0.60439454  1
  Zr  Zr78  1  0.20270310  -0.01526151  0.51368252  1
  Zr  Zr79  1  0.29161168  0.09577590  0.87425848  1
  Ta  Ta80  1  0.10193717  0.29503714  0.37361248  1
  Ta  Ta81  1  0.59982618  0.81089228  0.25810082  1
  Ta  Ta82  1  0.50040374  0.90528636  0.37515498  1
  Ta  Ta83  1  0.39158165  0.17680060  0.23641427  1
  Ta  Ta84  1  0.00431332  0.20048982  0.25682615  1
  Ta  Ta85  1  0.79669967  0.19321139  0.75041249  1
  Ta  Ta86  1  0.40376910  0.79418188  0.75510356  1
  Ta  Ta87  1  0.59854280  0.00455739  0.48752940  1
  Ta  Ta88  1  -0.01374435  0.18451589  0.00360976  1
  Ta  Ta89  1  0.30795384  0.10198424  0.37285548  1
  Ta  Ta90  1  0.59746524  0.00358493  0.25423328  1
  Ta  Ta91  1  0.67505516  0.72989175  0.88739101  1
  Ta  Ta92  1  0.51273919  0.49435097  0.64057136  1
  Ta  Ta93  1  0.20730256  -0.00396547  0.00952744  1
  Ta  Ta94  1  0.20524091  0.40327600  0.49670377  1
  Ta  Ta95  1  0.58524588  0.62337637  0.00692899  1
  Ta  Ta96  1  0.90938510  0.09535592  0.61593879  1
  Ta  Ta97  1  0.69691074  0.71059031  0.12841545  1
  Ta  Ta98  1  0.39547892  0.82159566  0.50363948  1
  Ta  Ta99  1  0.10548672  0.89054268  0.87250795  1
  Ta  Ta100  1  0.60299381  0.19651598  0.24800011  1
  Ta  Ta101  1  0.00085794  0.60015321  0.74733140  1
  Ta  Ta102  1  0.59861606  0.58364059  0.50273569  1
  Ta  Ta103  1  0.70177923  0.10156255  0.36672580  1
  Ta  Ta104  1  0.38578258  0.20130521  -0.00338909  1
  Ta  Ta105  1  0.09564618  0.69400018  0.61421515  1
  Ta  Ta106  1  0.90092902  0.10055344  0.14657038  1
  Ta  Ta107  1  0.70636639  0.30283915  0.36100447  1
  Ta  Ta108  1  0.40315450  0.00927389  0.50085157  1
  Ta  Ta109  1  0.28854343  0.31496822  0.63555515  1
  Ta  Ta110  1  0.01177591  0.78439238  0.24748308  1
  Ta  Ta111  1  0.71298425  0.11224336  0.89035369  1
  Ta  Ta112  1  0.38630046  0.41081600  0.75771658  1
  Ta  Ta113  1  0.60837363  0.40407992  0.23298054  1
  Ta  Ta114  1  0.60789759  0.20697303  0.76002863  1
  Ta  Ta115  1  -0.00697480  0.17854637  0.75706790  1
  Ta  Ta116  1  0.79108173  0.40473593  0.49792232  1
  Ta  Ta117  1  0.70704397  0.50910761  0.62343101  1
  Ta  Ta118  1  0.49312532  0.49112902  0.35848862  1
  Ta  Ta119  1  -0.00718765  0.59107603  0.49212989  1
  Ti  Ti120  1  0.61717217  -0.01211471  -0.00299745  1
  Ti  Ti121  1  0.30090901  0.89590000  0.86431234  1
  Ti  Ti122  1  0.10623510  0.51386025  0.11302420  1
  Ti  Ti123  1  0.50958936  0.90505132  0.12876231  1
  Ti  Ti124  1  0.28953911  0.28975597  0.13068900  1
  Ti  Ti125  1  0.29125866  0.49129020  0.11414731  1
  Ti  Ti126  1  0.30399457  0.90047899  0.63994271  1
  Ti  Ti127  1  0.08553347  0.88408904  0.62603079  1
  Ti  Ti128  1  0.09329246  0.69582929  0.86856728  1
  Ti  Ti129  1  -0.00606704  -0.00292598  0.49675204  1
  Ti  Ti130  1  0.90805073  0.89997977  0.36457763  1
  Ti  Ti131  1  0.70007085  0.90918839  0.13931538  1
  Ti  Ti132  1  0.80871367  -0.00025286  0.48887461  1
  Ti  Ti133  1  0.00325817  0.60327595  -0.00504379  1
  Ti  Ti134  1  0.11550563  0.88318625  0.13672492  1
  Ti  Ti135  1  0.18230891  0.61938340  0.24867570  1
  Ti  Ti136  1  0.20043277  0.38612968  -0.00856673  1
  Ti  Ti137  1  -0.00180887  0.80449814  0.49571409  1
  Ti  Ti138  1  0.39498916  0.81001909  0.25145678  1
  Ti  Ti139  1  0.90372627  0.50503753  0.87295539  1
  Ti  Ti140  1  0.70319213  0.90827326  0.37556156  1
  Ti  Ti141  1  -0.00027273  -0.01469989  0.74190639  1
  Ti  Ti142  1  0.31372263  0.89442470  0.12586223  1
  Ti  Ti143  1  0.49530404  0.09824271  0.36766803  1
  Ti  Ti144  1  0.81232745  0.80558346  0.48925001  1
  Ti  Ti145  1  0.29746256  0.49578316  0.88364730  1
  Ti  Ti146  1  0.18471739  0.21400946  0.76318324  1
  Ti  Ti147  1  0.40495314  0.60349167  0.73772051  1
  Ti  Ti148  1  0.08956251  0.09339335  0.62030190  1
  Ti  Ti149  1  0.70073977  0.30092471  0.12208953  1
  Ti  Ti150  1  0.00809778  -0.00602335  0.24726453  1
  Ti  Ti151  1  0.50388216  0.09625252  0.11340795  1
  Ti  Ti152  1  0.10710781  0.50095118  0.87644896  1
  Ti  Ti153  1  0.80076785  0.40610268  -0.00001093  1
  Ti  Ti154  1  0.01280362  -0.01472959  0.01485219  1
  Ti  Ti155  1  0.89949902  0.09636619  0.35789398  1
  Ti  Ti156  1  0.90274951  0.50173340  0.62680548  1
  Ti  Ti157  1  0.18832374  0.79201685  0.74893198  1
  Ti  Ti158  1  0.49582948  0.30744214  0.87532594  1
  Ti  Ti159  1  0.80668161  0.60035591  0.49715453  1
  Mo  Mo160  1  0.08821763  0.68872155  0.12514466  1
  Mo  Mo161  1  0.49719076  0.69580655  0.86949959  1
  Mo  Mo162  1  0.39658398  0.59197270  0.00087567  1
  Mo  Mo163  1  0.59930572  0.40241737  0.49810495  1
  Mo  Mo164  1  0.20403632  0.79480807  0.24339952  1
  Mo  Mo165  1  0.69684352  0.50426314  0.12177686  1
  Mo  Mo166  1  0.19483618  0.20468492  -0.00418389  1
  Mo  Mo167  1  0.79824016  0.20819978  0.00626230  1
  Mo  Mo168  1  0.19818772  0.80601632  0.51409650  1
  Mo  Mo169  1  0.89317795  0.29229311  0.36550688  1
  Mo  Mo170  1  0.89760823  0.69956324  0.12931302  1
  Mo  Mo171  1  0.90248108  0.70710101  0.38820614  1
  Mo  Mo172  1  0.19299973  0.59324500  0.51568724  1
  Mo  Mo173  1  0.00790261  0.79553336  0.74625387  1
  Mo  Mo174  1  0.29609307  0.30419391  0.87489077  1
  Mo  Mo175  1  0.59962392  0.81206189  0.01708629  1
  Mo  Mo176  1  0.30760420  0.49195443  0.62874447  1
  Mo  Mo177  1  0.39516490  0.39511711  0.23400829  1
  Mo  Mo178  1  0.41808623  -0.00276731  0.23903217  1
  Mo  Mo179  1  0.70689148  0.69736362  0.59657657  1
  Mo  Mo180  1  0.90326006  0.09515623  0.87647037  1
  Mo  Mo181  1  0.79879948  -0.00122847  0.26254078  1
  Mo  Mo182  1  0.20171741  0.39189737  0.76546953  1
  Mo  Mo183  1  0.18929232  0.58386602  -0.00949327  1
  Mo  Mo184  1  0.90724190  0.90628260  0.61272253  1
  Mo  Mo185  1  0.60539316  0.80347304  0.74444186  1
  Mo  Mo186  1  0.09973997  0.49571844  0.38839271  1
  Mo  Mo187  1  0.31192726  0.10439626  0.10870627  1
  Mo  Mo188  1  0.59825649  0.80907848  0.48320633  1
  Mo  Mo189  1  0.70563228  0.91184301  0.88086740  1
  Mo  Mo190  1  0.88715746  0.49764690  0.38443652  1
  Mo  Mo191  1  0.59383944  0.40457983  0.75643385  1
  Mo  Mo192  1  0.81507797  0.59819311  0.73511661  1
  Mo  Mo193  1  0.40006234  -0.00980052  0.76461377  1
  Mo  Mo194  1  0.79013565  0.39746033  0.24386864  1
  Mo  Mo195  1  0.00105831  0.18171675  0.48346514  1
  Mo  Mo196  1  0.80121492  0.20145928  0.25629562  1
  Mo  Mo197  1  0.59156806  0.20217099  -0.00193753  1
  Mo  Mo198  1  0.20108534  0.20483029  0.25113413  1
  Mo  Mo199  1  0.09985575  0.28565753  0.88591477  1
