# generated using pymatgen
data_HfZrTaTiMo
_symmetry_space_group_name_H-M   'P 1'
_cell_length_a   15.17964833
_cell_length_b   15.18171123
_cell_length_c   16.77834275
_cell_angle_alpha   90.00069058
_cell_angle_beta   89.96523151
_cell_angle_gamma   90.05813947
_symmetry_Int_Tables_number   1
_chemical_formula_structural   HfZrTaTiMo
_chemical_formula_sum   'Hf40 Zr40 Ta40 Ti40 Mo40'
_cell_volume   3866.61734910
_cell_formula_units_Z   40
loop_
 _symmetry_equiv_pos_site_id
 _symmetry_equiv_pos_as_xyz
  1  'x, y, z'
loop_
 _atom_site_type_symbol
 _atom_site_label
 _atom_site_symmetry_multiplicity
 _atom_site_fract_x
 _atom_site_fract_y
 _atom_site_fract_z
 _atom_site_occupancy
  Hf  Hf0  1  -0.01483720  0.39947727  -0.00011000  1
  Hf  Hf1  1  0.38742317  -0.00092514  -0.01134420  1
  Hf  Hf2  1  -0.01997862  0.19206380  -0.00593658  1
  Hf  Hf3  1  0.89281197  0.49258305  0.38531097  1
  Hf  Hf4  1  0.68315409  0.09350993  0.62082864  1
  Hf  Hf5  1  0.89179729  0.31605174  0.14543032  1
  Hf  Hf6  1  0.40807935  0.60831551  0.74762084  1
  Hf  Hf7  1  0.21024200  0.59298323  0.24033043  1
  Hf  Hf8  1  0.20138093  0.40174558  0.76551085  1
  Hf  Hf9  1  0.28466317  0.11108140  0.11591251  1
  Hf  Hf10  1  0.69682735  0.90287512  0.11415961  1
  Hf  Hf11  1  0.60141015  0.80890546  0.25163942  1
  Hf  Hf12  1  0.29921495  0.11275705  0.63313316  1
  Hf  Hf13  1  0.40044040  0.40360858  0.51139122  1
  Hf  Hf14  1  0.49760838  0.50255039  0.36532081  1
  Hf  Hf15  1  0.08530746  0.08987377  0.86475849  1
  Hf  Hf16  1  0.60944853  0.60751033  0.25471317  1
  Hf  Hf17  1  0.10220707  0.90294154  0.38018837  1
  Hf  Hf18  1  0.10206776  0.49276662  0.37754285  1
  Hf  Hf19  1  0.80642833  0.19098794  0.48597634  1
  Hf  Hf20  1  0.39643196  0.40624816  0.01550241  1
  Hf  Hf21  1  0.21060640  0.79799705  0.51113767  1
  Hf  Hf22  1  0.69032302  0.11452344  0.13513302  1
  Hf  Hf23  1  0.50587999  0.29604781  0.14688684  1
  Hf  Hf24  1  0.02217770  0.19387129  0.48451338  1
  Hf  Hf25  1  0.38687308  -0.00666303  0.24674119  1
  Hf  Hf26  1  0.71528451  0.51121493  0.61361224  1
  Hf  Hf27  1  0.59532571  0.00623405  0.26578008  1
  Hf  Hf28  1  0.50806588  0.11938506  0.86692510  1
  Hf  Hf29  1  0.78521679  0.20747910  0.74106580  1
  Hf  Hf30  1  0.79279423  -0.00799994  0.26094820  1
  Hf  Hf31  1  0.09295019  0.10053000  0.64399778  1
  Hf  Hf32  1  0.00275401  0.58978720  0.51225115  1
  Hf  Hf33  1  0.40414152  0.41137920  0.73887623  1
  Hf  Hf34  1  0.50545616  0.49368898  0.88050094  1
  Hf  Hf35  1  0.79913060  0.78631389  0.24888967  1
  Hf  Hf36  1  0.80259464  0.01471779  -0.00433742  1
  Hf  Hf37  1  0.01323091  0.19565337  0.26020380  1
  Hf  Hf38  1  0.00352796  0.79505652  0.24984606  1
  Hf  Hf39  1  0.89268428  0.10542930  0.13346722  1
  Zr  Zr40  1  0.19063638  0.00501770  0.24893004  1
  Zr  Zr41  1  0.70921776  0.72152325  0.61617466  1
  Zr  Zr42  1  0.39653295  0.79341526  0.24161583  1
  Zr  Zr43  1  0.70714727  0.48262944  0.87351445  1
  Zr  Zr44  1  0.59132746  0.40482429  0.50713780  1
  Zr  Zr45  1  0.70091080  0.32071126  0.37131434  1
  Zr  Zr46  1  0.89205612  0.88793632  0.38304375  1
  Zr  Zr47  1  0.01280235  0.60441269  -0.01305684  1
  Zr  Zr48  1  0.10214916  0.88345728  0.86226571  1
  Zr  Zr49  1  0.20739387  0.59784305  0.76473417  1
  Zr  Zr50  1  0.00416112  0.79967095  0.52213532  1
  Zr  Zr51  1  0.19252645  0.00540844  0.51169474  1
  Zr  Zr52  1  -0.00054054  0.59103530  0.24749986  1
  Zr  Zr53  1  0.10830000  0.28524540  0.11084880  1
  Zr  Zr54  1  0.49393117  0.10528623  0.12897526  1
  Zr  Zr55  1  0.50439077  0.71568192  0.38385761  1
  Zr  Zr56  1  0.39776015  0.60159643  0.51370190  1
  Zr  Zr57  1  0.90665477  0.91134426  0.85734730  1
  Zr  Zr58  1  0.39652462  0.21377248  -0.00905609  1
  Zr  Zr59  1  0.29536108  0.30303085  0.63185914  1
  Zr  Zr60  1  0.90532017  0.29420554  0.61654863  1
  Zr  Zr61  1  -0.01505592  -0.00294187  0.51589580  1
  Zr  Zr62  1  0.51104451  0.50229841  0.12513384  1
  Zr  Zr63  1  0.59892704  0.01158215  -0.01054807  1
  Zr  Zr64  1  0.70423720  0.69735708  0.11085238  1
  Zr  Zr65  1  0.60352524  0.39530840  0.73271059  1
  Zr  Zr66  1  0.31126685  0.90580589  0.63747507  1
  Zr  Zr67  1  0.28546775  0.10943164  0.38307867  1
  Zr  Zr68  1  0.01339975  0.59478549  0.75040100  1
  Zr  Zr69  1  0.49764024  0.69905260  0.10047989  1
  Zr  Zr70  1  0.90620286  0.49253965  0.86743089  1
  Zr  Zr71  1  0.80980176  0.79660636  -0.01908459  1
  Zr  Zr72  1  0.20833968  0.80124932  0.24597051  1
  Zr  Zr73  1  0.59318920  0.18600970  0.48304002  1
  Zr  Zr74  1  0.90374501  0.89308171  0.12198203  1
  Zr  Zr75  1  0.00530972  0.39291678  0.75062849  1
  Zr  Zr76  1  0.29997741  0.69161230  0.38194626  1
  Zr  Zr77  1  0.10890225  0.69890308  0.11530050  1
  Zr  Zr78  1  0.49074797  0.89883071  0.10882991  1
  Zr  Zr79  1  0.71896525  0.49129910  0.11940292  1
  Ta  Ta80  1  0.60773495  0.60662202  0.74923712  1
  Ta  Ta81  1  0.60332471  0.80018684  -0.02563842  1
  Ta  Ta82  1  0.31236912  0.89977450  0.38804907  1
  Ta  Ta83  1  0.48781408  0.30441100  0.36025950  1
  Ta  Ta84  1  0.09108216  0.09339267  0.11395883  1
  Ta  Ta85  1  0.19359331  0.39111469  0.24658586  1
  Ta  Ta86  1  0.10644180  0.90382573  0.11541543  1
  Ta  Ta87  1  0.80354064  0.60290833  0.75345974  1
  Ta  Ta88  1  0.49434975  0.89958609  0.86700144  1
  Ta  Ta89  1  0.09716448  0.29548017  0.88808682  1
  Ta  Ta90  1  0.87547354  0.29669131  0.87208140  1
  Ta  Ta91  1  0.09890111  0.48801849  0.11896931  1
  Ta  Ta92  1  -0.00304402  -0.00621748  -0.00175398  1
  Ta  Ta93  1  0.60651364  0.37417494  0.00308941  1
  Ta  Ta94  1  0.79506115  0.19590238  0.27265830  1
  Ta  Ta95  1  0.70359291  0.10908995  0.86655726  1
  Ta  Ta96  1  0.00340880  0.79098022  0.73359626  1
  Ta  Ta97  1  0.71099797  0.70893977  0.39450531  1
  Ta  Ta98  1  0.80371159  0.59583972  0.25592034  1
  Ta  Ta99  1  0.19232222  -0.00121003  -0.00934304  1
  Ta  Ta100  1  0.42128230  0.81897775  0.51335315  1
  Ta  Ta101  1  0.90201767  0.69194122  0.38768012  1
  Ta  Ta102  1  0.38176886  0.40610398  0.23697319  1
  Ta  Ta103  1  0.70215875  0.29761867  0.60682744  1
  Ta  Ta104  1  0.10725699  0.29117533  0.62591818  1
  Ta  Ta105  1  0.79651155  0.79145815  0.76175746  1
  Ta  Ta106  1  0.76939305  -0.01776858  0.50166295  1
  Ta  Ta107  1  0.11630363  0.68839976  0.62271677  1
  Ta  Ta108  1  0.10076767  0.69583456  0.38542500  1
  Ta  Ta109  1  0.69541432  0.30380997  0.15437558  1
  Ta  Ta110  1  0.11887827  0.48789794  0.61794648  1
  Ta  Ta111  1  0.51127526  0.71917925  0.62783747  1
  Ta  Ta112  1  0.91193686  0.30746834  0.36635313  1
  Ta  Ta113  1  0.59635571  0.61142978  0.50544660  1
  Ta  Ta114  1  0.20182874  0.38663863  0.49312054  1
  Ta  Ta115  1  0.87800636  0.89175325  0.63594828  1
  Ta  Ta116  1  0.77668264  0.22079161  0.00294013  1
  Ta  Ta117  1  0.81039197  0.59289571  -0.01398250  1
  Ta  Ta118  1  0.69863257  0.90759951  0.86516019  1
  Ta  Ta119  1  0.39293221  0.20757388  0.49494417  1
  Ti  Ti120  1  0.88897961  0.10305171  0.86262217  1
  Ti  Ti121  1  0.50033622  0.69622726  0.88128380  1
  Ti  Ti122  1  0.30086909  0.49087514  0.37453333  1
  Ti  Ti123  1  0.40568947  0.80343699  0.75361951  1
  Ti  Ti124  1  0.20159165  0.20646529  0.25425385  1
  Ti  Ti125  1  0.30904607  0.49887216  0.88479629  1
  Ti  Ti126  1  0.67449072  0.29028345  0.86779491  1
  Ti  Ti127  1  0.40654176  0.00788737  0.50478581  1
  Ti  Ti128  1  0.59517916  0.00117504  0.75384120  1
  Ti  Ti129  1  0.21465876  0.59434959  -0.00148940  1
  Ti  Ti130  1  0.61018458  0.59665732  -0.01258266  1
  Ti  Ti131  1  0.89607981  0.68531772  0.62634197  1
  Ti  Ti132  1  0.50322777  0.27898343  0.62509282  1
  Ti  Ti133  1  0.39831064  0.00922877  0.76037453  1
  Ti  Ti134  1  0.90347093  0.08853984  0.37387711  1
  Ti  Ti135  1  0.40068037  0.21692830  0.76346174  1
  Ti  Ti136  1  -0.00831171  0.20323917  0.75673746  1
  Ti  Ti137  1  0.01052565  0.80017471  -0.00594121  1
  Ti  Ti138  1  0.30679025  0.69842773  0.62781285  1
  Ti  Ti139  1  0.00389903  0.39099224  0.50460348  1
  Ti  Ti140  1  0.90052418  0.68394548  0.11700477  1
  Ti  Ti141  1  0.38624329  0.20444004  0.25485015  1
  Ti  Ti142  1  0.19950269  -0.00280768  0.75163844  1
  Ti  Ti143  1  0.70226873  0.51269696  0.38876549  1
  Ti  Ti144  1  0.39720085  0.60105985  0.23578213  1
  Ti  Ti145  1  0.91514390  0.70338761  0.86629547  1
  Ti  Ti146  1  0.80606143  0.40340088  0.73205766  1
  Ti  Ti147  1  0.48713414  0.09843803  0.37280192  1
  Ti  Ti148  1  -0.00027233  -0.00342144  0.24840085  1
  Ti  Ti149  1  0.19552241  0.20739379  0.76738161  1
  Ti  Ti150  1  0.60222644  0.79812012  0.76428749  1
  Ti  Ti151  1  0.88949222  0.09617702  0.62942481  1
  Ti  Ti152  1  0.49106171  0.09435168  0.63198149  1
  Ti  Ti153  1  0.29090946  0.10740964  0.87118834  1
  Ti  Ti154  1  0.20574585  0.39182057  -0.00314340  1
  Ti  Ti155  1  0.30766037  0.70675208  0.88203856  1
  Ti  Ti156  1  0.20393780  0.78977881  0.74644136  1
  Ti  Ti157  1  0.21356010  0.80124080  0.00027516  1
  Ti  Ti158  1  0.78989902  -0.00048072  0.74419825  1
  Ti  Ti159  1  0.29807892  0.89710233  0.86744647  1
  Mo  Mo160  1  0.28944974  0.50211262  0.11974943  1
  Mo  Mo161  1  0.20372973  0.20333836  0.50261394  1
  Mo  Mo162  1  0.80402973  0.41087589  0.25843137  1
  Mo  Mo163  1  0.50764315  0.90932271  0.64795179  1
  Mo  Mo164  1  0.11579343  0.48805162  0.89423719  1
  Mo  Mo165  1  0.30342546  0.31082576  0.37231145  1
  Mo  Mo166  1  0.50831201  0.51987631  0.63003849  1
  Mo  Mo167  1  0.59819301  0.41120949  0.25886793  1
  Mo  Mo168  1  0.68963385  0.89334078  0.37994948  1
  Mo  Mo169  1  0.70140368  0.69235122  0.87275672  1
  Mo  Mo170  1  0.39817134  0.80218197  -0.02034101  1
  Mo  Mo171  1  0.19629223  0.19243401  -0.01965604  1
  Mo  Mo172  1  0.10982025  0.30105059  0.37311748  1
  Mo  Mo173  1  0.49853700  0.31193363  0.87126901  1
  Mo  Mo174  1  0.90666199  0.49634415  0.62210400  1
  Mo  Mo175  1  0.81000784  0.39845538  0.50725326  1
  Mo  Mo176  1  0.29584508  0.29978198  0.12887879  1
  Mo  Mo177  1  0.59550641  0.20101028  0.27369803  1
  Mo  Mo178  1  0.48899708  0.90788355  0.37809249  1
  Mo  Mo179  1  0.79527908  0.39261443  0.00041200  1
  Mo  Mo180  1  0.39880861  0.60090793  -0.00835678  1
  Mo  Mo181  1  0.09391486  0.09477257  0.37177151  1
  Mo  Mo182  1  0.20174888  0.59120630  0.50129484  1
  Mo  Mo183  1  0.70083138  0.09563542  0.38095350  1
  Mo  Mo184  1  0.90363817  0.50841328  0.12288549  1
  Mo  Mo185  1  0.30088100  0.30532791  0.87222537  1
  Mo  Mo186  1  -0.01288100  -0.00054928  0.73383437  1
  Mo  Mo187  1  0.59972794  0.20442384  0.00345662  1
  Mo  Mo188  1  0.30798917  0.69533746  0.10514795  1
  Mo  Mo189  1  0.11469733  0.70287461  0.88173881  1
  Mo  Mo190  1  0.59321861  0.19847206  0.73791918  1
  Mo  Mo191  1  0.00705723  0.39903674  0.24829044  1
  Mo  Mo192  1  0.10171733  0.89350052  0.64892182  1
  Mo  Mo193  1  0.68801691  0.90214682  0.64323354  1
  Mo  Mo194  1  0.60878661  0.82291751  0.50299692  1
  Mo  Mo195  1  0.57810278  -0.01187069  0.49752537  1
  Mo  Mo196  1  0.80910182  0.80434937  0.50572976  1
  Mo  Mo197  1  0.29075911  0.89876368  0.10833902  1
  Mo  Mo198  1  0.29434776  0.50799221  0.62406300  1
  Mo  Mo199  1  0.80316942  0.60280370  0.49992556  1
