# generated using pymatgen
data_HfZrTaTiMo
_symmetry_space_group_name_H-M   'P 1'
_cell_length_a   15.22248038
_cell_length_b   15.19956376
_cell_length_c   16.82004916
_cell_angle_alpha   90.03332607
_cell_angle_beta   89.95985571
_cell_angle_gamma   90.02410970
_symmetry_Int_Tables_number   1
_chemical_formula_structural   HfZrTaTiMo
_chemical_formula_sum   'Hf40 Zr40 Ta40 Ti40 Mo40'
_cell_volume   3891.73794629
_cell_formula_units_Z   40
loop_
 _symmetry_equiv_pos_site_id
 _symmetry_equiv_pos_as_xyz
  1  'x, y, z'
loop_
 _atom_site_type_symbol
 _atom_site_label
 _atom_site_symmetry_multiplicity
 _atom_site_fract_x
 _atom_site_fract_y
 _atom_site_fract_z
 _atom_site_occupancy
  Hf  Hf0  1  0.19698901  0.58237360  0.76088199  1
  Hf  Hf1  1  0.49905391  0.90399659  0.63106047  1
  Hf  Hf2  1  0.90615155  0.09649128  0.60797406  1
  Hf  Hf3  1  0.69254150  0.29951157  0.38645050  1
  Hf  Hf4  1  0.39798135  0.00603825  0.00713598  1
  Hf  Hf5  1  0.19324616  0.58427385  0.49093464  1
  Hf  Hf6  1  0.09493698  0.69075628  0.62071749  1
  Hf  Hf7  1  0.79861833  0.61139907  0.74293652  1
  Hf  Hf8  1  0.70845049  0.70439985  0.60204906  1
  Hf  Hf9  1  0.49420785  0.89735049  0.35162118  1
  Hf  Hf10  1  0.70566685  0.10031271  0.38055120  1
  Hf  Hf11  1  0.30113121  0.88817624  0.88911702  1
  Hf  Hf12  1  0.59265146  0.80155431  0.48892327  1
  Hf  Hf13  1  0.70336272  0.50219952  0.60449535  1
  Hf  Hf14  1  0.11287796  0.30158889  0.12941700  1
  Hf  Hf15  1  0.00869458  0.40534233  -0.00251761  1
  Hf  Hf16  1  0.49078980  0.48297638  0.36917416  1
  Hf  Hf17  1  0.89891111  0.29848861  0.12931544  1
  Hf  Hf18  1  -0.00062045  0.61638010  -0.00059540  1
  Hf  Hf19  1  0.90861181  0.30387115  0.86370992  1
  Hf  Hf20  1  0.59853522  0.19292547  0.75541733  1
  Hf  Hf21  1  0.90349468  0.70852380  0.61006492  1
  Hf  Hf22  1  0.60101315  0.01190268  0.01384085  1
  Hf  Hf23  1  0.00643239  0.41007764  0.26067515  1
  Hf  Hf24  1  0.60083647  0.77859022  0.02303861  1
  Hf  Hf25  1  0.91350938  0.71516156  0.14734348  1
  Hf  Hf26  1  0.20327229  0.39001569  -0.01114630  1
  Hf  Hf27  1  0.29908215  0.09229532  0.86970534  1
  Hf  Hf28  1  0.39308022  0.20795304  0.51367168  1
  Hf  Hf29  1  0.20053403  0.79227388  0.76246101  1
  Hf  Hf30  1  -0.00191656  0.42943887  0.51234707  1
  Hf  Hf31  1  0.29198858  0.66860317  0.11794362  1
  Hf  Hf32  1  0.18965379  0.78287806  0.00161159  1
  Hf  Hf33  1  0.61636230  0.80878110  0.74726630  1
  Hf  Hf34  1  0.38247620  0.80631063  0.50050137  1
  Hf  Hf35  1  0.28116027  0.89048231  0.36290671  1
  Hf  Hf36  1  0.71635241  0.11280554  0.13138002  1
  Hf  Hf37  1  0.29652608  0.10636794  0.37363498  1
  Hf  Hf38  1  0.29588886  0.29873309  0.85356911  1
  Hf  Hf39  1  0.18538443  0.00021683  0.24043937  1
  Zr  Zr40  1  0.50970071  0.90059926  0.88394419  1
  Zr  Zr41  1  0.40392604  0.21565345  -0.00549633  1
  Zr  Zr42  1  0.01369632  0.22175053  0.51020585  1
  Zr  Zr43  1  0.48174598  0.49934827  0.13412060  1
  Zr  Zr44  1  0.70541610  0.49151310  0.37919033  1
  Zr  Zr45  1  0.50001822  0.10747889  0.36309714  1
  Zr  Zr46  1  0.49427914  0.69792259  0.35787106  1
  Zr  Zr47  1  0.69030740  0.49545774  0.12738321  1
  Zr  Zr48  1  0.70517165  0.30939622  0.86455087  1
  Zr  Zr49  1  0.18957978  0.19246615  -0.01227267  1
  Zr  Zr50  1  0.29514949  0.69592542  0.62633685  1
  Zr  Zr51  1  0.91088355  0.92099411  0.13026826  1
  Zr  Zr52  1  0.01125022  0.20259651  0.26197546  1
  Zr  Zr53  1  0.70231648  0.08935020  0.61053144  1
  Zr  Zr54  1  0.70756914  0.89597200  0.35952214  1
  Zr  Zr55  1  0.69792757  0.09385656  0.87748409  1
  Zr  Zr56  1  0.81227359  0.79886500  0.01243203  1
  Zr  Zr57  1  0.69896289  0.69931066  0.87995049  1
  Zr  Zr58  1  0.39548761  0.58954112  0.49245243  1
  Zr  Zr59  1  0.01572550  0.81801552  0.48921107  1
  Zr  Zr60  1  0.50290280  0.69795263  0.62045221  1
  Zr  Zr61  1  0.19825933  0.38571492  0.52222258  1
  Zr  Zr62  1  0.39329037  0.00229346  0.49720878  1
  Zr  Zr63  1  0.71220667  0.89980917  0.14441342  1
  Zr  Zr64  1  0.79140201  0.39320778  0.00750926  1
  Zr  Zr65  1  0.59380456  0.59858613  0.74391378  1
  Zr  Zr66  1  0.71521709  0.89456235  0.88785930  1
  Zr  Zr67  1  0.80013797  -0.01786400  0.74589268  1
  Zr  Zr68  1  0.68313838  0.50154160  0.88274890  1
  Zr  Zr69  1  0.09744020  0.90157311  0.63743826  1
  Zr  Zr70  1  0.19887632  0.57797907  0.26429783  1
  Zr  Zr71  1  0.70114214  0.29519606  0.61384211  1
  Zr  Zr72  1  0.89463333  0.50649838  0.87719686  1
  Zr  Zr73  1  0.60540903  0.22058173  0.00294739  1
  Zr  Zr74  1  0.50252697  0.09778993  0.62850262  1
  Zr  Zr75  1  0.50147477  0.89875144  0.13522551  1
  Zr  Zr76  1  0.89803130  0.51327411  0.13410571  1
  Zr  Zr77  1  0.38748761  0.00566560  0.23548058  1
  Zr  Zr78  1  0.80978531  0.19832705  0.74155950  1
  Zr  Zr79  1  0.70570929  0.69519735  0.36308246  1
  Ta  Ta80  1  0.40897608  0.58391053  -0.00503240  1
  Ta  Ta81  1  0.58154243  0.39526290  0.50416115  1
  Ta  Ta82  1  0.00776667  0.61040581  0.27155924  1
  Ta  Ta83  1  0.37939547  0.38042070  0.24851866  1
  Ta  Ta84  1  0.09666253  0.30295295  0.84312667  1
  Ta  Ta85  1  0.18227112  -0.00928697  -0.00380816  1
  Ta  Ta86  1  0.08785894  0.09817557  0.85142582  1
  Ta  Ta87  1  -0.00006202  0.00963730  0.26408020  1
  Ta  Ta88  1  0.59673210  -0.00459656  0.48842611  1
  Ta  Ta89  1  0.89740364  0.71551382  0.87038697  1
  Ta  Ta90  1  0.40384254  0.19540688  0.75336020  1
  Ta  Ta91  1  0.28733776  0.10949525  0.11943645  1
  Ta  Ta92  1  0.90449174  0.10942642  0.39587808  1
  Ta  Ta93  1  0.31123912  0.48905878  0.87320032  1
  Ta  Ta94  1  0.80734834  0.20833447  0.26290526  1
  Ta  Ta95  1  -0.00306388  0.59644420  0.75277913  1
  Ta  Ta96  1  0.29689708  0.07977911  0.64194492  1
  Ta  Ta97  1  0.00711470  0.81565518  -0.00816903  1
  Ta  Ta98  1  0.81511451  0.41030147  0.72785438  1
  Ta  Ta99  1  0.89378883  0.31531343  0.38872005  1
  Ta  Ta100  1  0.28767362  0.89397693  0.11416847  1
  Ta  Ta101  1  0.20288290  0.18413223  0.51782826  1
  Ta  Ta102  1  0.89957666  0.71097380  0.37291436  1
  Ta  Ta103  1  0.40233729  0.78225562  0.01722118  1
  Ta  Ta104  1  0.19518691  -0.01720467  0.50865918  1
  Ta  Ta105  1  0.10246729  0.10166978  0.64271536  1
  Ta  Ta106  1  0.18909675  0.78529219  0.23514676  1
  Ta  Ta107  1  0.39880987  0.59954894  0.75543789  1
  Ta  Ta108  1  0.49653032  0.32338837  0.86139517  1
  Ta  Ta109  1  0.10573995  0.09580492  0.38709859  1
  Ta  Ta110  1  0.70656790  0.89735551  0.60697750  1
  Ta  Ta111  1  0.58846823  0.19962247  0.49992940  1
  Ta  Ta112  1  0.30824599  0.68862181  0.88443577  1
  Ta  Ta113  1  0.40235025  0.79527640  0.75627998  1
  Ta  Ta114  1  0.81182303  0.19739271  -0.00392314  1
  Ta  Ta115  1  0.38490437  0.78482705  0.22915124  1
  Ta  Ta116  1  0.49629914  0.30577077  0.63587762  1
  Ta  Ta117  1  0.19279216  0.58302085  -0.01609386  1
  Ta  Ta118  1  0.00080634  0.20161968  -0.00773179  1
  Ta  Ta119  1  0.70778132  0.69404294  0.15356466  1
  Ti  Ti120  1  0.89582059  0.90159973  0.61058356  1
  Ti  Ti121  1  0.82598845  0.58885476  0.48963724  1
  Ti  Ti122  1  0.90986359  0.10887332  0.12631242  1
  Ti  Ti123  1  0.00944446  0.81708346  0.26655487  1
  Ti  Ti124  1  0.29938357  0.30272451  0.38184053  1
  Ti  Ti125  1  0.11368542  0.30379560  0.37806727  1
  Ti  Ti126  1  0.60333219  0.21049679  0.24414938  1
  Ti  Ti127  1  0.38760712  0.58594163  0.25619474  1
  Ti  Ti128  1  0.41185951  -0.00575954  0.76234440  1
  Ti  Ti129  1  0.90428568  0.10267510  0.86697842  1
  Ti  Ti130  1  0.59274101  0.59457117  0.48791285  1
  Ti  Ti131  1  0.50094378  0.69349964  0.88084462  1
  Ti  Ti132  1  0.81579825  0.01390835  0.25886337  1
  Ti  Ti133  1  0.49528596  0.50069687  0.62023248  1
  Ti  Ti134  1  0.09252859  0.89388392  0.12426534  1
  Ti  Ti135  1  0.21569718  0.20949266  0.25001214  1
  Ti  Ti136  1  0.48941397  0.29361439  0.37319299  1
  Ti  Ti137  1  0.29208536  0.28832401  0.64665850  1
  Ti  Ti138  1  0.60338147  0.01098743  0.24401847  1
  Ti  Ti139  1  0.81371337  0.00863770  0.00042816  1
  Ti  Ti140  1  0.39785306  0.41097010  0.73812703  1
  Ti  Ti141  1  0.19970467  -0.01211973  0.75874089  1
  Ti  Ti142  1  0.10212028  0.51366866  0.12653498  1
  Ti  Ti143  1  0.59239927  0.38929154  0.24535287  1
  Ti  Ti144  1  0.60343203  0.40641218  0.73932535  1
  Ti  Ti145  1  0.59718326  0.59277348  0.25171916  1
  Ti  Ti146  1  0.49371100  0.12225909  0.13453192  1
  Ti  Ti147  1  0.28742450  0.47300498  0.11912899  1
  Ti  Ti148  1  0.91471757  0.90906062  0.87109951  1
  Ti  Ti149  1  0.57107779  0.41170832  0.00335154  1
  Ti  Ti150  1  -0.01064837  0.80552288  0.75195500  1
  Ti  Ti151  1  0.09121761  0.69916637  0.87014217  1
  Ti  Ti152  1  0.38965771  0.39960482  0.51273697  1
  Ti  Ti153  1  0.90324070  0.91393518  0.38500183  1
  Ti  Ti154  1  0.11101003  0.71257839  0.38156897  1
  Ti  Ti155  1  0.78905781  0.60900549  0.00881153  1
  Ti  Ti156  1  0.79573059  0.39920108  0.25151703  1
  Ti  Ti157  1  0.29753530  0.69721178  0.37131716  1
  Ti  Ti158  1  0.00261225  0.01109376  -0.00923776  1
  Ti  Ti159  1  0.09265777  0.09726648  0.12051344  1
  Mo  Mo160  1  0.30586603  0.49386529  0.63278700  1
  Mo  Mo161  1  0.30475049  0.29371225  0.12228236  1
  Mo  Mo162  1  0.89703380  0.50514912  0.36679371  1
  Mo  Mo163  1  0.09793017  0.49306245  0.87192253  1
  Mo  Mo164  1  0.59566142  0.79229296  0.23720671  1
  Mo  Mo165  1  0.39923994  0.20373545  0.24342757  1
  Mo  Mo166  1  0.30264633  0.89937399  0.64349527  1
  Mo  Mo167  1  0.20202503  0.40020242  0.73636591  1
  Mo  Mo168  1  -0.00478337  0.20404847  0.73624841  1
  Mo  Mo169  1  0.29853043  0.47756268  0.37713287  1
  Mo  Mo170  1  0.00306225  0.41316948  0.73307910  1
  Mo  Mo171  1  0.09849811  0.49371960  0.37804553  1
  Mo  Mo172  1  0.49648448  0.68673033  0.14088156  1
  Mo  Mo173  1  0.49802979  0.10741662  0.87120262  1
  Mo  Mo174  1  0.50414574  0.30626356  0.13184868  1
  Mo  Mo175  1  0.49416897  0.50296483  0.86956104  1
  Mo  Mo176  1  0.20111350  0.18925484  0.74590237  1
  Mo  Mo177  1  0.81210385  0.80258931  0.74254492  1
  Mo  Mo178  1  0.59720407  -0.00306809  0.75236012  1
  Mo  Mo179  1  0.10322003  0.90485345  0.36986744  1
  Mo  Mo180  1  0.90645432  0.51976535  0.62523381  1
  Mo  Mo181  1  0.80393295  0.40077638  0.51019988  1
  Mo  Mo182  1  -0.00649785  0.00054110  0.75038224  1
  Mo  Mo183  1  0.80381036  0.80395760  0.48852133  1
  Mo  Mo184  1  0.01307857  0.01234485  0.49714398  1
  Mo  Mo185  1  0.39783189  0.39617794  -0.00411022  1
  Mo  Mo186  1  0.59350215  0.60321592  0.00970376  1
  Mo  Mo187  1  0.00483007  0.60976474  0.47620474  1
  Mo  Mo188  1  0.09700645  0.69601304  0.12848120  1
  Mo  Mo189  1  0.09308776  0.89989687  0.86989301  1
  Mo  Mo190  1  0.70368263  0.29818290  0.13648331  1
  Mo  Mo191  1  0.19671581  0.38784386  0.25361131  1
  Mo  Mo192  1  0.80225580  0.20437960  0.49264425  1
  Mo  Mo193  1  0.09686528  0.29984202  0.64596628  1
  Mo  Mo194  1  0.20812451  0.79919941  0.50085682  1
  Mo  Mo195  1  0.80449923  -0.00794529  0.49315782  1
  Mo  Mo196  1  0.09988565  0.50836621  0.63107694  1
  Mo  Mo197  1  0.81640947  0.80664108  0.25642305  1
  Mo  Mo198  1  0.81021931  0.59473140  0.25719241  1
  Mo  Mo199  1  0.89763897  0.31042036  0.61615866  1
