# generated using pymatgen
data_HfZrTaTiMo
_symmetry_space_group_name_H-M   'P 1'
_cell_length_a   15.20798934
_cell_length_b   15.19672875
_cell_length_c   16.81196139
_cell_angle_alpha   89.99232239
_cell_angle_beta   89.96051035
_cell_angle_gamma   89.94116720
_symmetry_Int_Tables_number   1
_chemical_formula_structural   HfZrTaTiMo
_chemical_formula_sum   'Hf40 Zr40 Ta40 Ti40 Mo40'
_cell_volume   3885.43778399
_cell_formula_units_Z   40
loop_
 _symmetry_equiv_pos_site_id
 _symmetry_equiv_pos_as_xyz
  1  'x, y, z'
loop_
 _atom_site_type_symbol
 _atom_site_label
 _atom_site_symmetry_multiplicity
 _atom_site_fract_x
 _atom_site_fract_y
 _atom_site_fract_z
 _atom_site_occupancy
  Hf  Hf0  1  0.59870678  0.21908166  0.75598491  1
  Hf  Hf1  1  0.59837188  -0.00128123  0.00732428  1
  Hf  Hf2  1  0.59789967  0.80548605  0.74171338  1
  Hf  Hf3  1  0.30822095  0.48519168  0.12042287  1
  Hf  Hf4  1  0.90918990  0.09288852  0.86397703  1
  Hf  Hf5  1  0.40496621  0.60076536  0.00698314  1
  Hf  Hf6  1  0.08911430  0.11807425  0.13607944  1
  Hf  Hf7  1  0.89899325  0.89908453  0.62470806  1
  Hf  Hf8  1  0.42365991  0.39891933  0.26593844  1
  Hf  Hf9  1  0.39490071  0.59464790  0.25399423  1
  Hf  Hf10  1  0.77166004  0.40935663  0.76648865  1
  Hf  Hf11  1  0.88447893  0.30876794  0.63116045  1
  Hf  Hf12  1  0.79051782  0.79508741  0.00418173  1
  Hf  Hf13  1  0.31254944  0.69625272  0.86362445  1
  Hf  Hf14  1  0.70377676  0.89650879  0.14937567  1
  Hf  Hf15  1  0.50152819  0.89921109  0.87854653  1
  Hf  Hf16  1  0.30075887  0.29090499  0.12190574  1
  Hf  Hf17  1  0.70330850  0.10406704  0.12242830  1
  Hf  Hf18  1  0.69330638  0.70064794  0.14335457  1
  Hf  Hf19  1  0.91388289  0.90583281  0.37019623  1
  Hf  Hf20  1  0.88925691  0.09932520  0.38201490  1
  Hf  Hf21  1  0.50651373  0.89330228  0.14169292  1
  Hf  Hf22  1  0.39413928  0.00227325  0.25602644  1
  Hf  Hf23  1  0.58822824  0.20898234  0.50032103  1
  Hf  Hf24  1  0.59979131  0.61660781  -0.00604113  1
  Hf  Hf25  1  0.49943496  0.51032542  0.62515183  1
  Hf  Hf26  1  0.59441568  0.22274361  0.25301120  1
  Hf  Hf27  1  0.90211893  0.29854644  0.37719668  1
  Hf  Hf28  1  0.09883600  0.71194930  0.87254331  1
  Hf  Hf29  1  0.51487688  0.89288548  0.36341117  1
  Hf  Hf30  1  0.31645212  0.89278877  0.61391690  1
  Hf  Hf31  1  0.49882033  0.32465471  0.11450856  1
  Hf  Hf32  1  0.20441709  0.39525040  0.50571637  1
  Hf  Hf33  1  0.00797315  0.60991859  0.50786673  1
  Hf  Hf34  1  0.89661288  0.70371936  0.36858558  1
  Hf  Hf35  1  0.40908350  0.39921188  0.49294597  1
  Hf  Hf36  1  0.20351660  0.79965493  0.73269396  1
  Hf  Hf37  1  0.79116971  0.40187619  0.25322317  1
  Hf  Hf38  1  0.09294666  0.69255897  0.12621574  1
  Hf  Hf39  1  0.19255586  0.18361124  0.50918901  1
  Zr  Zr40  1  0.90188864  0.28831333  0.12680337  1
  Zr  Zr41  1  0.19608150  0.59316681  0.24740773  1
  Zr  Zr42  1  0.91173047  0.49205617  0.12074532  1
  Zr  Zr43  1  0.39274343  0.19855836  0.51056722  1
  Zr  Zr44  1  0.19181184  0.18088537  -0.00852770  1
  Zr  Zr45  1  0.69379276  0.49548633  0.11275147  1
  Zr  Zr46  1  0.21264919  0.80018135  0.00878114  1
  Zr  Zr47  1  0.40441365  -0.00302198  0.48904766  1
  Zr  Zr48  1  0.88393394  0.69807649  0.63293576  1
  Zr  Zr49  1  0.00524058  0.58700919  -0.01628521  1
  Zr  Zr50  1  0.70400699  0.89530109  0.87292938  1
  Zr  Zr51  1  0.20292154  0.59689471  0.00390725  1
  Zr  Zr52  1  0.39491765  -0.00532815  0.01266435  1
  Zr  Zr53  1  0.60739265  0.59322232  0.75501492  1
  Zr  Zr54  1  0.29429902  0.08288964  0.87014800  1
  Zr  Zr55  1  0.69721373  0.31101823  0.38733102  1
  Zr  Zr56  1  0.80636331  0.59687038  -0.01133148  1
  Zr  Zr57  1  0.89319442  0.50126090  0.39058525  1
  Zr  Zr58  1  0.70252582  0.10283649  0.87560140  1
  Zr  Zr59  1  -0.00451307  0.20350551  0.51561419  1
  Zr  Zr60  1  0.19447970  0.39744446  0.75482956  1
  Zr  Zr61  1  0.81371173  -0.00616094  0.00493446  1
  Zr  Zr62  1  0.20079939  0.59960562  0.73580614  1
  Zr  Zr63  1  0.79733446  -0.00171087  0.73930091  1
  Zr  Zr64  1  0.70145180  0.30359778  0.10925485  1
  Zr  Zr65  1  0.30719262  0.29228502  0.87191335  1
  Zr  Zr66  1  0.17728944  0.39834872  -0.02029849  1
  Zr  Zr67  1  0.30829868  0.88832771  0.87389236  1
  Zr  Zr68  1  0.78759941  0.80281600  0.49335744  1
  Zr  Zr69  1  0.61271816  0.00631898  0.48869033  1
  Zr  Zr70  1  0.10524439  0.29792105  0.37641549  1
  Zr  Zr71  1  0.10609674  0.91568394  0.87952560  1
  Zr  Zr72  1  0.09750472  0.32053656  0.12690209  1
  Zr  Zr73  1  0.10622300  0.70374752  0.37405763  1
  Zr  Zr74  1  0.70611796  0.50759803  0.60837275  1
  Zr  Zr75  1  0.00803177  0.00969457  0.00368843  1
  Zr  Zr76  1  0.19152307  -0.01629096  0.25431941  1
  Zr  Zr77  1  0.89882921  0.49911907  0.62540746  1
  Zr  Zr78  1  0.20942716  0.77767211  0.51215873  1
  Zr  Zr79  1  0.09738817  0.90148272  0.12453531  1
  Ta  Ta80  1  0.71445200  0.90502289  0.35313320  1
  Ta  Ta81  1  -0.00024541  0.20213619  0.74440158  1
  Ta  Ta82  1  0.69227444  0.70467710  0.36211858  1
  Ta  Ta83  1  0.59432702  0.57946019  0.25650473  1
  Ta  Ta84  1  0.39970684  0.19139365  0.74233056  1
  Ta  Ta85  1  0.88746543  0.29658289  0.86724350  1
  Ta  Ta86  1  0.00844882  0.00734150  0.50881833  1
  Ta  Ta87  1  0.21168509  0.40043987  0.25981202  1
  Ta  Ta88  1  0.90725480  0.88691225  0.86090650  1
  Ta  Ta89  1  0.79847299  0.18649849  0.25394470  1
  Ta  Ta90  1  0.59389984  0.62134127  0.49548795  1
  Ta  Ta91  1  0.40463325  0.19769436  -0.00024661  1
  Ta  Ta92  1  0.01112151  0.00188757  0.73721965  1
  Ta  Ta93  1  0.29489767  0.08811287  0.62987757  1
  Ta  Ta94  1  0.59275337  0.40583418  -0.02622588  1
  Ta  Ta95  1  0.30146704  0.29706757  0.63587300  1
  Ta  Ta96  1  0.78761083  0.19586389  0.50804170  1
  Ta  Ta97  1  0.01033340  0.41037720  0.25878917  1
  Ta  Ta98  1  0.40680724  -0.01145814  0.74102606  1
  Ta  Ta99  1  0.20313792  0.19722238  0.25354340  1
  Ta  Ta100  1  -0.00086248  0.21324553  -0.01524713  1
  Ta  Ta101  1  0.49305747  0.10224166  0.86990073  1
  Ta  Ta102  1  0.48841146  0.12078835  0.36429231  1
  Ta  Ta103  1  0.10885619  0.90688670  0.61398708  1
  Ta  Ta104  1  0.49910793  0.70826075  0.87076370  1
  Ta  Ta105  1  0.38906262  0.79058507  0.26036723  1
  Ta  Ta106  1  -0.01657261  0.79765329  0.00066749  1
  Ta  Ta107  1  0.08839237  0.09659974  0.36826777  1
  Ta  Ta108  1  0.29525125  0.09372312  0.12936784  1
  Ta  Ta109  1  0.19264489  0.19112219  0.74430968  1
  Ta  Ta110  1  0.89696334  0.70292069  0.13717861  1
  Ta  Ta111  1  0.31212206  0.28416959  0.36849334  1
  Ta  Ta112  1  0.00065398  0.59900876  0.75608268  1
  Ta  Ta113  1  0.59160088  0.20271346  -0.00954356  1
  Ta  Ta114  1  0.28591182  0.09440028  0.37416111  1
  Ta  Ta115  1  0.59507470  0.00819381  0.74453301  1
  Ta  Ta116  1  0.00271850  0.80508462  0.50716329  1
  Ta  Ta117  1  0.30719164  0.49905689  0.87228905  1
  Ta  Ta118  1  0.49988703  0.09635991  0.62934370  1
  Ta  Ta119  1  -0.00443905  0.40329907  0.76687404  1
  Ti  Ti120  1  0.80454999  0.19962929  -0.00617383  1
  Ti  Ti121  1  0.51001659  0.89243481  0.61389033  1
  Ti  Ti122  1  -0.00210713  0.59573316  0.25164288  1
  Ti  Ti123  1  0.89687878  0.10233618  0.62711738  1
  Ti  Ti124  1  0.60921343  0.02191530  0.25951695  1
  Ti  Ti125  1  0.49596638  0.69830965  0.13631905  1
  Ti  Ti126  1  0.70156042  0.70427053  0.86587151  1
  Ti  Ti127  1  0.09563866  0.30529227  0.63118388  1
  Ti  Ti128  1  0.20118516  -0.00396815  0.74180124  1
  Ti  Ti129  1  0.20752605  0.78986513  0.25138022  1
  Ti  Ti130  1  0.49242672  0.50466808  0.86786793  1
  Ti  Ti131  1  0.33668440  0.68750191  0.63452208  1
  Ti  Ti132  1  0.68922806  0.31520426  0.61652583  1
  Ti  Ti133  1  0.69484349  0.50829263  0.39342338  1
  Ti  Ti134  1  0.10251351  0.50108098  0.38430052  1
  Ti  Ti135  1  0.69238198  0.70540009  0.62282576  1
  Ti  Ti136  1  0.00326092  0.40164418  0.50315857  1
  Ti  Ti137  1  0.79832180  0.59425797  0.25273171  1
  Ti  Ti138  1  0.50024263  0.30910043  0.63052382  1
  Ti  Ti139  1  0.30639734  0.88663674  0.12889136  1
  Ti  Ti140  1  0.29727044  0.50118845  0.38187100  1
  Ti  Ti141  1  0.29880176  0.88571517  0.38586808  1
  Ti  Ti142  1  0.20728895  0.59185871  0.51509308  1
  Ti  Ti143  1  0.89340981  0.70492684  0.85850369  1
  Ti  Ti144  1  -0.01877827  0.01877353  0.24164205  1
  Ti  Ti145  1  0.89828305  0.89779355  0.13881401  1
  Ti  Ti146  1  0.79277253  0.20257816  0.74574975  1
  Ti  Ti147  1  0.00895788  0.80492919  0.25058050  1
  Ti  Ti148  1  0.10831421  0.90456058  0.39106287  1
  Ti  Ti149  1  0.42071925  0.78523704  0.49247757  1
  Ti  Ti150  1  0.69771483  0.90110826  0.62190187  1
  Ti  Ti151  1  0.80082377  0.00438540  0.50463838  1
  Ti  Ti152  1  0.09613454  0.49896545  0.62748765  1
  Ti  Ti153  1  0.41039718  0.39746114  0.75305212  1
  Ti  Ti154  1  0.69561217  0.10700418  0.62727145  1
  Ti  Ti155  1  0.00611039  0.80131504  0.73797233  1
  Ti  Ti156  1  0.49391751  0.11384139  0.13452816  1
  Ti  Ti157  1  0.49891370  0.69326228  0.36882027  1
  Ti  Ti158  1  0.30836272  0.49158662  0.63022156  1
  Ti  Ti159  1  0.39580914  0.60239168  0.49083433  1
  Mo  Mo160  1  0.08918370  0.28894491  0.86214288  1
  Mo  Mo161  1  0.50773123  0.50463581  0.12117843  1
  Mo  Mo162  1  0.89635404  0.10668361  0.12449873  1
  Mo  Mo163  1  0.79985976  0.60538670  0.76225904  1
  Mo  Mo164  1  0.09993058  0.09771085  0.63244551  1
  Mo  Mo165  1  0.09822639  0.10023258  0.85863200  1
  Mo  Mo166  1  0.08732282  0.70039002  0.62974478  1
  Mo  Mo167  1  0.30648725  0.69340515  0.38302639  1
  Mo  Mo168  1  0.79901300  0.39405289  0.50020513  1
  Mo  Mo169  1  0.50970713  0.50627848  0.38930994  1
  Mo  Mo170  1  -0.01639172  0.39568292  -0.02690595  1
  Mo  Mo171  1  0.50588128  0.70495186  0.61927519  1
  Mo  Mo172  1  0.69638844  0.10156646  0.37507088  1
  Mo  Mo173  1  0.59438553  0.78972983  0.25736806  1
  Mo  Mo174  1  0.79659376  0.79738418  0.74533719  1
  Mo  Mo175  1  0.60128037  0.80477646  0.49357477  1
  Mo  Mo176  1  0.39578682  0.19808269  0.24331094  1
  Mo  Mo177  1  0.58803083  0.39994137  0.76360012  1
  Mo  Mo178  1  0.59516661  0.40970252  0.50491054  1
  Mo  Mo179  1  0.40023347  0.40242209  -0.01251364  1
  Mo  Mo180  1  0.10233031  0.50308925  0.86398504  1
  Mo  Mo181  1  0.49974319  0.30344902  0.37814926  1
  Mo  Mo182  1  0.49150820  0.30013932  0.87637015  1
  Mo  Mo183  1  0.41047250  0.79823411  0.74065508  1
  Mo  Mo184  1  -0.00165101  0.20351138  0.25846593  1
  Mo  Mo185  1  0.59203669  0.79874592  0.00657802  1
  Mo  Mo186  1  0.42213483  0.78955996  0.01089076  1
  Mo  Mo187  1  0.89526570  0.50550144  0.86217625  1
  Mo  Mo188  1  0.81094084  0.79391182  0.25477627  1
  Mo  Mo189  1  0.60892768  0.40994290  0.25244361  1
  Mo  Mo190  1  0.09906110  0.49537463  0.13202339  1
  Mo  Mo191  1  0.69742045  0.29715018  0.88752926  1
  Mo  Mo192  1  0.40492619  0.59261262  0.75196194  1
  Mo  Mo193  1  0.80140266  0.00411667  0.24773224  1
  Mo  Mo194  1  0.69473632  0.50574375  0.88488688  1
  Mo  Mo195  1  0.80228358  0.39410755  -0.02200170  1
  Mo  Mo196  1  0.79134736  0.61000215  0.49104837  1
  Mo  Mo197  1  0.19946565  -0.00598305  0.49427752  1
  Mo  Mo198  1  0.30781082  0.70473589  0.13215769  1
  Mo  Mo199  1  0.20474203  -0.00201789  0.01552690  1
