# generated using pymatgen
data_HfZrTaTiMo
_symmetry_space_group_name_H-M   'P 1'
_cell_length_a   15.22107929
_cell_length_b   15.22056604
_cell_length_c   16.85859851
_cell_angle_alpha   89.93954294
_cell_angle_beta   90.07251984
_cell_angle_gamma   89.92062823
_symmetry_Int_Tables_number   1
_chemical_formula_structural   HfZrTaTiMo
_chemical_formula_sum   'Hf40 Zr40 Ta40 Ti40 Mo40'
_cell_volume   3905.68049429
_cell_formula_units_Z   40
loop_
 _symmetry_equiv_pos_site_id
 _symmetry_equiv_pos_as_xyz
  1  'x, y, z'
loop_
 _atom_site_type_symbol
 _atom_site_label
 _atom_site_symmetry_multiplicity
 _atom_site_fract_x
 _atom_site_fract_y
 _atom_site_fract_z
 _atom_site_occupancy
  Hf  Hf0  1  0.39684206  0.79692199  0.49839778  1
  Hf  Hf1  1  0.08120774  0.70499064  0.38930546  1
  Hf  Hf2  1  0.91345937  0.50021150  0.85883889  1
  Hf  Hf3  1  0.70931010  0.89566048  0.38723714  1
  Hf  Hf4  1  0.40194831  0.38972322  0.76692908  1
  Hf  Hf5  1  0.39507580  0.01412688  0.50415328  1
  Hf  Hf6  1  0.60715309  0.60534041  0.23997389  1
  Hf  Hf7  1  -0.00202820  0.60658652  -0.00561513  1
  Hf  Hf8  1  0.90526419  0.88499663  0.12265563  1
  Hf  Hf9  1  0.61243591  0.00961395  0.75069692  1
  Hf  Hf10  1  0.49284724  0.68640461  0.63188543  1
  Hf  Hf11  1  0.31085659  0.90136981  0.12810326  1
  Hf  Hf12  1  -0.00492815  0.20782395  0.50859468  1
  Hf  Hf13  1  0.59977925  0.39425150  0.24547026  1
  Hf  Hf14  1  0.01318779  -0.00038043  -0.01459758  1
  Hf  Hf15  1  0.00331440  0.79705627  -0.01619165  1
  Hf  Hf16  1  -0.00982339  0.41519433  0.50699105  1
  Hf  Hf17  1  0.70823506  0.28878326  0.36884615  1
  Hf  Hf18  1  -0.00048622  0.01350182  0.76303767  1
  Hf  Hf19  1  0.39085074  0.39161719  0.24361861  1
  Hf  Hf20  1  0.39606100  0.59962699  -0.00630667  1
  Hf  Hf21  1  0.49865224  0.49361473  0.11618633  1
  Hf  Hf22  1  0.21954482  0.00462567  -0.01370525  1
  Hf  Hf23  1  0.90197482  0.91042190  0.63559990  1
  Hf  Hf24  1  0.60199231  0.79430962  0.50540856  1
  Hf  Hf25  1  0.71825262  0.68739513  0.38399170  1
  Hf  Hf26  1  0.70360840  0.90001755  0.61850632  1
  Hf  Hf27  1  0.28739574  0.69526582  0.11687855  1
  Hf  Hf28  1  0.60805151  0.60674477  0.00368923  1
  Hf  Hf29  1  0.10365698  0.11480022  0.11923272  1
  Hf  Hf30  1  0.61373542  0.80108245  0.25474940  1
  Hf  Hf31  1  0.08106248  0.31128316  0.87699481  1
  Hf  Hf32  1  0.87644191  0.30901704  0.88809863  1
  Hf  Hf33  1  0.52050294  0.50568701  0.86838269  1
  Hf  Hf34  1  0.69338888  0.68189346  0.86004751  1
  Hf  Hf35  1  0.09966019  0.29861375  0.38129471  1
  Hf  Hf36  1  0.58712452  0.00487307  0.25336405  1
  Hf  Hf37  1  0.29554382  0.29473959  0.11539541  1
  Hf  Hf38  1  0.50289339  0.89518183  0.87750259  1
  Hf  Hf39  1  -0.01000604  0.61393694  0.24764191  1
  Zr  Zr40  1  0.28311608  0.69185188  0.62197197  1
  Zr  Zr41  1  0.68840354  0.28374468  0.62818513  1
  Zr  Zr42  1  0.70682739  0.30394999  0.12404519  1
  Zr  Zr43  1  0.49127789  0.10071858  0.87209139  1
  Zr  Zr44  1  0.49630184  0.50730927  0.37289894  1
  Zr  Zr45  1  0.69913891  0.09851141  0.37952775  1
  Zr  Zr46  1  0.10387727  0.51333970  0.38356643  1
  Zr  Zr47  1  0.40755201  0.38790089  -0.01503250  1
  Zr  Zr48  1  0.21290781  0.39149375  0.50407491  1
  Zr  Zr49  1  0.80178204  0.39384764  0.51231174  1
  Zr  Zr50  1  0.80699224  0.79448766  0.75267946  1
  Zr  Zr51  1  0.38811329  0.59934985  0.24204587  1
  Zr  Zr52  1  0.90157337  0.11201109  0.36744945  1
  Zr  Zr53  1  0.29141180  0.90118364  0.61993921  1
  Zr  Zr54  1  0.79603346  -0.01102468  0.24327092  1
  Zr  Zr55  1  0.29798981  0.09652087  0.13230445  1
  Zr  Zr56  1  0.90240624  0.11132822  0.11541277  1
  Zr  Zr57  1  0.10903446  0.10154748  0.62847632  1
  Zr  Zr58  1  0.28776607  0.68820223  0.38693085  1
  Zr  Zr59  1  0.69647717  0.10477886  0.11926995  1
  Zr  Zr60  1  -0.00566215  0.39271593  0.25210350  1
  Zr  Zr61  1  0.51213801  0.89395211  0.11627054  1
  Zr  Zr62  1  0.49220054  0.09677480  0.11879074  1
  Zr  Zr63  1  0.19103574  0.41011021  0.75570753  1
  Zr  Zr64  1  0.70466950  0.49547439  0.37573023  1
  Zr  Zr65  1  0.80953583  -0.01019511  -0.00582410  1
  Zr  Zr66  1  0.70395935  0.11161501  0.89190124  1
  Zr  Zr67  1  0.49279776  0.29808174  0.37824982  1
  Zr  Zr68  1  0.59414572  0.79845044  0.74107207  1
  Zr  Zr69  1  -0.01286432  0.00166676  0.50203243  1
  Zr  Zr70  1  0.09851980  0.30857494  0.62811115  1
  Zr  Zr71  1  0.29190851  0.70581963  0.86805178  1
  Zr  Zr72  1  0.50570663  0.11330458  0.62935388  1
  Zr  Zr73  1  0.40563818  0.80434123  0.25923344  1
  Zr  Zr74  1  0.60254595  0.59014550  0.51680243  1
  Zr  Zr75  1  0.59337572  0.39661967  0.50847246  1
  Zr  Zr76  1  0.78858270  0.19664449  0.75277937  1
  Zr  Zr77  1  0.00427942  0.00233625  0.24961908  1
  Zr  Zr78  1  0.11076642  0.90095917  0.12336126  1
  Zr  Zr79  1  0.19164057  0.78961691  0.25461821  1
  Ta  Ta80  1  0.80079235  0.77972018  -0.01625795  1
  Ta  Ta81  1  0.40153321  0.19095627  0.25524993  1
  Ta  Ta82  1  0.28514238  0.49505474  0.11377090  1
  Ta  Ta83  1  0.11512094  0.89555763  0.85764532  1
  Ta  Ta84  1  0.10904782  0.51988375  0.61748190  1
  Ta  Ta85  1  0.10581259  0.10252718  0.37767448  1
  Ta  Ta86  1  0.10055966  0.90150107  0.37919541  1
  Ta  Ta87  1  -0.01125296  0.21271648  0.74753742  1
  Ta  Ta88  1  0.49945032  0.90481223  0.38320866  1
  Ta  Ta89  1  0.09505044  0.71061329  0.63556829  1
  Ta  Ta90  1  0.89720365  0.52001656  0.37884136  1
  Ta  Ta91  1  0.40233929  -0.00002186  0.74013983  1
  Ta  Ta92  1  0.00188932  0.41557980  0.00378956  1
  Ta  Ta93  1  0.58747449  0.21697122  -0.00763168  1
  Ta  Ta94  1  0.09994951  0.30808349  0.11491555  1
  Ta  Ta95  1  0.28586419  0.27580798  0.86962619  1
  Ta  Ta96  1  0.81543791  0.77830861  0.25090231  1
  Ta  Ta97  1  0.20814854  0.00450169  0.26278666  1
  Ta  Ta98  1  0.71747191  0.08692541  0.61212242  1
  Ta  Ta99  1  0.89534811  0.50138791  0.12250249  1
  Ta  Ta100  1  0.19590325  0.21163039  0.25507257  1
  Ta  Ta101  1  0.81807490  0.79069139  0.51066657  1
  Ta  Ta102  1  0.69988171  0.89245094  0.88198405  1
  Ta  Ta103  1  0.11299895  0.11897153  0.87438765  1
  Ta  Ta104  1  0.31011785  0.49176003  0.63205319  1
  Ta  Ta105  1  0.48627943  0.30426457  0.63383703  1
  Ta  Ta106  1  0.10250133  0.89748277  0.64266262  1
  Ta  Ta107  1  0.49525731  0.10188499  0.37898286  1
  Ta  Ta108  1  0.21362030  0.01121139  0.75518356  1
  Ta  Ta109  1  0.90782802  0.88053355  0.37387773  1
  Ta  Ta110  1  0.90389513  0.30489179  0.10577157  1
  Ta  Ta111  1  0.40088109  0.80124442  -0.00368335  1
  Ta  Ta112  1  0.39716895  0.59353686  0.75405456  1
  Ta  Ta113  1  0.29797423  0.48914228  0.37660436  1
  Ta  Ta114  1  0.38676246  0.18691812  -0.00912744  1
  Ta  Ta115  1  0.09286183  0.69534821  0.84982494  1
  Ta  Ta116  1  0.29391766  0.90565652  0.38387029  1
  Ta  Ta117  1  0.19849672  0.40723955  0.24892652  1
  Ta  Ta118  1  0.29767417  0.28121243  0.64024212  1
  Ta  Ta119  1  0.50554190  0.69929785  0.37998029  1
  Ti  Ti120  1  0.40139996  0.39927344  0.50742652  1
  Ti  Ti121  1  0.19405913  0.00330083  0.49895617  1
  Ti  Ti122  1  0.60594904  0.39067580  0.75269578  1
  Ti  Ti123  1  0.10089932  0.50763304  0.12777043  1
  Ti  Ti124  1  0.71690996  0.48343766  0.86110287  1
  Ti  Ti125  1  0.19676861  0.40368416  -0.01076339  1
  Ti  Ti126  1  0.50123334  0.70530058  0.11842971  1
  Ti  Ti127  1  0.38277722  0.21025220  0.50075468  1
  Ti  Ti128  1  0.39578271  0.58651870  0.50393831  1
  Ti  Ti129  1  0.29626623  0.11161280  0.37646138  1
  Ti  Ti130  1  0.18593444  0.59805989  -0.00842798  1
  Ti  Ti131  1  0.00341049  0.59808775  0.73787302  1
  Ti  Ti132  1  0.49763994  0.70287539  0.86840932  1
  Ti  Ti133  1  0.00257886  0.80186646  0.51456771  1
  Ti  Ti134  1  0.82285261  0.21599505  0.24771799  1
  Ti  Ti135  1  0.31095711  0.90194615  0.86882182  1
  Ti  Ti136  1  0.70572408  0.88660003  0.10842594  1
  Ti  Ti137  1  0.59904302  -0.00340676  -0.00272266  1
  Ti  Ti138  1  0.80611042  0.59140606  0.73964631  1
  Ti  Ti139  1  0.90929847  0.11898648  0.89124701  1
  Ti  Ti140  1  0.29006998  0.50341483  0.87411451  1
  Ti  Ti141  1  0.60000237  0.00231602  0.49993086  1
  Ti  Ti142  1  0.19712282  0.79822402  -0.00821677  1
  Ti  Ti143  1  0.80352787  0.58880819  -0.01157783  1
  Ti  Ti144  1  0.81961926  0.59407357  0.52330584  1
  Ti  Ti145  1  0.90503142  0.88996344  0.86647189  1
  Ti  Ti146  1  0.61510709  0.40132178  -0.00755663  1
  Ti  Ti147  1  0.80803191  0.19145049  0.50568822  1
  Ti  Ti148  1  0.59389674  0.19730919  0.50014292  1
  Ti  Ti149  1  0.69877672  0.49373716  0.64167750  1
  Ti  Ti150  1  0.89334028  0.69423600  0.11824943  1
  Ti  Ti151  1  0.49919343  0.90339506  0.62087884  1
  Ti  Ti152  1  0.39426693  0.80320827  0.74406520  1
  Ti  Ti153  1  0.50109290  0.28781805  0.12600788  1
  Ti  Ti154  1  0.09234459  0.70286207  0.12667834  1
  Ti  Ti155  1  0.80453229  0.00441508  0.76336390  1
  Ti  Ti156  1  0.80723525  0.41086624  0.25153157  1
  Ti  Ti157  1  0.70758431  0.69240097  0.63060800  1
  Ti  Ti158  1  0.70855423  0.70223230  0.11939647  1
  Ti  Ti159  1  0.71055411  0.50414115  0.12282367  1
  Mo  Mo160  1  0.19804285  0.20893806  -0.00340142  1
  Mo  Mo161  1  0.20148104  0.59849817  0.74808846  1
  Mo  Mo162  1  0.49514655  0.49092293  0.64087657  1
  Mo  Mo163  1  0.20790372  0.18974650  0.49543524  1
  Mo  Mo164  1  0.39451699  0.00011969  0.27064493  1
  Mo  Mo165  1  0.18671083  0.81246584  0.49859350  1
  Mo  Mo166  1  0.80008433  0.59744402  0.24245978  1
  Mo  Mo167  1  0.00852471  0.21082788  0.24755897  1
  Mo  Mo168  1  0.89504172  0.29529689  0.63278390  1
  Mo  Mo169  1  0.38677765  0.19002470  0.75153071  1
  Mo  Mo170  1  0.19350852  0.58785368  0.24084322  1
  Mo  Mo171  1  0.90368724  0.49818450  0.64106981  1
  Mo  Mo172  1  0.18887552  0.19815455  0.75316303  1
  Mo  Mo173  1  -0.00849160  0.61181130  0.51935957  1
  Mo  Mo174  1  0.29784658  0.29859155  0.37093807  1
  Mo  Mo175  1  0.30110694  0.09143416  0.87007397  1
  Mo  Mo176  1  0.00185120  0.20875423  -0.00483981  1
  Mo  Mo177  1  0.89575536  0.31391415  0.37414128  1
  Mo  Mo178  1  0.89664665  0.69404235  0.86785417  1
  Mo  Mo179  1  -0.00349760  0.80208396  0.25047844  1
  Mo  Mo180  1  0.80604893  -0.00643617  0.49690747  1
  Mo  Mo181  1  0.89711669  0.69656326  0.38608797  1
  Mo  Mo182  1  0.30053563  0.10291777  0.62339146  1
  Mo  Mo183  1  0.40326913  -0.00897304  -0.00447429  1
  Mo  Mo184  1  0.58284961  0.21267620  0.76237068  1
  Mo  Mo185  1  0.20398795  0.80584170  0.75238697  1
  Mo  Mo186  1  0.80232308  0.39581431  0.73735946  1
  Mo  Mo187  1  0.80002062  0.41668267  0.00216141  1
  Mo  Mo188  1  0.59012422  0.20231526  0.25195517  1
  Mo  Mo189  1  -0.00804887  0.40554756  0.73978896  1
  Mo  Mo190  1  0.49929702  0.29855226  0.87273275  1
  Mo  Mo191  1  0.10432167  0.50828346  0.87544885  1
  Mo  Mo192  1  0.20175746  0.60023116  0.50667846  1
  Mo  Mo193  1  0.60207753  0.58838488  0.73841138  1
  Mo  Mo194  1  0.90392649  0.70019514  0.62968307  1
  Mo  Mo195  1  0.60768844  0.79287520  -0.00625164  1
  Mo  Mo196  1  0.79243467  0.20919717  0.00028322  1
  Mo  Mo197  1  0.89679685  0.10510764  0.63269003  1
  Mo  Mo198  1  0.00091755  0.80187740  0.75432797  1
  Mo  Mo199  1  0.68759368  0.31167734  0.87711165  1
