# generated using pymatgen
data_HfZrTaTiMo
_symmetry_space_group_name_H-M   'P 1'
_cell_length_a   15.17819379
_cell_length_b   15.18956440
_cell_length_c   16.80436889
_cell_angle_alpha   89.98078111
_cell_angle_beta   89.97411061
_cell_angle_gamma   90.00690473
_symmetry_Int_Tables_number   1
_chemical_formula_structural   HfZrTaTiMo
_chemical_formula_sum   'Hf40 Zr40 Ta40 Ti40 Mo40'
_cell_volume   3874.24916203
_cell_formula_units_Z   40
loop_
 _symmetry_equiv_pos_site_id
 _symmetry_equiv_pos_as_xyz
  1  'x, y, z'
loop_
 _atom_site_type_symbol
 _atom_site_label
 _atom_site_symmetry_multiplicity
 _atom_site_fract_x
 _atom_site_fract_y
 _atom_site_fract_z
 _atom_site_occupancy
  Hf  Hf0  1  0.59776011  0.59262061  0.24327210  1
  Hf  Hf1  1  0.58373618  0.60380823  0.74282963  1
  Hf  Hf2  1  0.00827300  0.42365244  0.00751496  1
  Hf  Hf3  1  0.00455780  0.20176006  0.22669628  1
  Hf  Hf4  1  0.30414263  0.88969706  0.87287100  1
  Hf  Hf5  1  0.40964606  0.17208612  0.23110148  1
  Hf  Hf6  1  0.29833284  0.10296267  0.88898308  1
  Hf  Hf7  1  0.20013436  0.61536382  0.48446408  1
  Hf  Hf8  1  -0.01904048  0.42075247  0.23859220  1
  Hf  Hf9  1  0.58194236  0.00690271  0.24919361  1
  Hf  Hf10  1  0.71150252  0.08808684  0.11536702  1
  Hf  Hf11  1  0.89741307  0.31132274  0.37390048  1
  Hf  Hf12  1  0.48649224  0.90228279  0.38291498  1
  Hf  Hf13  1  0.88377437  0.90221158  0.87355575  1
  Hf  Hf14  1  0.38792442  0.59369120  0.75271795  1
  Hf  Hf15  1  0.61195107  -0.00981200  0.74503200  1
  Hf  Hf16  1  0.90283023  0.88143114  0.12509304  1
  Hf  Hf17  1  0.60756231  0.20684342  0.23765727  1
  Hf  Hf18  1  0.71308256  0.88819468  0.61668152  1
  Hf  Hf19  1  0.92370337  0.10235059  0.37274478  1
  Hf  Hf20  1  0.59676183  0.79167480  0.25913227  1
  Hf  Hf21  1  0.09326037  0.49026714  0.62273320  1
  Hf  Hf22  1  0.69473899  0.48189737  0.38327663  1
  Hf  Hf23  1  0.29949104  0.49931768  0.36927459  1
  Hf  Hf24  1  0.18596289  0.60381829  0.00097723  1
  Hf  Hf25  1  0.30675958  0.30692649  0.89015014  1
  Hf  Hf26  1  0.40151264  -0.00853247  0.74029482  1
  Hf  Hf27  1  0.70290763  0.30109094  0.09871114  1
  Hf  Hf28  1  0.89289978  0.69396371  0.88312729  1
  Hf  Hf29  1  0.31364389  0.29103529  0.37555333  1
  Hf  Hf30  1  0.51515158  0.88456023  0.86763826  1
  Hf  Hf31  1  0.08241558  0.50555425  0.36995040  1
  Hf  Hf32  1  0.70603975  0.28752843  0.87788078  1
  Hf  Hf33  1  0.68999114  0.70079725  0.61445192  1
  Hf  Hf34  1  0.70858600  0.69651498  0.12205368  1
  Hf  Hf35  1  0.19014134  0.82134449  0.25512378  1
  Hf  Hf36  1  0.09885133  0.92440745  0.37832096  1
  Hf  Hf37  1  0.50352615  0.29424504  0.88622366  1
  Hf  Hf38  1  0.49752628  0.49076245  0.89148162  1
  Hf  Hf39  1  0.39733307  0.59447818  0.23434437  1
  Zr  Zr40  1  0.39159596  0.80443087  0.25046957  1
  Zr  Zr41  1  0.60277930  0.40324706  0.74245957  1
  Zr  Zr42  1  0.09906733  0.50680954  0.86944806  1
  Zr  Zr43  1  0.81573252  0.41028469  -0.01925901  1
  Zr  Zr44  1  0.09106066  0.91055662  0.86607345  1
  Zr  Zr45  1  0.50108901  0.87268313  0.62409650  1
  Zr  Zr46  1  0.60356473  0.00046378  0.50749413  1
  Zr  Zr47  1  -0.00735772  0.00248516  0.01215687  1
  Zr  Zr48  1  0.39220920  0.38324073  0.22889137  1
  Zr  Zr49  1  0.70531508  0.89711748  0.37818965  1
  Zr  Zr50  1  0.48235759  0.69163862  0.89130457  1
  Zr  Zr51  1  0.80113831  0.58463607  0.25967488  1
  Zr  Zr52  1  0.49974030  0.29108726  0.09849753  1
  Zr  Zr53  1  0.80672639  0.20128772  0.24127868  1
  Zr  Zr54  1  0.39989221  0.19721826  0.74983201  1
  Zr  Zr55  1  0.72247110  0.29430701  0.63735188  1
  Zr  Zr56  1  -0.00819500  0.59892784  0.74737490  1
  Zr  Zr57  1  0.81446894  0.40296782  0.76727598  1
  Zr  Zr58  1  0.89189460  0.49590347  0.61795467  1
  Zr  Zr59  1  0.28905368  0.29075705  0.62811553  1
  Zr  Zr60  1  0.78706533  0.60865551  0.74782391  1
  Zr  Zr61  1  0.20307417  0.00636792  0.52135641  1
  Zr  Zr62  1  0.28586226  0.70736239  0.12721583  1
  Zr  Zr63  1  0.70551036  0.10740817  0.37916892  1
  Zr  Zr64  1  0.09507989  0.69853824  0.62141355  1
  Zr  Zr65  1  0.08084304  0.71604742  0.13095994  1
  Zr  Zr66  1  0.29560699  0.50661441  0.61687594  1
  Zr  Zr67  1  0.00343617  0.21577469  0.01345900  1
  Zr  Zr68  1  0.81573670  -0.00692431  0.25387168  1
  Zr  Zr69  1  0.51248156  0.29619464  0.37745452  1
  Zr  Zr70  1  0.19764374  0.19285093  0.49518866  1
  Zr  Zr71  1  0.12837676  0.10212393  0.11567255  1
  Zr  Zr72  1  0.20385340  0.01316905  0.74124530  1
  Zr  Zr73  1  0.69607752  0.89083150  0.13424123  1
  Zr  Zr74  1  0.57672032  0.58547404  0.51290709  1
  Zr  Zr75  1  0.00549647  0.02474171  0.51438206  1
  Zr  Zr76  1  0.10143283  0.30286440  0.35562612  1
  Zr  Zr77  1  0.49461851  0.48574605  0.37242052  1
  Zr  Zr78  1  0.19045906  0.39454541  0.49391672  1
  Zr  Zr79  1  0.49152788  0.10392133  0.39058346  1
  Ta  Ta80  1  0.09542937  0.13529298  0.64363519  1
  Ta  Ta81  1  0.50099773  0.70243136  0.11697816  1
  Ta  Ta82  1  0.82332916  0.19156149  0.75477491  1
  Ta  Ta83  1  -0.01416880  0.80321600  0.74489214  1
  Ta  Ta84  1  0.19839942  0.81151809  0.50062092  1
  Ta  Ta85  1  0.88756426  0.71428705  0.61168347  1
  Ta  Ta86  1  0.10223975  0.11170907  0.88086348  1
  Ta  Ta87  1  0.08640904  0.72150534  0.37764859  1
  Ta  Ta88  1  0.71370234  0.08213227  0.87581502  1
  Ta  Ta89  1  0.40313418  0.40057446  0.74523300  1
  Ta  Ta90  1  0.50645581  0.10202393  0.62695285  1
  Ta  Ta91  1  0.48098440  0.68794753  0.37812656  1
  Ta  Ta92  1  0.22215993  0.20953726  0.23558091  1
  Ta  Ta93  1  0.81599663  0.77851622  0.26434523  1
  Ta  Ta94  1  0.10912027  0.30004422  0.88112222  1
  Ta  Ta95  1  0.70600947  0.49804859  0.10853949  1
  Ta  Ta96  1  0.50918847  0.09171687  0.87440125  1
  Ta  Ta97  1  0.69504145  0.69007126  0.38594039  1
  Ta  Ta98  1  0.60502545  0.39157414  0.52529579  1
  Ta  Ta99  1  0.09614191  0.90078817  0.63819348  1
  Ta  Ta100  1  -0.01803872  0.62685481  0.26432377  1
  Ta  Ta101  1  0.30206233  0.70819314  0.62177580  1
  Ta  Ta102  1  0.19559043  0.80662492  -0.00818668  1
  Ta  Ta103  1  0.20203141  0.79557135  0.74949663  1
  Ta  Ta104  1  0.48685767  0.90417347  0.12394618  1
  Ta  Ta105  1  0.01666567  -0.00429540  0.23470355  1
  Ta  Ta106  1  0.41304539  -0.00823736  -0.00770395  1
  Ta  Ta107  1  0.20585515  0.40057396  0.75551080  1
  Ta  Ta108  1  0.78428686  0.39615604  0.24388565  1
  Ta  Ta109  1  0.59060144  0.78840209  0.48763747  1
  Ta  Ta110  1  0.60719194  0.17825865  -0.00766202  1
  Ta  Ta111  1  0.38989613  -0.00471738  0.52232793  1
  Ta  Ta112  1  0.59918054  0.40203636  0.23094956  1
  Ta  Ta113  1  0.41164266  0.39780653  0.51531054  1
  Ta  Ta114  1  0.81679887  0.19377506  0.50873965  1
  Ta  Ta115  1  -0.00302143  0.81360247  0.50611631  1
  Ta  Ta116  1  0.81565256  -0.00114206  0.50090241  1
  Ta  Ta117  1  0.68776013  0.71817714  0.87440531  1
  Ta  Ta118  1  0.90874310  0.09923077  0.87691927  1
  Ta  Ta119  1  0.60921133  0.20436960  0.51796637  1
  Ti  Ti120  1  0.30478385  0.08947973  0.37090320  1
  Ti  Ti121  1  0.90106018  0.90503301  0.62712242  1
  Ti  Ti122  1  -0.00743140  0.01629017  0.74366329  1
  Ti  Ti123  1  0.38765153  0.59757303  0.01795849  1
  Ti  Ti124  1  0.80644870  -0.00442521  0.74503023  1
  Ti  Ti125  1  0.59882734  0.59799179  0.00684754  1
  Ti  Ti126  1  0.09932419  0.70836787  0.86850975  1
  Ti  Ti127  1  0.79248276  0.59465332  0.49798381  1
  Ti  Ti128  1  0.81536802  0.18496228  -0.00237430  1
  Ti  Ti129  1  0.19999986  0.60457156  0.75274066  1
  Ti  Ti130  1  0.70124478  0.29564011  0.38312976  1
  Ti  Ti131  1  0.89707345  0.68217039  0.11049716  1
  Ti  Ti132  1  0.08858325  0.52358146  0.13882258  1
  Ti  Ti133  1  0.31576465  0.08505573  0.10480332  1
  Ti  Ti134  1  0.00219322  0.38374571  0.75875115  1
  Ti  Ti135  1  0.80515663  0.39065922  0.50662148  1
  Ti  Ti136  1  0.91043176  0.89321598  0.37791283  1
  Ti  Ti137  1  0.39469844  0.40961909  0.01769380  1
  Ti  Ti138  1  0.89376976  0.31408787  0.12026271  1
  Ti  Ti139  1  0.00155674  0.79475836  -0.00720902  1
  Ti  Ti140  1  0.19089314  0.61055912  0.26137282  1
  Ti  Ti141  1  0.39146821  0.79720250  0.00553967  1
  Ti  Ti142  1  0.27856431  0.49175445  0.13337489  1
  Ti  Ti143  1  0.20137621  0.40301794  0.00519424  1
  Ti  Ti144  1  0.11771924  0.90575158  0.11630756  1
  Ti  Ti145  1  0.29982319  0.50632702  0.88307556  1
  Ti  Ti146  1  0.69989802  0.51694086  0.88505459  1
  Ti  Ti147  1  0.00542551  0.22744474  0.50730843  1
  Ti  Ti148  1  0.60942534  0.19118034  0.74973794  1
  Ti  Ti149  1  0.40192492  0.78323454  0.74911509  1
  Ti  Ti150  1  0.59377433  0.80044382  0.00628027  1
  Ti  Ti151  1  0.40427302  0.19589831  0.51776767  1
  Ti  Ti152  1  0.61082701  -0.01463851  -0.00513071  1
  Ti  Ti153  1  0.29590550  0.90699104  0.37955935  1
  Ti  Ti154  1  0.38713185  0.78765291  0.49481847  1
  Ti  Ti155  1  0.71493309  0.09502877  0.62700371  1
  Ti  Ti156  1  0.11841215  0.10835554  0.35299618  1
  Ti  Ti157  1  0.11782554  0.32250962  0.13259348  1
  Ti  Ti158  1  -0.01170389  0.60319447  0.49220164  1
  Ti  Ti159  1  0.79031109  0.80595124  -0.00207969  1
  Mo  Mo160  1  0.20604158  -0.00493762  -0.01041345  1
  Mo  Mo161  1  0.20406940  0.20825103  0.00672390  1
  Mo  Mo162  1  0.50164771  0.50326886  0.10899547  1
  Mo  Mo163  1  0.30335593  0.10006901  0.63127486  1
  Mo  Mo164  1  0.49019788  0.49318281  0.62858694  1
  Mo  Mo165  1  0.70048682  0.89547752  0.87418991  1
  Mo  Mo166  1  0.38900342  -0.00502261  0.24568948  1
  Mo  Mo167  1  0.19784435  0.21285228  0.76260244  1
  Mo  Mo168  1  0.88949777  0.49927554  0.38937224  1
  Mo  Mo169  1  0.79760537  -0.00154985  0.00047431  1
  Mo  Mo170  1  0.19638372  0.40968299  0.24511367  1
  Mo  Mo171  1  0.50888024  0.08448425  0.10634551  1
  Mo  Mo172  1  0.28625735  0.69510491  0.87823249  1
  Mo  Mo173  1  0.38911866  0.60117865  0.49604419  1
  Mo  Mo174  1  0.80162889  0.79987301  0.48889724  1
  Mo  Mo175  1  0.40810029  0.18636933  -0.00115261  1
  Mo  Mo176  1  0.09722849  0.31251650  0.63387337  1
  Mo  Mo177  1  0.50431116  0.29191057  0.63115185  1
  Mo  Mo178  1  0.60157130  0.78604937  0.74787120  1
  Mo  Mo179  1  0.29432966  0.28951740  0.10843813  1
  Mo  Mo180  1  0.79097726  0.60822766  -0.00923089  1
  Mo  Mo181  1  -0.00614940  0.60551066  -0.00174524  1
  Mo  Mo182  1  0.00477765  0.20456690  0.76431660  1
  Mo  Mo183  1  0.29422626  0.90779864  0.10916632  1
  Mo  Mo184  1  0.90339758  0.50256830  0.86950866  1
  Mo  Mo185  1  0.91597793  0.28942708  0.88147458  1
  Mo  Mo186  1  0.90724518  0.09573293  0.12628503  1
  Mo  Mo187  1  -0.00792525  0.81281793  0.25710329  1
  Mo  Mo188  1  0.22045765  0.01234203  0.24742415  1
  Mo  Mo189  1  0.89611230  0.70229042  0.39545020  1
  Mo  Mo190  1  0.89329004  0.51081410  0.12351069  1
  Mo  Mo191  1  0.79835752  0.80310704  0.74711820  1
  Mo  Mo192  1  0.60635790  0.40289093  -0.00727489  1
  Mo  Mo193  1  0.29041389  0.70816001  0.37123567  1
  Mo  Mo194  1  0.29531490  0.88613279  0.63142172  1
  Mo  Mo195  1  0.48289081  0.69494556  0.61909150  1
  Mo  Mo196  1  0.89896928  0.10484189  0.63112735  1
  Mo  Mo197  1  -0.00781844  0.40624633  0.49513987  1
  Mo  Mo198  1  0.70229813  0.49732155  0.61953269  1
  Mo  Mo199  1  0.92217063  0.29474223  0.62691627  1
