# generated using pymatgen
data_HfZrTaTiMo
_symmetry_space_group_name_H-M   'P 1'
_cell_length_a   15.19563092
_cell_length_b   15.17896742
_cell_length_c   16.79764505
_cell_angle_alpha   89.97070145
_cell_angle_beta   90.03923355
_cell_angle_gamma   89.97652745
_symmetry_Int_Tables_number   1
_chemical_formula_structural   HfZrTaTiMo
_chemical_formula_sum   'Hf40 Zr40 Ta40 Ti40 Mo40'
_cell_volume   3874.44205842
_cell_formula_units_Z   40
loop_
 _symmetry_equiv_pos_site_id
 _symmetry_equiv_pos_as_xyz
  1  'x, y, z'
loop_
 _atom_site_type_symbol
 _atom_site_label
 _atom_site_symmetry_multiplicity
 _atom_site_fract_x
 _atom_site_fract_y
 _atom_site_fract_z
 _atom_site_occupancy
  Hf  Hf0  1  0.30225710  0.50832190  0.11545986  1
  Hf  Hf1  1  0.30445217  0.32831575  0.62397269  1
  Hf  Hf2  1  0.91153793  0.29548091  0.86288506  1
  Hf  Hf3  1  0.61115354  0.00640559  0.25532464  1
  Hf  Hf4  1  0.91301158  0.89132869  0.37457524  1
  Hf  Hf5  1  0.68458487  0.49440667  0.62811354  1
  Hf  Hf6  1  0.30181464  0.11349941  0.63028669  1
  Hf  Hf7  1  -0.01993021  0.20758679  0.51209196  1
  Hf  Hf8  1  0.89913275  0.69302654  0.87459122  1
  Hf  Hf9  1  0.61092582  0.40661961  -0.00923755  1
  Hf  Hf10  1  0.90362776  0.68367872  0.37495451  1
  Hf  Hf11  1  0.60479367  0.18825192  -0.01028953  1
  Hf  Hf12  1  0.00143478  -0.00295562  -0.00406961  1
  Hf  Hf13  1  0.70119492  0.29413848  0.37498839  1
  Hf  Hf14  1  0.69689007  0.70198347  0.60655339  1
  Hf  Hf15  1  0.89331356  0.09941578  0.86066129  1
  Hf  Hf16  1  0.79532110  0.18301503  0.24321894  1
  Hf  Hf17  1  0.28381050  0.30694564  0.10843721  1
  Hf  Hf18  1  0.78748323  0.79466427  -0.00037593  1
  Hf  Hf19  1  0.38390082  0.40422979  0.25294207  1
  Hf  Hf20  1  0.89921114  0.70315514  0.62303423  1
  Hf  Hf21  1  0.70520633  0.50524102  0.13199598  1
  Hf  Hf22  1  0.30746507  0.70288439  0.88259583  1
  Hf  Hf23  1  0.90515780  0.47195628  0.38385634  1
  Hf  Hf24  1  0.51312167  0.91137949  0.39044296  1
  Hf  Hf25  1  0.39789585  -0.00728338  -0.00427613  1
  Hf  Hf26  1  0.50844463  0.88870013  0.13691473  1
  Hf  Hf27  1  0.28898469  0.52579581  0.61877594  1
  Hf  Hf28  1  0.39208113  0.58988469  0.47887517  1
  Hf  Hf29  1  0.01006109  0.58383709  0.73447171  1
  Hf  Hf30  1  0.18976632  0.22545673  0.74514335  1
  Hf  Hf31  1  0.30743730  0.12265799  0.38345818  1
  Hf  Hf32  1  0.39216549  0.79700586  0.49665551  1
  Hf  Hf33  1  0.09707163  0.89798352  0.13613049  1
  Hf  Hf34  1  0.60700515  -0.01738818  -0.00437818  1
  Hf  Hf35  1  0.50288770  0.30912045  0.12840979  1
  Hf  Hf36  1  0.77723405  0.18531577  0.50948670  1
  Hf  Hf37  1  0.30426453  0.90307381  0.86056819  1
  Hf  Hf38  1  0.08474431  0.30820803  0.38392089  1
  Hf  Hf39  1  0.01070303  0.59216550  0.51208055  1
  Zr  Zr40  1  0.79272886  0.60860064  0.74661668  1
  Zr  Zr41  1  0.10057130  0.09733351  0.63122172  1
  Zr  Zr42  1  0.00896250  0.79783402  0.74836254  1
  Zr  Zr43  1  0.17693687  0.61133572  0.01193310  1
  Zr  Zr44  1  0.21129322  0.80280686  0.25620975  1
  Zr  Zr45  1  0.40718960  0.01711481  0.50668364  1
  Zr  Zr46  1  0.68234320  0.28886879  0.64188894  1
  Zr  Zr47  1  0.09303839  0.11022250  0.37580482  1
  Zr  Zr48  1  0.52161946  0.70231058  0.86185605  1
  Zr  Zr49  1  0.50827496  0.48249225  0.36219447  1
  Zr  Zr50  1  -0.00714921  0.00400691  0.24827430  1
  Zr  Zr51  1  0.89439319  0.69992416  0.12690909  1
  Zr  Zr52  1  0.37597360  0.19815760  0.23793310  1
  Zr  Zr53  1  0.00376072  0.40286602  0.01118531  1
  Zr  Zr54  1  0.30708789  0.90975129  0.12714645  1
  Zr  Zr55  1  0.70833709  0.29487396  0.86886788  1
  Zr  Zr56  1  -0.00290729  0.19679774  0.00443426  1
  Zr  Zr57  1  0.28181468  0.50476231  0.89499775  1
  Zr  Zr58  1  0.71696543  0.89701119  0.60492262  1
  Zr  Zr59  1  0.60030989  0.61948222  0.00308289  1
  Zr  Zr60  1  0.00864655  0.79269321  -0.00346263  1
  Zr  Zr61  1  0.50367107  0.50924703  0.13438469  1
  Zr  Zr62  1  0.20340174  0.81382391  0.00124895  1
  Zr  Zr63  1  0.39077687  0.59452818  0.74985494  1
  Zr  Zr64  1  0.27555892  0.90461710  0.63876595  1
  Zr  Zr65  1  0.70393127  0.29204712  0.11703224  1
  Zr  Zr66  1  0.28966191  0.10107394  0.86332844  1
  Zr  Zr67  1  0.40979184  0.80328922  0.73569478  1
  Zr  Zr68  1  0.80812969  0.38974730  0.24313979  1
  Zr  Zr69  1  0.09853674  0.50514784  0.36562227  1
  Zr  Zr70  1  0.49216315  0.28071406  0.36384768  1
  Zr  Zr71  1  0.59931392  0.58665334  0.48738648  1
  Zr  Zr72  1  0.29526613  0.30947762  0.88450698  1
  Zr  Zr73  1  0.00071090  -0.00493053  0.50531304  1
  Zr  Zr74  1  0.50149421  0.09533470  0.12286150  1
  Zr  Zr75  1  0.39983782  0.19883009  -0.00339068  1
  Zr  Zr76  1  0.52108192  0.90233595  0.60944805  1
  Zr  Zr77  1  0.80437565  0.40353088  0.74517518  1
  Zr  Zr78  1  0.50193435  0.68255837  0.61942882  1
  Zr  Zr79  1  0.19747088  0.81261135  0.48665054  1
  Ta  Ta80  1  0.40346859  0.00224835  0.26443543  1
  Ta  Ta81  1  0.69919094  0.08325979  0.86258475  1
  Ta  Ta82  1  0.41345662  0.22167496  0.51303692  1
  Ta  Ta83  1  0.42187395  0.78958388  0.00257186  1
  Ta  Ta84  1  0.00121408  -0.00328924  0.74691235  1
  Ta  Ta85  1  0.69090269  0.70903556  0.13927800  1
  Ta  Ta86  1  0.00566873  0.39330331  0.73042845  1
  Ta  Ta87  1  0.70840366  0.49127275  0.37464196  1
  Ta  Ta88  1  0.68628432  0.08567435  0.64206658  1
  Ta  Ta89  1  0.09111205  0.11047631  0.85783319  1
  Ta  Ta90  1  0.60974647  0.60501646  0.26332056  1
  Ta  Ta91  1  0.10744658  0.49423523  0.13665600  1
  Ta  Ta92  1  0.79715864  -0.00828727  0.24899095  1
  Ta  Ta93  1  0.50509959  0.70524437  0.37078517  1
  Ta  Ta94  1  0.41310214  0.01229729  0.74028519  1
  Ta  Ta95  1  0.20163875  0.62003869  0.48286152  1
  Ta  Ta96  1  0.79694089  -0.02247248  0.75248822  1
  Ta  Ta97  1  0.79838557  0.79985326  0.25848158  1
  Ta  Ta98  1  0.09050059  0.70816993  0.35849942  1
  Ta  Ta99  1  0.88518016  0.09747030  0.64245631  1
  Ta  Ta100  1  0.58772063  0.18835073  0.76299354  1
  Ta  Ta101  1  0.40375775  0.21126654  0.75054968  1
  Ta  Ta102  1  0.18922378  0.43196192  0.74963524  1
  Ta  Ta103  1  0.50121599  0.70303736  0.14687113  1
  Ta  Ta104  1  0.58854133  0.37455052  0.50212195  1
  Ta  Ta105  1  0.80502594  0.58293265  0.50293275  1
  Ta  Ta106  1  0.48882643  0.47384047  0.62358167  1
  Ta  Ta107  1  0.31311060  0.70383710  0.12515102  1
  Ta  Ta108  1  0.71629751  0.91166705  0.39415485  1
  Ta  Ta109  1  -0.00294950  0.59511148  0.23617752  1
  Ta  Ta110  1  0.49560445  0.50358185  0.87721390  1
  Ta  Ta111  1  0.88015066  0.09896096  0.37912652  1
  Ta  Ta112  1  0.10577005  0.10310645  0.13345522  1
  Ta  Ta113  1  -0.00390188  0.39491559  0.23432958  1
  Ta  Ta114  1  0.01387986  0.79271724  0.50599913  1
  Ta  Ta115  1  0.39340156  0.61028706  0.26442057  1
  Ta  Ta116  1  0.21167523  0.01575282  0.25953087  1
  Ta  Ta117  1  0.20403698  0.21285688  0.50617634  1
  Ta  Ta118  1  0.20280650  0.00725680  0.49190986  1
  Ta  Ta119  1  -0.01173395  0.20879643  0.24640522  1
  Ti  Ti120  1  0.89532175  0.89697456  0.12778314  1
  Ti  Ti121  1  0.09932719  0.29217117  0.12980308  1
  Ti  Ti122  1  0.89888118  0.89693151  0.87237400  1
  Ti  Ti123  1  0.80625476  0.38422837  0.51350030  1
  Ti  Ti124  1  0.59667680  -0.01638514  0.75409049  1
  Ti  Ti125  1  -0.01013588  0.59354631  0.01419392  1
  Ti  Ti126  1  0.10094979  0.32040467  0.87366586  1
  Ti  Ti127  1  0.19637799  0.38644683  0.25766774  1
  Ti  Ti128  1  0.81525142  0.79444428  0.49110866  1
  Ti  Ti129  1  0.61200909  0.80584040  0.26920515  1
  Ti  Ti130  1  0.89629847  0.09449348  0.12143958  1
  Ti  Ti131  1  0.80202194  0.19120080  0.00205433  1
  Ti  Ti132  1  0.10040456  0.31491150  0.61150669  1
  Ti  Ti133  1  0.10562516  0.68807521  0.86619502  1
  Ti  Ti134  1  0.81110006  0.39903028  0.00070110  1
  Ti  Ti135  1  0.90673169  0.89879821  0.62354416  1
  Ti  Ti136  1  0.69953868  0.87968742  0.87228734  1
  Ti  Ti137  1  0.10389982  0.90598027  0.36366128  1
  Ti  Ti138  1  0.80232111  0.59669374  0.25460878  1
  Ti  Ti139  1  0.28689188  0.10232205  0.11915923  1
  Ti  Ti140  1  0.50156904  0.30554760  0.87529444  1
  Ti  Ti141  1  0.40777129  0.41039168  -0.00071312  1
  Ti  Ti142  1  0.18518702  0.20178937  -0.00829228  1
  Ti  Ti143  1  0.19138465  0.01067043  -0.00509781  1
  Ti  Ti144  1  0.40206867  0.80763477  0.26811675  1
  Ti  Ti145  1  0.39584559  0.40223946  0.76160053  1
  Ti  Ti146  1  0.10803159  0.90860386  0.86367032  1
  Ti  Ti147  1  0.62777823  0.78944885  0.74396096  1
  Ti  Ti148  1  0.79688288  0.58897296  -0.00450647  1
  Ti  Ti149  1  0.49569587  0.08966616  0.87242363  1
  Ti  Ti150  1  0.20675424  0.59986493  0.25040935  1
  Ti  Ti151  1  0.12945518  0.70230302  0.63041755  1
  Ti  Ti152  1  0.70596697  0.89878173  0.12723735  1
  Ti  Ti153  1  0.50410200  0.89372449  0.87144734  1
  Ti  Ti154  1  0.90853430  0.49589190  0.87389133  1
  Ti  Ti155  1  0.70554303  0.70075709  0.38449068  1
  Ti  Ti156  1  0.80036644  -0.00071391  -0.00237128  1
  Ti  Ti157  1  0.69234522  0.51232038  0.86344407  1
  Ti  Ti158  1  0.20368606  0.41711634  0.49012662  1
  Ti  Ti159  1  0.60102575  0.19688742  0.24441166  1
  Mo  Mo160  1  -0.00580163  0.39900492  0.51778772  1
  Mo  Mo161  1  0.30212923  0.91710283  0.37444074  1
  Mo  Mo162  1  0.68985034  0.09779564  0.37647162  1
  Mo  Mo163  1  0.61642597  0.02134647  0.49797490  1
  Mo  Mo164  1  0.50484335  0.10633839  0.37139720  1
  Mo  Mo165  1  0.10916662  0.49910965  0.61398472  1
  Mo  Mo166  1  0.79173705  0.18594366  0.74861681  1
  Mo  Mo167  1  -0.00366594  0.79520418  0.24724049  1
  Mo  Mo168  1  0.89649006  0.50020857  0.12101973  1
  Mo  Mo169  1  0.60768387  0.79818750  0.48075408  1
  Mo  Mo170  1  0.09387026  0.89542871  0.62742583  1
  Mo  Mo171  1  0.08100624  0.50223066  0.87535220  1
  Mo  Mo172  1  0.80456329  0.80286688  0.75059830  1
  Mo  Mo173  1  0.60724617  0.39802250  0.25107714  1
  Mo  Mo174  1  0.39473776  0.39950549  0.49290057  1
  Mo  Mo175  1  0.28755249  0.30916096  0.38703205  1
  Mo  Mo176  1  0.71121293  0.08319233  0.11451911  1
  Mo  Mo177  1  0.81281810  0.00438909  0.50587914  1
  Mo  Mo178  1  0.89758272  0.28713692  0.37845067  1
  Mo  Mo179  1  0.10533994  0.69446971  0.14441554  1
  Mo  Mo180  1  0.29810214  0.70395380  0.36668640  1
  Mo  Mo181  1  0.89438389  0.29204991  0.63635251  1
  Mo  Mo182  1  0.19440273  0.00372187  0.75427952  1
  Mo  Mo183  1  0.50662532  0.10902018  0.63571135  1
  Mo  Mo184  1  0.29182849  0.49904123  0.36893754  1
  Mo  Mo185  1  0.58401493  0.40102413  0.76673684  1
  Mo  Mo186  1  0.18839877  0.39865862  0.00647632  1
  Mo  Mo187  1  0.20095875  0.79300382  0.75779510  1
  Mo  Mo188  1  0.49639703  0.30335489  0.63848545  1
  Mo  Mo189  1  0.19618801  0.61357937  0.75422316  1
  Mo  Mo190  1  -0.00254893  0.20810530  0.73790193  1
  Mo  Mo191  1  0.70764258  0.69802918  0.87310683  1
  Mo  Mo192  1  0.90194107  0.29035080  0.11886899  1
  Mo  Mo193  1  0.30123082  0.70650832  0.61880353  1
  Mo  Mo194  1  0.58762491  0.18981998  0.50629841  1
  Mo  Mo195  1  0.40317270  0.60786140  0.00410039  1
  Mo  Mo196  1  0.60214083  0.80405073  0.00608165  1
  Mo  Mo197  1  0.18621138  0.20675088  0.24920622  1
  Mo  Mo198  1  0.59621811  0.58780346  0.74676455  1
  Mo  Mo199  1  0.89638195  0.49198569  0.61537368  1
