# generated using pymatgen
data_HfZrTaTiMo
_symmetry_space_group_name_H-M   'P 1'
_cell_length_a   15.22197847
_cell_length_b   15.21872830
_cell_length_c   16.82659146
_cell_angle_alpha   89.98327978
_cell_angle_beta   90.00741513
_cell_angle_gamma   89.99097954
_symmetry_Int_Tables_number   1
_chemical_formula_structural   HfZrTaTiMo
_chemical_formula_sum   'Hf40 Zr40 Ta40 Ti40 Mo40'
_cell_volume   3898.03370320
_cell_formula_units_Z   40
loop_
 _symmetry_equiv_pos_site_id
 _symmetry_equiv_pos_as_xyz
  1  'x, y, z'
loop_
 _atom_site_type_symbol
 _atom_site_label
 _atom_site_symmetry_multiplicity
 _atom_site_fract_x
 _atom_site_fract_y
 _atom_site_fract_z
 _atom_site_occupancy
  Hf  Hf0  1  0.88657981  0.90072311  0.63282302  1
  Hf  Hf1  1  0.87732944  0.69726136  0.87036775  1
  Hf  Hf2  1  0.59427501  -0.00663978  0.50716790  1
  Hf  Hf3  1  0.70469772  0.29893015  0.63088686  1
  Hf  Hf4  1  0.59645232  0.40992450  0.75318742  1
  Hf  Hf5  1  0.50575264  0.10769964  0.63192115  1
  Hf  Hf6  1  0.60698941  0.22323444  -0.00683046  1
  Hf  Hf7  1  0.40630874  0.62050160  0.25900307  1
  Hf  Hf8  1  0.68336217  0.89368925  0.36393682  1
  Hf  Hf9  1  0.09813192  0.89555339  0.61479832  1
  Hf  Hf10  1  0.39830974  0.20487719  0.24702877  1
  Hf  Hf11  1  0.50863324  0.50924739  0.37066629  1
  Hf  Hf12  1  0.21372361  -0.00455351  0.24829821  1
  Hf  Hf13  1  0.60501992  0.19742485  0.49004231  1
  Hf  Hf14  1  0.10095266  0.09482464  0.37451230  1
  Hf  Hf15  1  0.71005475  0.10221523  0.88567291  1
  Hf  Hf16  1  -0.00627332  0.39814157  0.00027856  1
  Hf  Hf17  1  0.51045859  0.10940912  0.12027981  1
  Hf  Hf18  1  0.09633602  0.30402939  0.62049482  1
  Hf  Hf19  1  0.20395952  0.79211778  0.26758323  1
  Hf  Hf20  1  0.21274208  -0.00563652  0.00601788  1
  Hf  Hf21  1  0.79444129  -0.00932233  0.23958198  1
  Hf  Hf22  1  0.19802161  0.59632081  0.47890264  1
  Hf  Hf23  1  0.09544538  0.50179187  0.12134866  1
  Hf  Hf24  1  0.10577959  0.30208274  0.87902252  1
  Hf  Hf25  1  0.20711899  0.20056261  0.48569673  1
  Hf  Hf26  1  0.00801078  -0.01593353  0.00411312  1
  Hf  Hf27  1  0.31074541  0.10183875  0.61947751  1
  Hf  Hf28  1  0.78508045  0.78092948  0.24412963  1
  Hf  Hf29  1  0.18794919  0.41129268  0.74781291  1
  Hf  Hf30  1  0.71718228  0.50379407  0.36664281  1
  Hf  Hf31  1  0.50614466  0.91096350  0.86779937  1
  Hf  Hf32  1  0.49857103  0.30814644  0.61306553  1
  Hf  Hf33  1  0.60928584  0.61001371  0.50054554  1
  Hf  Hf34  1  0.79685142  0.20901837  0.48966823  1
  Hf  Hf35  1  0.29748443  0.50823194  0.61409330  1
  Hf  Hf36  1  0.50642667  0.09684613  0.36720732  1
  Hf  Hf37  1  0.90173849  0.08657397  0.87930696  1
  Hf  Hf38  1  0.19735141  0.79218669  0.47644079  1
  Hf  Hf39  1  0.80144579  0.20158869  0.25890731  1
  Zr  Zr40  1  0.10190447  0.69322939  0.62474417  1
  Zr  Zr41  1  0.69384200  0.30146125  0.12801683  1
  Zr  Zr42  1  0.59514538  0.80259952  0.50913736  1
  Zr  Zr43  1  0.30671114  0.30688783  0.60627081  1
  Zr  Zr44  1  0.41202128  -0.00344480  0.00912677  1
  Zr  Zr45  1  0.10678305  0.10616409  0.12805061  1
  Zr  Zr46  1  -0.00080744  0.58569374  0.76239150  1
  Zr  Zr47  1  -0.01371972  0.78918372  0.48672804  1
  Zr  Zr48  1  0.01061150  -0.00279027  0.74891205  1
  Zr  Zr49  1  0.20896952  0.39324017  0.25149670  1
  Zr  Zr50  1  0.20672057  0.20201298  0.74660893  1
  Zr  Zr51  1  0.90317466  0.29337298  0.11697099  1
  Zr  Zr52  1  0.30302343  0.48760799  0.88902474  1
  Zr  Zr53  1  0.50717769  0.10915474  0.87783350  1
  Zr  Zr54  1  0.09349028  0.70342388  0.12131224  1
  Zr  Zr55  1  0.61800108  0.40279258  0.49277650  1
  Zr  Zr56  1  0.81272573  0.41094334  0.23980214  1
  Zr  Zr57  1  0.81144910  0.59179798  0.50274883  1
  Zr  Zr58  1  0.20199860  0.20456102  0.26116915  1
  Zr  Zr59  1  0.89673365  0.68794834  0.63897862  1
  Zr  Zr60  1  0.47765680  0.89924960  0.35721813  1
  Zr  Zr61  1  0.90228155  0.09449971  0.37395829  1
  Zr  Zr62  1  0.29703169  0.91216832  0.63708265  1
  Zr  Zr63  1  -0.00122656  0.20289206  0.75076367  1
  Zr  Zr64  1  0.49731037  0.70072146  0.63383564  1
  Zr  Zr65  1  0.19053893  0.81999112  0.77419831  1
  Zr  Zr66  1  0.19828357  0.59536681  0.26274696  1
  Zr  Zr67  1  -0.00067677  -0.00829976  0.24521217  1
  Zr  Zr68  1  0.39681947  0.81983325  0.49885065  1
  Zr  Zr69  1  0.29752523  0.70494653  0.62577808  1
  Zr  Zr70  1  0.38957796  0.79036550  -0.01672804  1
  Zr  Zr71  1  0.20636772  0.61035033  -0.00601139  1
  Zr  Zr72  1  0.50682838  0.51197368  0.12753141  1
  Zr  Zr73  1  0.39576357  0.79554430  0.77072763  1
  Zr  Zr74  1  0.90032488  0.09636987  0.11828356  1
  Zr  Zr75  1  0.39612167  0.40488938  0.75001762  1
  Zr  Zr76  1  0.71393484  0.89377483  0.87023186  1
  Zr  Zr77  1  0.78714329  0.79469978  0.49420052  1
  Zr  Zr78  1  0.00018233  0.20928612  0.49827873  1
  Zr  Zr79  1  0.20285509  0.61113099  0.76848647  1
  Ta  Ta80  1  0.89554856  0.31744738  0.62203376  1
  Ta  Ta81  1  0.59675014  0.60026192  0.76071868  1
  Ta  Ta82  1  0.70726996  0.50972393  0.12240594  1
  Ta  Ta83  1  0.10749216  0.09161607  0.61471347  1
  Ta  Ta84  1  0.79396972  0.78370368  0.01040163  1
  Ta  Ta85  1  0.30615085  0.50018973  0.12016078  1
  Ta  Ta86  1  0.41004475  0.20706227  0.75587025  1
  Ta  Ta87  1  0.30126135  0.88396809  0.12560014  1
  Ta  Ta88  1  -0.00381045  0.79592343  0.75450414  1
  Ta  Ta89  1  0.30483520  0.69642428  0.12384717  1
  Ta  Ta90  1  0.10237747  0.88607419  0.12830207  1
  Ta  Ta91  1  0.08331257  0.71689067  0.89344465  1
  Ta  Ta92  1  0.90888118  0.32195906  0.37561290  1
  Ta  Ta93  1  0.00864423  0.19357970  -0.01038299  1
  Ta  Ta94  1  0.50000918  0.31679230  0.88165039  1
  Ta  Ta95  1  0.90696821  0.88697856  0.87671509  1
  Ta  Ta96  1  0.88614834  0.29057998  0.88380089  1
  Ta  Ta97  1  0.71015489  0.09545485  0.62985628  1
  Ta  Ta98  1  0.70308631  0.70105462  0.64370350  1
  Ta  Ta99  1  0.31798325  0.09068797  0.38121109  1
  Ta  Ta100  1  0.11458138  0.09246120  0.87770402  1
  Ta  Ta101  1  0.30776946  0.09472818  0.86912635  1
  Ta  Ta102  1  0.09310416  0.50208625  0.88927749  1
  Ta  Ta103  1  0.40584171  0.59742912  0.76357908  1
  Ta  Ta104  1  -0.00807100  0.77862362  0.26325441  1
  Ta  Ta105  1  0.60143813  0.39762699  0.25704986  1
  Ta  Ta106  1  0.48906607  0.30713097  0.38035712  1
  Ta  Ta107  1  0.70358387  0.09957824  0.11021443  1
  Ta  Ta108  1  0.08904680  0.90031364  0.37540031  1
  Ta  Ta109  1  0.49818702  0.91095380  0.64934173  1
  Ta  Ta110  1  0.59538034  0.80576769  0.00393980  1
  Ta  Ta111  1  0.71000613  0.50128536  0.63102878  1
  Ta  Ta112  1  0.40691691  0.39512908  0.00938074  1
  Ta  Ta113  1  0.79413865  -0.00085162  0.50090733  1
  Ta  Ta114  1  0.08614956  0.48432665  0.37205182  1
  Ta  Ta115  1  0.40422646  0.61331449  0.48442152  1
  Ta  Ta116  1  0.89836646  0.10406885  0.62183128  1
  Ta  Ta117  1  0.90437763  0.87405570  0.12513554  1
  Ta  Ta118  1  -0.01655300  0.60201987  -0.00449423  1
  Ta  Ta119  1  0.57981898  0.79254618  0.22927039  1
  Ti  Ti120  1  0.40170873  -0.00162182  0.22886930  1
  Ti  Ti121  1  0.78654983  0.58731787  0.75967952  1
  Ti  Ti122  1  0.78962578  0.59182974  -0.00209054  1
  Ti  Ti123  1  0.30594326  0.29286851  0.88159080  1
  Ti  Ti124  1  0.39577683  0.20043885  0.00395814  1
  Ti  Ti125  1  0.69216260  0.89572193  0.11887697  1
  Ti  Ti126  1  0.89179246  0.67536664  0.12802680  1
  Ti  Ti127  1  0.60535554  0.79171975  0.76049809  1
  Ti  Ti128  1  0.08073409  0.49542265  0.61478133  1
  Ti  Ti129  1  0.70096720  0.09054625  0.37044666  1
  Ti  Ti130  1  0.60832758  0.21266175  0.76121246  1
  Ti  Ti131  1  0.59974601  0.00009934  0.23411209  1
  Ti  Ti132  1  0.59756961  0.61570641  0.00129389  1
  Ti  Ti133  1  0.80100670  -0.01737409  0.00858484  1
  Ti  Ti134  1  0.61149714  0.01204164  0.74987049  1
  Ti  Ti135  1  0.00112952  0.59726136  0.49321714  1
  Ti  Ti136  1  0.49950999  0.51056564  0.89419453  1
  Ti  Ti137  1  0.00704126  0.39461601  0.24036074  1
  Ti  Ti138  1  -0.00633045  -0.00256471  0.50100505  1
  Ti  Ti139  1  0.49784119  0.50711756  0.61641922  1
  Ti  Ti140  1  0.60423911  0.20474363  0.25645743  1
  Ti  Ti141  1  0.80188845  0.19693739  0.75058314  1
  Ti  Ti142  1  0.69071055  0.49514581  0.88569128  1
  Ti  Ti143  1  0.91027235  0.51432027  0.36513914  1
  Ti  Ti144  1  0.18863663  0.39795543  0.48629680  1
  Ti  Ti145  1  0.78395700  0.39036947  -0.00198910  1
  Ti  Ti146  1  0.88900391  0.48931718  0.88191245  1
  Ti  Ti147  1  0.79801409  0.39484145  0.76030756  1
  Ti  Ti148  1  0.21048707  -0.00955622  0.48946186  1
  Ti  Ti149  1  0.88987148  0.89609577  0.37141589  1
  Ti  Ti150  1  0.69745987  0.90053198  0.64313146  1
  Ti  Ti151  1  0.31160012  0.48557167  0.38111023  1
  Ti  Ti152  1  0.40090855  0.40156567  0.24707768  1
  Ti  Ti153  1  0.50138108  0.31023750  0.12594852  1
  Ti  Ti154  1  0.20281825  0.39267179  0.00825007  1
  Ti  Ti155  1  0.61689897  0.61247754  0.24621424  1
  Ti  Ti156  1  -0.01112773  0.39813762  0.75920119  1
  Ti  Ti157  1  0.20926449  0.19595131  0.00105360  1
  Ti  Ti158  1  0.10236908  0.29377834  0.12102718  1
  Ti  Ti159  1  0.30218713  0.29429619  0.12015953  1
  Mo  Mo160  1  -0.01626738  0.79386159  0.00536811  1
  Mo  Mo161  1  0.29465525  0.91478781  0.87179675  1
  Mo  Mo162  1  0.08476341  0.68561924  0.36932337  1
  Mo  Mo163  1  0.89331655  0.49007935  0.63744856  1
  Mo  Mo164  1  -0.00788487  0.41541885  0.50045173  1
  Mo  Mo165  1  0.80600725  0.19762604  -0.00438737  1
  Mo  Mo166  1  0.31396610  0.70098370  0.37675434  1
  Mo  Mo167  1  0.30756452  0.10236851  0.12355232  1
  Mo  Mo168  1  0.40431184  0.01014162  0.75527435  1
  Mo  Mo169  1  0.50843632  0.69585159  0.87712250  1
  Mo  Mo170  1  0.88861899  0.68982859  0.36627138  1
  Mo  Mo171  1  0.40813248  0.20106870  0.48925480  1
  Mo  Mo172  1  0.40318762  0.41606784  0.49495646  1
  Mo  Mo173  1  0.09244965  0.90618208  0.88394138  1
  Mo  Mo174  1  0.09405989  0.30365222  0.37357666  1
  Mo  Mo175  1  0.60102988  0.41648177  -0.00042801  1
  Mo  Mo176  1  0.29167078  0.91058733  0.37098319  1
  Mo  Mo177  1  0.89698693  0.50047822  0.11077409  1
  Mo  Mo178  1  0.79665661  0.79858451  0.75217614  1
  Mo  Mo179  1  0.61244074  -0.00377181  0.00860514  1
  Mo  Mo180  1  0.70143096  0.30609098  0.86620104  1
  Mo  Mo181  1  -0.00784336  0.58622779  0.24612225  1
  Mo  Mo182  1  0.80259711  0.00686965  0.74573170  1
  Mo  Mo183  1  0.51420604  0.70803901  0.37175808  1
  Mo  Mo184  1  0.29768086  0.69637357  0.87824410  1
  Mo  Mo185  1  0.81061501  0.39973364  0.49630397  1
  Mo  Mo186  1  0.80502171  0.60237021  0.24416019  1
  Mo  Mo187  1  0.69188231  0.69464916  0.11444625  1
  Mo  Mo188  1  0.39037397  0.80535636  0.24269597  1
  Mo  Mo189  1  0.19910669  0.01229431  0.75111192  1
  Mo  Mo190  1  0.50008251  0.89870110  0.12536682  1
  Mo  Mo191  1  0.00188331  0.21782211  0.25764422  1
  Mo  Mo192  1  0.69841392  0.29943869  0.36333532  1
  Mo  Mo193  1  0.40325020  0.00741292  0.50191574  1
  Mo  Mo194  1  0.49285067  0.70571394  0.11715164  1
  Mo  Mo195  1  0.68953343  0.69112498  0.87763881  1
  Mo  Mo196  1  0.68676630  0.69630979  0.36888858  1
  Mo  Mo197  1  0.19147779  0.81017709  -0.00617943  1
  Mo  Mo198  1  0.40480419  0.59690672  0.00350498  1
  Mo  Mo199  1  0.30904425  0.30289655  0.38617350  1
