# generated using pymatgen
data_HfZrTaTiMo
_symmetry_space_group_name_H-M   'P 1'
_cell_length_a   15.20881284
_cell_length_b   15.20492143
_cell_length_c   16.85643511
_cell_angle_alpha   90.03867826
_cell_angle_beta   89.95886484
_cell_angle_gamma   90.11296598
_symmetry_Int_Tables_number   1
_chemical_formula_structural   HfZrTaTiMo
_chemical_formula_sum   'Hf40 Zr40 Ta40 Ti40 Mo40'
_cell_volume   3898.02100073
_cell_formula_units_Z   40
loop_
 _symmetry_equiv_pos_site_id
 _symmetry_equiv_pos_as_xyz
  1  'x, y, z'
loop_
 _atom_site_type_symbol
 _atom_site_label
 _atom_site_symmetry_multiplicity
 _atom_site_fract_x
 _atom_site_fract_y
 _atom_site_fract_z
 _atom_site_occupancy
  Hf  Hf0  1  0.80820408  0.80466696  0.23645137  1
  Hf  Hf1  1  0.18790549  0.21305001  0.75534921  1
  Hf  Hf2  1  0.29153774  0.90574608  0.12443980  1
  Hf  Hf3  1  0.29893518  0.50944501  0.87585835  1
  Hf  Hf4  1  0.20805773  0.78952358  0.49967492  1
  Hf  Hf5  1  0.80302497  0.00446037  0.49924065  1
  Hf  Hf6  1  0.39783242  0.19635675  0.00514175  1
  Hf  Hf7  1  0.71400290  0.90155934  0.36173542  1
  Hf  Hf8  1  0.79937341  0.40060428  0.00346245  1
  Hf  Hf9  1  0.90834244  0.71890365  0.38628440  1
  Hf  Hf10  1  0.41065655  0.60790696  0.23835724  1
  Hf  Hf11  1  0.29562540  0.31640908  0.86671916  1
  Hf  Hf12  1  0.70285803  0.29317319  0.87376856  1
  Hf  Hf13  1  0.47942525  0.48714003  0.62362041  1
  Hf  Hf14  1  0.60148386  0.78884132  0.23557492  1
  Hf  Hf15  1  0.50310220  0.73049431  0.63572995  1
  Hf  Hf16  1  0.29704648  0.90824378  0.37435492  1
  Hf  Hf17  1  0.10630946  0.68669154  0.63863242  1
  Hf  Hf18  1  0.42495137  -0.00088007  0.74336152  1
  Hf  Hf19  1  0.70204942  0.09691352  0.13404522  1
  Hf  Hf20  1  0.69315558  0.69949963  0.87645031  1
  Hf  Hf21  1  0.80506220  0.59539056  0.75141238  1
  Hf  Hf22  1  0.41679368  0.81100604  0.49219788  1
  Hf  Hf23  1  0.09525962  0.89092976  0.62078753  1
  Hf  Hf24  1  0.19746123  0.00097238  0.74771523  1
  Hf  Hf25  1  0.38678662  0.60942144  0.73960349  1
  Hf  Hf26  1  0.29631595  0.50915062  0.35803230  1
  Hf  Hf27  1  -0.01441257  0.39759508  0.24814382  1
  Hf  Hf28  1  0.29376314  0.28377792  0.13916745  1
  Hf  Hf29  1  0.60517050  0.60569820  0.51795611  1
  Hf  Hf30  1  0.00275901  0.20501698  0.48323478  1
  Hf  Hf31  1  0.19958266  0.79977438  -0.01074627  1
  Hf  Hf32  1  0.50223879  0.48919942  0.38922203  1
  Hf  Hf33  1  0.31266275  0.32701698  0.64234875  1
  Hf  Hf34  1  0.11301141  0.10189727  0.37020708  1
  Hf  Hf35  1  0.51086529  0.08424111  0.88777313  1
  Hf  Hf36  1  0.70045191  0.69360923  0.10615346  1
  Hf  Hf37  1  0.21462513  0.39073351  0.48981419  1
  Hf  Hf38  1  0.10486434  0.68908667  0.86857422  1
  Hf  Hf39  1  0.30087900  0.49132753  0.13191073  1
  Zr  Zr40  1  0.80444153  0.20211118  0.01642707  1
  Zr  Zr41  1  0.88917875  0.90029777  0.62835106  1
  Zr  Zr42  1  0.59689420  0.18068726  0.75515231  1
  Zr  Zr43  1  0.59778537  -0.01753717  0.49653617  1
  Zr  Zr44  1  0.00971819  0.80334895  0.24383311  1
  Zr  Zr45  1  0.09647886  0.89228957  0.11650088  1
  Zr  Zr46  1  0.89415388  0.09807985  0.88236463  1
  Zr  Zr47  1  -0.00545886  0.19568708  0.74649219  1
  Zr  Zr48  1  0.70537038  0.69465174  0.37730987  1
  Zr  Zr49  1  0.27949604  0.70280046  0.13069634  1
  Zr  Zr50  1  -0.00852044  0.00054150  0.75247211  1
  Zr  Zr51  1  0.50382340  0.69712802  0.38079023  1
  Zr  Zr52  1  0.79954248  0.22419680  0.24559856  1
  Zr  Zr53  1  0.30948993  0.88906973  0.63229447  1
  Zr  Zr54  1  0.00172925  0.39593245  0.01781147  1
  Zr  Zr55  1  0.19196885  0.20779052  -0.00474922  1
  Zr  Zr56  1  0.38161336  0.60565849  0.51333846  1
  Zr  Zr57  1  0.30706779  0.10381100  0.86352171  1
  Zr  Zr58  1  0.29942696  0.28658247  0.35638139  1
  Zr  Zr59  1  0.41880267  0.39535983  0.24701416  1
  Zr  Zr60  1  0.11208343  0.30585907  0.61330909  1
  Zr  Zr61  1  0.78915272  0.21094302  0.48438572  1
  Zr  Zr62  1  0.40862214  0.61094278  0.00877032  1
  Zr  Zr63  1  0.90136155  0.29843847  0.61571649  1
  Zr  Zr64  1  -0.00889793  0.79606028  0.76454181  1
  Zr  Zr65  1  0.70072851  0.09515775  0.62663092  1
  Zr  Zr66  1  0.60833212  0.38556224  0.50735191  1
  Zr  Zr67  1  0.60679519  0.58155660  0.24353041  1
  Zr  Zr68  1  0.89702493  0.09541640  0.35726736  1
  Zr  Zr69  1  0.49968613  0.28152535  0.63328812  1
  Zr  Zr70  1  0.40166433  0.01641600  0.51169743  1
  Zr  Zr71  1  0.68339266  0.10628584  0.35763575  1
  Zr  Zr72  1  0.00769387  0.39863073  0.74982100  1
  Zr  Zr73  1  0.60244249  0.40529763  0.75229132  1
  Zr  Zr74  1  0.10941218  0.10040649  0.13555481  1
  Zr  Zr75  1  -0.00062017  0.59946918  0.00115657  1
  Zr  Zr76  1  0.49616833  0.89022143  0.11388300  1
  Zr  Zr77  1  0.39727668  0.80619809  0.25576635  1
  Zr  Zr78  1  -0.00200467  0.60743858  0.24354810  1
  Zr  Zr79  1  0.18872280  0.58604868  0.50185270  1
  Ta  Ta80  1  0.30299681  0.12186848  0.63492555  1
  Ta  Ta81  1  0.60152923  0.20015214  0.00581097  1
  Ta  Ta82  1  0.30563716  0.70484813  0.87581752  1
  Ta  Ta83  1  0.50880075  0.28530454  0.37611621  1
  Ta  Ta84  1  0.70600440  0.49525882  0.38002501  1
  Ta  Ta85  1  0.79995431  -0.00836324  0.00617532  1
  Ta  Ta86  1  0.50447733  0.30049612  0.11697128  1
  Ta  Ta87  1  0.48765217  0.10055541  0.36798910  1
  Ta  Ta88  1  0.68815453  0.90460484  0.87770257  1
  Ta  Ta89  1  0.00611594  0.41090807  0.48486587  1
  Ta  Ta90  1  0.59811989  0.60408248  0.74384052  1
  Ta  Ta91  1  -0.00983158  0.80658049  -0.01433231  1
  Ta  Ta92  1  0.10114286  0.48250442  0.87943700  1
  Ta  Ta93  1  0.90401509  0.70016929  0.62143377  1
  Ta  Ta94  1  0.39754102  0.01737285  0.23744587  1
  Ta  Ta95  1  0.49270582  0.29788692  0.87286014  1
  Ta  Ta96  1  0.59364788  -0.00511354  0.23503703  1
  Ta  Ta97  1  0.80159617  0.60273755  0.24396559  1
  Ta  Ta98  1  0.70810332  0.70389617  0.63569915  1
  Ta  Ta99  1  0.11375444  0.69589021  0.37166792  1
  Ta  Ta100  1  0.08957316  0.89453232  0.38685547  1
  Ta  Ta101  1  0.80413726  0.19776044  0.74939658  1
  Ta  Ta102  1  0.70739725  0.30107286  0.63406187  1
  Ta  Ta103  1  -0.00259444  -0.00125876  0.49889167  1
  Ta  Ta104  1  0.39005117  0.21551167  0.49959738  1
  Ta  Ta105  1  0.89472665  0.51212473  0.37632238  1
  Ta  Ta106  1  0.90914472  0.30472096  0.87947847  1
  Ta  Ta107  1  0.19984083  0.00752535  0.50711904  1
  Ta  Ta108  1  0.80749784  0.40667214  0.49611901  1
  Ta  Ta109  1  -0.00163031  0.00352459  -0.00229769  1
  Ta  Ta110  1  0.81010323  0.39874190  0.75502121  1
  Ta  Ta111  1  0.20208302  0.00553272  -0.00935578  1
  Ta  Ta112  1  0.09613535  0.10112713  0.61503989  1
  Ta  Ta113  1  0.79301163  0.41378777  0.24806988  1
  Ta  Ta114  1  -0.00030088  0.20378630  0.01414632  1
  Ta  Ta115  1  0.79227970  0.80226808  0.50660483  1
  Ta  Ta116  1  0.68395258  0.88818343  0.63926655  1
  Ta  Ta117  1  0.80409794  0.59992029  0.50980280  1
  Ta  Ta118  1  0.10037243  0.90726770  0.87771153  1
  Ta  Ta119  1  0.10861453  0.50805862  0.13587562  1
  Ti  Ti120  1  -0.00188300  0.58635754  0.75528817  1
  Ti  Ti121  1  0.49908418  0.50443962  0.86962839  1
  Ti  Ti122  1  0.90898540  0.50258678  0.61942349  1
  Ti  Ti123  1  0.80327780  0.59359554  -0.00925026  1
  Ti  Ti124  1  0.01297866  0.21353386  0.25179967  1
  Ti  Ti125  1  0.79375513  0.00090161  0.75610373  1
  Ti  Ti126  1  0.49622243  0.70900681  0.86633165  1
  Ti  Ti127  1  0.19644024  0.39843236  0.01047421  1
  Ti  Ti128  1  0.40091187  0.39979284  0.00014739  1
  Ti  Ti129  1  0.70327142  0.09492406  0.88292522  1
  Ti  Ti130  1  0.89495030  0.69367534  0.87817454  1
  Ti  Ti131  1  0.70934323  0.49673787  0.62942289  1
  Ti  Ti132  1  0.59887860  0.59103622  -0.00707744  1
  Ti  Ti133  1  0.59013542  0.18559451  0.50255470  1
  Ti  Ti134  1  0.39721462  -0.00538941  0.00324556  1
  Ti  Ti135  1  0.79451978  0.80382465  0.76165848  1
  Ti  Ti136  1  0.59513499  0.39589733  -0.00897545  1
  Ti  Ti137  1  0.19659664  0.59427979  0.00292069  1
  Ti  Ti138  1  0.89146143  0.50744294  0.12670231  1
  Ti  Ti139  1  -0.00698391  -0.00886057  0.25327045  1
  Ti  Ti140  1  0.00026352  0.60381895  0.49958716  1
  Ti  Ti141  1  0.60606657  -0.00578265  0.01492128  1
  Ti  Ti142  1  0.31228319  0.90064249  0.87213412  1
  Ti  Ti143  1  0.18229576  0.38476278  0.25059553  1
  Ti  Ti144  1  0.30282249  0.10153107  0.37120723  1
  Ti  Ti145  1  0.89578109  0.90735187  0.11827084  1
  Ti  Ti146  1  0.79847309  0.80575457  -0.00549522  1
  Ti  Ti147  1  0.69729779  0.49319541  0.11712956  1
  Ti  Ti148  1  0.50764574  0.90885830  0.36177201  1
  Ti  Ti149  1  0.61194298  0.38570217  0.24996969  1
  Ti  Ti150  1  0.90666233  0.09849461  0.13697561  1
  Ti  Ti151  1  0.09468484  0.10719806  0.87956172  1
  Ti  Ti152  1  0.90534049  0.70607415  0.11153984  1
  Ti  Ti153  1  0.58251277  0.19944193  0.23545195  1
  Ti  Ti154  1  0.58820103  0.79436821  -0.00198228  1
  Ti  Ti155  1  0.21243661  0.79335614  0.75623011  1
  Ti  Ti156  1  0.70252366  0.49913142  0.87270795  1
  Ti  Ti157  1  0.19546077  -0.01061337  0.25285134  1
  Ti  Ti158  1  0.09668282  0.49681656  0.36234673  1
  Ti  Ti159  1  0.51081981  0.49491310  0.11554454  1
  Mo  Mo160  1  0.89759704  0.29781680  0.13009703  1
  Mo  Mo161  1  0.68672953  0.31197141  0.12097962  1
  Mo  Mo162  1  0.90526800  0.90381166  0.38004908  1
  Mo  Mo163  1  0.40366653  0.39589350  0.48934512  1
  Mo  Mo164  1  0.50948433  0.90605617  0.62880799  1
  Mo  Mo165  1  0.49659394  0.09984110  0.62300466  1
  Mo  Mo166  1  0.27143756  0.50907053  0.63955486  1
  Mo  Mo167  1  0.40597867  0.41087035  0.76339797  1
  Mo  Mo168  1  0.61214041  -0.00799646  0.75763817  1
  Mo  Mo169  1  0.19694509  0.41720924  0.75219461  1
  Mo  Mo170  1  0.69161317  0.31003161  0.37118672  1
  Mo  Mo171  1  0.39646060  0.80360032  -0.01028699  1
  Mo  Mo172  1  0.00227307  0.79597820  0.50400087  1
  Mo  Mo173  1  0.21053621  0.18992761  0.50373960  1
  Mo  Mo174  1  0.08687435  0.49803261  0.62118099  1
  Mo  Mo175  1  0.59901030  0.80149273  0.76513254  1
  Mo  Mo176  1  0.50016233  0.09750777  0.11294912  1
  Mo  Mo177  1  0.09856352  0.30184344  0.37347643  1
  Mo  Mo178  1  0.09733659  0.69762283  0.11465552  1
  Mo  Mo179  1  0.50027729  0.89446967  0.89365778  1
  Mo  Mo180  1  0.29711590  0.70606139  0.63236652  1
  Mo  Mo181  1  0.19676226  0.79926101  0.26362970  1
  Mo  Mo182  1  0.89581574  0.32044906  0.37667446  1
  Mo  Mo183  1  0.61108140  0.80089697  0.50028135  1
  Mo  Mo184  1  0.70425503  0.89538321  0.11705265  1
  Mo  Mo185  1  0.20435370  0.18415635  0.24839372  1
  Mo  Mo186  1  0.18921386  0.59595509  0.75730302  1
  Mo  Mo187  1  0.89632278  0.49762396  0.87519802  1
  Mo  Mo188  1  0.40991251  0.19225352  0.23960599  1
  Mo  Mo189  1  0.40093780  0.80588904  0.76674757  1
  Mo  Mo190  1  0.30037909  0.08906041  0.11976289  1
  Mo  Mo191  1  0.80417650  -0.00210570  0.23413163  1
  Mo  Mo192  1  0.29549961  0.70315858  0.36518599  1
  Mo  Mo193  1  0.90420363  0.10014179  0.61897239  1
  Mo  Mo194  1  0.88784186  0.89793996  0.88247082  1
  Mo  Mo195  1  0.19714568  0.59672119  0.25096830  1
  Mo  Mo196  1  0.39936913  0.20155412  0.75979971  1
  Mo  Mo197  1  0.50615182  0.69001716  0.11473187  1
  Mo  Mo198  1  0.09480803  0.29999335  0.88291167  1
  Mo  Mo199  1  0.10054089  0.30425616  0.13388348  1
