# generated using pymatgen
data_HfZrTaTiMo
_symmetry_space_group_name_H-M   'P 1'
_cell_length_a   15.17168169
_cell_length_b   15.17010307
_cell_length_c   16.82087607
_cell_angle_alpha   89.91445912
_cell_angle_beta   90.01151149
_cell_angle_gamma   89.78792099
_symmetry_Int_Tables_number   1
_chemical_formula_structural   HfZrTaTiMo
_chemical_formula_sum   'Hf40 Zr40 Ta40 Ti40 Mo40'
_cell_volume   3871.39421439
_cell_formula_units_Z   40
loop_
 _symmetry_equiv_pos_site_id
 _symmetry_equiv_pos_as_xyz
  1  'x, y, z'
loop_
 _atom_site_type_symbol
 _atom_site_label
 _atom_site_symmetry_multiplicity
 _atom_site_fract_x
 _atom_site_fract_y
 _atom_site_fract_z
 _atom_site_occupancy
  Hf  Hf0  1  0.29060659  0.09978202  0.38095463  1
  Hf  Hf1  1  0.10169802  0.48687271  0.09911441  1
  Hf  Hf2  1  0.49362470  0.29950936  0.63111035  1
  Hf  Hf3  1  0.19287840  0.40756937  0.50487569  1
  Hf  Hf4  1  0.29698721  0.31195509  0.36859174  1
  Hf  Hf5  1  0.39950344  0.19663024  0.50745367  1
  Hf  Hf6  1  -0.00842454  0.20412503  0.50740091  1
  Hf  Hf7  1  0.59922370  0.39905734  0.50311383  1
  Hf  Hf8  1  0.21823935  0.80086995  -0.00245028  1
  Hf  Hf9  1  0.39553074  0.40812672  0.50523049  1
  Hf  Hf10  1  0.70452042  0.89098045  0.86500709  1
  Hf  Hf11  1  0.52043310  0.68210398  0.88607179  1
  Hf  Hf12  1  0.89879616  0.50233384  0.12894600  1
  Hf  Hf13  1  0.79582459  0.40993462  0.00277230  1
  Hf  Hf14  1  0.70346407  0.09822656  0.38389696  1
  Hf  Hf15  1  0.32519123  0.70452341  0.61953681  1
  Hf  Hf16  1  0.92058008  0.70411857  0.13157689  1
  Hf  Hf17  1  0.59002331  0.40537239  0.01377851  1
  Hf  Hf18  1  0.49818317  0.09140158  0.11875333  1
  Hf  Hf19  1  0.18622215  0.20605116  -0.01947714  1
  Hf  Hf20  1  0.19918761  0.79493382  0.51000788  1
  Hf  Hf21  1  0.19235933  -0.00308097  0.24994126  1
  Hf  Hf22  1  0.08478962  0.10750634  0.11750017  1
  Hf  Hf23  1  0.48936804  0.28905982  0.11357238  1
  Hf  Hf24  1  0.80164109  0.60054216  0.48181497  1
  Hf  Hf25  1  0.79831608  0.19382552  0.75419376  1
  Hf  Hf26  1  0.80127092  0.61760722  0.74895918  1
  Hf  Hf27  1  0.69038944  0.89885875  0.62287582  1
  Hf  Hf28  1  0.11178277  0.69229017  0.86944703  1
  Hf  Hf29  1  0.30182995  0.50961669  0.63139025  1
  Hf  Hf30  1  0.50124265  0.10176920  0.37950077  1
  Hf  Hf31  1  0.48867803  0.51081286  0.36628401  1
  Hf  Hf32  1  0.60661505  -0.00809078  0.25759095  1
  Hf  Hf33  1  0.59611355  0.39429145  0.23119273  1
  Hf  Hf34  1  0.29463524  0.10463583  0.11701718  1
  Hf  Hf35  1  0.80952748  0.60361471  0.26631152  1
  Hf  Hf36  1  -0.01868141  0.80184919  0.74128429  1
  Hf  Hf37  1  0.00283775  0.59940706  0.75236288  1
  Hf  Hf38  1  0.09940942  0.50028936  0.63296928  1
  Hf  Hf39  1  0.70768884  0.70055599  0.61250499  1
  Zr  Zr40  1  0.71183770  0.29161270  0.37084354  1
  Zr  Zr41  1  0.59842055  0.77706919  0.47979745  1
  Zr  Zr42  1  0.18208218  0.00593625  0.51577903  1
  Zr  Zr43  1  0.39384911  0.79353904  0.26519322  1
  Zr  Zr44  1  0.08912820  0.89814838  0.38174735  1
  Zr  Zr45  1  -0.01127750  -0.00024359  0.25251774  1
  Zr  Zr46  1  0.48646467  0.89614723  0.85608300  1
  Zr  Zr47  1  0.39776121  0.60885909  0.01571348  1
  Zr  Zr48  1  0.69402464  0.49401073  0.36263643  1
  Zr  Zr49  1  0.58673150  -0.01166667  -0.00708554  1
  Zr  Zr50  1  0.69206808  0.29871553  0.88557847  1
  Zr  Zr51  1  0.91500712  0.47354750  0.36360297  1
  Zr  Zr52  1  0.71540152  0.69897916  0.13810124  1
  Zr  Zr53  1  0.31783121  0.91502596  0.61475556  1
  Zr  Zr54  1  0.49683736  0.07346184  0.63559032  1
  Zr  Zr55  1  -0.00685895  0.20493214  0.25509755  1
  Zr  Zr56  1  0.39529729  0.20850022  0.24677464  1
  Zr  Zr57  1  0.39899632  0.39733999  0.76278063  1
  Zr  Zr58  1  0.91560920  0.29481436  0.11340448  1
  Zr  Zr59  1  0.01213197  0.80475664  -0.00494294  1
  Zr  Zr60  1  0.31851373  0.71985290  0.86015291  1
  Zr  Zr61  1  0.10150246  0.90630402  0.86287151  1
  Zr  Zr62  1  0.81054159  0.79491088  -0.00342088  1
  Zr  Zr63  1  0.50323571  0.30153285  0.37128605  1
  Zr  Zr64  1  0.18047093  0.41318934  0.24804338  1
  Zr  Zr65  1  0.59285014  0.19943323  0.75246745  1
  Zr  Zr66  1  0.02799565  0.60045910  0.25266835  1
  Zr  Zr67  1  0.19253387  0.20844612  0.50859532  1
  Zr  Zr68  1  0.20018150  0.80575096  0.73228807  1
  Zr  Zr69  1  0.27568212  0.31192814  0.11306985  1
  Zr  Zr70  1  0.60328798  0.77509698  0.74733867  1
  Zr  Zr71  1  0.89353483  0.51208653  0.88472639  1
  Zr  Zr72  1  0.43220147  0.59917482  0.74832939  1
  Zr  Zr73  1  0.81192106  0.81730027  0.26996779  1
  Zr  Zr74  1  0.79547949  0.40631658  0.75521088  1
  Zr  Zr75  1  0.08145280  0.31085093  0.37685217  1
  Zr  Zr76  1  0.70286413  0.09518697  0.10977131  1
  Zr  Zr77  1  0.89891264  0.91190059  0.12444661  1
  Zr  Zr78  1  0.39531699  -0.00130788  0.25703552  1
  Zr  Zr79  1  0.80647947  0.38923116  0.50622762  1
  Ta  Ta80  1  0.88300115  0.90071634  0.61150248  1
  Ta  Ta81  1  0.50036729  0.89362577  0.13299905  1
  Ta  Ta82  1  0.80185082  0.19450032  0.24153300  1
  Ta  Ta83  1  0.01315968  0.60068073  0.49847025  1
  Ta  Ta84  1  0.00427504  0.80516059  0.51532835  1
  Ta  Ta85  1  0.60771050  0.19313752  0.51534471  1
  Ta  Ta86  1  0.89849550  0.50406991  0.62377266  1
  Ta  Ta87  1  0.41277177  0.81104932  0.00598174  1
  Ta  Ta88  1  0.69242487  0.50717079  0.62157821  1
  Ta  Ta89  1  0.08638516  0.11153476  0.64261821  1
  Ta  Ta90  1  0.10511143  0.49840166  0.88320440  1
  Ta  Ta91  1  0.18931313  0.20154686  0.24845761  1
  Ta  Ta92  1  0.50406160  0.70691566  0.13514320  1
  Ta  Ta93  1  0.60281715  0.79234820  0.00445826  1
  Ta  Ta94  1  0.19888908  0.20464475  0.75829496  1
  Ta  Ta95  1  0.20129010  0.00719697  0.73758403  1
  Ta  Ta96  1  0.90460645  0.29694111  0.63847515  1
  Ta  Ta97  1  0.68025816  0.51197914  0.88027321  1
  Ta  Ta98  1  0.28947779  0.30396660  0.63789274  1
  Ta  Ta99  1  -0.00675928  0.20230170  0.76735667  1
  Ta  Ta100  1  0.92205227  0.71337240  0.38507316  1
  Ta  Ta101  1  0.70461270  0.29185678  0.11756051  1
  Ta  Ta102  1  -0.00391737  0.00509162  -0.00615149  1
  Ta  Ta103  1  0.61432536  0.59424741  0.02573661  1
  Ta  Ta104  1  -0.00732059  0.19549713  -0.02718813  1
  Ta  Ta105  1  0.59169529  -0.00618578  0.49997977  1
  Ta  Ta106  1  0.59220260  0.41398061  0.75057561  1
  Ta  Ta107  1  0.60521088  0.79632683  0.26828880  1
  Ta  Ta108  1  0.69282787  0.89407885  0.12716023  1
  Ta  Ta109  1  0.29829109  0.08805263  0.86999959  1
  Ta  Ta110  1  0.29615300  0.51903389  0.87525656  1
  Ta  Ta111  1  0.09501676  0.30528720  0.64571012  1
  Ta  Ta112  1  0.89257447  0.09741833  0.38518405  1
  Ta  Ta113  1  0.69194010  0.09119872  0.87755002  1
  Ta  Ta114  1  0.38794667  0.40981865  -0.00322665  1
  Ta  Ta115  1  0.89261483  0.08326727  0.86934305  1
  Ta  Ta116  1  0.38681298  0.42324402  0.23070970  1
  Ta  Ta117  1  0.19390612  -0.00207290  -0.00154052  1
  Ta  Ta118  1  0.30108975  0.89985382  0.12627821  1
  Ta  Ta119  1  0.69970896  0.29995052  0.63095217  1
  Ti  Ti120  1  0.00868333  0.38056506  -0.02094949  1
  Ti  Ti121  1  0.71383171  0.90220070  0.39373909  1
  Ti  Ti122  1  0.10927263  0.51026967  0.38254906  1
  Ti  Ti123  1  0.59329547  0.59786262  0.23829844  1
  Ti  Ti124  1  0.38684643  -0.00715295  -0.00437464  1
  Ti  Ti125  1  0.12034825  0.69806594  0.38021296  1
  Ti  Ti126  1  0.29776560  0.51277418  0.37947775  1
  Ti  Ti127  1  -0.01002494  -0.00048958  0.73810425  1
  Ti  Ti128  1  0.31620512  0.69150359  0.39298920  1
  Ti  Ti129  1  0.39746082  0.19486645  -0.01338147  1
  Ti  Ti130  1  0.71727521  0.69084841  0.88570440  1
  Ti  Ti131  1  0.09850307  0.09451947  0.86192220  1
  Ti  Ti132  1  0.29616475  0.89927059  0.39250140  1
  Ti  Ti133  1  -0.00429457  0.40066977  0.51172374  1
  Ti  Ti134  1  0.09227233  0.10153181  0.37884407  1
  Ti  Ti135  1  0.80127947  -0.00577505  -0.00630236  1
  Ti  Ti136  1  0.39148131  0.19626692  0.75790509  1
  Ti  Ti137  1  0.29922860  0.11068856  0.63329824  1
  Ti  Ti138  1  0.79991334  0.00824078  0.24986668  1
  Ti  Ti139  1  0.80243832  0.19217557  0.51812641  1
  Ti  Ti140  1  0.22894765  0.60646789  0.24470935  1
  Ti  Ti141  1  -0.00758434  0.39891466  0.76359753  1
  Ti  Ti142  1  0.49628307  0.09843662  0.86981528  1
  Ti  Ti143  1  0.49744823  0.30167594  0.88504838  1
  Ti  Ti144  1  0.90249857  0.69777778  0.60913566  1
  Ti  Ti145  1  0.60476930  0.19193420  0.24320201  1
  Ti  Ti146  1  0.10806605  0.69043938  0.62685876  1
  Ti  Ti147  1  0.49739377  0.87212259  0.62187616  1
  Ti  Ti148  1  0.29533557  0.30480677  0.87674849  1
  Ti  Ti149  1  0.70227276  0.09105028  0.62897260  1
  Ti  Ti150  1  -0.01412432  0.00866452  0.51657737  1
  Ti  Ti151  1  0.79910549  -0.01083964  0.74775684  1
  Ti  Ti152  1  -0.00474751  0.60785990  -0.00579908  1
  Ti  Ti153  1  0.49395205  0.89799402  0.38422165  1
  Ti  Ti154  1  0.12621611  0.69087824  0.11832120  1
  Ti  Ti155  1  0.19609831  0.40868157  0.76221458  1
  Ti  Ti156  1  0.01325738  0.80221450  0.25326237  1
  Ti  Ti157  1  0.80325537  0.19428656  -0.00991677  1
  Ti  Ti158  1  0.20103722  0.79684508  0.25084962  1
  Ti  Ti159  1  0.10430966  0.89327053  0.12485163  1
  Mo  Mo160  1  0.40795940  0.80101351  0.74128906  1
  Mo  Mo161  1  0.79222443  0.00762954  0.51082813  1
  Mo  Mo162  1  0.40138700  -0.00179141  0.49212067  1
  Mo  Mo163  1  0.08778637  0.90730605  0.62875396  1
  Mo  Mo164  1  0.60602547  0.00069085  0.75472096  1
  Mo  Mo165  1  0.80178446  0.38588984  0.23389221  1
  Mo  Mo166  1  0.28781583  0.51622978  0.11257214  1
  Mo  Mo167  1  0.59165348  0.19674073  -0.01087385  1
  Mo  Mo168  1  0.09747678  0.29520415  0.11406368  1
  Mo  Mo169  1  0.09849038  0.30419935  0.85522226  1
  Mo  Mo170  1  0.89479143  0.29641311  0.87713300  1
  Mo  Mo171  1  0.20043403  0.60505834  -0.00139995  1
  Mo  Mo172  1  0.39743049  0.60159718  0.23671294  1
  Mo  Mo173  1  0.50228498  0.69076163  0.35950262  1
  Mo  Mo174  1  0.80608792  0.80186906  0.74688465  1
  Mo  Mo175  1  0.70481799  0.69476142  0.36209087  1
  Mo  Mo176  1  0.90214614  0.70778964  0.87623351  1
  Mo  Mo177  1  0.70493185  0.49358750  0.14131450  1
  Mo  Mo178  1  0.90010137  0.90946479  0.40021011  1
  Mo  Mo179  1  0.80857163  0.79968103  0.48668791  1
  Mo  Mo180  1  0.49335769  0.50214442  0.12892261  1
  Mo  Mo181  1  0.20486987  0.60058792  0.49914966  1
  Mo  Mo182  1  0.89050807  0.10251551  0.10885781  1
  Mo  Mo183  1  0.88853912  0.28360324  0.37623533  1
  Mo  Mo184  1  0.39542015  0.00440303  0.75193164  1
  Mo  Mo185  1  0.89957746  0.90595001  0.87005494  1
  Mo  Mo186  1  0.80081631  0.60088646  0.00509486  1
  Mo  Mo187  1  0.50590533  0.50418936  0.61885615  1
  Mo  Mo188  1  0.30224594  0.71675218  0.12725800  1
  Mo  Mo189  1  0.20215590  0.40248336  -0.02165091  1
  Mo  Mo190  1  0.29640880  0.91107490  0.86972219  1
  Mo  Mo191  1  0.41466354  0.60548251  0.49980531  1
  Mo  Mo192  1  0.89528278  0.09869472  0.63854905  1
  Mo  Mo193  1  0.40562468  0.80136649  0.48491579  1
  Mo  Mo194  1  -0.00195412  0.40106155  0.24405785  1
  Mo  Mo195  1  0.20572352  0.59660271  0.75091735  1
  Mo  Mo196  1  0.61639082  0.58845689  0.75089151  1
  Mo  Mo197  1  0.51388207  0.68308365  0.61327678  1
  Mo  Mo198  1  0.49992332  0.49361649  0.88723680  1
  Mo  Mo199  1  0.59906032  0.58838895  0.49300269  1
