# generated using pymatgen
data_HfZrTaTiMo
_symmetry_space_group_name_H-M   'P 1'
_cell_length_a   15.21176500
_cell_length_b   15.21284026
_cell_length_c   16.82840545
_cell_angle_alpha   89.94656814
_cell_angle_beta   90.03834297
_cell_angle_gamma   89.89402587
_symmetry_Int_Tables_number   1
_chemical_formula_structural   HfZrTaTiMo
_chemical_formula_sum   'Hf40 Zr40 Ta40 Ti40 Mo40'
_cell_volume   3894.32193059
_cell_formula_units_Z   40
loop_
 _symmetry_equiv_pos_site_id
 _symmetry_equiv_pos_as_xyz
  1  'x, y, z'
loop_
 _atom_site_type_symbol
 _atom_site_label
 _atom_site_symmetry_multiplicity
 _atom_site_fract_x
 _atom_site_fract_y
 _atom_site_fract_z
 _atom_site_occupancy
  Hf  Hf0  1  0.69915408  0.49048532  0.35518480  1
  Hf  Hf1  1  0.49416712  0.50495904  0.88142216  1
  Hf  Hf2  1  0.70406242  0.29979280  0.14756814  1
  Hf  Hf3  1  0.58526376  -0.00046107  0.26776378  1
  Hf  Hf4  1  0.89929502  0.29088736  0.62363964  1
  Hf  Hf5  1  0.69330927  0.08133082  0.86491104  1
  Hf  Hf6  1  0.30277940  0.50537078  0.38283242  1
  Hf  Hf7  1  0.60578694  0.60504381  0.00969829  1
  Hf  Hf8  1  0.19808257  0.80686390  -0.00067866  1
  Hf  Hf9  1  0.90231625  0.88717561  0.39029955  1
  Hf  Hf10  1  0.20907234  0.39200345  -0.00092970  1
  Hf  Hf11  1  -0.00218536  0.40534462  0.75211458  1
  Hf  Hf12  1  0.61376114  0.21191350  0.50203098  1
  Hf  Hf13  1  0.00441367  0.18607811  0.26513851  1
  Hf  Hf14  1  0.71097447  0.50949479  0.87322398  1
  Hf  Hf15  1  0.08079412  0.90127348  0.12152786  1
  Hf  Hf16  1  0.89812962  0.08724124  0.38103730  1
  Hf  Hf17  1  0.59201278  0.81757401  0.48347081  1
  Hf  Hf18  1  0.01251372  0.38585644  0.25787580  1
  Hf  Hf19  1  0.38772647  -0.00378833  0.73810654  1
  Hf  Hf20  1  0.10437383  0.71441332  0.61723297  1
  Hf  Hf21  1  0.70427142  0.49597940  0.63244077  1
  Hf  Hf22  1  0.39460124  0.02002262  -0.01123822  1
  Hf  Hf23  1  0.20150081  0.20145108  0.27014960  1
  Hf  Hf24  1  0.09400476  0.90589416  0.87478788  1
  Hf  Hf25  1  0.20990719  0.59850879  0.00380358  1
  Hf  Hf26  1  0.49833289  0.50154089  0.13140685  1
  Hf  Hf27  1  0.09811881  0.30037254  0.63085140  1
  Hf  Hf28  1  0.49818191  0.89569406  0.12954383  1
  Hf  Hf29  1  0.79853437  0.58441364  0.49588174  1
  Hf  Hf30  1  0.90833757  0.89666817  0.61506166  1
  Hf  Hf31  1  0.40389889  0.19433178  0.26312718  1
  Hf  Hf32  1  0.08801873  0.09657731  0.62396990  1
  Hf  Hf33  1  0.10530649  0.50344986  0.87256648  1
  Hf  Hf34  1  0.79935268  0.79244566  0.74266718  1
  Hf  Hf35  1  0.71711447  0.71831853  0.11874262  1
  Hf  Hf36  1  0.89734766  0.49697985  0.36476892  1
  Hf  Hf37  1  0.09583948  0.70107867  0.12593462  1
  Hf  Hf38  1  -0.00210072  0.39132683  0.49041348  1
  Hf  Hf39  1  0.77596066  0.00016737  0.50317952  1
  Zr  Zr40  1  0.31358390  0.29627335  0.39986942  1
  Zr  Zr41  1  0.69564935  0.28998084  0.87050736  1
  Zr  Zr42  1  0.40387939  0.42322973  0.73133382  1
  Zr  Zr43  1  0.91094050  0.28804713  0.12376963  1
  Zr  Zr44  1  0.30056623  0.30067952  0.12923892  1
  Zr  Zr45  1  0.27663247  0.11269162  0.85807272  1
  Zr  Zr46  1  0.40693869  0.39803808  0.26300676  1
  Zr  Zr47  1  0.79382428  0.79153037  0.50474366  1
  Zr  Zr48  1  0.70639546  0.70338607  0.88077874  1
  Zr  Zr49  1  0.10232083  0.10071720  0.12695318  1
  Zr  Zr50  1  0.19649291  0.19512836  0.50014391  1
  Zr  Zr51  1  0.49121972  0.10805398  0.40080386  1
  Zr  Zr52  1  0.68557321  0.69507460  0.62874017  1
  Zr  Zr53  1  0.90270107  0.08263525  0.12867730  1
  Zr  Zr54  1  0.80852772  0.19066065  0.75276090  1
  Zr  Zr55  1  0.11050799  0.49377828  0.13417304  1
  Zr  Zr56  1  0.90709868  0.50711213  0.12947332  1
  Zr  Zr57  1  0.12183089  0.29339736  0.86162494  1
  Zr  Zr58  1  0.87280962  0.29160056  0.36370168  1
  Zr  Zr59  1  0.79598446  -0.01678781  0.25132881  1
  Zr  Zr60  1  0.21792741  0.61289255  0.73863251  1
  Zr  Zr61  1  0.10887490  0.50451614  0.37456961  1
  Zr  Zr62  1  0.58104708  0.19634322  -0.00268009  1
  Zr  Zr63  1  0.80362897  0.17817994  -0.00520565  1
  Zr  Zr64  1  0.48351222  0.09691231  0.12973439  1
  Zr  Zr65  1  0.50249618  0.70479943  0.13295712  1
  Zr  Zr66  1  0.60137899  0.39859237  0.75514708  1
  Zr  Zr67  1  0.80745930  0.40359383  0.00497515  1
  Zr  Zr68  1  0.29613616  0.91698854  0.12318377  1
  Zr  Zr69  1  0.90529400  0.68014235  0.62311362  1
  Zr  Zr70  1  0.00350850  0.79955255  0.75357528  1
  Zr  Zr71  1  0.68933374  0.09717402  0.13596523  1
  Zr  Zr72  1  0.32613158  0.30268200  0.85739447  1
  Zr  Zr73  1  0.30688280  0.71184835  0.13226167  1
  Zr  Zr74  1  0.50350309  0.90611249  0.86073020  1
  Zr  Zr75  1  0.60538991  0.39755779  0.00253314  1
  Zr  Zr76  1  0.49101102  0.12636783  0.84881230  1
  Zr  Zr77  1  0.50283729  0.70676989  0.87956905  1
  Zr  Zr78  1  0.48698786  0.69495170  0.61069111  1
  Zr  Zr79  1  0.29754100  0.89843014  0.87450159  1
  Ta  Ta80  1  0.40047407  0.60755821  0.26815714  1
  Ta  Ta81  1  0.40478008  0.39992266  0.00306708  1
  Ta  Ta82  1  0.67994954  0.90356965  0.63491102  1
  Ta  Ta83  1  0.30358740  0.50532118  0.87322768  1
  Ta  Ta84  1  0.38278960  0.80580929  0.48211770  1
  Ta  Ta85  1  0.80259872  0.79817678  0.25728619  1
  Ta  Ta86  1  0.00666363  0.59937502  0.49411427  1
  Ta  Ta87  1  0.10794398  0.88254715  0.37013015  1
  Ta  Ta88  1  0.90949231  0.29654498  0.88115030  1
  Ta  Ta89  1  0.69976339  0.11207059  0.36649705  1
  Ta  Ta90  1  0.69310296  0.89110510  0.86395207  1
  Ta  Ta91  1  0.20184773  0.41086435  0.51267292  1
  Ta  Ta92  1  0.10646630  0.70200224  0.87649127  1
  Ta  Ta93  1  0.01718843  -0.01449090  0.49930094  1
  Ta  Ta94  1  -0.00645035  0.79247619  0.25247255  1
  Ta  Ta95  1  0.01531510  0.18701239  -0.01848874  1
  Ta  Ta96  1  0.49108501  0.89651530  0.62419151  1
  Ta  Ta97  1  0.30665924  0.50941704  0.13716615  1
  Ta  Ta98  1  0.70487248  0.69821751  0.37177570  1
  Ta  Ta99  1  0.11280549  0.07738939  0.38231916  1
  Ta  Ta100  1  -0.00085372  0.60574142  -0.00052096  1
  Ta  Ta101  1  0.50296125  0.29571275  0.13215755  1
  Ta  Ta102  1  0.78149530  0.38602767  0.49856013  1
  Ta  Ta103  1  0.50722368  0.30038246  0.61907078  1
  Ta  Ta104  1  0.39266265  0.78363426  0.74157726  1
  Ta  Ta105  1  -0.02139134  -0.00735382  -0.01110755  1
  Ta  Ta106  1  0.80993975  0.61362527  0.24939761  1
  Ta  Ta107  1  0.09810389  0.50991659  0.61818769  1
  Ta  Ta108  1  -0.01572988  0.00339400  0.75665530  1
  Ta  Ta109  1  0.70441642  0.50657181  0.14227541  1
  Ta  Ta110  1  0.60522429  0.80862420  0.26716486  1
  Ta  Ta111  1  0.30877268  0.69484367  0.88035705  1
  Ta  Ta112  1  0.30532888  0.30303203  0.62012212  1
  Ta  Ta113  1  0.00337172  0.19022885  0.76342190  1
  Ta  Ta114  1  0.20626750  0.41225460  0.73044644  1
  Ta  Ta115  1  0.39003610  0.80841621  0.27572082  1
  Ta  Ta116  1  0.79857703  -0.00849502  0.74202551  1
  Ta  Ta117  1  0.50316089  0.09556922  0.61935553  1
  Ta  Ta118  1  0.59790325  -0.00976779  0.00030509  1
  Ta  Ta119  1  0.90451836  0.69397701  0.88028917  1
  Ti  Ti120  1  0.20517528  0.62164054  0.49533153  1
  Ti  Ti121  1  0.90538809  0.50148656  0.88434905  1
  Ti  Ti122  1  0.60244775  0.60871478  0.25090007  1
  Ti  Ti123  1  0.20640328  0.39682714  0.26114275  1
  Ti  Ti124  1  0.29244740  0.11253499  0.11795219  1
  Ti  Ti125  1  0.20090289  -0.00327687  0.25188502  1
  Ti  Ti126  1  0.90896205  0.69560158  0.38200910  1
  Ti  Ti127  1  0.69328673  0.10068725  0.63332018  1
  Ti  Ti128  1  0.20485723  0.62225699  0.26032758  1
  Ti  Ti129  1  0.10650857  0.29007169  0.11946918  1
  Ti  Ti130  1  0.18263559  0.01950228  -0.00560936  1
  Ti  Ti131  1  0.18471960  -0.00003219  0.73959545  1
  Ti  Ti132  1  0.80158968  0.19754637  0.50240136  1
  Ti  Ti133  1  0.50997173  0.49193614  0.37678605  1
  Ti  Ti134  1  0.70333215  0.29871282  0.63476303  1
  Ti  Ti135  1  0.81550212  0.58893890  0.74996677  1
  Ti  Ti136  1  0.00730104  0.59993251  0.75180408  1
  Ti  Ti137  1  0.29679560  0.10048152  0.62488629  1
  Ti  Ti138  1  0.68136702  0.30250110  0.35195507  1
  Ti  Ti139  1  0.88420132  0.89405181  0.87552427  1
  Ti  Ti140  1  0.40893507  0.80185346  -0.00105175  1
  Ti  Ti141  1  0.90330534  0.48698663  0.61956829  1
  Ti  Ti142  1  0.40036760  0.61038596  0.48141806  1
  Ti  Ti143  1  0.30833464  0.52134652  0.60659883  1
  Ti  Ti144  1  0.89720261  0.09517524  0.61612149  1
  Ti  Ti145  1  0.00579963  0.60722543  0.25610729  1
  Ti  Ti146  1  0.00122157  -0.01574878  0.25921647  1
  Ti  Ti147  1  0.51122371  0.50584342  0.61247601  1
  Ti  Ti148  1  0.58422855  0.60719339  0.75036976  1
  Ti  Ti149  1  0.50153170  0.70004119  0.37298845  1
  Ti  Ti150  1  0.38820384  -0.00689597  0.50448355  1
  Ti  Ti151  1  -0.00039844  0.19448081  0.48585950  1
  Ti  Ti152  1  0.80924050  0.39655045  0.75674464  1
  Ti  Ti153  1  0.19657496  0.82111520  0.50393461  1
  Ti  Ti154  1  0.20769373  0.80909588  0.74280080  1
  Ti  Ti155  1  0.60239967  0.59598357  0.48892670  1
  Ti  Ti156  1  0.01091572  0.39541922  -0.00302883  1
  Ti  Ti157  1  0.41612316  0.40267306  0.50490355  1
  Ti  Ti158  1  0.38679916  -0.00017241  0.26835485  1
  Ti  Ti159  1  0.78575600  -0.02685153  0.00809845  1
  Mo  Mo160  1  0.69073806  0.89732302  0.12664096  1
  Mo  Mo161  1  0.39806757  0.60211489  0.74483235  1
  Mo  Mo162  1  0.20532323  0.19807371  -0.00098598  1
  Mo  Mo163  1  0.40066516  0.20543118  0.72015702  1
  Mo  Mo164  1  0.61144881  0.81755335  0.00305610  1
  Mo  Mo165  1  0.09998782  0.90577052  0.63280825  1
  Mo  Mo166  1  0.19415694  0.80825309  0.24811690  1
  Mo  Mo167  1  -0.00423556  0.79884451  -0.01121025  1
  Mo  Mo168  1  0.80356934  0.40401988  0.23967250  1
  Mo  Mo169  1  0.59554312  0.00411112  0.50406196  1
  Mo  Mo170  1  0.50920931  0.30965649  0.39206856  1
  Mo  Mo171  1  0.60088496  0.19960015  0.73187206  1
  Mo  Mo172  1  0.29762430  0.89415690  0.62608888  1
  Mo  Mo173  1  0.58939660  0.20317697  0.25945814  1
  Mo  Mo174  1  0.81439891  0.80419794  -0.00514749  1
  Mo  Mo175  1  0.09309256  0.09548501  0.86683926  1
  Mo  Mo176  1  0.69806871  0.90262677  0.37656397  1
  Mo  Mo177  1  0.89001904  0.87747738  0.12206172  1
  Mo  Mo178  1  0.90997326  0.70585002  0.12486177  1
  Mo  Mo179  1  0.89441323  0.08566353  0.87870650  1
  Mo  Mo180  1  0.48871844  0.90491188  0.38065564  1
  Mo  Mo181  1  0.39517979  0.59543920  0.00462864  1
  Mo  Mo182  1  0.01037809  0.79248160  0.49669723  1
  Mo  Mo183  1  0.28567113  0.71114526  0.37397602  1
  Mo  Mo184  1  0.40274913  0.19904155  0.52181556  1
  Mo  Mo185  1  0.81172376  0.60057507  0.00270548  1
  Mo  Mo186  1  0.30234478  0.71005642  0.60698492  1
  Mo  Mo187  1  0.59774682  -0.00109040  0.74040536  1
  Mo  Mo188  1  0.09556080  0.70389072  0.37894414  1
  Mo  Mo189  1  0.39171342  0.21452425  0.00037882  1
  Mo  Mo190  1  0.79619280  0.19072725  0.25348523  1
  Mo  Mo191  1  0.10017065  0.29565189  0.38489837  1
  Mo  Mo192  1  0.20140849  0.19974090  0.72947757  1
  Mo  Mo193  1  0.29862594  0.09109591  0.38542997  1
  Mo  Mo194  1  0.60745796  0.40831022  0.50244476  1
  Mo  Mo195  1  0.59404108  0.40518051  0.24543742  1
  Mo  Mo196  1  0.59065876  0.79879456  0.74181133  1
  Mo  Mo197  1  0.20409332  -0.00734948  0.51094488  1
  Mo  Mo198  1  0.28575107  0.91743468  0.37667002  1
  Mo  Mo199  1  0.49859849  0.30678650  0.86836777  1
