# generated using pymatgen
data_HfZrTaTiMo
_symmetry_space_group_name_H-M   'P 1'
_cell_length_a   15.21915649
_cell_length_b   15.20161530
_cell_length_c   16.84194429
_cell_angle_alpha   90.00606033
_cell_angle_beta   89.98278854
_cell_angle_gamma   90.05518125
_symmetry_Int_Tables_number   1
_chemical_formula_structural   HfZrTaTiMo
_chemical_formula_sum   'Hf40 Zr40 Ta40 Ti40 Mo40'
_cell_volume   3896.47885405
_cell_formula_units_Z   40
loop_
 _symmetry_equiv_pos_site_id
 _symmetry_equiv_pos_as_xyz
  1  'x, y, z'
loop_
 _atom_site_type_symbol
 _atom_site_label
 _atom_site_symmetry_multiplicity
 _atom_site_fract_x
 _atom_site_fract_y
 _atom_site_fract_z
 _atom_site_occupancy
  Hf  Hf0  1  0.88945277  0.68831272  0.38247373  1
  Hf  Hf1  1  0.90551674  0.09629445  0.37268111  1
  Hf  Hf2  1  0.78058061  0.79118752  0.00208159  1
  Hf  Hf3  1  0.39478326  0.00406797  0.51083696  1
  Hf  Hf4  1  0.78913370  -0.00246798  0.50008372  1
  Hf  Hf5  1  0.88840532  0.68585441  0.85890533  1
  Hf  Hf6  1  0.09631209  0.89970541  0.11574234  1
  Hf  Hf7  1  0.89287704  0.90093448  0.12543885  1
  Hf  Hf8  1  0.80212124  0.20084333  0.49592609  1
  Hf  Hf9  1  0.51118772  0.50869132  0.12083566  1
  Hf  Hf10  1  0.38675037  0.21130211  0.75516924  1
  Hf  Hf11  1  0.69388388  0.89933389  0.37117468  1
  Hf  Hf12  1  0.30778487  0.50463868  0.12443714  1
  Hf  Hf13  1  0.61832121  0.22050575  0.76032134  1
  Hf  Hf14  1  0.79379923  0.36902688  0.76089544  1
  Hf  Hf15  1  0.49320911  0.91108469  0.36580977  1
  Hf  Hf16  1  -0.01296733  0.77901245  0.00467262  1
  Hf  Hf17  1  0.10938536  0.49989059  0.87268288  1
  Hf  Hf18  1  0.50180820  0.70466259  0.88347160  1
  Hf  Hf19  1  0.78235903  0.58613187  0.51496062  1
  Hf  Hf20  1  -0.00848694  0.19075245  0.76238193  1
  Hf  Hf21  1  0.61387048  0.40318486  -0.00801904  1
  Hf  Hf22  1  0.18587854  0.20524129  0.76744689  1
  Hf  Hf23  1  0.18782057  0.58728909  0.25070913  1
  Hf  Hf24  1  0.21008348  0.38662801  -0.00355006  1
  Hf  Hf25  1  0.92260574  0.29911678  0.38146722  1
  Hf  Hf26  1  0.11266239  0.30137530  0.38204196  1
  Hf  Hf27  1  0.78518169  0.79730866  0.24302951  1
  Hf  Hf28  1  -0.01075006  0.58313630  0.52349400  1
  Hf  Hf29  1  0.09473446  0.68436384  0.38194781  1
  Hf  Hf30  1  0.69641877  0.09634916  0.87551264  1
  Hf  Hf31  1  0.28026892  0.10006314  0.63332913  1
  Hf  Hf32  1  0.00129566  0.78639894  0.51747954  1
  Hf  Hf33  1  0.89805531  0.89572824  0.37363021  1
  Hf  Hf34  1  0.39950400  0.20569747  0.51560655  1
  Hf  Hf35  1  0.60855021  0.61611780  0.74726291  1
  Hf  Hf36  1  0.80143951  0.21092976  -0.00676469  1
  Hf  Hf37  1  0.81723612  0.40874276  -0.00221864  1
  Hf  Hf38  1  0.20762152  0.59990966  0.00042934  1
  Hf  Hf39  1  0.12060594  0.90055456  0.61896327  1
  Zr  Zr40  1  0.20808132  0.38612264  0.24318565  1
  Zr  Zr41  1  0.41198352  0.39267966  0.25111620  1
  Zr  Zr42  1  0.70348401  0.30803063  0.13026772  1
  Zr  Zr43  1  0.90943594  0.28564345  0.61565111  1
  Zr  Zr44  1  0.61374978  0.42652369  0.48738684  1
  Zr  Zr45  1  0.78753103  -0.00716791  0.00413203  1
  Zr  Zr46  1  0.89433852  0.90172550  0.62717323  1
  Zr  Zr47  1  0.71811379  0.31607552  0.37179313  1
  Zr  Zr48  1  -0.00827451  0.78149627  0.24478621  1
  Zr  Zr49  1  0.09357641  0.69558275  0.87167561  1
  Zr  Zr50  1  0.68650463  0.10820606  0.36313424  1
  Zr  Zr51  1  0.59897646  0.60726420  0.25598181  1
  Zr  Zr52  1  0.50354109  0.32473263  0.63859185  1
  Zr  Zr53  1  0.71336610  0.11524087  0.64166271  1
  Zr  Zr54  1  0.09434371  0.89746435  0.38060327  1
  Zr  Zr55  1  0.08744533  0.67744380  0.12106800  1
  Zr  Zr56  1  0.30043873  0.72068684  0.62289032  1
  Zr  Zr57  1  0.68376125  0.91138895  0.63794056  1
  Zr  Zr58  1  0.58733477  0.00973797  0.23773001  1
  Zr  Zr59  1  0.19546572  0.19339196  -0.01218646  1
  Zr  Zr60  1  0.20368878  0.79071653  0.24569425  1
  Zr  Zr61  1  0.20846176  0.80685042  0.76211811  1
  Zr  Zr62  1  0.91281820  0.49470365  0.86119784  1
  Zr  Zr63  1  0.48560367  0.90844894  0.12031116  1
  Zr  Zr64  1  0.20773810  0.18401326  0.25006314  1
  Zr  Zr65  1  0.01860069  0.38574476  0.74387829  1
  Zr  Zr66  1  0.19995284  -0.00522295  0.25008189  1
  Zr  Zr67  1  0.38683250  -0.02107370  0.74908855  1
  Zr  Zr68  1  0.29609823  0.49725128  0.38080100  1
  Zr  Zr69  1  0.81824584  0.20025275  0.24280919  1
  Zr  Zr70  1  0.71164106  0.51568565  0.86465116  1
  Zr  Zr71  1  0.31761445  0.50203795  0.87061644  1
  Zr  Zr72  1  0.40090019  0.80395651  0.49932481  1
  Zr  Zr73  1  0.59801874  0.20719062  0.50560569  1
  Zr  Zr74  1  0.69242697  0.10400266  0.12328991  1
  Zr  Zr75  1  0.89517713  0.88843564  0.87608279  1
  Zr  Zr76  1  0.51032392  0.09347694  0.64641952  1
  Zr  Zr77  1  0.00519097  0.59950903  0.71976926  1
  Zr  Zr78  1  0.41176536  0.39337934  0.00252183  1
  Zr  Zr79  1  0.61028233  0.40843955  0.25871600  1
  Ta  Ta80  1  0.00048701  0.80152079  0.73810224  1
  Ta  Ta81  1  0.47927752  0.11255424  0.37475782  1
  Ta  Ta82  1  0.20007796  0.79900130  -0.00616935  1
  Ta  Ta83  1  0.49296430  0.71030208  0.37271876  1
  Ta  Ta84  1  0.18653632  0.00284057  0.76182132  1
  Ta  Ta85  1  0.58615580  0.20783732  -0.00664984  1
  Ta  Ta86  1  0.40545101  0.61333834  0.73979118  1
  Ta  Ta87  1  0.58962517  0.00461520  0.49870852  1
  Ta  Ta88  1  0.29777174  0.08234291  0.87957468  1
  Ta  Ta89  1  0.71515071  0.51158785  0.12329611  1
  Ta  Ta90  1  0.28653776  0.31537378  0.62241797  1
  Ta  Ta91  1  0.29795015  0.70014987  0.38243163  1
  Ta  Ta92  1  0.19865701  0.60415297  0.51414531  1
  Ta  Ta93  1  0.20001713  0.19628328  0.49845125  1
  Ta  Ta94  1  0.78536110  0.78776513  0.74736948  1
  Ta  Ta95  1  0.89817210  0.49137357  0.37985492  1
  Ta  Ta96  1  -0.00235115  0.01534002  0.24097245  1
  Ta  Ta97  1  0.40607948  0.40631102  0.49775166  1
  Ta  Ta98  1  0.61167601  0.61132245  -0.00403407  1
  Ta  Ta99  1  0.12181508  0.47245595  0.61371907  1
  Ta  Ta100  1  0.80790057  0.59901926  0.24765220  1
  Ta  Ta101  1  0.49643947  0.31546183  0.86162447  1
  Ta  Ta102  1  0.09317456  0.90995745  0.88940648  1
  Ta  Ta103  1  0.92129996  0.30635925  0.12496071  1
  Ta  Ta104  1  0.58179916  0.00912647  0.00076143  1
  Ta  Ta105  1  0.50557793  0.50835886  0.86876288  1
  Ta  Ta106  1  0.48975731  0.90614211  0.88140636  1
  Ta  Ta107  1  0.68954320  0.69926651  0.12595079  1
  Ta  Ta108  1  0.29889028  0.90193985  0.37538132  1
  Ta  Ta109  1  0.91388987  0.08869543  0.89335491  1
  Ta  Ta110  1  0.20736506  0.59368175  0.73366284  1
  Ta  Ta111  1  0.29490494  0.90681121  0.10860892  1
  Ta  Ta112  1  0.00318938  -0.00338435  0.75185074  1
  Ta  Ta113  1  0.79075877  0.79234381  0.50556442  1
  Ta  Ta114  1  0.81273096  0.60529299  0.00561778  1
  Ta  Ta115  1  0.09485123  0.48082498  0.11582599  1
  Ta  Ta116  1  0.80573529  0.00149412  0.76265386  1
  Ta  Ta117  1  0.58727191  0.80053329  0.24074912  1
  Ta  Ta118  1  0.32089167  0.27305462  0.12261529  1
  Ta  Ta119  1  0.59859654  0.80772391  0.50046822  1
  Ti  Ti120  1  0.49017727  0.70071102  0.11503608  1
  Ti  Ti121  1  0.20043317  0.00027802  0.49227872  1
  Ti  Ti122  1  0.30432669  0.70474277  0.11948024  1
  Ti  Ti123  1  0.01015940  0.38589975  -0.00860704  1
  Ti  Ti124  1  0.88133632  0.47997578  0.63411720  1
  Ti  Ti125  1  0.38537086  0.02417675  0.24414340  1
  Ti  Ti126  1  0.50375409  0.30222233  0.38006699  1
  Ti  Ti127  1  0.30725730  0.69940630  0.87336184  1
  Ti  Ti128  1  0.50901118  0.51333606  0.62687735  1
  Ti  Ti129  1  0.49670262  0.51615625  0.37737576  1
  Ti  Ti130  1  0.91725749  0.50804963  0.12553865  1
  Ti  Ti131  1  0.31481975  0.28439032  0.37926154  1
  Ti  Ti132  1  0.90102640  0.09395141  0.62669215  1
  Ti  Ti133  1  0.01023140  0.40208862  0.25012523  1
  Ti  Ti134  1  0.58991847  0.61720899  0.49918681  1
  Ti  Ti135  1  0.40210736  0.19386764  -0.01557298  1
  Ti  Ti136  1  0.79598369  0.00034843  0.24083143  1
  Ti  Ti137  1  0.49045506  0.88708850  0.63145942  1
  Ti  Ti138  1  0.10129462  0.09645976  0.11444700  1
  Ti  Ti139  1  -0.00112936  0.00371319  0.50292393  1
  Ti  Ti140  1  0.09645758  0.10332918  0.37723655  1
  Ti  Ti141  1  0.10173572  0.28643406  0.12554330  1
  Ti  Ti142  1  0.57211016  0.21004820  0.24046410  1
  Ti  Ti143  1  0.70653732  0.32438044  0.61389883  1
  Ti  Ti144  1  0.69116361  0.70028881  0.37836614  1
  Ti  Ti145  1  0.39157122  0.80702702  0.24698407  1
  Ti  Ti146  1  0.68362760  0.89490527  0.86748481  1
  Ti  Ti147  1  0.31353329  0.49857497  0.62274994  1
  Ti  Ti148  1  0.49755808  0.10058331  0.86424910  1
  Ti  Ti149  1  0.81788888  0.41142192  0.24480247  1
  Ti  Ti150  1  0.39318364  0.79978423  -0.00241750  1
  Ti  Ti151  1  0.69100061  0.70510780  0.62112414  1
  Ti  Ti152  1  0.09240530  0.48968016  0.39596155  1
  Ti  Ti153  1  0.39621226  0.61466628  0.25151894  1
  Ti  Ti154  1  0.91420697  0.10821904  0.11226374  1
  Ti  Ti155  1  0.08852708  0.10545554  0.62069930  1
  Ti  Ti156  1  0.40330431  0.60343480  0.50596064  1
  Ti  Ti157  1  0.58313807  0.80634771  0.75208377  1
  Ti  Ti158  1  0.21702722  0.39441413  0.75772509  1
  Ti  Ti159  1  0.59614946  0.81140063  0.00630799  1
  Mo  Mo160  1  0.69200299  0.49331022  0.63820404  1
  Mo  Mo161  1  0.50575961  0.29662265  0.11916332  1
  Mo  Mo162  1  0.10384046  0.69525444  0.62545426  1
  Mo  Mo163  1  -0.00433938  0.57293975  0.25727974  1
  Mo  Mo164  1  0.50538656  0.70425618  0.62177997  1
  Mo  Mo165  1  0.59828570  0.41237747  0.75480490  1
  Mo  Mo166  1  -0.00482052  0.57704962  -0.00198495  1
  Mo  Mo167  1  0.39902566  0.41769596  0.74370677  1
  Mo  Mo168  1  0.90499425  0.29343463  0.88453198  1
  Mo  Mo169  1  0.11240399  0.28328106  0.61816198  1
  Mo  Mo170  1  0.20054166  0.79888856  0.48902148  1
  Mo  Mo171  1  0.69940448  0.71178406  0.87381094  1
  Mo  Mo172  1  0.39983956  0.19897524  0.25157817  1
  Mo  Mo173  1  0.21660549  0.39618359  0.49657917  1
  Mo  Mo174  1  0.40972582  0.60921627  0.00266161  1
  Mo  Mo175  1  0.19873164  -0.00482185  -0.00189163  1
  Mo  Mo176  1  0.29818229  0.09649885  0.38434006  1
  Mo  Mo177  1  0.30809373  0.29669998  0.87260711  1
  Mo  Mo178  1  0.29650443  0.91045121  0.62326383  1
  Mo  Mo179  1  0.88659301  0.70189680  0.62969777  1
  Mo  Mo180  1  0.39788471  0.00523573  -0.01007420  1
  Mo  Mo181  1  0.81572433  0.40755084  0.50317225  1
  Mo  Mo182  1  0.00931645  0.39418929  0.50859387  1
  Mo  Mo183  1  0.59761799  -0.00391801  0.76539789  1
  Mo  Mo184  1  0.79901928  0.59841776  0.72552343  1
  Mo  Mo185  1  0.69573582  0.30284498  0.88498066  1
  Mo  Mo186  1  0.81497095  0.18645272  0.77289286  1
  Mo  Mo187  1  0.09413469  0.09044982  0.88151441  1
  Mo  Mo188  1  0.29665709  0.89167312  0.89059774  1
  Mo  Mo189  1  0.40491940  0.79355717  0.75684223  1
  Mo  Mo190  1  0.00084549  0.20373219  -0.00016167  1
  Mo  Mo191  1  0.68693161  0.89734278  0.12623909  1
  Mo  Mo192  1  0.71555183  0.51873223  0.37058766  1
  Mo  Mo193  1  0.30373042  0.09144754  0.10964098  1
  Mo  Mo194  1  0.01226427  0.19975254  0.24093763  1
  Mo  Mo195  1  0.00952014  0.18402810  0.50064782  1
  Mo  Mo196  1  0.88749659  0.68530555  0.12795148  1
  Mo  Mo197  1  -0.00096663  -0.00129596  0.01171954  1
  Mo  Mo198  1  0.09811307  0.30481643  0.87740767  1
  Mo  Mo199  1  0.48007866  0.12097362  0.11447244  1
