# generated using pymatgen
data_HfZrTaTiMo
_symmetry_space_group_name_H-M   'P 1'
_cell_length_a   15.21101489
_cell_length_b   15.22881437
_cell_length_c   16.84531849
_cell_angle_alpha   90.10606288
_cell_angle_beta   89.96791342
_cell_angle_gamma   90.10069972
_symmetry_Int_Tables_number   1
_chemical_formula_structural   HfZrTaTiMo
_chemical_formula_sum   'Hf40 Zr40 Ta40 Ti40 Mo40'
_cell_volume   3902.13265036
_cell_formula_units_Z   40
loop_
 _symmetry_equiv_pos_site_id
 _symmetry_equiv_pos_as_xyz
  1  'x, y, z'
loop_
 _atom_site_type_symbol
 _atom_site_label
 _atom_site_symmetry_multiplicity
 _atom_site_fract_x
 _atom_site_fract_y
 _atom_site_fract_z
 _atom_site_occupancy
  Hf  Hf0  1  0.09746285  0.90097360  0.11349718  1
  Hf  Hf1  1  0.68976445  0.89967721  0.88655383  1
  Hf  Hf2  1  0.70891884  0.10533393  0.62957346  1
  Hf  Hf3  1  0.69983556  0.10534425  0.36725131  1
  Hf  Hf4  1  -0.01307838  0.79455961  0.50571750  1
  Hf  Hf5  1  0.28121329  0.68905179  0.38012432  1
  Hf  Hf6  1  0.19426395  0.39195185  0.26075506  1
  Hf  Hf7  1  0.19971250  0.79306990  0.52169268  1
  Hf  Hf8  1  0.80105330  -0.00050024  0.49766958  1
  Hf  Hf9  1  0.79533748  0.59974969  0.00261107  1
  Hf  Hf10  1  0.40035627  0.59890309  0.00802091  1
  Hf  Hf11  1  0.29517762  0.70056432  0.88158610  1
  Hf  Hf12  1  0.79280804  0.59731203  0.48357643  1
  Hf  Hf13  1  0.31420462  0.09568118  0.36411049  1
  Hf  Hf14  1  -0.01110676  0.58395841  -0.01321702  1
  Hf  Hf15  1  0.10898955  0.10528574  0.36081151  1
  Hf  Hf16  1  0.60358030  0.80131638  0.02344045  1
  Hf  Hf17  1  -0.00591466  0.58743510  0.52233254  1
  Hf  Hf18  1  0.38239488  0.40047746  -0.00845018  1
  Hf  Hf19  1  0.01883267  0.18622256  0.74890839  1
  Hf  Hf20  1  0.00775743  0.19329800  0.51591831  1
  Hf  Hf21  1  0.51949407  0.11871134  0.12034599  1
  Hf  Hf22  1  0.20497238  0.40223701  0.50842257  1
  Hf  Hf23  1  0.31011119  0.29834235  0.37137151  1
  Hf  Hf24  1  0.39642031  0.81200462  0.01807817  1
  Hf  Hf25  1  0.18535574  0.58749726  0.25022533  1
  Hf  Hf26  1  0.89340984  0.30216091  0.12020519  1
  Hf  Hf27  1  0.20221325  0.20894421  -0.00629470  1
  Hf  Hf28  1  0.30225699  0.10196873  0.62713404  1
  Hf  Hf29  1  0.90700969  0.10430744  0.36821617  1
  Hf  Hf30  1  0.89042634  0.69947928  0.13045367  1
  Hf  Hf31  1  0.81189044  0.20521498  0.50379623  1
  Hf  Hf32  1  0.89330696  0.90373235  0.87299117  1
  Hf  Hf33  1  0.21055779  0.79664137  0.73649132  1
  Hf  Hf34  1  0.10890771  0.11672843  0.12643408  1
  Hf  Hf35  1  0.40238726  0.40072215  0.76702654  1
  Hf  Hf36  1  0.09124156  0.68330298  0.85867878  1
  Hf  Hf37  1  0.50930630  0.71279589  0.88703622  1
  Hf  Hf38  1  0.38709935  0.59402256  0.24487727  1
  Hf  Hf39  1  0.70077638  0.32081323  0.63904294  1
  Zr  Zr40  1  0.48337121  0.71744253  0.61171684  1
  Zr  Zr41  1  0.40149327  0.61128022  0.75615815  1
  Zr  Zr42  1  -0.00444251  0.79885247  0.75010393  1
  Zr  Zr43  1  0.67919805  0.69634873  0.60669843  1
  Zr  Zr44  1  0.60473962  0.19808346  0.76647687  1
  Zr  Zr45  1  0.00439835  0.21388522  0.24549918  1
  Zr  Zr46  1  0.80724056  0.39720986  -0.01135397  1
  Zr  Zr47  1  0.08454147  0.92123309  0.63365429  1
  Zr  Zr48  1  0.21778848  -0.00101144  0.23354959  1
  Zr  Zr49  1  0.41826424  -0.00711234  0.49953302  1
  Zr  Zr50  1  0.60042460  0.83237918  0.25068485  1
  Zr  Zr51  1  0.19456658  0.57109202  -0.00950006  1
  Zr  Zr52  1  0.41117217  0.40566433  0.24497406  1
  Zr  Zr53  1  0.39502108  0.81050529  0.22537743  1
  Zr  Zr54  1  0.10948940  0.47357518  0.84017915  1
  Zr  Zr55  1  -0.00396702  0.01284236  -0.00052725  1
  Zr  Zr56  1  0.60542199  0.21914820  0.49951247  1
  Zr  Zr57  1  0.10340769  0.89947389  0.37619097  1
  Zr  Zr58  1  0.20628393  0.00970955  0.75331959  1
  Zr  Zr59  1  0.19365632  0.79204008  0.24111336  1
  Zr  Zr60  1  -0.00937262  0.79032228  -0.01074057  1
  Zr  Zr61  1  0.30064383  0.28945790  0.12896201  1
  Zr  Zr62  1  0.39672366  0.19392509  0.76849596  1
  Zr  Zr63  1  0.79172234  0.39991254  0.49833760  1
  Zr  Zr64  1  0.48661091  0.70964307  0.36739542  1
  Zr  Zr65  1  0.87818146  0.68843430  0.63643149  1
  Zr  Zr66  1  -0.00898583  0.79893483  0.25326290  1
  Zr  Zr67  1  0.31156752  0.49410047  0.63074587  1
  Zr  Zr68  1  0.31683256  0.88958516  0.37561094  1
  Zr  Zr69  1  0.69980082  0.69701583  0.14843483  1
  Zr  Zr70  1  0.76462520  0.79340592  0.75558749  1
  Zr  Zr71  1  0.20912634  0.20237845  0.50038529  1
  Zr  Zr72  1  0.20073927  0.00115643  0.50472884  1
  Zr  Zr73  1  0.11102441  0.89875688  0.88064493  1
  Zr  Zr74  1  0.09458435  0.49395917  0.39089915  1
  Zr  Zr75  1  0.52303554  0.50358696  0.62272434  1
  Zr  Zr76  1  0.08885040  0.68283410  0.11627126  1
  Zr  Zr77  1  0.50695384  0.10238591  0.62763790  1
  Zr  Zr78  1  0.87820941  0.89719869  0.63076503  1
  Zr  Zr79  1  0.60561162  0.41081105  0.77159209  1
  Ta  Ta80  1  0.68643653  0.29562173  0.12676019  1
  Ta  Ta81  1  0.50351468  0.50995283  0.88732086  1
  Ta  Ta82  1  -0.00969117  0.59822731  0.26103429  1
  Ta  Ta83  1  0.78912854  0.00640605  0.75712897  1
  Ta  Ta84  1  0.79625316  0.19766620  0.24076779  1
  Ta  Ta85  1  0.89822913  0.90252204  0.37521961  1
  Ta  Ta86  1  -0.00446620  -0.00083528  0.24005515  1
  Ta  Ta87  1  0.61273913  0.01366600  0.00394084  1
  Ta  Ta88  1  0.87866662  0.68545754  0.85885866  1
  Ta  Ta89  1  0.28916851  0.69175141  0.11715982  1
  Ta  Ta90  1  0.11154084  0.10467360  0.88034987  1
  Ta  Ta91  1  0.91271924  0.30023293  0.85842552  1
  Ta  Ta92  1  0.52002651  0.31090923  0.36627082  1
  Ta  Ta93  1  0.68960482  0.69736777  0.36661066  1
  Ta  Ta94  1  0.59713449  -0.00353225  0.76061792  1
  Ta  Ta95  1  0.08501862  0.69336156  0.38634362  1
  Ta  Ta96  1  0.88158618  0.48363162  0.64600200  1
  Ta  Ta97  1  0.60718456  0.61764638  0.75878183  1
  Ta  Ta98  1  0.68250172  0.48504084  0.35896602  1
  Ta  Ta99  1  -0.00638721  0.38710763  0.52628072  1
  Ta  Ta100  1  0.50786359  0.10723180  0.36125809  1
  Ta  Ta101  1  0.41135545  0.20045140  0.24225425  1
  Ta  Ta102  1  0.49978499  0.29934764  0.89547739  1
  Ta  Ta103  1  0.38885541  0.59492059  0.49349346  1
  Ta  Ta104  1  0.90547212  0.49571831  0.84461981  1
  Ta  Ta105  1  0.78351942  0.80229446  0.48103870  1
  Ta  Ta106  1  0.19152249  0.60063931  0.52400331  1
  Ta  Ta107  1  0.91197313  0.08618667  0.64076229  1
  Ta  Ta108  1  0.79814078  -0.00728962  0.25041876  1
  Ta  Ta109  1  0.90551683  0.49803742  0.13208881  1
  Ta  Ta110  1  0.60891435  0.40400209  -0.00665650  1
  Ta  Ta111  1  0.58562277  0.82097219  0.47899769  1
  Ta  Ta112  1  0.41013283  -0.00867036  0.75673122  1
  Ta  Ta113  1  0.60472598  0.59602068  0.01085775  1
  Ta  Ta114  1  0.01154712  0.39800683  -0.01144729  1
  Ta  Ta115  1  0.67669482  0.90359872  0.62090498  1
  Ta  Ta116  1  0.10006980  0.32031503  0.12017982  1
  Ta  Ta117  1  0.70785447  0.48926054  0.13994245  1
  Ta  Ta118  1  0.41879351  0.39938925  0.49221711  1
  Ta  Ta119  1  0.80251809  0.59104233  0.26815909  1
  Ti  Ti120  1  0.57890199  0.81154390  0.75062258  1
  Ti  Ti121  1  0.50129496  0.09334265  0.88901828  1
  Ti  Ti122  1  0.80095731  0.79844211  0.27060755  1
  Ti  Ti123  1  0.58786526  0.58629877  0.25059071  1
  Ti  Ti124  1  0.79839228  0.18189916  -0.00016654  1
  Ti  Ti125  1  0.39886395  0.81010975  0.75783541  1
  Ti  Ti126  1  -0.00091704  0.00178797  0.49801172  1
  Ti  Ti127  1  0.60506637  0.00575530  0.49127261  1
  Ti  Ti128  1  0.79736235  0.80030516  -0.00059749  1
  Ti  Ti129  1  0.70762514  0.92215836  0.12107185  1
  Ti  Ti130  1  0.31487560  0.29518738  0.62845413  1
  Ti  Ti131  1  0.90180255  0.30319341  0.37210774  1
  Ti  Ti132  1  0.41334894  0.20320336  0.49534205  1
  Ti  Ti133  1  0.49543894  0.90842924  0.89295496  1
  Ti  Ti134  1  0.49998907  0.69234544  0.13251477  1
  Ti  Ti135  1  0.89292600  0.28720382  0.64953372  1
  Ti  Ti136  1  0.30774170  0.91111224  0.88670197  1
  Ti  Ti137  1  -0.00407229  0.40871647  0.25183778  1
  Ti  Ti138  1  0.19716028  0.59797954  0.72793014  1
  Ti  Ti139  1  0.32500974  0.89280406  0.62233769  1
  Ti  Ti140  1  0.27950696  0.30657702  0.86803805  1
  Ti  Ti141  1  0.42302431  -0.00087021  0.22827565  1
  Ti  Ti142  1  0.89845228  0.48958481  0.37687739  1
  Ti  Ti143  1  0.89379485  0.10561476  0.86968712  1
  Ti  Ti144  1  0.70913666  0.30354719  0.35499270  1
  Ti  Ti145  1  0.20000961  0.79698359  0.00349620  1
  Ti  Ti146  1  0.89323068  0.90131008  0.12147878  1
  Ti  Ti147  1  0.89351506  0.09477927  0.12428345  1
  Ti  Ti148  1  0.70803585  0.51525722  0.87472905  1
  Ti  Ti149  1  0.22325476  0.00857059  0.00715880  1
  Ti  Ti150  1  0.50783482  0.48557658  0.11591537  1
  Ti  Ti151  1  0.71692838  0.28930435  0.87283662  1
  Ti  Ti152  1  0.61231615  0.20599960  -0.01083568  1
  Ti  Ti153  1  -0.00298039  0.21025851  -0.00871906  1
  Ti  Ti154  1  0.58927194  0.59084514  0.47979582  1
  Ti  Ti155  1  0.09093935  0.29907656  0.38462381  1
  Ti  Ti156  1  0.39753472  0.18935079  -0.00301832  1
  Ti  Ti157  1  0.27707867  0.48870397  0.12333376  1
  Ti  Ti158  1  0.50190182  0.30583677  0.62766716  1
  Ti  Ti159  1  0.11584170  0.29411190  0.63650761  1
  Mo  Mo160  1  0.80611461  0.19377009  0.75381329  1
  Mo  Mo161  1  0.50316201  0.92376998  0.36573775  1
  Mo  Mo162  1  0.20799878  0.20554088  0.25027845  1
  Mo  Mo163  1  0.69965788  0.51164294  0.62709196  1
  Mo  Mo164  1  0.19252613  0.39540443  -0.00616514  1
  Mo  Mo165  1  0.60131586  0.39858279  0.23742587  1
  Mo  Mo166  1  0.70153143  0.90765803  0.37390874  1
  Mo  Mo167  1  0.80847405  0.39668074  0.25158732  1
  Mo  Mo168  1  0.30069656  0.69971625  0.62187602  1
  Mo  Mo169  1  0.51210444  0.91534254  0.11407851  1
  Mo  Mo170  1  0.09562507  0.48897427  0.63400195  1
  Mo  Mo171  1  0.80274125  -0.00104119  0.00076961  1
  Mo  Mo172  1  0.30346056  0.50279102  0.86045790  1
  Mo  Mo173  1  0.50525653  0.30621879  0.09708715  1
  Mo  Mo174  1  0.31108756  0.10217322  0.12899237  1
  Mo  Mo175  1  0.10255394  0.09905776  0.62625965  1
  Mo  Mo176  1  0.21120685  0.20304745  0.75494500  1
  Mo  Mo177  1  0.00099502  0.38802654  0.72780313  1
  Mo  Mo178  1  0.69276109  0.69854740  0.88707548  1
  Mo  Mo179  1  -0.00356776  0.59433668  0.73151113  1
  Mo  Mo180  1  0.60040398  0.21138488  0.24820438  1
  Mo  Mo181  1  0.09649587  0.29204822  0.86785364  1
  Mo  Mo182  1  0.70391928  0.09817890  0.87735820  1
  Mo  Mo183  1  0.60206406  0.40520509  0.49415901  1
  Mo  Mo184  1  0.30117761  0.49832616  0.38863636  1
  Mo  Mo185  1  0.39789194  0.79877430  0.49312572  1
  Mo  Mo186  1  -0.00751703  0.00256814  0.76789604  1
  Mo  Mo187  1  0.40971188  0.00735802  0.00886097  1
  Mo  Mo188  1  0.61120978  0.01829621  0.24166396  1
  Mo  Mo189  1  0.08544363  0.49163753  0.12731179  1
  Mo  Mo190  1  0.78115048  0.59037472  0.75023686  1
  Mo  Mo191  1  0.29730215  0.90583522  0.11368585  1
  Mo  Mo192  1  0.71620172  0.10827141  0.12510520  1
  Mo  Mo193  1  0.49527269  0.50262246  0.37518741  1
  Mo  Mo194  1  0.50417383  0.90625222  0.62848961  1
  Mo  Mo195  1  0.89582620  0.69500539  0.38063952  1
  Mo  Mo196  1  0.21047989  0.38573941  0.73358519  1
  Mo  Mo197  1  0.09338648  0.69624821  0.63677346  1
  Mo  Mo198  1  0.30692207  0.09234290  0.88111460  1
  Mo  Mo199  1  0.79547180  0.39296308  0.76572372  1
