# generated using pymatgen
data_HfZrTaTiMo
_symmetry_space_group_name_H-M   'P 1'
_cell_length_a   15.21868387
_cell_length_b   15.21280749
_cell_length_c   16.82406585
_cell_angle_alpha   89.97863238
_cell_angle_beta   90.00085280
_cell_angle_gamma   89.96925234
_symmetry_Int_Tables_number   1
_chemical_formula_structural   HfZrTaTiMo
_chemical_formula_sum   'Hf40 Zr40 Ta40 Ti40 Mo40'
_cell_volume   3895.08852051
_cell_formula_units_Z   40
loop_
 _symmetry_equiv_pos_site_id
 _symmetry_equiv_pos_as_xyz
  1  'x, y, z'
loop_
 _atom_site_type_symbol
 _atom_site_label
 _atom_site_symmetry_multiplicity
 _atom_site_fract_x
 _atom_site_fract_y
 _atom_site_fract_z
 _atom_site_occupancy
  Hf  Hf0  1  0.20251208  0.21409377  0.73420893  1
  Hf  Hf1  1  0.49723746  0.06818784  0.39311914  1
  Hf  Hf2  1  0.08471799  0.70931367  0.36509775  1
  Hf  Hf3  1  0.51150411  0.91230346  0.85962503  1
  Hf  Hf4  1  0.20464094  0.40442707  0.51475317  1
  Hf  Hf5  1  0.19759256  0.20272808  0.51803585  1
  Hf  Hf6  1  0.21170263  0.40591347  0.01102654  1
  Hf  Hf7  1  0.49915630  0.70709323  0.62289051  1
  Hf  Hf8  1  0.52816388  0.29753763  0.13280161  1
  Hf  Hf9  1  0.39545935  0.19567316  0.52151674  1
  Hf  Hf10  1  0.00435876  0.81130665  0.76251996  1
  Hf  Hf11  1  0.69950602  0.91490879  0.38923149  1
  Hf  Hf12  1  0.31450038  0.89074431  0.11741824  1
  Hf  Hf13  1  0.80155382  0.00167771  0.24596193  1
  Hf  Hf14  1  0.00685027  0.39646989  0.74711863  1
  Hf  Hf15  1  0.81115823  0.78558411  0.49447344  1
  Hf  Hf16  1  0.10083745  0.10349363  0.88340897  1
  Hf  Hf17  1  0.80124403  0.21129671  0.26345871  1
  Hf  Hf18  1  0.59147814  0.20489141  0.48303023  1
  Hf  Hf19  1  0.09448696  0.90509691  0.88806758  1
  Hf  Hf20  1  0.39567182  0.59535212  0.24384668  1
  Hf  Hf21  1  0.20463548  0.79749537  0.50099658  1
  Hf  Hf22  1  0.47473071  0.71132991  0.38754755  1
  Hf  Hf23  1  0.42039101  -0.01605465  0.24500955  1
  Hf  Hf24  1  -0.00790534  0.19927737  0.75887487  1
  Hf  Hf25  1  0.31941893  0.30473149  0.86857668  1
  Hf  Hf26  1  0.30702418  0.29819670  0.37685253  1
  Hf  Hf27  1  0.60391084  0.40706565  0.27432968  1
  Hf  Hf28  1  0.08235385  0.09027615  0.62987606  1
  Hf  Hf29  1  0.68890037  0.48767870  0.12648440  1
  Hf  Hf30  1  -0.00593412  0.58797898  0.23779692  1
  Hf  Hf31  1  0.09977512  0.50907453  0.37395030  1
  Hf  Hf32  1  -0.00120613  0.19616362  0.49273811  1
  Hf  Hf33  1  0.70283610  0.11517366  0.12302063  1
  Hf  Hf34  1  0.91304253  0.87856693  0.37090495  1
  Hf  Hf35  1  0.40874282  0.00356051  -0.00747751  1
  Hf  Hf36  1  -0.00006763  0.40386830  0.50006458  1
  Hf  Hf37  1  0.69036269  0.89801067  0.12207220  1
  Hf  Hf38  1  0.00599630  0.00097246  0.24013377  1
  Hf  Hf39  1  0.10667461  0.30294854  0.88406137  1
  Zr  Zr40  1  0.80114888  0.38695155  0.76304499  1
  Zr  Zr41  1  0.69827967  0.29426865  0.61663651  1
  Zr  Zr42  1  0.37988756  0.60802010  0.51094128  1
  Zr  Zr43  1  0.78949011  0.38758632  -0.00747921  1
  Zr  Zr44  1  0.09989976  0.50701062  0.87123702  1
  Zr  Zr45  1  0.88769492  0.50383402  0.62441320  1
  Zr  Zr46  1  0.50951328  0.12191447  0.86450669  1
  Zr  Zr47  1  0.89550299  0.50708904  0.88755253  1
  Zr  Zr48  1  0.59781636  0.59557881  0.00016501  1
  Zr  Zr49  1  0.19956413  0.41690491  0.23140809  1
  Zr  Zr50  1  0.38779800  0.60178467  0.00461494  1
  Zr  Zr51  1  0.40834149  0.18918259  0.25617769  1
  Zr  Zr52  1  0.20014028  0.19455729  0.24583724  1
  Zr  Zr53  1  0.09640354  0.51912530  0.63019856  1
  Zr  Zr54  1  0.10543240  0.89172471  0.11937947  1
  Zr  Zr55  1  0.59761923  0.80159658  -0.01155058  1
  Zr  Zr56  1  0.30692139  0.50408836  0.37615142  1
  Zr  Zr57  1  0.18961604  0.59886626  0.00672001  1
  Zr  Zr58  1  0.30310094  0.90197615  0.86084571  1
  Zr  Zr59  1  0.71575875  0.89636938  0.61739279  1
  Zr  Zr60  1  0.92093107  0.89770853  0.62079622  1
  Zr  Zr61  1  0.60463558  0.19942380  0.27931111  1
  Zr  Zr62  1  0.61438704  0.79744648  0.75893016  1
  Zr  Zr63  1  0.89716370  0.28858398  0.61816531  1
  Zr  Zr64  1  0.70263028  0.69097527  0.62309284  1
  Zr  Zr65  1  0.10225112  0.30278659  0.36872309  1
  Zr  Zr66  1  0.21046667  0.00060105  0.51254650  1
  Zr  Zr67  1  0.78990861  0.61020645  0.23131897  1
  Zr  Zr68  1  0.49843179  0.71324781  0.12674369  1
  Zr  Zr69  1  0.48705060  0.49202942  0.86533896  1
  Zr  Zr70  1  0.21628482  -0.00602434  0.24829183  1
  Zr  Zr71  1  0.08924059  0.29655093  0.11387792  1
  Zr  Zr72  1  0.59756027  0.40677634  0.48053348  1
  Zr  Zr73  1  0.10373155  0.10275482  0.10657403  1
  Zr  Zr74  1  0.69693654  0.49551553  0.62508983  1
  Zr  Zr75  1  0.20460687  0.79343889  -0.00736474  1
  Zr  Zr76  1  0.41303443  0.40539432  0.01798219  1
  Zr  Zr77  1  0.90025264  0.08507477  0.38047719  1
  Zr  Zr78  1  0.79398266  0.17093644  0.75071992  1
  Zr  Zr79  1  0.32212586  0.89118947  0.38580223  1
  Ta  Ta80  1  0.29524363  0.69329126  0.85481164  1
  Ta  Ta81  1  0.40431939  0.39968061  0.51595917  1
  Ta  Ta82  1  0.50345657  0.50326177  0.62805581  1
  Ta  Ta83  1  0.81010384  0.40700344  0.26154031  1
  Ta  Ta84  1  0.19000569  -0.00112173  0.74563442  1
  Ta  Ta85  1  0.89871263  0.70189434  0.88856641  1
  Ta  Ta86  1  0.30942981  0.29098793  0.12627074  1
  Ta  Ta87  1  -0.00502499  0.19991485  0.25386745  1
  Ta  Ta88  1  0.68614104  0.28148534  0.86775000  1
  Ta  Ta89  1  0.39546151  0.39754579  0.72969721  1
  Ta  Ta90  1  0.10979431  0.89911993  0.36610236  1
  Ta  Ta91  1  -0.01252903  0.61397861  0.75342622  1
  Ta  Ta92  1  0.59533233  0.60485818  0.48944984  1
  Ta  Ta93  1  0.89602583  0.90099731  0.11402963  1
  Ta  Ta94  1  0.40277031  0.79768408  -0.01462311  1
  Ta  Ta95  1  0.68462309  0.71485226  0.37695827  1
  Ta  Ta96  1  0.40997710  0.20283681  0.00276851  1
  Ta  Ta97  1  0.71394909  0.52329703  0.37549873  1
  Ta  Ta98  1  0.60557550  0.00111914  0.25229903  1
  Ta  Ta99  1  0.62022856  0.01377486  0.73855509  1
  Ta  Ta100  1  0.90115760  0.69889652  0.62634004  1
  Ta  Ta101  1  0.39940180  0.60009937  0.74214964  1
  Ta  Ta102  1  0.31222526  0.09802740  0.11769681  1
  Ta  Ta103  1  0.10678035  0.09280374  0.37671226  1
  Ta  Ta104  1  0.58843726  0.38155213  0.75112815  1
  Ta  Ta105  1  0.60325686  0.00630404  0.00136087  1
  Ta  Ta106  1  0.40672738  0.01106259  0.73295668  1
  Ta  Ta107  1  0.69148778  0.49681168  0.87013331  1
  Ta  Ta108  1  0.28351901  0.70408445  0.64650229  1
  Ta  Ta109  1  0.09103849  0.71897048  0.62897128  1
  Ta  Ta110  1  0.41784068  0.20879983  0.72524054  1
  Ta  Ta111  1  0.49280142  0.69786566  0.86474374  1
  Ta  Ta112  1  0.58763143  0.81179589  0.25608897  1
  Ta  Ta113  1  0.70449747  0.08446017  0.88285233  1
  Ta  Ta114  1  0.70496848  0.09362423  0.59874087  1
  Ta  Ta115  1  0.81391638  0.79749002  0.76019005  1
  Ta  Ta116  1  0.89946624  0.49951943  0.10815131  1
  Ta  Ta117  1  0.40873274  0.39995176  0.24019928  1
  Ta  Ta118  1  0.30442562  0.10604791  0.85709822  1
  Ta  Ta119  1  0.79668179  0.78348941  0.01114860  1
  Ti  Ti120  1  0.09655912  0.69806786  0.87272503  1
  Ti  Ti121  1  0.29906030  0.09419711  0.38211674  1
  Ti  Ti122  1  0.38861634  0.79458256  0.25287170  1
  Ti  Ti123  1  0.79751685  0.20318797  0.47706796  1
  Ti  Ti124  1  0.09324058  0.69194523  0.13027385  1
  Ti  Ti125  1  0.88859777  0.08683450  0.61180113  1
  Ti  Ti126  1  0.28899816  0.49961239  0.85533389  1
  Ti  Ti127  1  0.21390318  0.00332668  -0.00566191  1
  Ti  Ti128  1  0.78990101  0.79997090  0.24227295  1
  Ti  Ti129  1  -0.01617477  0.61234509  0.49633493  1
  Ti  Ti130  1  0.88250401  0.67899090  0.36961783  1
  Ti  Ti131  1  0.29408280  0.89564116  0.64005865  1
  Ti  Ti132  1  0.29201150  0.50701199  0.63815462  1
  Ti  Ti133  1  -0.01157294  0.79503431  0.23313296  1
  Ti  Ti134  1  -0.02019538  0.00361891  0.76055875  1
  Ti  Ti135  1  0.88770155  0.29902945  0.12262837  1
  Ti  Ti136  1  0.89265003  0.90235237  0.89650531  1
  Ti  Ti137  1  0.18714127  0.61030205  0.50115557  1
  Ti  Ti138  1  0.89436892  0.09400439  0.88952571  1
  Ti  Ti139  1  0.59135140  0.60851616  0.25765295  1
  Ti  Ti140  1  0.21912739  0.19841513  -0.00421443  1
  Ti  Ti141  1  0.71562529  0.90160303  0.88188189  1
  Ti  Ti142  1  0.28555146  0.69871490  0.13491676  1
  Ti  Ti143  1  0.51556948  0.90172272  0.62948432  1
  Ti  Ti144  1  0.80693934  0.40510518  0.47601832  1
  Ti  Ti145  1  0.40360820  0.80358395  0.74571906  1
  Ti  Ti146  1  -0.00824262  0.39393752  0.24370731  1
  Ti  Ti147  1  -0.00805947  0.00469943  0.00589939  1
  Ti  Ti148  1  0.01253782  -0.01981037  0.49471994  1
  Ti  Ti149  1  -0.00274201  0.39926760  -0.00090107  1
  Ti  Ti150  1  0.90180420  0.10869901  0.11644392  1
  Ti  Ti151  1  0.80017148  0.19869461  -0.00547383  1
  Ti  Ti152  1  0.40670988  -0.00797695  0.53119212  1
  Ti  Ti153  1  0.50712733  0.09438102  0.12321787  1
  Ti  Ti154  1  0.59790824  0.39032013  -0.00959277  1
  Ti  Ti155  1  0.59890425  0.59404845  0.75525713  1
  Ti  Ti156  1  0.79692757  0.60330489  0.75649797  1
  Ti  Ti157  1  0.60473952  0.20499548  -0.00030479  1
  Ti  Ti158  1  0.70750122  0.69028716  0.87762627  1
  Ti  Ti159  1  -0.00200266  0.78799752  0.00547284  1
  Mo  Mo160  1  0.70844434  0.31054243  0.38283461  1
  Mo  Mo161  1  0.90678187  0.30566274  0.37223658  1
  Mo  Mo162  1  0.19497241  0.61049278  0.24350693  1
  Mo  Mo163  1  0.30038607  0.09531700  0.64242039  1
  Mo  Mo164  1  0.10563597  0.89822634  0.62990648  1
  Mo  Mo165  1  0.20317855  0.40546241  0.74243214  1
  Mo  Mo166  1  0.51081147  0.88602802  0.38798746  1
  Mo  Mo167  1  0.89870834  0.70663422  0.11969801  1
  Mo  Mo168  1  0.90046457  0.28914758  0.88178155  1
  Mo  Mo169  1  0.01071808  0.79034851  0.49647684  1
  Mo  Mo170  1  0.29928607  0.30895832  0.62810547  1
  Mo  Mo171  1  0.48156379  0.31480039  0.37795140  1
  Mo  Mo172  1  0.49998884  0.29946345  0.87286830  1
  Mo  Mo173  1  0.19799919  0.79531285  0.24901780  1
  Mo  Mo174  1  0.50008239  0.51151131  0.37833128  1
  Mo  Mo175  1  0.39605978  0.81222745  0.53128796  1
  Mo  Mo176  1  0.51459284  0.09877317  0.62127793  1
  Mo  Mo177  1  0.30047925  0.50202839  0.13165716  1
  Mo  Mo178  1  0.79132450  0.60102327  0.00963734  1
  Mo  Mo179  1  0.59371919  0.80132245  0.50101060  1
  Mo  Mo180  1  0.50129014  0.90677452  0.11980744  1
  Mo  Mo181  1  0.81480975  -0.00128516  0.49625378  1
  Mo  Mo182  1  0.08793614  0.49824439  0.11907463  1
  Mo  Mo183  1  0.79686456  0.59595159  0.49392971  1
  Mo  Mo184  1  0.60658893  0.19447225  0.73929093  1
  Mo  Mo185  1  0.27492751  0.69729827  0.36137213  1
  Mo  Mo186  1  0.70108565  0.09794201  0.39281925  1
  Mo  Mo187  1  0.50812784  0.30795544  0.61953229  1
  Mo  Mo188  1  -0.01493525  0.20647118  -0.01013930  1
  Mo  Mo189  1  0.90657415  0.50362284  0.37104266  1
  Mo  Mo190  1  -0.00841202  0.60657738  0.00984948  1
  Mo  Mo191  1  0.80005545  -0.00164366  0.00871178  1
  Mo  Mo192  1  0.19614182  0.80373273  0.75763627  1
  Mo  Mo193  1  0.18963149  0.60647291  0.75071127  1
  Mo  Mo194  1  0.09224019  0.30355273  0.62291637  1
  Mo  Mo195  1  0.80667331  -0.01424546  0.75709331  1
  Mo  Mo196  1  0.69085065  0.70368327  0.13319954  1
  Mo  Mo197  1  0.59881661  -0.00369149  0.51467926  1
  Mo  Mo198  1  0.70982729  0.29937673  0.12918396  1
  Mo  Mo199  1  0.50359254  0.49931870  0.13332234  1
