# generated using pymatgen
data_HfZrTaTiMo
_symmetry_space_group_name_H-M   'P 1'
_cell_length_a   15.21386820
_cell_length_b   15.21292074
_cell_length_c   16.84989810
_cell_angle_alpha   89.98196918
_cell_angle_beta   90.01038479
_cell_angle_gamma   90.00245237
_symmetry_Int_Tables_number   1
_chemical_formula_structural   HfZrTaTiMo
_chemical_formula_sum   'Hf40 Zr40 Ta40 Ti40 Mo40'
_cell_volume   3899.86435750
_cell_formula_units_Z   40
loop_
 _symmetry_equiv_pos_site_id
 _symmetry_equiv_pos_as_xyz
  1  'x, y, z'
loop_
 _atom_site_type_symbol
 _atom_site_label
 _atom_site_symmetry_multiplicity
 _atom_site_fract_x
 _atom_site_fract_y
 _atom_site_fract_z
 _atom_site_occupancy
  Hf  Hf0  1  0.82023697  -0.00750129  0.50344101  1
  Hf  Hf1  1  0.70574430  0.49990407  0.37101336  1
  Hf  Hf2  1  0.49826978  0.70932925  0.37992995  1
  Hf  Hf3  1  0.12466349  0.11087552  0.35036948  1
  Hf  Hf4  1  0.88407172  0.69641120  0.62986081  1
  Hf  Hf5  1  0.80753975  0.79072893  -0.01136735  1
  Hf  Hf6  1  0.90270295  0.69120836  0.12154787  1
  Hf  Hf7  1  0.60138674  -0.00017883  0.24668573  1
  Hf  Hf8  1  0.10403055  0.31162458  0.13346443  1
  Hf  Hf9  1  0.80006146  0.39772597  0.23663126  1
  Hf  Hf10  1  0.29435928  0.49604484  0.61427137  1
  Hf  Hf11  1  0.20718947  0.00983181  0.01441747  1
  Hf  Hf12  1  0.29416133  0.49757009  0.87474414  1
  Hf  Hf13  1  0.90304182  0.28972102  0.62319957  1
  Hf  Hf14  1  0.59857050  0.21721303  0.00850938  1
  Hf  Hf15  1  0.10487389  0.68737933  0.12253569  1
  Hf  Hf16  1  0.39951371  0.01027161  0.49317916  1
  Hf  Hf17  1  0.10535320  0.89822147  0.88551529  1
  Hf  Hf18  1  0.50629205  0.51252345  0.37350525  1
  Hf  Hf19  1  0.79807834  0.59290315  0.23765392  1
  Hf  Hf20  1  -0.00611881  0.80835557  0.49578300  1
  Hf  Hf21  1  0.31261875  0.09977574  0.14549853  1
  Hf  Hf22  1  0.79865429  -0.00442508  0.24431238  1
  Hf  Hf23  1  0.19176130  0.80438143  0.75101977  1
  Hf  Hf24  1  0.40076551  0.41518842  0.74703373  1
  Hf  Hf25  1  0.70379194  0.67671970  0.86777817  1
  Hf  Hf26  1  0.00285650  -0.00395180  0.73669291  1
  Hf  Hf27  1  0.89589482  0.49405367  0.62582286  1
  Hf  Hf28  1  0.10855945  0.10906068  0.14221393  1
  Hf  Hf29  1  0.50225148  0.11134036  0.62076675  1
  Hf  Hf30  1  0.40081383  0.81774318  0.74618947  1
  Hf  Hf31  1  0.79128098  0.18673286  0.01245144  1
  Hf  Hf32  1  0.68100650  0.47718045  0.89001754  1
  Hf  Hf33  1  0.90775645  0.31342765  0.38404524  1
  Hf  Hf34  1  0.50556717  0.70762872  0.62929966  1
  Hf  Hf35  1  0.89557691  0.68392321  0.37719336  1
  Hf  Hf36  1  0.31115969  0.91022058  0.89299889  1
  Hf  Hf37  1  0.20853917  0.00327763  0.74104689  1
  Hf  Hf38  1  0.89200601  0.29259039  0.87357130  1
  Hf  Hf39  1  0.48718615  0.50481924  0.13207076  1
  Zr  Zr40  1  0.00793341  0.19908033  0.00197107  1
  Zr  Zr41  1  0.07057149  0.49494399  0.39693506  1
  Zr  Zr42  1  0.91835134  0.09253667  0.36837017  1
  Zr  Zr43  1  0.38121630  0.62503021  0.24884593  1
  Zr  Zr44  1  0.60873855  0.00994209  0.75122454  1
  Zr  Zr45  1  0.90272390  0.88595579  0.12917493  1
  Zr  Zr46  1  0.10170600  0.90361149  0.37143200  1
  Zr  Zr47  1  0.41446699  0.40381871  -0.00475440  1
  Zr  Zr48  1  0.26944835  0.50666300  0.12502592  1
  Zr  Zr49  1  0.30362163  0.29970501  0.13555689  1
  Zr  Zr50  1  0.01890677  0.19274508  0.49809792  1
  Zr  Zr51  1  0.39820760  0.40360485  0.48983960  1
  Zr  Zr52  1  0.60143540  0.40167308  0.74112358  1
  Zr  Zr53  1  0.39436874  0.20320520  -0.00588337  1
  Zr  Zr54  1  0.28615534  0.51063206  0.38439888  1
  Zr  Zr55  1  0.00879328  0.40625768  -0.01176048  1
  Zr  Zr56  1  0.60795581  0.19615817  0.25507015  1
  Zr  Zr57  1  0.29608552  0.70650887  0.62341591  1
  Zr  Zr58  1  0.88997660  0.09015454  0.87668763  1
  Zr  Zr59  1  0.60071261  0.19907770  0.48484612  1
  Zr  Zr60  1  0.60355556  0.80591492  -0.00640464  1
  Zr  Zr61  1  0.18821214  0.58675547  0.74692633  1
  Zr  Zr62  1  0.77901678  0.78409734  0.50118296  1
  Zr  Zr63  1  0.30352289  0.69849891  0.86350941  1
  Zr  Zr64  1  0.80551087  0.20003594  0.24765620  1
  Zr  Zr65  1  0.32152963  0.88863208  0.12308620  1
  Zr  Zr66  1  0.38839766  0.40136219  0.26347956  1
  Zr  Zr67  1  0.49392996  0.30388006  0.61190499  1
  Zr  Zr68  1  0.87292674  0.50611617  0.88621856  1
  Zr  Zr69  1  0.40329123  0.01135612  0.75056314  1
  Zr  Zr70  1  0.09566635  0.09245038  0.87689091  1
  Zr  Zr71  1  0.49859613  0.89799740  0.38178474  1
  Zr  Zr72  1  0.70269649  0.88756288  0.37373550  1
  Zr  Zr73  1  0.08425192  0.69542603  0.61753600  1
  Zr  Zr74  1  -0.01302648  0.60596549  0.77040482  1
  Zr  Zr75  1  0.58767692  0.60311561  0.01028564  1
  Zr  Zr76  1  0.71295356  0.10001437  0.61849951  1
  Zr  Zr77  1  0.19860784  0.00541814  0.50052220  1
  Zr  Zr78  1  0.00675262  0.40084798  0.75945646  1
  Zr  Zr79  1  0.39817599  0.21753822  0.76028642  1
  Ta  Ta80  1  -0.00728452  0.40473614  0.24524617  1
  Ta  Ta81  1  0.28849935  0.11675004  0.87800628  1
  Ta  Ta82  1  0.51347143  0.11523096  0.87673292  1
  Ta  Ta83  1  -0.00085339  -0.00733421  0.01855496  1
  Ta  Ta84  1  0.50756347  0.91348886  0.88637962  1
  Ta  Ta85  1  0.79286761  0.57947041  0.50327373  1
  Ta  Ta86  1  0.59772994  0.60664157  0.23718719  1
  Ta  Ta87  1  0.60441310  0.40382471  0.24634616  1
  Ta  Ta88  1  0.10012764  0.69914994  0.38234647  1
  Ta  Ta89  1  0.60975559  -0.00938976  0.50267319  1
  Ta  Ta90  1  -0.00305998  0.60899554  -0.01811828  1
  Ta  Ta91  1  0.21255191  0.78237778  0.00265133  1
  Ta  Ta92  1  0.59313022  0.79913653  0.23751874  1
  Ta  Ta93  1  0.29252775  0.71891906  0.38843371  1
  Ta  Ta94  1  0.00721834  0.78649207  0.25538297  1
  Ta  Ta95  1  -0.00160253  0.58825611  0.24949731  1
  Ta  Ta96  1  0.90573634  0.09790678  0.13169400  1
  Ta  Ta97  1  0.12161467  0.28494819  0.86995852  1
  Ta  Ta98  1  0.29836561  0.11564993  0.61974888  1
  Ta  Ta99  1  0.61354892  0.41324693  0.50541121  1
  Ta  Ta100  1  0.38225542  0.61926951  0.00532723  1
  Ta  Ta101  1  0.19248858  0.60514854  0.50201434  1
  Ta  Ta102  1  0.70446014  0.30297159  0.62103533  1
  Ta  Ta103  1  0.00751836  -0.00817227  0.23780062  1
  Ta  Ta104  1  0.50513597  0.90485278  0.61807392  1
  Ta  Ta105  1  -0.00420751  0.80127492  0.76056269  1
  Ta  Ta106  1  0.90046725  0.89223015  0.63079272  1
  Ta  Ta107  1  0.20425715  0.38542333  -0.00829188  1
  Ta  Ta108  1  0.49414104  0.52073166  0.87027165  1
  Ta  Ta109  1  0.60412200  0.80692723  0.76183025  1
  Ta  Ta110  1  0.50276355  0.29988777  0.14168248  1
  Ta  Ta111  1  0.80517773  -0.00971814  0.74539486  1
  Ta  Ta112  1  0.60750742  0.61096454  0.50534137  1
  Ta  Ta113  1  0.00375450  0.19689442  0.74670909  1
  Ta  Ta114  1  0.21012147  0.79138590  0.24792674  1
  Ta  Ta115  1  0.69970343  0.88200171  0.63125420  1
  Ta  Ta116  1  0.38697659  0.20076621  0.47205577  1
  Ta  Ta117  1  0.48182710  0.72172102  0.12426704  1
  Ta  Ta118  1  0.20490375  0.38284911  0.74852916  1
  Ta  Ta119  1  0.50421321  0.30537662  0.36904727  1
  Ti  Ti120  1  0.79572176  0.39682053  0.75027676  1
  Ti  Ti121  1  0.41079905  0.00015485  0.25944269  1
  Ti  Ti122  1  0.69423880  0.49389739  0.11356987  1
  Ti  Ti123  1  0.18405787  0.40559382  0.26582036  1
  Ti  Ti124  1  0.70497305  0.30647474  0.38063712  1
  Ti  Ti125  1  0.10950013  0.29605584  0.62609717  1
  Ti  Ti126  1  0.29447645  0.29535328  0.61494764  1
  Ti  Ti127  1  0.50511208  0.51444090  0.62276639  1
  Ti  Ti128  1  0.18874041  0.37427871  0.48786933  1
  Ti  Ti129  1  0.18214476  0.58923767  -0.01204808  1
  Ti  Ti130  1  0.50271608  0.10221061  0.12333028  1
  Ti  Ti131  1  0.69735053  0.70090011  0.12167949  1
  Ti  Ti132  1  0.79448846  0.79116070  0.24912338  1
  Ti  Ti133  1  0.00968806  0.79619744  -0.00650622  1
  Ti  Ti134  1  0.10236132  0.10638929  0.62411512  1
  Ti  Ti135  1  0.80092834  -0.00561601  0.00920376  1
  Ti  Ti136  1  0.90314770  0.89391910  0.36367784  1
  Ti  Ti137  1  0.61432532  0.01824493  -0.00073154  1
  Ti  Ti138  1  0.38726262  0.81401383  0.51110276  1
  Ti  Ti139  1  0.70842028  0.91220123  0.87444785  1
  Ti  Ti140  1  0.39978687  0.60990876  0.50161729  1
  Ti  Ti141  1  0.69507332  0.68319221  0.64679145  1
  Ti  Ti142  1  0.80642694  0.19903457  0.49710777  1
  Ti  Ti143  1  0.68930666  0.27958610  0.86697182  1
  Ti  Ti144  1  0.68914971  0.69402992  0.36760437  1
  Ti  Ti145  1  0.29529118  0.90604571  0.36313656  1
  Ti  Ti146  1  0.49596193  0.70701670  0.86736661  1
  Ti  Ti147  1  0.09370759  0.48676476  0.60798342  1
  Ti  Ti148  1  0.90610563  0.90077757  0.87805400  1
  Ti  Ti149  1  0.69873623  0.89750719  0.12124565  1
  Ti  Ti150  1  0.78421579  0.38180162  0.01274847  1
  Ti  Ti151  1  0.90460168  0.49750119  0.10715090  1
  Ti  Ti152  1  0.10718210  0.89540864  0.61612881  1
  Ti  Ti153  1  0.11019951  0.89123041  0.12830418  1
  Ti  Ti154  1  0.70733361  0.09211895  0.38272364  1
  Ti  Ti155  1  0.80327373  0.79475124  0.76294442  1
  Ti  Ti156  1  0.18285757  0.60147085  0.26099238  1
  Ti  Ti157  1  0.79247466  0.19014722  0.74754643  1
  Ti  Ti158  1  0.90466676  0.29665570  0.12226696  1
  Ti  Ti159  1  0.50521797  0.91362333  0.10943737  1
  Mo  Mo160  1  0.09648737  0.30040431  0.36107798  1
  Mo  Mo161  1  -0.00000471  0.21044597  0.24634072  1
  Mo  Mo162  1  0.40647108  0.60272634  0.74386775  1
  Mo  Mo163  1  0.21025846  0.19998482  0.49365103  1
  Mo  Mo164  1  0.20168407  0.80333358  0.49762639  1
  Mo  Mo165  1  0.58760542  0.59973774  0.75234188  1
  Mo  Mo166  1  0.51428474  0.31813488  0.87252285  1
  Mo  Mo167  1  0.41993031  0.01215891  -0.00396479  1
  Mo  Mo168  1  0.21311008  0.21511392  0.25160985  1
  Mo  Mo169  1  0.89644028  0.70871617  0.87669823  1
  Mo  Mo170  1  0.00024342  -0.00417177  0.52076873  1
  Mo  Mo171  1  0.10117163  0.70327138  0.88304135  1
  Mo  Mo172  1  0.19769453  0.19939666  0.74233348  1
  Mo  Mo173  1  0.69665004  0.30288835  0.12817927  1
  Mo  Mo174  1  0.30266072  0.90956384  0.62001113  1
  Mo  Mo175  1  0.50900158  0.09788254  0.37832962  1
  Mo  Mo176  1  0.40246546  0.81050040  0.25249247  1
  Mo  Mo177  1  0.30964143  0.09261455  0.35337854  1
  Mo  Mo178  1  0.28685006  0.29269903  0.36844309  1
  Mo  Mo179  1  0.70062813  0.09785314  0.87389418  1
  Mo  Mo180  1  0.10170163  0.49102107  0.87468211  1
  Mo  Mo181  1  0.20252328  0.20347735  0.00333673  1
  Mo  Mo182  1  0.79536025  0.38930656  0.50413405  1
  Mo  Mo183  1  0.79658475  0.59376510  0.01474582  1
  Mo  Mo184  1  0.30518790  0.30281938  0.87217402  1
  Mo  Mo185  1  0.60576251  0.20501315  0.75002842  1
  Mo  Mo186  1  0.90634519  0.09764396  0.63064627  1
  Mo  Mo187  1  0.69670437  0.08840208  0.12225528  1
  Mo  Mo188  1  0.89040859  0.49768665  0.37859871  1
  Mo  Mo189  1  -0.01040227  0.60134356  0.50556859  1
  Mo  Mo190  1  0.59605668  0.79834018  0.50976960  1
  Mo  Mo191  1  0.69950825  0.50236500  0.62711894  1
  Mo  Mo192  1  0.59404541  0.39855767  0.00763417  1
  Mo  Mo193  1  0.08946776  0.50202839  0.12438482  1
  Mo  Mo194  1  -0.00102708  0.39265206  0.51240188  1
  Mo  Mo195  1  0.40909744  0.80006620  -0.00827019  1
  Mo  Mo196  1  0.78508671  0.58669771  0.74971339  1
  Mo  Mo197  1  0.41306285  0.19431295  0.26918997  1
  Mo  Mo198  1  0.20690997  -0.01314579  0.23764481  1
  Mo  Mo199  1  0.29272080  0.69846591  0.12204706  1
