# generated using pymatgen
data_HfZrTaTiMo
_symmetry_space_group_name_H-M   'P 1'
_cell_length_a   15.21081239
_cell_length_b   15.22806298
_cell_length_c   16.87194217
_cell_angle_alpha   90.03707578
_cell_angle_beta   89.94923909
_cell_angle_gamma   90.08193861
_symmetry_Int_Tables_number   1
_chemical_formula_structural   HfZrTaTiMo
_chemical_formula_sum   'Hf40 Zr40 Ta40 Ti40 Mo40'
_cell_volume   3908.06202046
_cell_formula_units_Z   40
loop_
 _symmetry_equiv_pos_site_id
 _symmetry_equiv_pos_as_xyz
  1  'x, y, z'
loop_
 _atom_site_type_symbol
 _atom_site_label
 _atom_site_symmetry_multiplicity
 _atom_site_fract_x
 _atom_site_fract_y
 _atom_site_fract_z
 _atom_site_occupancy
  Hf  Hf0  1  0.31370324  0.89682306  0.62351364  1
  Hf  Hf1  1  0.50522095  0.29524389  0.11963638  1
  Hf  Hf2  1  0.78352985  0.59542037  0.49343335  1
  Hf  Hf3  1  0.90486032  0.08272227  0.62865264  1
  Hf  Hf4  1  0.50177697  0.51285805  0.12269044  1
  Hf  Hf5  1  0.31296916  0.07101028  0.36369456  1
  Hf  Hf6  1  0.80436220  0.80809116  0.25475934  1
  Hf  Hf7  1  0.70573631  0.30295408  0.87743177  1
  Hf  Hf8  1  -0.00210902  0.20129298  0.50396581  1
  Hf  Hf9  1  0.49529487  0.10858361  0.86953069  1
  Hf  Hf10  1  0.57487295  0.59646702  0.47789671  1
  Hf  Hf11  1  0.59519800  -0.02018571  0.74863253  1
  Hf  Hf12  1  0.21305303  -0.00179461  0.49827318  1
  Hf  Hf13  1  0.87913146  0.71355807  0.62167947  1
  Hf  Hf14  1  0.81569136  0.39926188  0.74199939  1
  Hf  Hf15  1  0.10018468  0.70039639  0.36445945  1
  Hf  Hf16  1  0.21045889  0.78682668  0.50127085  1
  Hf  Hf17  1  0.50349045  0.30355391  0.38636330  1
  Hf  Hf18  1  0.20911194  0.60502751  0.76538944  1
  Hf  Hf19  1  0.00823589  0.79995770  0.23258378  1
  Hf  Hf20  1  0.30639916  0.29700208  0.61657836  1
  Hf  Hf21  1  0.80652740  0.39373588  0.51631377  1
  Hf  Hf22  1  0.19690341  0.38790868  0.76823314  1
  Hf  Hf23  1  0.91537341  0.90042461  0.39367992  1
  Hf  Hf24  1  0.09414386  0.49597441  0.88594981  1
  Hf  Hf25  1  0.10576805  0.50415872  0.11475077  1
  Hf  Hf26  1  -0.00445660  0.20323161  0.25116775  1
  Hf  Hf27  1  0.90638546  0.49972724  0.36982013  1
  Hf  Hf28  1  0.88370574  0.69714965  0.89078602  1
  Hf  Hf29  1  -0.01435844  0.81374975  0.75159259  1
  Hf  Hf30  1  0.91830082  0.29794088  0.87932322  1
  Hf  Hf31  1  0.40520896  0.39955405  -0.00137353  1
  Hf  Hf32  1  0.30505228  0.71765293  0.89126132  1
  Hf  Hf33  1  0.20952037  0.20449516  0.26109233  1
  Hf  Hf34  1  0.11200063  0.10367360  0.62506624  1
  Hf  Hf35  1  0.79715026  0.19266638  0.25098301  1
  Hf  Hf36  1  0.59354750  0.79799092  0.48597701  1
  Hf  Hf37  1  0.21064299  0.42572732  0.24786106  1
  Hf  Hf38  1  0.09982897  0.11674139  0.86830186  1
  Hf  Hf39  1  0.37241613  0.60707767  0.24343371  1
  Zr  Zr40  1  0.11834964  0.09678012  0.14090948  1
  Zr  Zr41  1  0.31470599  0.50962060  0.63118470  1
  Zr  Zr42  1  0.58684008  -0.01615787  -0.00692928  1
  Zr  Zr43  1  0.18856958  0.58878073  0.49425458  1
  Zr  Zr44  1  0.08776413  0.69721645  0.62596001  1
  Zr  Zr45  1  0.79324442  0.19899881  0.73285426  1
  Zr  Zr46  1  0.60455191  0.19965823  0.25002623  1
  Zr  Zr47  1  0.60221249  0.40469642  0.24724232  1
  Zr  Zr48  1  0.00909471  0.22632546  0.73518371  1
  Zr  Zr49  1  0.10285832  0.89412751  0.88286667  1
  Zr  Zr50  1  -0.00852509  -0.00874095  0.24602898  1
  Zr  Zr51  1  0.69922727  0.09173720  0.86302156  1
  Zr  Zr52  1  0.20713610  0.20177272  0.48393725  1
  Zr  Zr53  1  0.47265369  0.70592099  0.61760514  1
  Zr  Zr54  1  0.90535209  0.51221506  0.62670477  1
  Zr  Zr55  1  0.77367611  0.60208872  0.75188790  1
  Zr  Zr56  1  0.40857109  0.81435856  0.75978459  1
  Zr  Zr57  1  0.89243421  0.09828815  0.12368134  1
  Zr  Zr58  1  0.10019288  0.31672300  0.36713883  1
  Zr  Zr59  1  0.68695877  0.09770993  0.12105809  1
  Zr  Zr60  1  0.58425005  0.80832748  0.26812217  1
  Zr  Zr61  1  0.01430343  0.41442944  0.49987864  1
  Zr  Zr62  1  0.08920240  0.90154053  0.61556124  1
  Zr  Zr63  1  0.89247641  0.88956091  0.88727466  1
  Zr  Zr64  1  0.10719449  0.49366947  0.64200452  1
  Zr  Zr65  1  0.80037830  0.59145972  0.24731830  1
  Zr  Zr66  1  0.78871058  -0.00695773  -0.00308997  1
  Zr  Zr67  1  0.40834936  0.40206149  0.76136825  1
  Zr  Zr68  1  0.19752666  -0.00638802  0.75098913  1
  Zr  Zr69  1  0.90437286  0.09015207  0.85647114  1
  Zr  Zr70  1  0.70308483  0.29444637  0.38593369  1
  Zr  Zr71  1  -0.00640460  0.60222224  0.76718041  1
  Zr  Zr72  1  0.41107856  0.19005358  0.25102001  1
  Zr  Zr73  1  0.20640779  0.01480105  0.00086019  1
  Zr  Zr74  1  0.49937332  0.30770000  0.61873627  1
  Zr  Zr75  1  0.68191110  0.69500721  0.14700727  1
  Zr  Zr76  1  0.22006270  0.80509431  0.23196350  1
  Zr  Zr77  1  0.89659254  0.29600714  0.37756015  1
  Zr  Zr78  1  0.00260421  -0.00243167  0.01159566  1
  Zr  Zr79  1  0.20642476  0.39290219  -0.00269698  1
  Ta  Ta80  1  0.80489405  0.19970919  -0.00429326  1
  Ta  Ta81  1  0.67622794  0.68327812  0.61674983  1
  Ta  Ta82  1  0.89815341  0.69313695  0.11655012  1
  Ta  Ta83  1  0.70455497  0.50526518  0.89305731  1
  Ta  Ta84  1  0.69734650  0.69625144  0.36515920  1
  Ta  Ta85  1  0.58671837  0.00346595  0.25655607  1
  Ta  Ta86  1  0.31240151  0.50859936  0.88478011  1
  Ta  Ta87  1  0.00814418  0.59727005  0.23753536  1
  Ta  Ta88  1  0.59740619  0.19891236  -0.00312744  1
  Ta  Ta89  1  0.51196386  0.51403648  0.88326024  1
  Ta  Ta90  1  0.60848616  0.61606770  0.00390386  1
  Ta  Ta91  1  0.69697761  0.49244443  0.37067612  1
  Ta  Ta92  1  0.70672788  0.88299197  0.61327308  1
  Ta  Ta93  1  0.61275317  0.41538369  0.75458123  1
  Ta  Ta94  1  0.00194394  0.38914900  0.00866404  1
  Ta  Ta95  1  0.68951632  0.08110962  0.62226228  1
  Ta  Ta96  1  0.70914136  0.30123473  0.11096813  1
  Ta  Ta97  1  0.68809104  0.86578369  0.87246937  1
  Ta  Ta98  1  0.39077750  -0.01356712  -0.00986115  1
  Ta  Ta99  1  0.22495932  0.19673298  0.74625291  1
  Ta  Ta100  1  0.20158313  0.79379549  0.74909918  1
  Ta  Ta101  1  0.21793060  0.81691977  0.01828807  1
  Ta  Ta102  1  0.51627928  0.51278375  0.63013978  1
  Ta  Ta103  1  0.77412538  0.78404275  0.01327384  1
  Ta  Ta104  1  0.30240711  0.29941101  0.12957587  1
  Ta  Ta105  1  0.51730665  0.71516260  0.88203928  1
  Ta  Ta106  1  0.39408718  0.18957588  0.00698318  1
  Ta  Ta107  1  0.09351232  0.08790006  0.37062210  1
  Ta  Ta108  1  0.89784214  0.89825191  0.59970115  1
  Ta  Ta109  1  0.79432650  0.18916484  0.51903887  1
  Ta  Ta110  1  0.21578905  0.40693137  0.48802796  1
  Ta  Ta111  1  0.48964232  0.10215679  0.62986087  1
  Ta  Ta112  1  0.80326950  0.39356434  0.23941860  1
  Ta  Ta113  1  0.70564977  0.49427351  0.11057750  1
  Ta  Ta114  1  0.48355221  0.92238778  0.38913085  1
  Ta  Ta115  1  0.39417124  0.01417776  0.75198252  1
  Ta  Ta116  1  0.69283097  0.09177009  0.39089205  1
  Ta  Ta117  1  0.60569995  0.41076627  0.50187421  1
  Ta  Ta118  1  0.69015303  0.90021926  0.13454303  1
  Ta  Ta119  1  0.89193831  0.49216716  0.89291502  1
  Ti  Ti120  1  0.11011013  0.30818110  0.61676149  1
  Ti  Ti121  1  0.30160397  0.10279716  0.87291512  1
  Ti  Ti122  1  0.40823816  0.42522971  0.49207195  1
  Ti  Ti123  1  0.40061482  0.18239038  0.49119469  1
  Ti  Ti124  1  0.78784426  -0.00170352  0.25775959  1
  Ti  Ti125  1  0.59568837  0.19279952  0.50880618  1
  Ti  Ti126  1  0.48873848  0.88537616  0.12658023  1
  Ti  Ti127  1  0.01065398  0.19892587  0.00732026  1
  Ti  Ti128  1  0.10340877  0.30038658  0.13212479  1
  Ti  Ti129  1  0.89072918  0.09150043  0.38961797  1
  Ti  Ti130  1  -0.00805380  0.61366525  0.49293205  1
  Ti  Ti131  1  0.89135526  0.88891290  0.11443384  1
  Ti  Ti132  1  0.60489572  0.40125507  -0.00280632  1
  Ti  Ti133  1  0.11614583  0.90067762  0.37464053  1
  Ti  Ti134  1  0.40838416  0.61582776  0.00609266  1
  Ti  Ti135  1  0.21287084  0.60415060  0.00444268  1
  Ti  Ti136  1  0.70060968  0.90910769  0.38585220  1
  Ti  Ti137  1  0.10567774  0.70432005  0.11134550  1
  Ti  Ti138  1  0.90113921  0.70013461  0.36944581  1
  Ti  Ti139  1  0.46504497  0.71380680  0.37375568  1
  Ti  Ti140  1  0.09757277  0.70730214  0.89500147  1
  Ti  Ti141  1  0.79608639  0.79068341  0.48509638  1
  Ti  Ti142  1  0.31413299  0.31252752  0.37470087  1
  Ti  Ti143  1  0.30785828  0.28875480  0.87908928  1
  Ti  Ti144  1  0.80219659  -0.03232939  0.74316890  1
  Ti  Ti145  1  0.50833298  0.90860395  0.60857301  1
  Ti  Ti146  1  0.20398788  0.20570581  0.00677187  1
  Ti  Ti147  1  0.50507562  0.30293723  0.87752126  1
  Ti  Ti148  1  0.60890764  0.78289022  0.74144795  1
  Ti  Ti149  1  0.59125311  0.20620804  0.74404072  1
  Ti  Ti150  1  0.89771006  0.49398474  0.11268630  1
  Ti  Ti151  1  0.40220234  0.40646634  0.24854111  1
  Ti  Ti152  1  0.90059373  0.29930267  0.11861443  1
  Ti  Ti153  1  -0.00184953  0.40608536  0.23716815  1
  Ti  Ti154  1  0.69208862  0.30159192  0.62504489  1
  Ti  Ti155  1  0.37601555  0.61097804  0.48679053  1
  Ti  Ti156  1  0.57756958  0.59824183  0.26899084  1
  Ti  Ti157  1  0.40932771  0.61002793  0.76220196  1
  Ti  Ti158  1  -0.00282337  0.60100426  0.00328307  1
  Ti  Ti159  1  0.48514974  0.08079292  0.12017321  1
  Mo  Mo160  1  0.40506494  0.00483207  0.50806195  1
  Mo  Mo161  1  0.69495457  0.69261446  0.87919915  1
  Mo  Mo162  1  0.30605417  0.50365015  0.10758672  1
  Mo  Mo163  1  0.31149964  0.10373333  0.13084576  1
  Mo  Mo164  1  0.30899915  0.10334496  0.62420474  1
  Mo  Mo165  1  0.09500767  0.50845611  0.35975947  1
  Mo  Mo166  1  -0.00834560  -0.00099223  0.74750881  1
  Mo  Mo167  1  0.29289115  0.69846508  0.63572784  1
  Mo  Mo168  1  0.39718870  0.80180791  0.49896698  1
  Mo  Mo169  1  0.48738148  0.49841069  0.36856323  1
  Mo  Mo170  1  0.29977019  0.90618725  0.87080438  1
  Mo  Mo171  1  0.50854358  0.10084947  0.38193415  1
  Mo  Mo172  1  0.40359092  -0.01790144  0.24530595  1
  Mo  Mo173  1  0.00950590  0.00444908  0.49024761  1
  Mo  Mo174  1  0.30894988  0.92207364  0.12692973  1
  Mo  Mo175  1  0.29122235  0.70469019  0.36921058  1
  Mo  Mo176  1  0.00107995  0.79372252  0.01766997  1
  Mo  Mo177  1  0.19100539  0.60899155  0.23387360  1
  Mo  Mo178  1  0.80469611  0.39159187  0.00264707  1
  Mo  Mo179  1  -0.00010605  0.79189179  0.49219393  1
  Mo  Mo180  1  0.58656839  0.59961929  0.75588943  1
  Mo  Mo181  1  0.40370140  0.80533269  0.24800381  1
  Mo  Mo182  1  0.31259477  0.70765651  0.10557897  1
  Mo  Mo183  1  0.80036684  0.59540785  0.01213429  1
  Mo  Mo184  1  0.78699275  0.79872698  0.74139787  1
  Mo  Mo185  1  0.68991373  0.49724398  0.62220686  1
  Mo  Mo186  1  0.40311238  0.20497103  0.75337613  1
  Mo  Mo187  1  0.79747372  -0.00218630  0.50189296  1
  Mo  Mo188  1  0.90351299  0.29776928  0.61939751  1
  Mo  Mo189  1  0.59323861  0.79865729  0.01083689  1
  Mo  Mo190  1  0.29912317  0.50266337  0.37278696  1
  Mo  Mo191  1  0.20099163  -0.00347644  0.25503414  1
  Mo  Mo192  1  0.50009216  0.90260442  0.87062192  1
  Mo  Mo193  1  0.41192895  0.81022933  -0.00269697  1
  Mo  Mo194  1  0.60111899  0.00216760  0.50820285  1
  Mo  Mo195  1  0.00201346  0.40513404  0.75762902  1
  Mo  Mo196  1  0.49376828  0.70309501  0.12884101  1
  Mo  Mo197  1  0.30841848  0.88037835  0.37945691  1
  Mo  Mo198  1  0.10121774  0.89829297  0.11817608  1
  Mo  Mo199  1  0.10992513  0.29223556  0.88228273  1
