# generated using pymatgen
data_HfZrTaTiMo
_symmetry_space_group_name_H-M   'P 1'
_cell_length_a   15.21398979
_cell_length_b   15.22874231
_cell_length_c   16.83381277
_cell_angle_alpha   90.02317541
_cell_angle_beta   89.95644466
_cell_angle_gamma   89.98151152
_symmetry_Int_Tables_number   1
_chemical_formula_structural   HfZrTaTiMo
_chemical_formula_sum   'Hf40 Zr40 Ta40 Ti40 Mo40'
_cell_volume   3900.22325521
_cell_formula_units_Z   40
loop_
 _symmetry_equiv_pos_site_id
 _symmetry_equiv_pos_as_xyz
  1  'x, y, z'
loop_
 _atom_site_type_symbol
 _atom_site_label
 _atom_site_symmetry_multiplicity
 _atom_site_fract_x
 _atom_site_fract_y
 _atom_site_fract_z
 _atom_site_occupancy
  Hf  Hf0  1  0.50500706  0.90219649  0.37041040  1
  Hf  Hf1  1  0.40294471  0.20830027  0.26273877  1
  Hf  Hf2  1  0.79288342  0.01693037  0.49617273  1
  Hf  Hf3  1  0.19249458  -0.00313902  0.48867872  1
  Hf  Hf4  1  0.12201150  0.31530090  0.11157905  1
  Hf  Hf5  1  0.58812945  0.38008923  -0.01088401  1
  Hf  Hf6  1  0.29738542  0.69751613  0.13541106  1
  Hf  Hf7  1  0.68567530  0.49058736  0.13134451  1
  Hf  Hf8  1  -0.00381471  0.01001477  0.48402856  1
  Hf  Hf9  1  0.39031812  0.59540683  -0.00609535  1
  Hf  Hf10  1  0.80616100  0.39339687  0.24017228  1
  Hf  Hf11  1  -0.00285704  0.81174689  0.76520842  1
  Hf  Hf12  1  0.60473727  0.59903029  0.75611616  1
  Hf  Hf13  1  0.40554382  0.60354008  0.25545096  1
  Hf  Hf14  1  0.89158231  0.70961181  0.12673284  1
  Hf  Hf15  1  0.11418086  0.30441892  0.88222190  1
  Hf  Hf16  1  0.18968617  0.00232826  0.24714831  1
  Hf  Hf17  1  0.80105635  0.56983845  0.51265062  1
  Hf  Hf18  1  0.31678282  0.29955801  0.87251178  1
  Hf  Hf19  1  -0.01291652  0.01286051  0.24964725  1
  Hf  Hf20  1  0.70005947  0.70140907  0.37278951  1
  Hf  Hf21  1  0.39480220  0.40853784  0.27070819  1
  Hf  Hf22  1  0.79474530  0.79315944  0.75087116  1
  Hf  Hf23  1  0.60740777  0.20362216  0.74849788  1
  Hf  Hf24  1  0.61101539  0.80244476  0.24469414  1
  Hf  Hf25  1  0.59799651  0.80189010  0.50992706  1
  Hf  Hf26  1  0.60900862  0.60447251  0.51218744  1
  Hf  Hf27  1  0.09524697  0.51220029  0.87577256  1
  Hf  Hf28  1  -0.01573065  0.01540009  0.76317014  1
  Hf  Hf29  1  0.70547052  0.91203487  0.63194273  1
  Hf  Hf30  1  0.69927218  0.88695822  0.10493068  1
  Hf  Hf31  1  0.30252189  0.90574873  0.87144983  1
  Hf  Hf32  1  0.79638967  0.59399824  0.00069500  1
  Hf  Hf33  1  0.21371487  0.40003914  0.51665400  1
  Hf  Hf34  1  0.80216818  0.19216987  0.02016146  1
  Hf  Hf35  1  0.59126556  0.00598712  0.50223591  1
  Hf  Hf36  1  0.20742297  0.20013677  0.73002115  1
  Hf  Hf37  1  0.19956758  0.19202620  0.50917737  1
  Hf  Hf38  1  0.81729592  0.19265282  0.23204266  1
  Hf  Hf39  1  0.71708118  0.09421684  0.87321173  1
  Zr  Zr40  1  0.69791096  0.09207825  0.35337316  1
  Zr  Zr41  1  0.42150193  0.20582108  0.00460845  1
  Zr  Zr42  1  0.20301857  0.60403648  0.48773561  1
  Zr  Zr43  1  0.20949974  0.40977724  0.73214874  1
  Zr  Zr44  1  0.20171773  0.81234816  -0.00109161  1
  Zr  Zr45  1  0.00107452  0.79566222  -0.00822059  1
  Zr  Zr46  1  0.40215703  0.20885389  0.48344421  1
  Zr  Zr47  1  0.89308576  0.69155055  0.87924094  1
  Zr  Zr48  1  0.90210408  0.27919451  0.87463298  1
  Zr  Zr49  1  0.60088489  0.79846351  0.75260224  1
  Zr  Zr50  1  -0.00317591  0.59299772  0.26125955  1
  Zr  Zr51  1  0.40039845  0.79899361  0.75194460  1
  Zr  Zr52  1  0.28729658  0.92825231  0.63908010  1
  Zr  Zr53  1  0.00006061  0.60418922  0.74724884  1
  Zr  Zr54  1  0.00036380  0.39865065  0.74344845  1
  Zr  Zr55  1  0.18743370  0.80201070  0.75746151  1
  Zr  Zr56  1  0.09555918  0.69978184  0.14061282  1
  Zr  Zr57  1  0.00169076  0.00156249  0.00638185  1
  Zr  Zr58  1  0.09384336  0.71575703  0.61573924  1
  Zr  Zr59  1  0.79644855  0.80016164  0.50483247  1
  Zr  Zr60  1  0.50530356  0.90930333  0.88819969  1
  Zr  Zr61  1  0.48062023  0.10584617  0.63030090  1
  Zr  Zr62  1  0.39349460  0.80818994  0.50681530  1
  Zr  Zr63  1  0.62355785  0.39768681  0.50194289  1
  Zr  Zr64  1  0.39691356  0.00879534  0.01309548  1
  Zr  Zr65  1  0.31513314  0.30681188  0.12753649  1
  Zr  Zr66  1  0.49434842  0.50141100  0.62625904  1
  Zr  Zr67  1  0.18703401  0.60843232  -0.00323416  1
  Zr  Zr68  1  0.89703779  0.69036893  0.37941568  1
  Zr  Zr69  1  0.91602733  0.91002313  0.62207652  1
  Zr  Zr70  1  0.59428448  0.58632805  -0.01333606  1
  Zr  Zr71  1  0.48845469  0.49390204  0.12726698  1
  Zr  Zr72  1  0.29996699  0.09656504  0.86514075  1
  Zr  Zr73  1  0.79059591  0.38987541  0.00600486  1
  Zr  Zr74  1  0.40094591  0.59862529  0.48974173  1
  Zr  Zr75  1  0.00527586  0.19678485  0.01924300  1
  Zr  Zr76  1  0.89915986  0.69501859  0.61728144  1
  Zr  Zr77  1  0.01020275  0.39440807  0.24309081  1
  Zr  Zr78  1  0.29556020  0.68532839  0.63377447  1
  Zr  Zr79  1  0.29773758  0.89995759  0.36124250  1
  Ta  Ta80  1  0.89968796  0.47514355  0.38078846  1
  Ta  Ta81  1  0.08200169  0.29680396  0.38948421  1
  Ta  Ta82  1  0.40993712  0.80475424  0.23556796  1
  Ta  Ta83  1  0.30296647  0.70853303  0.36018120  1
  Ta  Ta84  1  0.50129271  0.09813841  0.36215919  1
  Ta  Ta85  1  0.50951329  0.30016259  0.61723511  1
  Ta  Ta86  1  0.51647116  0.50210688  0.37720066  1
  Ta  Ta87  1  0.69514222  0.08139568  0.13726284  1
  Ta  Ta88  1  0.00961018  0.20309199  0.23133816  1
  Ta  Ta89  1  0.80109250  0.39011956  0.74249763  1
  Ta  Ta90  1  0.49364461  0.90931501  0.63280860  1
  Ta  Ta91  1  0.40080684  0.79598543  0.00771991  1
  Ta  Ta92  1  0.87717895  0.90547278  0.36571722  1
  Ta  Ta93  1  0.19651052  0.80791416  0.49607615  1
  Ta  Ta94  1  0.28319421  0.49350725  0.12558926  1
  Ta  Ta95  1  0.21353923  0.19369969  0.00430684  1
  Ta  Ta96  1  0.10943858  0.70909949  0.36596738  1
  Ta  Ta97  1  0.49201300  0.48473670  0.86328783  1
  Ta  Ta98  1  0.69942894  0.89743916  0.89381323  1
  Ta  Ta99  1  0.40838474  0.38467536  0.74117595  1
  Ta  Ta100  1  0.09235140  0.29762459  0.61449198  1
  Ta  Ta101  1  0.51130406  0.10839423  0.14231586  1
  Ta  Ta102  1  0.27278347  0.30908960  0.37244651  1
  Ta  Ta103  1  0.60936984  0.39911114  0.74687078  1
  Ta  Ta104  1  0.00755515  0.81338592  0.47742124  1
  Ta  Ta105  1  0.60142270  0.00189808  0.75074322  1
  Ta  Ta106  1  0.88683323  0.48935224  0.87465084  1
  Ta  Ta107  1  0.09009752  0.08618754  0.62748826  1
  Ta  Ta108  1  0.60064695  0.59783917  0.25126825  1
  Ta  Ta109  1  -0.00279648  0.40927842  0.00084401  1
  Ta  Ta110  1  0.90314690  0.50500141  0.12032999  1
  Ta  Ta111  1  -0.00336593  0.81138596  0.26263060  1
  Ta  Ta112  1  0.30120004  0.10586506  0.13861685  1
  Ta  Ta113  1  0.10657792  0.48388810  0.38400855  1
  Ta  Ta114  1  0.71956978  0.28188191  0.62320267  1
  Ta  Ta115  1  0.48979696  0.69850842  0.88028652  1
  Ta  Ta116  1  0.29676066  0.10441588  0.36239167  1
  Ta  Ta117  1  0.79408946  0.59711108  0.24582815  1
  Ta  Ta118  1  0.10017916  0.51174182  0.61861031  1
  Ta  Ta119  1  0.20326800  0.58180775  0.26360999  1
  Ti  Ti120  1  -0.00984569  0.40280022  0.51150396  1
  Ti  Ti121  1  0.87191307  0.11157563  0.63131316  1
  Ti  Ti122  1  0.50812969  0.70126050  0.11659392  1
  Ti  Ti123  1  0.50160109  0.10784151  0.86610020  1
  Ti  Ti124  1  0.10572407  0.91978712  0.87852772  1
  Ti  Ti125  1  0.50198804  0.70446173  0.37333609  1
  Ti  Ti126  1  0.51105028  0.30481812  0.14462864  1
  Ti  Ti127  1  0.29853924  0.90016372  0.13285066  1
  Ti  Ti128  1  0.09984753  0.11032062  0.87344059  1
  Ti  Ti129  1  0.89950959  0.12233965  0.37202818  1
  Ti  Ti130  1  -0.02238518  0.20445565  0.51012918  1
  Ti  Ti131  1  0.50756519  0.90723411  0.11464311  1
  Ti  Ti132  1  0.00380625  0.59627972  0.49121352  1
  Ti  Ti133  1  0.09597729  0.89659367  0.13268009  1
  Ti  Ti134  1  0.61324199  0.19529416  0.49859762  1
  Ti  Ti135  1  0.69270677  0.70512446  0.88990839  1
  Ti  Ti136  1  0.29318991  0.49519848  0.87094015  1
  Ti  Ti137  1  0.70666618  0.49351886  0.36721277  1
  Ti  Ti138  1  0.72249195  0.29680136  0.37217089  1
  Ti  Ti139  1  0.19371542  0.21062569  0.24925121  1
  Ti  Ti140  1  0.10033440  0.50709993  0.11794844  1
  Ti  Ti141  1  0.68504817  0.28497563  0.13608617  1
  Ti  Ti142  1  0.80451616  0.00258720  0.00735230  1
  Ti  Ti143  1  0.50054659  0.70269962  0.63174625  1
  Ti  Ti144  1  0.70361354  0.30034521  0.86921303  1
  Ti  Ti145  1  0.09870659  0.11433162  0.36950262  1
  Ti  Ti146  1  0.19597021  0.01014262  0.01659518  1
  Ti  Ti147  1  0.28945678  0.69366382  0.86876429  1
  Ti  Ti148  1  0.60796058  0.18573163  -0.00212477  1
  Ti  Ti149  1  0.89067364  0.90083285  0.13353362  1
  Ti  Ti150  1  0.39441292  0.40290342  -0.00455194  1
  Ti  Ti151  1  0.38924923  0.01106059  0.49407841  1
  Ti  Ti152  1  0.69705363  0.69588057  0.11752840  1
  Ti  Ti153  1  0.40569759  0.39885321  0.49024606  1
  Ti  Ti154  1  0.79449821  0.58304418  0.73797001  1
  Ti  Ti155  1  0.88260690  0.91003619  0.88141948  1
  Ti  Ti156  1  0.40430355  0.00008726  0.24232311  1
  Ti  Ti157  1  0.39037937  0.58886841  0.75688929  1
  Ti  Ti158  1  -0.00172409  0.20249259  0.74182158  1
  Ti  Ti159  1  0.52780512  0.30113737  0.37027556  1
  Mo  Mo160  1  0.69683560  0.69518163  0.63045048  1
  Mo  Mo161  1  0.90895082  0.29441596  0.37263535  1
  Mo  Mo162  1  -0.01015661  0.59127216  0.00137952  1
  Mo  Mo163  1  0.09075856  0.90327537  0.36541878  1
  Mo  Mo164  1  0.40554025  0.00773161  0.75535412  1
  Mo  Mo165  1  0.90658897  0.48950719  0.62345319  1
  Mo  Mo166  1  0.89969338  0.08882681  0.12983215  1
  Mo  Mo167  1  0.90546577  0.29243003  0.62867072  1
  Mo  Mo168  1  0.32118275  0.29521503  0.62006489  1
  Mo  Mo169  1  0.18140337  0.00824805  0.75232777  1
  Mo  Mo170  1  0.79583977  0.20281272  0.49373740  1
  Mo  Mo171  1  0.40712532  0.20450179  0.74682103  1
  Mo  Mo172  1  0.90453863  0.09724127  0.88201027  1
  Mo  Mo173  1  0.79272171  -0.00246744  0.75642876  1
  Mo  Mo174  1  0.09050628  0.90799685  0.62091182  1
  Mo  Mo175  1  0.79799816  0.80197957  -0.00429072  1
  Mo  Mo176  1  0.29365599  0.10450556  0.62366943  1
  Mo  Mo177  1  0.59087436  -0.00894596  0.24339158  1
  Mo  Mo178  1  0.70504026  0.49336977  0.86207904  1
  Mo  Mo179  1  0.70495711  0.48797923  0.63609096  1
  Mo  Mo180  1  0.20020631  0.60089597  0.75360476  1
  Mo  Mo181  1  0.50979893  0.29510327  0.87013884  1
  Mo  Mo182  1  0.30329561  0.49836914  0.37733058  1
  Mo  Mo183  1  0.90637872  0.30675877  0.11708840  1
  Mo  Mo184  1  0.09917909  0.70798027  0.87565488  1
  Mo  Mo185  1  0.80951698  0.19166018  0.75280816  1
  Mo  Mo186  1  0.20063794  0.79849838  0.24682455  1
  Mo  Mo187  1  0.81251588  0.38058241  0.50208572  1
  Mo  Mo188  1  0.80240087  0.79225790  0.24841497  1
  Mo  Mo189  1  0.30539972  0.49892359  0.62876922  1
  Mo  Mo190  1  0.79241906  -0.02063695  0.24344061  1
  Mo  Mo191  1  0.60117055  0.01358902  0.00254400  1
  Mo  Mo192  1  0.20812920  0.40485942  -0.00787596  1
  Mo  Mo193  1  0.19472484  0.39935646  0.25586577  1
  Mo  Mo194  1  0.11332190  0.10238377  0.12918033  1
  Mo  Mo195  1  0.60639727  0.39837394  0.26373863  1
  Mo  Mo196  1  0.59043189  0.79149556  0.00051772  1
  Mo  Mo197  1  0.69705453  0.89785214  0.37310722  1
  Mo  Mo198  1  0.69209072  0.10177102  0.62833247  1
  Mo  Mo199  1  0.60797912  0.20327267  0.25534395  1
