# generated using pymatgen
data_HfZrTaTiMo
_symmetry_space_group_name_H-M   'P 1'
_cell_length_a   15.20695855
_cell_length_b   15.19612448
_cell_length_c   16.81073201
_cell_angle_alpha   90.03885363
_cell_angle_beta   90.01347143
_cell_angle_gamma   90.01877545
_symmetry_Int_Tables_number   1
_chemical_formula_structural   HfZrTaTiMo
_chemical_formula_sum   'Hf40 Zr40 Ta40 Ti40 Mo40'
_cell_volume   3884.73764491
_cell_formula_units_Z   40
loop_
 _symmetry_equiv_pos_site_id
 _symmetry_equiv_pos_as_xyz
  1  'x, y, z'
loop_
 _atom_site_type_symbol
 _atom_site_label
 _atom_site_symmetry_multiplicity
 _atom_site_fract_x
 _atom_site_fract_y
 _atom_site_fract_z
 _atom_site_occupancy
  Hf  Hf0  1  0.88896731  0.89086526  0.11876371  1
  Hf  Hf1  1  0.50470467  0.89636549  0.62940181  1
  Hf  Hf2  1  0.00441325  0.39435253  0.00943001  1
  Hf  Hf3  1  0.80801270  0.39928929  0.25912074  1
  Hf  Hf4  1  0.81151904  0.61004261  -0.01567722  1
  Hf  Hf5  1  0.10539442  0.47980494  0.63374173  1
  Hf  Hf6  1  0.19981139  0.38603030  0.49116097  1
  Hf  Hf7  1  0.81006584  -0.00023027  0.73430125  1
  Hf  Hf8  1  0.49888980  0.93332134  0.37914758  1
  Hf  Hf9  1  0.39962884  0.79836990  0.26551385  1
  Hf  Hf10  1  0.50878591  0.10556784  0.89399505  1
  Hf  Hf11  1  0.89628812  0.89756373  0.38104590  1
  Hf  Hf12  1  0.29695039  0.48152459  0.36080873  1
  Hf  Hf13  1  0.60397301  0.61510652  0.75545418  1
  Hf  Hf14  1  0.78729901  0.20075919  0.49335015  1
  Hf  Hf15  1  0.49423236  0.30568462  0.88161028  1
  Hf  Hf16  1  0.00043119  0.60021532  0.74275581  1
  Hf  Hf17  1  0.39208780  0.00176556  0.23525230  1
  Hf  Hf18  1  0.19274640  0.00364009  0.24079999  1
  Hf  Hf19  1  0.49666755  0.29514407  0.62693754  1
  Hf  Hf20  1  0.27941094  0.09718429  0.62141285  1
  Hf  Hf21  1  0.40496293  0.19277600  0.48920411  1
  Hf  Hf22  1  0.60680116  0.59563604  -0.00559530  1
  Hf  Hf23  1  0.40165969  0.39590131  0.49523947  1
  Hf  Hf24  1  -0.00099679  0.19504331  0.25758087  1
  Hf  Hf25  1  0.61106220  0.00232889  0.01606949  1
  Hf  Hf26  1  0.09598327  0.89285298  0.88441317  1
  Hf  Hf27  1  0.79876650  0.59687136  0.49175889  1
  Hf  Hf28  1  0.50038879  0.69210537  0.11621713  1
  Hf  Hf29  1  0.38858640  0.19947809  0.75802109  1
  Hf  Hf30  1  0.71638535  0.50284976  0.63390144  1
  Hf  Hf31  1  0.29032955  0.30015846  0.63101117  1
  Hf  Hf32  1  0.50358468  0.27812331  0.11368139  1
  Hf  Hf33  1  0.39733865  0.79448555  0.75792701  1
  Hf  Hf34  1  0.20191316  0.39668406  0.00288148  1
  Hf  Hf35  1  0.60739669  0.81631820  0.26993334  1
  Hf  Hf36  1  0.80118544  0.40198452  0.00951014  1
  Hf  Hf37  1  0.19153734  0.79423553  0.25153034  1
  Hf  Hf38  1  0.40511459  0.59744043  0.25810269  1
  Hf  Hf39  1  -0.00346731  0.59016309  0.50873863  1
  Zr  Zr40  1  0.28682276  0.88500044  0.11476400  1
  Zr  Zr41  1  0.30204061  0.68455054  0.11334363  1
  Zr  Zr42  1  0.40645651  0.80183474  0.48791133  1
  Zr  Zr43  1  0.89580096  0.91317643  0.88076433  1
  Zr  Zr44  1  0.09329074  0.27135003  0.61906783  1
  Zr  Zr45  1  -0.00395631  0.38911438  0.48151382  1
  Zr  Zr46  1  0.11018389  0.70192848  0.62290309  1
  Zr  Zr47  1  -0.00881634  0.80666755  0.74599254  1
  Zr  Zr48  1  0.91260986  0.11263680  0.61324997  1
  Zr  Zr49  1  0.59749755  0.17950804  0.74686631  1
  Zr  Zr50  1  0.60625152  0.39759913  0.00932328  1
  Zr  Zr51  1  0.80673742  0.20170428  0.75341672  1
  Zr  Zr52  1  0.49943001  0.69898397  0.88497518  1
  Zr  Zr53  1  0.40240719  0.00625003  0.75217371  1
  Zr  Zr54  1  0.68968574  0.90728323  0.86150328  1
  Zr  Zr55  1  0.11082138  0.11127954  0.38920397  1
  Zr  Zr56  1  0.90189339  0.69486711  0.12939551  1
  Zr  Zr57  1  0.40349910  0.59154989  0.49074038  1
  Zr  Zr58  1  0.59485986  0.03203660  0.51917787  1
  Zr  Zr59  1  0.50060812  0.88591369  0.11865142  1
  Zr  Zr60  1  0.00708421  0.39687073  0.25533464  1
  Zr  Zr61  1  0.91014922  0.49372879  0.87259280  1
  Zr  Zr62  1  0.59935106  0.61517431  0.48605652  1
  Zr  Zr63  1  0.58933724  0.02343430  0.23438048  1
  Zr  Zr64  1  0.69650551  0.13694388  0.12297873  1
  Zr  Zr65  1  0.10347615  0.89851038  0.38249968  1
  Zr  Zr66  1  0.78889858  -0.00150895  0.24372296  1
  Zr  Zr67  1  0.60249916  0.40862927  0.49915908  1
  Zr  Zr68  1  0.30602767  0.69964144  0.62250952  1
  Zr  Zr69  1  -0.00676053  -0.00441338  0.24565507  1
  Zr  Zr70  1  0.00640641  0.60438237  0.25189111  1
  Zr  Zr71  1  0.70819109  0.51542735  0.13969216  1
  Zr  Zr72  1  0.10881576  0.91366504  0.62783636  1
  Zr  Zr73  1  0.29689852  0.12205061  0.11035034  1
  Zr  Zr74  1  0.28161947  0.69328574  0.38088662  1
  Zr  Zr75  1  0.70399253  0.72003716  0.12999244  1
  Zr  Zr76  1  0.49896465  0.90294861  0.87657621  1
  Zr  Zr77  1  0.80557846  0.20234544  -0.00727094  1
  Zr  Zr78  1  0.19597705  -0.00256703  -0.00566795  1
  Zr  Zr79  1  0.70103861  0.29885826  0.62503290  1
  Ta  Ta80  1  0.29220073  0.69147879  0.88286718  1
  Ta  Ta81  1  0.09188850  0.10124543  0.11731032  1
  Ta  Ta82  1  0.41098555  0.19319618  0.25522595  1
  Ta  Ta83  1  -0.00245062  0.38844594  0.74922391  1
  Ta  Ta84  1  -0.00913757  0.79992428  0.51257590  1
  Ta  Ta85  1  0.00149752  0.00099396  0.50696264  1
  Ta  Ta86  1  0.11227381  0.28720902  0.13308099  1
  Ta  Ta87  1  0.30242517  0.49634579  0.63396056  1
  Ta  Ta88  1  0.30512392  0.49727035  0.86749255  1
  Ta  Ta89  1  0.20284653  0.80129131  0.76502069  1
  Ta  Ta90  1  0.20341880  0.00029776  0.77003144  1
  Ta  Ta91  1  0.79430483  -0.00798055  0.51165675  1
  Ta  Ta92  1  0.39958536  0.00169753  0.00460489  1
  Ta  Ta93  1  0.10627859  0.50648578  0.37289968  1
  Ta  Ta94  1  0.79588559  0.20048662  0.26448602  1
  Ta  Ta95  1  0.80552059  0.60369616  0.76069313  1
  Ta  Ta96  1  0.18875529  0.19024366  0.76371298  1
  Ta  Ta97  1  0.49967991  0.50488658  0.63389199  1
  Ta  Ta98  1  0.80454004  0.40319773  0.48055032  1
  Ta  Ta99  1  0.61206686  0.81744860  0.48419519  1
  Ta  Ta100  1  0.89381148  0.09613174  0.38806312  1
  Ta  Ta101  1  0.59727063  0.40283566  0.74995497  1
  Ta  Ta102  1  0.70107584  0.49404620  0.86520968  1
  Ta  Ta103  1  0.00212079  0.20016322  0.00001495  1
  Ta  Ta104  1  0.10460473  0.69909526  0.11240218  1
  Ta  Ta105  1  0.60222542  0.61321399  0.26402792  1
  Ta  Ta106  1  0.88387264  0.69747015  0.62470774  1
  Ta  Ta107  1  0.90317436  0.69707268  0.37712638  1
  Ta  Ta108  1  -0.00022441  0.19391171  0.76076847  1
  Ta  Ta109  1  0.30115294  0.30912716  0.13333008  1
  Ta  Ta110  1  0.49782460  0.49835458  0.87126386  1
  Ta  Ta111  1  0.08788608  0.88731906  0.10943588  1
  Ta  Ta112  1  0.89607001  0.31879377  0.62275896  1
  Ta  Ta113  1  0.68167463  0.30079713  0.37124376  1
  Ta  Ta114  1  0.69747070  0.30277523  0.86782966  1
  Ta  Ta115  1  0.79583131  0.79743274  0.49921065  1
  Ta  Ta116  1  0.39571864  0.41300617  0.00639310  1
  Ta  Ta117  1  0.11330890  0.49280009  0.86335767  1
  Ta  Ta118  1  0.01636410  0.59194458  -0.00092659  1
  Ta  Ta119  1  0.79211265  0.78955384  0.75515135  1
  Ti  Ti120  1  0.38444935  0.79963434  -0.01175837  1
  Ti  Ti121  1  0.11453455  0.49648229  0.12950537  1
  Ti  Ti122  1  0.79350674  0.80394542  -0.01483571  1
  Ti  Ti123  1  0.00152307  0.79881558  0.24925611  1
  Ti  Ti124  1  0.29793139  0.89658849  0.63008993  1
  Ti  Ti125  1  0.70127073  0.89431295  0.63245951  1
  Ti  Ti126  1  -0.01320717  0.00817741  0.00712490  1
  Ti  Ti127  1  0.50964347  0.48839245  0.36392964  1
  Ti  Ti128  1  0.71216169  0.09775078  0.87688546  1
  Ti  Ti129  1  0.89669014  0.28434786  0.13069129  1
  Ti  Ti130  1  0.29077258  0.30465374  0.87581451  1
  Ti  Ti131  1  0.40654237  0.38964895  0.24685958  1
  Ti  Ti132  1  0.19961606  0.59399427  0.24373155  1
  Ti  Ti133  1  0.49279464  0.49879410  0.13004518  1
  Ti  Ti134  1  0.59959392  0.39505071  0.24089349  1
  Ti  Ti135  1  0.90862669  0.50313196  0.12712267  1
  Ti  Ti136  1  0.20112596  0.58678317  0.50539236  1
  Ti  Ti137  1  0.69326073  0.70749212  0.62443804  1
  Ti  Ti138  1  0.00979541  0.01217681  0.74884526  1
  Ti  Ti139  1  0.40168012  0.59840839  0.74989889  1
  Ti  Ti140  1  0.09755009  0.68784803  0.87611429  1
  Ti  Ti141  1  0.20394381  0.81147215  0.49852318  1
  Ti  Ti142  1  0.09304319  0.70081133  0.39063503  1
  Ti  Ti143  1  0.39618020  0.40341285  0.75038253  1
  Ti  Ti144  1  0.09228502  0.10179377  0.88638193  1
  Ti  Ti145  1  0.20763377  0.59897298  0.75131152  1
  Ti  Ti146  1  0.28942055  0.28018496  0.35839239  1
  Ti  Ti147  1  0.30562371  0.08350206  0.37575173  1
  Ti  Ti148  1  0.09862160  0.30029138  0.87348933  1
  Ti  Ti149  1  -0.01005818  0.78242148  -0.00857333  1
  Ti  Ti150  1  0.38992274  -0.00231573  0.50805469  1
  Ti  Ti151  1  0.60914289  0.80058580  -0.00385173  1
  Ti  Ti152  1  0.70438811  0.50712577  0.36158120  1
  Ti  Ti153  1  0.68223547  0.10057039  0.37438100  1
  Ti  Ti154  1  0.50588763  0.70225487  0.62367752  1
  Ti  Ti155  1  0.29870164  0.10820008  0.89157157  1
  Ti  Ti156  1  0.80050521  0.79646111  0.26405427  1
  Ti  Ti157  1  0.90081747  0.29858012  0.87373347  1
  Ti  Ti158  1  0.80068651  0.00625821  0.01138489  1
  Ti  Ti159  1  0.20866498  0.58695903  -0.00166941  1
  Mo  Mo160  1  0.90392542  0.10534224  0.12549229  1
  Mo  Mo161  1  0.80204310  0.60479907  0.26693071  1
  Mo  Mo162  1  0.60881913  0.20574256  -0.01400871  1
  Mo  Mo163  1  0.50523136  0.70325115  0.37380177  1
  Mo  Mo164  1  0.89918063  0.49563321  0.63066030  1
  Mo  Mo165  1  0.10289104  0.09780623  0.62383997  1
  Mo  Mo166  1  0.18512763  0.78177618  -0.01364983  1
  Mo  Mo167  1  0.38785231  0.21414914  -0.01079097  1
  Mo  Mo168  1  0.70217382  0.09921079  0.62655177  1
  Mo  Mo169  1  0.90777831  0.10019660  0.87470188  1
  Mo  Mo170  1  0.60684717  0.00425977  0.73367501  1
  Mo  Mo171  1  0.48397527  0.10159981  0.62764357  1
  Mo  Mo172  1  0.18906372  0.21049103  -0.00929517  1
  Mo  Mo173  1  0.70658631  0.91834447  0.38485345  1
  Mo  Mo174  1  -0.00439148  0.20048221  0.48633978  1
  Mo  Mo175  1  0.89658121  0.89369221  0.61777826  1
  Mo  Mo176  1  0.71035026  0.71117666  0.37239402  1
  Mo  Mo177  1  0.70734805  0.31164343  0.13861720  1
  Mo  Mo178  1  0.20578643  0.19555643  0.24722012  1
  Mo  Mo179  1  0.49407781  0.30809743  0.36491311  1
  Mo  Mo180  1  0.49679153  0.11277506  0.37251137  1
  Mo  Mo181  1  0.60238934  0.80030581  0.74243225  1
  Mo  Mo182  1  0.70580235  0.70245442  0.87518471  1
  Mo  Mo183  1  0.39972222  0.58690140  -0.00286405  1
  Mo  Mo184  1  0.29882157  0.89715490  0.88084418  1
  Mo  Mo185  1  0.21105097  -0.00517704  0.49755556  1
  Mo  Mo186  1  0.11092939  0.30357265  0.36286059  1
  Mo  Mo187  1  0.20806560  0.19882267  0.49211861  1
  Mo  Mo188  1  0.20312784  0.39722948  0.24829482  1
  Mo  Mo189  1  0.70332858  0.89603337  0.11968823  1
  Mo  Mo190  1  0.80222007  0.40034288  0.75479472  1
  Mo  Mo191  1  0.49146687  0.10429956  0.10500090  1
  Mo  Mo192  1  0.90077866  0.50424880  0.37183966  1
  Mo  Mo193  1  0.89464978  0.28858369  0.37473744  1
  Mo  Mo194  1  0.20090453  0.39131023  0.75714742  1
  Mo  Mo195  1  0.59646761  0.21288510  0.25481081  1
  Mo  Mo196  1  0.29615581  0.90907094  0.37710373  1
  Mo  Mo197  1  0.59428883  0.21314128  0.49697575  1
  Mo  Mo198  1  0.30373922  0.49282402  0.13682692  1
  Mo  Mo199  1  0.90852030  0.70380909  0.87338460  1
