# generated using pymatgen
data_HfZrTaTiMo
_symmetry_space_group_name_H-M   'P 1'
_cell_length_a   15.19283173
_cell_length_b   15.21084094
_cell_length_c   16.77656978
_cell_angle_alpha   90.00845539
_cell_angle_beta   90.02718026
_cell_angle_gamma   90.07755472
_symmetry_Int_Tables_number   1
_chemical_formula_structural   HfZrTaTiMo
_chemical_formula_sum   'Hf40 Zr40 Ta40 Ti40 Mo40'
_cell_volume   3876.98989349
_cell_formula_units_Z   40
loop_
 _symmetry_equiv_pos_site_id
 _symmetry_equiv_pos_as_xyz
  1  'x, y, z'
loop_
 _atom_site_type_symbol
 _atom_site_label
 _atom_site_symmetry_multiplicity
 _atom_site_fract_x
 _atom_site_fract_y
 _atom_site_fract_z
 _atom_site_occupancy
  Hf  Hf0  1  0.50749783  0.48696166  0.87488852  1
  Hf  Hf1  1  0.68752496  0.49008617  0.14164147  1
  Hf  Hf2  1  0.29574356  0.30946837  0.37056938  1
  Hf  Hf3  1  0.30712321  0.29530687  0.88366206  1
  Hf  Hf4  1  0.89289496  0.49982287  0.89456770  1
  Hf  Hf5  1  0.69113150  0.69602677  0.61446754  1
  Hf  Hf6  1  0.90487336  0.10642622  0.64072314  1
  Hf  Hf7  1  0.49859076  0.88987096  0.62344705  1
  Hf  Hf8  1  0.52037654  0.89557377  0.37829034  1
  Hf  Hf9  1  0.08345246  0.90346316  0.36540404  1
  Hf  Hf10  1  0.61473950  0.19726386  0.50440589  1
  Hf  Hf11  1  0.59969434  0.40159111  0.73185326  1
  Hf  Hf12  1  0.89395253  0.30931218  0.62997465  1
  Hf  Hf13  1  0.79079566  0.80021782  0.24123115  1
  Hf  Hf14  1  0.20980790  0.00395094  0.24662976  1
  Hf  Hf15  1  0.79247085  0.19562677  -0.00613452  1
  Hf  Hf16  1  0.18419651  0.60243029  0.75461181  1
  Hf  Hf17  1  0.50827935  0.29363787  0.36112648  1
  Hf  Hf18  1  0.10716541  0.91762290  0.85880672  1
  Hf  Hf19  1  0.39094581  0.79271046  0.26500011  1
  Hf  Hf20  1  0.00495989  0.59874772  0.49148937  1
  Hf  Hf21  1  0.79742652  0.40028349  0.76044534  1
  Hf  Hf22  1  0.50585215  0.89562006  0.12374018  1
  Hf  Hf23  1  0.38988896  -0.01033495  0.48799142  1
  Hf  Hf24  1  0.30101892  0.70024385  0.88004072  1
  Hf  Hf25  1  0.09271508  0.50146920  0.89583387  1
  Hf  Hf26  1  -0.00070945  0.79602792  0.74168003  1
  Hf  Hf27  1  0.89842126  0.69738350  0.88351608  1
  Hf  Hf28  1  0.10156521  0.31747597  0.63341713  1
  Hf  Hf29  1  0.27815740  0.48411013  0.61892626  1
  Hf  Hf30  1  0.60877262  0.00386537  0.76016591  1
  Hf  Hf31  1  0.10880296  0.69990809  0.36037048  1
  Hf  Hf32  1  0.80781049  0.60115876  0.25168427  1
  Hf  Hf33  1  0.30560787  0.48274014  0.12122808  1
  Hf  Hf34  1  0.30329377  0.70191326  0.62968062  1
  Hf  Hf35  1  0.19569341  0.80961145  0.49910087  1
  Hf  Hf36  1  0.80363749  0.79332585  0.01034562  1
  Hf  Hf37  1  -0.01049256  0.39801550  0.24845356  1
  Hf  Hf38  1  0.58551113  0.58990587  0.01010908  1
  Hf  Hf39  1  -0.00093083  0.19721052  -0.00009632  1
  Zr  Zr40  1  0.42079295  0.59086073  0.23953462  1
  Zr  Zr41  1  0.89640251  0.69880276  0.61469405  1
  Zr  Zr42  1  0.29557698  0.10708485  0.38119102  1
  Zr  Zr43  1  0.40429388  0.20299632  0.50908054  1
  Zr  Zr44  1  0.30732029  0.90431088  0.11597127  1
  Zr  Zr45  1  0.20421011  0.40759056  0.76593369  1
  Zr  Zr46  1  0.79294954  0.80018427  0.75311665  1
  Zr  Zr47  1  0.80394309  -0.00883861  0.25382259  1
  Zr  Zr48  1  0.40615965  -0.00734433  0.26077716  1
  Zr  Zr49  1  0.68277129  0.30770212  0.87971146  1
  Zr  Zr50  1  0.38409666  0.19670883  0.23494626  1
  Zr  Zr51  1  0.19906269  0.60387695  0.00851813  1
  Zr  Zr52  1  0.38870245  0.79403669  0.48609595  1
  Zr  Zr53  1  0.70315725  0.10256031  0.13388059  1
  Zr  Zr54  1  0.49969317  0.50542154  0.60857780  1
  Zr  Zr55  1  0.90342802  0.72167650  0.37837260  1
  Zr  Zr56  1  0.70416535  0.90469727  0.62032458  1
  Zr  Zr57  1  0.59835761  0.79846173  -0.00825209  1
  Zr  Zr58  1  0.19709687  0.59554336  0.49585105  1
  Zr  Zr59  1  0.49036544  0.48456404  0.38693844  1
  Zr  Zr60  1  0.50862271  0.68280624  0.38509074  1
  Zr  Zr61  1  0.49863497  0.08424761  0.62057949  1
  Zr  Zr62  1  0.60578576  0.01743745  -0.00997039  1
  Zr  Zr63  1  0.09815946  0.10864970  0.36483048  1
  Zr  Zr64  1  0.01361233  0.00260954  0.00084439  1
  Zr  Zr65  1  -0.00408805  0.00321454  0.50915673  1
  Zr  Zr66  1  0.80279169  0.59127230  0.48617427  1
  Zr  Zr67  1  0.72093343  0.48899835  0.61054725  1
  Zr  Zr68  1  0.00427254  0.40270512  0.49024031  1
  Zr  Zr69  1  0.19223880  0.81279156  0.00667271  1
  Zr  Zr70  1  0.10209565  0.49617596  0.12776386  1
  Zr  Zr71  1  0.89877798  0.08907935  0.85904023  1
  Zr  Zr72  1  0.39509610  0.58620398  0.74980493  1
  Zr  Zr73  1  0.09005780  0.71124577  0.87972281  1
  Zr  Zr74  1  0.19799911  0.19817439  0.00240729  1
  Zr  Zr75  1  0.71447012  0.90648996  0.87765627  1
  Zr  Zr76  1  0.80699666  0.59494115  0.74969406  1
  Zr  Zr77  1  0.58971831  0.20681541  0.73379686  1
  Zr  Zr78  1  0.90106913  0.10004154  0.36738701  1
  Zr  Zr79  1  0.68601057  0.49707341  0.36655858  1
  Ta  Ta80  1  0.59354734  0.79207599  0.75894010  1
  Ta  Ta81  1  -0.00396401  0.39100865  0.01076152  1
  Ta  Ta82  1  0.00266636  0.20658395  0.50136548  1
  Ta  Ta83  1  0.78858426  0.39553763  0.00542650  1
  Ta  Ta84  1  0.51029328  0.09893785  0.37258278  1
  Ta  Ta85  1  -0.00755166  0.80232548  0.23263020  1
  Ta  Ta86  1  0.29408485  0.50220452  0.36516947  1
  Ta  Ta87  1  0.31317118  0.69868292  0.11753305  1
  Ta  Ta88  1  0.09982513  0.70068437  0.62707704  1
  Ta  Ta89  1  0.49674728  0.69154507  0.87302273  1
  Ta  Ta90  1  0.30502254  0.90622194  0.87444182  1
  Ta  Ta91  1  0.78781644  0.19761052  0.75828684  1
  Ta  Ta92  1  0.40354222  0.80062355  0.75621365  1
  Ta  Ta93  1  0.90863528  0.10209034  0.13615420  1
  Ta  Ta94  1  0.49240181  0.11196813  0.87388711  1
  Ta  Ta95  1  0.40163685  0.00709585  -0.00621099  1
  Ta  Ta96  1  0.10031794  0.29895565  0.36026377  1
  Ta  Ta97  1  0.90622293  0.29953772  0.87199196  1
  Ta  Ta98  1  0.91261373  0.89552153  0.87573722  1
  Ta  Ta99  1  0.69765014  0.70809290  0.38003001  1
  Ta  Ta100  1  0.21074770  0.20783016  0.74484950  1
  Ta  Ta101  1  0.60411984  0.59999154  0.75205064  1
  Ta  Ta102  1  0.60992815  0.38425021  0.50505731  1
  Ta  Ta103  1  0.20841328  0.80835155  0.74711747  1
  Ta  Ta104  1  0.10170342  0.11141693  0.85018624  1
  Ta  Ta105  1  0.69727560  0.29770908  0.14657309  1
  Ta  Ta106  1  0.50408534  0.31144570  0.14259103  1
  Ta  Ta107  1  0.19956293  0.79908129  0.24088044  1
  Ta  Ta108  1  -0.01116238  0.60930415  0.02586056  1
  Ta  Ta109  1  0.71440066  0.29713727  0.35608813  1
  Ta  Ta110  1  0.10447272  0.29911442  0.13526450  1
  Ta  Ta111  1  0.10610065  0.91240705  0.63782148  1
  Ta  Ta112  1  0.41717321  0.39480186  0.00882402  1
  Ta  Ta113  1  0.40283155  0.19654419  0.01687509  1
  Ta  Ta114  1  0.89106136  0.29490589  0.12911460  1
  Ta  Ta115  1  0.50034986  0.69863294  0.62178802  1
  Ta  Ta116  1  0.19218580  0.21349289  0.50933143  1
  Ta  Ta117  1  0.89917050  0.90673711  0.12031335  1
  Ta  Ta118  1  0.40113373  0.37889794  0.73620484  1
  Ta  Ta119  1  0.50244244  0.09908134  0.13069767  1
  Ti  Ti120  1  0.10784804  0.49523869  0.35537404  1
  Ti  Ti121  1  0.30107477  0.90688029  0.63265799  1
  Ti  Ti122  1  0.69791168  0.90432739  0.11845827  1
  Ti  Ti123  1  0.28879931  0.09522436  0.62360181  1
  Ti  Ti124  1  0.68655319  0.69772820  0.12765923  1
  Ti  Ti125  1  0.60756715  -0.00553145  0.25398940  1
  Ti  Ti126  1  0.88950914  0.47947596  0.36916052  1
  Ti  Ti127  1  0.39918098  -0.00016701  0.75516417  1
  Ti  Ti128  1  0.30856134  0.49372221  0.89580309  1
  Ti  Ti129  1  0.69541774  0.68163271  0.88028648  1
  Ti  Ti130  1  0.00264571  0.60776216  0.23595668  1
  Ti  Ti131  1  0.78930044  0.59578675  0.01272924  1
  Ti  Ti132  1  0.00046930  0.79964450  0.01939292  1
  Ti  Ti133  1  0.60628827  0.79669193  0.49951193  1
  Ti  Ti134  1  0.80772083  0.20578120  0.49665174  1
  Ti  Ti135  1  0.20583068  0.01120819  0.00075942  1
  Ti  Ti136  1  0.49275703  0.29528486  0.87518460  1
  Ti  Ti137  1  0.09683896  0.30330173  0.87175189  1
  Ti  Ti138  1  0.10082617  0.10919997  0.64260166  1
  Ti  Ti139  1  0.39592211  0.19499563  0.73563740  1
  Ti  Ti140  1  0.89062819  0.49431771  0.12295347  1
  Ti  Ti141  1  -0.00091419  0.80882876  0.51031011  1
  Ti  Ti142  1  0.10438765  0.10410860  0.13848603  1
  Ti  Ti143  1  0.61107020  0.00158831  0.49629172  1
  Ti  Ti144  1  0.59035213  0.21506672  0.00841995  1
  Ti  Ti145  1  0.71504823  0.09783215  0.62376709  1
  Ti  Ti146  1  0.38614759  0.39129118  0.50851752  1
  Ti  Ti147  1  0.40560178  0.79467268  -0.00548104  1
  Ti  Ti148  1  0.38948993  0.59829720  0.49732165  1
  Ti  Ti149  1  -0.00201593  0.42147949  0.75387087  1
  Ti  Ti150  1  0.19286012  0.00500956  0.50082856  1
  Ti  Ti151  1  0.59620511  0.79178958  0.24841317  1
  Ti  Ti152  1  0.29962682  0.09857577  0.86898003  1
  Ti  Ti153  1  0.21137687  0.60446786  0.23927837  1
  Ti  Ti154  1  0.72233520  0.90121513  0.39179765  1
  Ti  Ti155  1  0.81081384  0.00234771  0.00157972  1
  Ti  Ti156  1  0.49554226  0.90103715  0.87413612  1
  Ti  Ti157  1  0.70040442  0.10224627  0.36996285  1
  Ti  Ti158  1  0.89452694  0.91062921  0.62859581  1
  Ti  Ti159  1  0.09686828  0.90884674  0.13274630  1
  Mo  Mo160  1  0.90130814  0.89854879  0.38007342  1
  Mo  Mo161  1  0.69791158  0.50704355  0.88238708  1
  Mo  Mo162  1  0.29451107  0.29227085  0.62365567  1
  Mo  Mo163  1  -0.00206100  0.59535872  0.74957792  1
  Mo  Mo164  1  0.60076855  0.38849615  0.00817194  1
  Mo  Mo165  1  0.39628424  0.39836424  0.24525112  1
  Mo  Mo166  1  0.00363244  0.21697212  0.75577430  1
  Mo  Mo167  1  0.19449892  0.39799790  0.48880586  1
  Mo  Mo168  1  0.89315101  0.69670491  0.12647967  1
  Mo  Mo169  1  0.90491155  0.29291036  0.37539182  1
  Mo  Mo170  1  0.30155542  0.09673079  0.11722503  1
  Mo  Mo171  1  0.40185036  0.60131968  0.00257573  1
  Mo  Mo172  1  0.19686630  0.20668586  0.23820340  1
  Mo  Mo173  1  0.80190056  0.00306532  0.75103985  1
  Mo  Mo174  1  0.49847713  0.70734148  0.12396215  1
  Mo  Mo175  1  0.80257098  0.39836762  0.24679893  1
  Mo  Mo176  1  0.91652456  0.49691846  0.62409277  1
  Mo  Mo177  1  0.59802710  0.59963850  0.50265774  1
  Mo  Mo178  1  0.59889783  0.18859997  0.25245065  1
  Mo  Mo179  1  0.70928640  0.28867743  0.62157742  1
  Mo  Mo180  1  0.00229023  -0.00592439  0.23809776  1
  Mo  Mo181  1  -0.00015551  0.20026362  0.24057578  1
  Mo  Mo182  1  0.80492994  0.81482853  0.50131909  1
  Mo  Mo183  1  0.49799318  0.30130013  0.61596220  1
  Mo  Mo184  1  0.50096319  0.49841528  0.12527815  1
  Mo  Mo185  1  0.29379243  0.68932698  0.36556975  1
  Mo  Mo186  1  0.08560151  0.50947575  0.62815674  1
  Mo  Mo187  1  0.19964183  0.39063774  -0.00743585  1
  Mo  Mo188  1  0.00433164  -0.00011733  0.74066419  1
  Mo  Mo189  1  0.80177647  0.37999081  0.48935448  1
  Mo  Mo190  1  0.21543688  0.01103100  0.74503706  1
  Mo  Mo191  1  0.59110764  0.40259226  0.25450792  1
  Mo  Mo192  1  0.20206152  0.40274932  0.25123916  1
  Mo  Mo193  1  0.29570342  0.30202481  0.11540119  1
  Mo  Mo194  1  0.69124331  0.11012274  0.87713170  1
  Mo  Mo195  1  0.60895428  0.61527293  0.24481036  1
  Mo  Mo196  1  0.79456462  0.01792795  0.49791948  1
  Mo  Mo197  1  0.80450148  0.20127677  0.25231729  1
  Mo  Mo198  1  0.27723380  0.89394309  0.37389669  1
  Mo  Mo199  1  0.10245639  0.70465233  0.13776877  1
