# generated using pymatgen
data_HfZrTaTiMo
_symmetry_space_group_name_H-M   'P 1'
_cell_length_a   15.20334401
_cell_length_b   15.20867322
_cell_length_c   16.82696904
_cell_angle_alpha   90.00337077
_cell_angle_beta   89.99879475
_cell_angle_gamma   90.02408047
_symmetry_Int_Tables_number   1
_chemical_formula_structural   HfZrTaTiMo
_chemical_formula_sum   'Hf40 Zr40 Ta40 Ti40 Mo40'
_cell_volume   3890.77671182
_cell_formula_units_Z   40
loop_
 _symmetry_equiv_pos_site_id
 _symmetry_equiv_pos_as_xyz
  1  'x, y, z'
loop_
 _atom_site_type_symbol
 _atom_site_label
 _atom_site_symmetry_multiplicity
 _atom_site_fract_x
 _atom_site_fract_y
 _atom_site_fract_z
 _atom_site_occupancy
  Hf  Hf0  1  0.50559630  0.68986999  0.63369503  1
  Hf  Hf1  1  0.30658658  0.10385001  0.62365789  1
  Hf  Hf2  1  0.78517827  0.41351678  0.75492468  1
  Hf  Hf3  1  0.29578558  0.09793677  0.11819069  1
  Hf  Hf4  1  0.40811694  -0.00091657  0.00716939  1
  Hf  Hf5  1  0.90514551  0.91115474  0.13343854  1
  Hf  Hf6  1  0.59250728  0.39935117  -0.00996196  1
  Hf  Hf7  1  0.07202811  0.29855013  0.87914894  1
  Hf  Hf8  1  0.29848912  0.31128876  0.36813681  1
  Hf  Hf9  1  0.71092730  0.69656019  0.62347855  1
  Hf  Hf10  1  0.09589250  0.89494570  0.61117871  1
  Hf  Hf11  1  0.89650161  0.89478864  0.87699887  1
  Hf  Hf12  1  0.79675627  0.80128430  0.01837548  1
  Hf  Hf13  1  0.10553896  0.49495643  0.63918560  1
  Hf  Hf14  1  0.40679966  0.79171872  0.50173794  1
  Hf  Hf15  1  0.18360086  0.60723591  0.23623480  1
  Hf  Hf16  1  0.30613303  0.67860432  0.86582212  1
  Hf  Hf17  1  0.20884959  -0.00265104  0.75152755  1
  Hf  Hf18  1  0.60879855  0.80881092  0.74678425  1
  Hf  Hf19  1  0.81358542  0.00257861  0.26776290  1
  Hf  Hf20  1  0.49909019  0.50323274  0.35603345  1
  Hf  Hf21  1  0.00401037  0.78727954  0.00762393  1
  Hf  Hf22  1  0.69837105  0.29155617  0.87330843  1
  Hf  Hf23  1  0.70627068  0.49621822  0.13392384  1
  Hf  Hf24  1  0.61176077  0.00403108  0.47964202  1
  Hf  Hf25  1  0.19491634  0.19856484  0.75771812  1
  Hf  Hf26  1  0.89183350  0.30807441  0.37798203  1
  Hf  Hf27  1  0.58972403  0.19162666  0.75839287  1
  Hf  Hf28  1  0.31228231  0.90005795  0.62515274  1
  Hf  Hf29  1  0.82265462  0.00729090  0.48505372  1
  Hf  Hf30  1  0.40748309  0.57882409  0.50471297  1
  Hf  Hf31  1  0.21343329  0.40338171  0.50318110  1
  Hf  Hf32  1  0.67448028  0.29259031  0.12734582  1
  Hf  Hf33  1  0.69698422  0.68899735  0.37344136  1
  Hf  Hf34  1  0.79692497  0.19457039  0.00155921  1
  Hf  Hf35  1  0.89871630  0.50969252  0.38356168  1
  Hf  Hf36  1  0.01068809  0.79705294  0.24396778  1
  Hf  Hf37  1  0.70748367  0.70724085  0.87926402  1
  Hf  Hf38  1  0.91874791  0.50330719  0.85949427  1
  Hf  Hf39  1  0.38857507  0.41109274  0.00204374  1
  Zr  Zr40  1  0.48697119  0.51809409  0.87605943  1
  Zr  Zr41  1  0.10361942  0.70115644  0.38808907  1
  Zr  Zr42  1  0.89621416  0.10565317  0.87219125  1
  Zr  Zr43  1  0.07870114  0.90243840  0.38600630  1
  Zr  Zr44  1  -0.01645351  0.19117685  0.50414584  1
  Zr  Zr45  1  -0.02474497  0.79613872  0.73377566  1
  Zr  Zr46  1  0.10004737  0.89850709  0.87759123  1
  Zr  Zr47  1  0.18994366  0.20582822  0.24949547  1
  Zr  Zr48  1  0.60822659  0.00185915  0.01194627  1
  Zr  Zr49  1  0.09860499  0.50113937  0.37936035  1
  Zr  Zr50  1  0.77841765  0.40706666  0.50672988  1
  Zr  Zr51  1  0.39375710  0.19906880  0.76944922  1
  Zr  Zr52  1  0.40378100  0.20549976  0.48276885  1
  Zr  Zr53  1  0.50898959  0.91110470  0.87498408  1
  Zr  Zr54  1  0.41121891  0.00006127  0.47806704  1
  Zr  Zr55  1  0.50240575  0.71174123  0.88114235  1
  Zr  Zr56  1  0.08731121  0.69021272  0.87319525  1
  Zr  Zr57  1  0.31577739  0.49218978  0.64997782  1
  Zr  Zr58  1  0.29936885  0.50189906  0.35708087  1
  Zr  Zr59  1  0.92017804  0.67484281  0.13085378  1
  Zr  Zr60  1  0.20852150  0.00345716  0.48965867  1
  Zr  Zr61  1  0.07702745  0.29525459  0.11697091  1
  Zr  Zr62  1  0.80068186  0.39817958  -0.01254739  1
  Zr  Zr63  1  0.19757549  0.00560089  0.25929734  1
  Zr  Zr64  1  0.81393915  0.59630224  -0.00357021  1
  Zr  Zr65  1  0.09759983  0.09780221  0.88191007  1
  Zr  Zr66  1  0.09709680  0.29702459  0.62758467  1
  Zr  Zr67  1  0.50778837  0.88185308  0.35619994  1
  Zr  Zr68  1  0.78588067  0.20497136  0.26326669  1
  Zr  Zr69  1  0.31186781  0.69527216  0.37114613  1
  Zr  Zr70  1  0.70628044  0.90656638  0.61685661  1
  Zr  Zr71  1  0.80594480  0.59691462  0.24986570  1
  Zr  Zr72  1  0.39699169  0.19842690  0.25243220  1
  Zr  Zr73  1  0.89244489  0.50678364  0.62978827  1
  Zr  Zr74  1  0.12278424  0.49123710  0.85240914  1
  Zr  Zr75  1  0.20298310  0.59944443  0.00668404  1
  Zr  Zr76  1  0.19209631  0.79152181  0.74542885  1
  Zr  Zr77  1  0.11397373  0.90636577  0.11803804  1
  Zr  Zr78  1  0.50917427  0.09791449  0.62057434  1
  Zr  Zr79  1  0.67843113  0.30888990  0.62999796  1
  Ta  Ta80  1  0.70450122  0.09459783  0.13438914  1
  Ta  Ta81  1  0.60667491  0.58604691  0.50087387  1
  Ta  Ta82  1  0.08955338  0.10689685  0.38028908  1
  Ta  Ta83  1  0.51575847  0.48897278  0.63941579  1
  Ta  Ta84  1  0.71060487  0.10689985  0.62244463  1
  Ta  Ta85  1  0.40144798  0.39622902  0.22828430  1
  Ta  Ta86  1  0.60393805  0.79241313  0.49648576  1
  Ta  Ta87  1  0.29574781  0.50182959  0.12990607  1
  Ta  Ta88  1  0.30295689  0.69423839  0.63436036  1
  Ta  Ta89  1  0.09931835  0.09565670  0.61920432  1
  Ta  Ta90  1  0.79769811  0.20096727  0.74831843  1
  Ta  Ta91  1  0.70600670  0.90334241  0.87488872  1
  Ta  Ta92  1  0.90466536  0.11227672  0.12923190  1
  Ta  Ta93  1  0.18627293  0.40473590  0.00834500  1
  Ta  Ta94  1  0.21053265  0.80043519  0.24582129  1
  Ta  Ta95  1  0.30922133  0.89113956  0.87654109  1
  Ta  Ta96  1  0.48347926  0.30443179  0.62799898  1
  Ta  Ta97  1  0.40266940  0.20551068  -0.00394642  1
  Ta  Ta98  1  0.20600013  0.60176910  0.51630033  1
  Ta  Ta99  1  0.90486476  0.71201627  0.37993651  1
  Ta  Ta100  1  0.50641982  0.50071899  0.12597257  1
  Ta  Ta101  1  0.79964409  -0.00010634  0.00730877  1
  Ta  Ta102  1  0.51097539  0.31087033  0.36225924  1
  Ta  Ta103  1  0.40155710  0.00245123  0.25762511  1
  Ta  Ta104  1  0.60378440  0.80508916  0.01790111  1
  Ta  Ta105  1  -0.01074544  0.40974263  0.24849078  1
  Ta  Ta106  1  -0.00373431  0.00247285  0.73457374  1
  Ta  Ta107  1  0.28087460  0.31029579  0.88747122  1
  Ta  Ta108  1  0.30017420  0.29824239  0.62602960  1
  Ta  Ta109  1  0.50935510  0.11073844  0.13531624  1
  Ta  Ta110  1  0.40404752  0.60922456  0.22997883  1
  Ta  Ta111  1  0.30054805  0.88972912  0.36713907  1
  Ta  Ta112  1  0.19922051  0.20175240  0.49158012  1
  Ta  Ta113  1  -0.00696579  0.00995663  0.00453160  1
  Ta  Ta114  1  -0.00360520  0.40144976  0.50749545  1
  Ta  Ta115  1  0.09219741  0.30690276  0.37853370  1
  Ta  Ta116  1  0.88718997  0.29775346  0.62726906  1
  Ta  Ta117  1  0.68996333  0.48225792  0.35809828  1
  Ta  Ta118  1  0.81241931  0.62373117  0.75670176  1
  Ta  Ta119  1  0.71087313  0.88563048  0.36975841  1
  Ti  Ti120  1  0.69325350  0.08544257  0.86853797  1
  Ti  Ti121  1  0.61720724  0.58969013  0.75821875  1
  Ti  Ti122  1  0.31153239  0.89708941  0.13264621  1
  Ti  Ti123  1  0.30437006  0.70587570  0.12205674  1
  Ti  Ti124  1  0.78658399  0.20076326  0.49086360  1
  Ti  Ti125  1  0.00008733  0.61035966  0.51539213  1
  Ti  Ti126  1  0.79798071  0.60423363  0.49872851  1
  Ti  Ti127  1  0.21273899  0.80034527  -0.00096445  1
  Ti  Ti128  1  0.19490243  0.19949918  -0.00236247  1
  Ti  Ti129  1  0.30678881  0.09142814  0.88474264  1
  Ti  Ti130  1  -0.01061048  0.19578430  0.73948628  1
  Ti  Ti131  1  0.39596027  0.39236419  0.77137144  1
  Ti  Ti132  1  0.79977859  -0.00315897  0.74368506  1
  Ti  Ti133  1  0.58854609  0.19223536  -0.00898336  1
  Ti  Ti134  1  0.60664631  0.60525478  0.00500050  1
  Ti  Ti135  1  0.88306538  0.30797980  0.13358534  1
  Ti  Ti136  1  0.07807051  0.51190427  0.12396700  1
  Ti  Ti137  1  0.20539965  -0.00508378  -0.00547256  1
  Ti  Ti138  1  0.18836537  0.39966577  0.23456275  1
  Ti  Ti139  1  0.60706703  0.01140453  0.26335018  1
  Ti  Ti140  1  0.40465562  0.79838316  0.00751964  1
  Ti  Ti141  1  0.80983306  0.80347752  0.49575568  1
  Ti  Ti142  1  0.50548914  0.69238040  0.36485700  1
  Ti  Ti143  1  0.20641254  0.79380364  0.50373932  1
  Ti  Ti144  1  0.60834098  0.78221707  0.23893527  1
  Ti  Ti145  1  0.09132777  0.10059651  0.11867580  1
  Ti  Ti146  1  0.41734283  0.00214958  0.75655102  1
  Ti  Ti147  1  0.50366299  0.90235996  0.14357531  1
  Ti  Ti148  1  0.80390116  0.79513125  0.24608248  1
  Ti  Ti149  1  0.69885521  0.90170695  0.14325697  1
  Ti  Ti150  1  0.60069637  0.20338744  0.48664075  1
  Ti  Ti151  1  0.58837611  0.39931584  0.76987145  1
  Ti  Ti152  1  -0.01116658  0.40782509  0.00230821  1
  Ti  Ti153  1  0.50582701  0.70094803  0.12250428  1
  Ti  Ti154  1  0.00678224  0.61126039  0.73263029  1
  Ti  Ti155  1  0.58137158  0.39955326  0.49761304  1
  Ti  Ti156  1  -0.00758081  0.19844823  0.25833492  1
  Ti  Ti157  1  0.50750659  0.90248463  0.62446930  1
  Ti  Ti158  1  0.29272914  0.29934401  0.11579548  1
  Ti  Ti159  1  0.40175919  0.80160026  0.74925240  1
  Mo  Mo160  1  0.40598344  0.60753061  0.02382704  1
  Mo  Mo161  1  0.91230526  0.10135161  0.37044766  1
  Mo  Mo162  1  0.20517828  0.38283576  0.75175082  1
  Mo  Mo163  1  -0.01374581  0.20345663  0.00752810  1
  Mo  Mo164  1  0.70044275  0.10169499  0.37753437  1
  Mo  Mo165  1  0.11379073  0.70437673  0.12026479  1
  Mo  Mo166  1  0.00124348  0.60004695  0.25805942  1
  Mo  Mo167  1  0.40258642  0.80140197  0.23608897  1
  Mo  Mo168  1  -0.01125580  0.38450252  0.74187041  1
  Mo  Mo169  1  0.29507331  0.09917362  0.37262526  1
  Mo  Mo170  1  0.59572353  0.39272753  0.24211196  1
  Mo  Mo171  1  -0.00129207  -0.00016931  0.51187926  1
  Mo  Mo172  1  0.59363165  0.19470820  0.25489205  1
  Mo  Mo173  1  0.48867729  0.29657625  0.11693717  1
  Mo  Mo174  1  0.60912448  0.00485017  0.74572302  1
  Mo  Mo175  1  0.69575364  0.50869834  0.87581797  1
  Mo  Mo176  1  0.29947854  0.49685657  0.86802428  1
  Mo  Mo177  1  0.79674578  0.80675937  0.75092805  1
  Mo  Mo178  1  0.89806306  0.70516016  0.61137175  1
  Mo  Mo179  1  0.00494147  0.01595219  0.24771030  1
  Mo  Mo180  1  0.89239582  0.10233159  0.63286176  1
  Mo  Mo181  1  0.41322004  0.60078702  0.74607306  1
  Mo  Mo182  1  0.50649322  0.10363467  0.36106013  1
  Mo  Mo183  1  0.01065365  0.58154369  -0.00503998  1
  Mo  Mo184  1  0.59677070  0.59983718  0.24049490  1
  Mo  Mo185  1  0.90455968  0.48190878  0.12634871  1
  Mo  Mo186  1  0.89329272  0.90869015  0.62260488  1
  Mo  Mo187  1  0.68836345  0.30308112  0.38118331  1
  Mo  Mo188  1  0.20367381  0.60089759  0.73573611  1
  Mo  Mo189  1  0.40911391  0.39763797  0.50162717  1
  Mo  Mo190  1  0.10322469  0.69645511  0.61288161  1
  Mo  Mo191  1  0.90156540  0.89025935  0.36731402  1
  Mo  Mo192  1  0.69784698  0.70205366  0.12666577  1
  Mo  Mo193  1  0.79909607  0.39671769  0.25360199  1
  Mo  Mo194  1  -0.01239053  0.79980016  0.50961593  1
  Mo  Mo195  1  0.50149168  0.10103913  0.88298050  1
  Mo  Mo196  1  0.90343667  0.70146928  0.87797801  1
  Mo  Mo197  1  0.89734786  0.30009931  0.86103258  1
  Mo  Mo198  1  0.68830254  0.51058234  0.63146407  1
  Mo  Mo199  1  0.49046291  0.30034492  0.88242633  1
