# generated using pymatgen
data_HfZrTaTiMo
_symmetry_space_group_name_H-M   'P 1'
_cell_length_a   15.20162796
_cell_length_b   15.20574605
_cell_length_c   16.84539752
_cell_angle_alpha   90.06485120
_cell_angle_beta   90.01157407
_cell_angle_gamma   90.07672647
_symmetry_Int_Tables_number   1
_chemical_formula_structural   HfZrTaTiMo
_chemical_formula_sum   'Hf40 Zr40 Ta40 Ti40 Mo40'
_cell_volume   3893.84285202
_cell_formula_units_Z   40
loop_
 _symmetry_equiv_pos_site_id
 _symmetry_equiv_pos_as_xyz
  1  'x, y, z'
loop_
 _atom_site_type_symbol
 _atom_site_label
 _atom_site_symmetry_multiplicity
 _atom_site_fract_x
 _atom_site_fract_y
 _atom_site_fract_z
 _atom_site_occupancy
  Hf  Hf0  1  0.40790484  0.19076068  -0.00601382  1
  Hf  Hf1  1  0.60577375  0.40564782  0.74173421  1
  Hf  Hf2  1  0.40874509  0.00238612  0.74650655  1
  Hf  Hf3  1  0.47194494  0.31024377  0.63395411  1
  Hf  Hf4  1  0.90612121  0.91053312  0.36521829  1
  Hf  Hf5  1  0.79779656  0.59756504  0.49755661  1
  Hf  Hf6  1  0.60641178  0.59357380  0.23993515  1
  Hf  Hf7  1  0.28774760  0.88311593  0.10706694  1
  Hf  Hf8  1  0.10759011  0.89731052  0.87140625  1
  Hf  Hf9  1  0.78088069  0.21749064  0.25005074  1
  Hf  Hf10  1  0.69557193  0.08552606  0.63816728  1
  Hf  Hf11  1  0.01045685  0.00787329  0.51520089  1
  Hf  Hf12  1  0.00086090  0.40668519  0.49309493  1
  Hf  Hf13  1  0.10651283  0.88641585  0.63310516  1
  Hf  Hf14  1  0.19866324  0.19290738  -0.00334824  1
  Hf  Hf15  1  0.79507375  0.81066804  0.23493557  1
  Hf  Hf16  1  0.10893085  0.29996710  0.36612037  1
  Hf  Hf17  1  0.09823609  0.30688251  0.88230262  1
  Hf  Hf18  1  0.00307036  0.00090908  0.74193230  1
  Hf  Hf19  1  0.11523903  0.51095887  0.36026069  1
  Hf  Hf20  1  0.40389530  0.77772256  0.49814787  1
  Hf  Hf21  1  0.89336386  0.11063640  0.63957800  1
  Hf  Hf22  1  0.49308730  0.90092360  0.10949757  1
  Hf  Hf23  1  0.81017738  0.60457260  0.22466299  1
  Hf  Hf24  1  0.30535568  0.08769030  0.12468667  1
  Hf  Hf25  1  0.02153868  0.61505060  0.49406671  1
  Hf  Hf26  1  0.39018100  0.79982333  0.25504286  1
  Hf  Hf27  1  0.60623770  -0.00041717  0.49986331  1
  Hf  Hf28  1  0.58548096  0.19578361  0.73896484  1
  Hf  Hf29  1  0.58580416  0.60083091  0.50420543  1
  Hf  Hf30  1  0.40535049  0.00124210  0.25348195  1
  Hf  Hf31  1  0.49884221  0.48908477  0.87078930  1
  Hf  Hf32  1  0.60228299  0.61327201  0.75669890  1
  Hf  Hf33  1  0.60666686  0.81446641  0.76607476  1
  Hf  Hf34  1  0.30954976  0.29553082  0.86427506  1
  Hf  Hf35  1  0.70387058  0.90522246  0.36712330  1
  Hf  Hf36  1  0.59984955  0.40542635  0.51099155  1
  Hf  Hf37  1  -0.00423163  0.80987056  0.50527186  1
  Hf  Hf38  1  -0.00566528  0.20275875  0.50612708  1
  Hf  Hf39  1  0.30047561  0.48898928  0.14241789  1
  Zr  Zr40  1  -0.01070200  0.19410479  -0.00259425  1
  Zr  Zr41  1  0.69421610  0.71119916  0.10389413  1
  Zr  Zr42  1  0.18364884  0.60481964  0.75977892  1
  Zr  Zr43  1  0.89922756  0.90969198  0.88070086  1
  Zr  Zr44  1  0.91258783  0.69280013  0.62902754  1
  Zr  Zr45  1  0.31394893  0.89303593  0.61836832  1
  Zr  Zr46  1  0.31292612  0.29227391  0.12397532  1
  Zr  Zr47  1  0.10136496  0.29729667  0.12950503  1
  Zr  Zr48  1  0.00375992  0.80467835  0.22671954  1
  Zr  Zr49  1  0.00239879  0.80199709  0.00475864  1
  Zr  Zr50  1  0.89528979  0.50957778  0.36731052  1
  Zr  Zr51  1  0.80199972  0.79511839  0.77339320  1
  Zr  Zr52  1  0.50029895  0.10897127  0.38941934  1
  Zr  Zr53  1  0.70280203  0.70880802  0.63015586  1
  Zr  Zr54  1  0.90118521  0.10929251  0.14062086  1
  Zr  Zr55  1  0.20660641  -0.02163296  0.25831291  1
  Zr  Zr56  1  0.39655640  0.58193488  -0.00398303  1
  Zr  Zr57  1  0.69488740  0.91337266  0.10003357  1
  Zr  Zr58  1  0.09436310  0.09693082  0.36244538  1
  Zr  Zr59  1  0.18528101  0.39410054  0.75027192  1
  Zr  Zr60  1  0.88708333  0.30727278  0.37386210  1
  Zr  Zr61  1  0.30389577  0.09938826  0.38789950  1
  Zr  Zr62  1  0.60787138  0.79594557  0.49484145  1
  Zr  Zr63  1  0.70974504  0.50336511  0.89183898  1
  Zr  Zr64  1  0.69844187  0.11964386  0.11531580  1
  Zr  Zr65  1  0.60676544  0.00914690  0.24778775  1
  Zr  Zr66  1  0.90509244  0.70988269  0.36747754  1
  Zr  Zr67  1  0.50375043  0.91142394  0.89054040  1
  Zr  Zr68  1  0.30494846  0.68640257  0.12131149  1
  Zr  Zr69  1  0.80918382  -0.00144335  0.50464812  1
  Zr  Zr70  1  -0.00686150  0.40470855  0.24004133  1
  Zr  Zr71  1  0.00382224  0.21711257  0.74768218  1
  Zr  Zr72  1  0.89228087  0.31270646  0.88349161  1
  Zr  Zr73  1  0.69701259  0.10446498  0.87100996  1
  Zr  Zr74  1  0.49481288  0.68576474  0.36278529  1
  Zr  Zr75  1  0.09980379  0.50910861  0.62245662  1
  Zr  Zr76  1  0.41031162  0.78924590  0.75722934  1
  Zr  Zr77  1  0.00859647  0.76903567  0.76265083  1
  Zr  Zr78  1  0.89568008  0.10376734  0.35839978  1
  Zr  Zr79  1  0.19731596  0.77868729  0.48937526  1
  Ta  Ta80  1  0.70456734  0.69603302  0.36589789  1
  Ta  Ta81  1  0.29873647  0.10255725  0.61798280  1
  Ta  Ta82  1  0.78952365  0.20619766  0.50437981  1
  Ta  Ta83  1  0.71268567  0.50131982  0.62860694  1
  Ta  Ta84  1  0.30776000  0.48448087  0.63454505  1
  Ta  Ta85  1  0.29743601  0.09229456  0.87001791  1
  Ta  Ta86  1  0.28999857  0.49271260  0.87021852  1
  Ta  Ta87  1  0.21905067  0.20350371  0.25367750  1
  Ta  Ta88  1  0.20679049  -0.00017454  0.74624006  1
  Ta  Ta89  1  0.30293388  0.90029963  0.88351826  1
  Ta  Ta90  1  0.21234357  0.79515378  0.75629881  1
  Ta  Ta91  1  0.01196767  0.61225559  0.22469040  1
  Ta  Ta92  1  0.19564059  -0.00187406  -0.00305035  1
  Ta  Ta93  1  0.59594236  0.20725668  0.51465645  1
  Ta  Ta94  1  0.19011250  0.19674304  0.50942837  1
  Ta  Ta95  1  0.20503180  -0.00803510  0.49850630  1
  Ta  Ta96  1  0.48728090  0.09655027  0.61233317  1
  Ta  Ta97  1  0.19193754  0.78308045  0.25509150  1
  Ta  Ta98  1  0.30494488  0.67944953  0.62829112  1
  Ta  Ta99  1  0.89127505  0.90815987  0.11039334  1
  Ta  Ta100  1  0.10841281  0.50226252  0.11848157  1
  Ta  Ta101  1  0.70502205  0.30240219  0.62692858  1
  Ta  Ta102  1  0.59272190  0.80427710  0.24953220  1
  Ta  Ta103  1  0.59855714  0.22766373  -0.00246569  1
  Ta  Ta104  1  0.52024012  0.89825900  0.62534156  1
  Ta  Ta105  1  0.10718056  0.09684119  0.13830816  1
  Ta  Ta106  1  0.00971338  0.00698762  0.00741723  1
  Ta  Ta107  1  0.89217030  0.31743045  0.62319389  1
  Ta  Ta108  1  0.21464058  0.39030907  0.49972461  1
  Ta  Ta109  1  0.48954172  0.90204036  0.38161045  1
  Ta  Ta110  1  0.20777679  0.40523772  -0.00258562  1
  Ta  Ta111  1  0.31078595  0.48758184  0.35607904  1
  Ta  Ta112  1  0.50104928  0.48959576  0.36627805  1
  Ta  Ta113  1  0.69966387  0.11559091  0.37843924  1
  Ta  Ta114  1  0.81040291  0.40877878  0.75354189  1
  Ta  Ta115  1  0.39487222  0.59743909  0.76222381  1
  Ta  Ta116  1  0.11726552  0.70144484  0.10498332  1
  Ta  Ta117  1  0.81229195  0.59472976  0.76119211  1
  Ta  Ta118  1  0.60293351  0.39219055  0.24843439  1
  Ta  Ta119  1  0.78660557  0.41172954  0.23286910  1
  Ti  Ti120  1  0.38405923  0.21758513  0.50511618  1
  Ti  Ti121  1  0.79256096  0.21292690  0.75154763  1
  Ti  Ti122  1  0.40600226  0.37426570  0.25383738  1
  Ti  Ti123  1  0.88963775  0.30250076  0.11947610  1
  Ti  Ti124  1  0.49584880  0.10713548  0.86881203  1
  Ti  Ti125  1  0.69258777  0.49666927  0.10820117  1
  Ti  Ti126  1  0.81262049  0.02448550  -0.00488350  1
  Ti  Ti127  1  0.29353134  0.67515524  0.36258157  1
  Ti  Ti128  1  0.70041421  0.70355494  0.90017713  1
  Ti  Ti129  1  0.39798223  0.41313969  0.49681582  1
  Ti  Ti130  1  0.10009762  0.68525081  0.89952173  1
  Ti  Ti131  1  0.49425698  0.30069067  0.38345854  1
  Ti  Ti132  1  0.58450018  0.21191403  0.25139754  1
  Ti  Ti133  1  0.69245864  0.30799517  0.87562504  1
  Ti  Ti134  1  0.49826084  0.48769266  0.12951219  1
  Ti  Ti135  1  0.68879968  0.30898874  0.38538395  1
  Ti  Ti136  1  0.07724034  0.49892383  0.89330336  1
  Ti  Ti137  1  0.49686280  0.11611814  0.12833156  1
  Ti  Ti138  1  0.58304397  0.02772148  0.00190711  1
  Ti  Ti139  1  0.29582092  0.69654635  0.88535419  1
  Ti  Ti140  1  0.49986325  0.29826443  0.85987645  1
  Ti  Ti141  1  0.79926875  0.80295947  0.50075288  1
  Ti  Ti142  1  0.90129982  0.50002380  0.62424394  1
  Ti  Ti143  1  0.00240512  -0.00692684  0.23502476  1
  Ti  Ti144  1  0.89651409  0.10454105  0.86128659  1
  Ti  Ti145  1  0.69847331  0.49794650  0.37329973  1
  Ti  Ti146  1  0.79523571  0.39602850  0.01168657  1
  Ti  Ti147  1  0.22339188  0.58517723  0.49793247  1
  Ti  Ti148  1  0.58764415  0.60080199  0.00136660  1
  Ti  Ti149  1  0.88053639  0.89832063  0.64174535  1
  Ti  Ti150  1  0.89845781  0.67447580  0.90009759  1
  Ti  Ti151  1  0.10338114  0.89087558  0.37713170  1
  Ti  Ti152  1  0.20109479  0.19094950  0.73848580  1
  Ti  Ti153  1  0.40760684  0.78691975  -0.00981887  1
  Ti  Ti154  1  0.70128011  0.91196712  0.89655171  1
  Ti  Ti155  1  0.49018609  0.51993418  0.63477080  1
  Ti  Ti156  1  0.41309130  0.38665366  0.00043218  1
  Ti  Ti157  1  0.09925936  0.09757756  0.86845421  1
  Ti  Ti158  1  0.49712665  0.69745787  0.12782791  1
  Ti  Ti159  1  0.09671878  0.30414366  0.62191652  1
  Mo  Mo160  1  0.39273484  0.58464252  0.49998321  1
  Mo  Mo161  1  0.39724155  0.40495143  0.75149547  1
  Mo  Mo162  1  0.20051948  0.58855964  -0.00938787  1
  Mo  Mo163  1  0.11577015  0.69783296  0.63011497  1
  Mo  Mo164  1  0.39396078  0.00671611  -0.00523987  1
  Mo  Mo165  1  -0.01126623  0.58043707  0.76251310  1
  Mo  Mo166  1  0.00040599  0.59475327  0.02093241  1
  Mo  Mo167  1  0.40115103  -0.00850922  0.50709572  1
  Mo  Mo168  1  0.79119349  0.20846255  -0.00545073  1
  Mo  Mo169  1  0.38863394  0.19262929  0.74782647  1
  Mo  Mo170  1  0.59794098  -0.00233230  0.74955104  1
  Mo  Mo171  1  0.11028446  0.10107948  0.62883285  1
  Mo  Mo172  1  0.20655891  0.79471960  -0.01529525  1
  Mo  Mo173  1  0.40882901  0.19610386  0.25523932  1
  Mo  Mo174  1  0.28621644  0.29714148  0.62717552  1
  Mo  Mo175  1  0.30781203  0.30033538  0.37903130  1
  Mo  Mo176  1  0.90207136  0.49867068  0.89667240  1
  Mo  Mo177  1  0.50641232  0.30095493  0.12760808  1
  Mo  Mo178  1  0.79911669  0.00208332  0.24505689  1
  Mo  Mo179  1  0.90089600  0.70214578  0.10829635  1
  Mo  Mo180  1  0.20645974  0.39360908  0.25207025  1
  Mo  Mo181  1  0.69477376  0.31148093  0.12009263  1
  Mo  Mo182  1  0.19954100  0.59950215  0.24492952  1
  Mo  Mo183  1  0.79260298  0.40165011  0.50302728  1
  Mo  Mo184  1  0.90082438  0.49603336  0.11202168  1
  Mo  Mo185  1  0.80140480  0.80756481  -0.01205863  1
  Mo  Mo186  1  0.58925559  0.40617734  0.00036029  1
  Mo  Mo187  1  0.70910606  0.89588458  0.62957739  1
  Mo  Mo188  1  0.80106491  0.60013930  0.01505795  1
  Mo  Mo189  1  0.50456148  0.69335039  0.88489397  1
  Mo  Mo190  1  0.40929639  0.58788444  0.24565382  1
  Mo  Mo191  1  0.00119102  0.39992057  0.01602373  1
  Mo  Mo192  1  0.49181590  0.69916426  0.63179314  1
  Mo  Mo193  1  0.09967085  0.69946066  0.36464296  1
  Mo  Mo194  1  -0.00919535  0.41462669  0.75099295  1
  Mo  Mo195  1  0.79292430  -0.00230666  0.75918298  1
  Mo  Mo196  1  0.10530562  0.90634185  0.11795189  1
  Mo  Mo197  1  0.00268552  0.20327297  0.24423567  1
  Mo  Mo198  1  0.59244673  0.79796476  -0.01155060  1
  Mo  Mo199  1  0.30270544  0.88888892  0.38534199  1
