# generated using pymatgen
data_HfZrTaTiMo
_symmetry_space_group_name_H-M   'P 1'
_cell_length_a   15.21556677
_cell_length_b   15.22212836
_cell_length_c   16.85207202
_cell_angle_alpha   89.99984947
_cell_angle_beta   90.02411170
_cell_angle_gamma   90.09223015
_symmetry_Int_Tables_number   1
_chemical_formula_structural   HfZrTaTiMo
_chemical_formula_sum   'Hf40 Zr40 Ta40 Ti40 Mo40'
_cell_volume   3903.15878519
_cell_formula_units_Z   40
loop_
 _symmetry_equiv_pos_site_id
 _symmetry_equiv_pos_as_xyz
  1  'x, y, z'
loop_
 _atom_site_type_symbol
 _atom_site_label
 _atom_site_symmetry_multiplicity
 _atom_site_fract_x
 _atom_site_fract_y
 _atom_site_fract_z
 _atom_site_occupancy
  Hf  Hf0  1  0.27844110  0.12353265  0.61992258  1
  Hf  Hf1  1  0.89604016  0.90880323  0.87306243  1
  Hf  Hf2  1  -0.01559605  0.79364410  0.51364814  1
  Hf  Hf3  1  0.90262640  0.49416923  0.63048470  1
  Hf  Hf4  1  0.40408247  0.40273049  0.74051565  1
  Hf  Hf5  1  0.88095407  0.88192320  0.11545480  1
  Hf  Hf6  1  0.70680002  0.09641022  0.86315250  1
  Hf  Hf7  1  0.58753879  0.20134321  0.74940034  1
  Hf  Hf8  1  0.80373070  0.19996591  0.49957958  1
  Hf  Hf9  1  0.62360311  0.80790312  0.25131657  1
  Hf  Hf10  1  0.29926117  0.49929247  0.37630410  1
  Hf  Hf11  1  0.41604661  0.80796974  0.50579411  1
  Hf  Hf12  1  0.07310141  0.89943217  0.12412626  1
  Hf  Hf13  1  0.39799365  0.20973965  0.25007457  1
  Hf  Hf14  1  0.18858479  0.79962313  0.24762265  1
  Hf  Hf15  1  0.20516385  0.40538081  -0.00394981  1
  Hf  Hf16  1  0.51425613  0.69742191  0.12778342  1
  Hf  Hf17  1  0.08499245  0.09925687  0.87721086  1
  Hf  Hf18  1  0.79700798  0.41074189  -0.00836631  1
  Hf  Hf19  1  0.89827738  0.08426551  0.12981316  1
  Hf  Hf20  1  0.40827660  0.60614320  0.51369381  1
  Hf  Hf21  1  0.17296214  0.01939976  0.50412001  1
  Hf  Hf22  1  0.60555277  0.78861404  -0.01059886  1
  Hf  Hf23  1  0.60563236  -0.00744002  -0.01490800  1
  Hf  Hf24  1  0.59030117  -0.01360097  0.75001210  1
  Hf  Hf25  1  0.93158700  0.51122255  0.86940309  1
  Hf  Hf26  1  0.29044554  0.90508496  0.38415983  1
  Hf  Hf27  1  0.10665750  0.28616315  0.62555849  1
  Hf  Hf28  1  0.29745101  0.70103086  0.87624564  1
  Hf  Hf29  1  -0.00309290  0.20099576  0.00679169  1
  Hf  Hf30  1  0.58555822  -0.01073996  0.51269397  1
  Hf  Hf31  1  0.50279049  0.30892471  0.38166092  1
  Hf  Hf32  1  0.39129917  0.01361557  0.75475623  1
  Hf  Hf33  1  0.50983828  0.29851479  0.61741826  1
  Hf  Hf34  1  0.72927917  0.69076768  0.11840452  1
  Hf  Hf35  1  0.19385579  -0.00538937  0.75107909  1
  Hf  Hf36  1  0.30022529  0.50933435  0.87076407  1
  Hf  Hf37  1  0.62578626  0.40047369  0.50210781  1
  Hf  Hf38  1  0.10647956  0.31053193  0.36397174  1
  Hf  Hf39  1  0.10279808  0.52166348  0.12068323  1
  Zr  Zr40  1  0.38269403  0.00334674  0.24362005  1
  Zr  Zr41  1  0.01208058  0.18896309  0.48933247  1
  Zr  Zr42  1  0.71319734  0.49569477  0.36451682  1
  Zr  Zr43  1  0.59940883  0.20058081  -0.00210919  1
  Zr  Zr44  1  0.51899235  0.50833733  0.62544547  1
  Zr  Zr45  1  0.28147090  0.90535483  0.12316606  1
  Zr  Zr46  1  0.69600277  0.09130491  0.12877020  1
  Zr  Zr47  1  0.49430837  0.10135685  0.12663108  1
  Zr  Zr48  1  0.39807135  0.20505709  0.50474705  1
  Zr  Zr49  1  0.39170450  0.79476155  0.01102470  1
  Zr  Zr50  1  0.90870391  0.50157215  0.37716218  1
  Zr  Zr51  1  0.39594056  0.00524644  0.00183670  1
  Zr  Zr52  1  -0.02626643  0.00061136  0.51361530  1
  Zr  Zr53  1  0.39858430  0.80839439  0.74185282  1
  Zr  Zr54  1  0.86914325  0.89000767  0.37436218  1
  Zr  Zr55  1  0.08153559  0.91144586  0.37176333  1
  Zr  Zr56  1  0.70622279  0.69170477  0.63433522  1
  Zr  Zr57  1  0.28239274  0.10957956  0.38188750  1
  Zr  Zr58  1  0.70029296  0.30097613  0.86908353  1
  Zr  Zr59  1  0.10954745  0.30939282  0.13320004  1
  Zr  Zr60  1  0.30648030  0.91676544  0.61044749  1
  Zr  Zr61  1  0.30548104  0.69878105  0.37977043  1
  Zr  Zr62  1  0.19017218  0.77838916  0.73353737  1
  Zr  Zr63  1  0.50303924  0.90240935  0.36480696  1
  Zr  Zr64  1  0.09722075  0.69668947  0.38355280  1
  Zr  Zr65  1  0.81420778  0.61324389  0.76556725  1
  Zr  Zr66  1  0.29307353  0.11324526  0.88427513  1
  Zr  Zr67  1  0.51776289  0.50270827  0.13162762  1
  Zr  Zr68  1  0.89454385  0.30790667  0.37025347  1
  Zr  Zr69  1  0.78321822  -0.00546382  0.52032146  1
  Zr  Zr70  1  0.10370050  0.09454579  0.13185246  1
  Zr  Zr71  1  0.50206505  0.10201283  0.37515470  1
  Zr  Zr72  1  0.50557289  0.50213070  0.37258062  1
  Zr  Zr73  1  -0.00396947  0.40876852  0.00498104  1
  Zr  Zr74  1  -0.00762977  0.20236862  0.24714903  1
  Zr  Zr75  1  0.50875837  0.49649806  0.87598335  1
  Zr  Zr76  1  -0.00227946  -0.00375773  0.73860922  1
  Zr  Zr77  1  0.17997735  -0.00559330  -0.00809529  1
  Zr  Zr78  1  0.48755733  0.89291722  0.87770519  1
  Zr  Zr79  1  0.39776695  0.79161054  0.24133494  1
  Ta  Ta80  1  0.39988252  0.40169233  0.24569715  1
  Ta  Ta81  1  0.51510007  0.69621458  0.36981244  1
  Ta  Ta82  1  0.20175283  0.59645432  0.25055799  1
  Ta  Ta83  1  0.40527736  0.59591165  0.00599493  1
  Ta  Ta84  1  -0.00151023  0.60799848  0.24514627  1
  Ta  Ta85  1  0.60505523  0.39806508  0.00744156  1
  Ta  Ta86  1  0.51126026  0.90366723  0.12797698  1
  Ta  Ta87  1  0.69221468  0.10691245  0.63632467  1
  Ta  Ta88  1  0.49076551  0.30149519  0.87760346  1
  Ta  Ta89  1  0.80459239  0.59484742  0.50525197  1
  Ta  Ta90  1  0.08534250  0.86977409  0.87300730  1
  Ta  Ta91  1  0.30116603  0.30591725  0.87662505  1
  Ta  Ta92  1  0.79520991  -0.00478191  0.73657397  1
  Ta  Ta93  1  0.89440959  0.11183010  0.86466035  1
  Ta  Ta94  1  0.00623805  0.59430855  0.51548573  1
  Ta  Ta95  1  0.39532602  0.60837870  0.73416593  1
  Ta  Ta96  1  0.89634121  0.12034785  0.64289917  1
  Ta  Ta97  1  0.71829532  0.30056959  0.63520386  1
  Ta  Ta98  1  0.70085160  0.29011232  0.37280996  1
  Ta  Ta99  1  0.20517466  0.59183601  0.51787096  1
  Ta  Ta100  1  0.51694948  0.71636764  0.63567206  1
  Ta  Ta101  1  0.38940797  0.21066266  0.74466478  1
  Ta  Ta102  1  0.02340729  0.60235496  0.73056265  1
  Ta  Ta103  1  0.19666231  0.79428805  0.51292648  1
  Ta  Ta104  1  0.10508976  0.50133752  0.37671695  1
  Ta  Ta105  1  0.80705668  0.40322879  0.76244307  1
  Ta  Ta106  1  0.29788725  0.31340776  0.37553505  1
  Ta  Ta107  1  0.80241021  0.20464922  0.00537751  1
  Ta  Ta108  1  0.09247038  0.89514982  0.62225194  1
  Ta  Ta109  1  -0.02041935  0.79310715  0.24890538  1
  Ta  Ta110  1  0.09908103  0.67084204  0.87245367  1
  Ta  Ta111  1  0.70204919  0.08561771  0.36784074  1
  Ta  Ta112  1  0.00686081  0.39721044  0.50397035  1
  Ta  Ta113  1  0.71542787  0.70399155  0.37664455  1
  Ta  Ta114  1  0.78763098  0.20328990  0.24588559  1
  Ta  Ta115  1  0.50329662  0.30386984  0.12641297  1
  Ta  Ta116  1  0.30474820  0.49758994  0.12872750  1
  Ta  Ta117  1  0.49927802  0.68854408  0.87125575  1
  Ta  Ta118  1  0.28026687  0.89315562  0.87857899  1
  Ta  Ta119  1  0.17524526  0.77835396  0.00362903  1
  Ti  Ti120  1  0.30065189  0.30366636  0.12464559  1
  Ti  Ti121  1  0.20511250  0.40154579  0.75224291  1
  Ti  Ti122  1  0.69623177  0.89464301  0.11538489  1
  Ti  Ti123  1  0.68537316  0.87947635  0.64096245  1
  Ti  Ti124  1  0.40393667  0.59964129  0.24676513  1
  Ti  Ti125  1  0.89923013  0.08890855  0.35798002  1
  Ti  Ti126  1  0.48639725  0.09248303  0.62175908  1
  Ti  Ti127  1  0.61484908  0.38486960  0.24318734  1
  Ti  Ti128  1  0.20423303  0.20127916  0.25073133  1
  Ti  Ti129  1  0.71229283  0.49489653  0.63082875  1
  Ti  Ti130  1  0.49234532  0.11029252  0.87636348  1
  Ti  Ti131  1  0.89785788  0.69165247  0.37905931  1
  Ti  Ti132  1  -0.00389407  0.41712515  0.23782198  1
  Ti  Ti133  1  0.01221677  0.39579159  0.75227286  1
  Ti  Ti134  1  0.38281744  0.40671275  0.51746119  1
  Ti  Ti135  1  0.88304953  0.31491296  0.13010380  1
  Ti  Ti136  1  0.19246749  0.20471138  0.75741781  1
  Ti  Ti137  1  0.62085019  0.60364907  0.25155456  1
  Ti  Ti138  1  0.78329928  -0.02072161  0.24908885  1
  Ti  Ti139  1  0.80176435  0.00466709  -0.00628802  1
  Ti  Ti140  1  0.79356686  0.79379013  0.51265304  1
  Ti  Ti141  1  0.28777891  0.68602788  0.12128645  1
  Ti  Ti142  1  0.72263134  0.49098594  0.13602698  1
  Ti  Ti143  1  0.60148591  0.19711963  0.24986477  1
  Ti  Ti144  1  0.90484177  0.30357260  0.63299359  1
  Ti  Ti145  1  0.61082966  0.60840744  0.49680032  1
  Ti  Ti146  1  0.62427601  0.58877686  -0.00870953  1
  Ti  Ti147  1  0.10172815  0.30283606  0.87717970  1
  Ti  Ti148  1  0.60859867  0.79722234  0.49524122  1
  Ti  Ti149  1  0.82669322  0.60836183  -0.01635715  1
  Ti  Ti150  1  0.11250055  0.48548692  0.62416552  1
  Ti  Ti151  1  -0.01753170  0.78713307  0.73475806  1
  Ti  Ti152  1  0.28867141  0.11320288  0.11636689  1
  Ti  Ti153  1  0.60755502  0.59945546  0.76216851  1
  Ti  Ti154  1  0.61060729  0.40437065  0.75197031  1
  Ti  Ti155  1  0.61142351  0.19155963  0.50203485  1
  Ti  Ti156  1  0.79944900  0.79400351  -0.02432033  1
  Ti  Ti157  1  0.39279055  0.21393024  0.00420048  1
  Ti  Ti158  1  0.40767816  0.40214898  0.00579135  1
  Ti  Ti159  1  0.90665272  0.29550786  0.86887700  1
  Mo  Mo160  1  0.30733360  0.69987384  0.61636900  1
  Mo  Mo161  1  0.79643891  0.80638782  0.75975486  1
  Mo  Mo162  1  0.70783710  0.50130615  0.87747827  1
  Mo  Mo163  1  0.80248553  0.78246506  0.24738192  1
  Mo  Mo164  1  0.21271661  0.60114911  0.00200911  1
  Mo  Mo165  1  0.00145629  0.21075659  0.75719088  1
  Mo  Mo166  1  0.20196345  0.21201819  -0.00165708  1
  Mo  Mo167  1  0.70446740  0.69360235  0.87846325  1
  Mo  Mo168  1  0.81429211  0.60474764  0.24840231  1
  Mo  Mo169  1  0.20707721  0.58785676  0.73260764  1
  Mo  Mo170  1  -0.00955175  0.79219131  -0.00617385  1
  Mo  Mo171  1  0.09946470  0.69453789  0.61612996  1
  Mo  Mo172  1  0.09157386  0.10047904  0.63558286  1
  Mo  Mo173  1  0.30092595  0.49744063  0.62871423  1
  Mo  Mo174  1  0.69739450  0.30038844  0.12502712  1
  Mo  Mo175  1  0.19562753  0.40158587  0.50062472  1
  Mo  Mo176  1  0.39299154  0.00412907  0.49954761  1
  Mo  Mo177  1  0.50595393  0.90137467  0.62927437  1
  Mo  Mo178  1  0.01624928  0.61470851  -0.00014425  1
  Mo  Mo179  1  0.80846106  0.39585103  0.50990828  1
  Mo  Mo180  1  0.91685257  0.69256786  0.11464922  1
  Mo  Mo181  1  0.89404962  0.51544811  0.12327547  1
  Mo  Mo182  1  0.19371695  0.22012186  0.49255879  1
  Mo  Mo183  1  0.69591508  0.89679648  0.38259305  1
  Mo  Mo184  1  0.09232915  0.10213022  0.35531860  1
  Mo  Mo185  1  0.20786297  0.40711313  0.24574132  1
  Mo  Mo186  1  -0.01707971  -0.00950241  0.25361143  1
  Mo  Mo187  1  0.60358533  0.00182003  0.24744152  1
  Mo  Mo188  1  0.60338939  0.78728836  0.76820741  1
  Mo  Mo189  1  0.80068544  0.20671449  0.74703121  1
  Mo  Mo190  1  0.70156767  0.89480011  0.86395903  1
  Mo  Mo191  1  0.18489867  0.00867706  0.25427130  1
  Mo  Mo192  1  0.10146813  0.70813703  0.13263867  1
  Mo  Mo193  1  0.92255979  0.71378352  0.86988103  1
  Mo  Mo194  1  0.29576282  0.30987703  0.63217655  1
  Mo  Mo195  1  0.80500395  0.39494379  0.24379076  1
  Mo  Mo196  1  0.88175081  0.88958236  0.63530744  1
  Mo  Mo197  1  -0.01783625  0.00001174  -0.00892969  1
  Mo  Mo198  1  0.11168974  0.49207180  0.86571118  1
  Mo  Mo199  1  0.89846981  0.69336973  0.62374782  1
