# generated using pymatgen
data_HfZrTaTiMo
_symmetry_space_group_name_H-M   'P 1'
_cell_length_a   15.21363034
_cell_length_b   15.19873631
_cell_length_c   16.83971543
_cell_angle_alpha   90.04778281
_cell_angle_beta   89.97063357
_cell_angle_gamma   89.89971792
_symmetry_Int_Tables_number   1
_chemical_formula_structural   HfZrTaTiMo
_chemical_formula_sum   'Hf40 Zr40 Ta40 Ti40 Mo40'
_cell_volume   3893.80514234
_cell_formula_units_Z   40
loop_
 _symmetry_equiv_pos_site_id
 _symmetry_equiv_pos_as_xyz
  1  'x, y, z'
loop_
 _atom_site_type_symbol
 _atom_site_label
 _atom_site_symmetry_multiplicity
 _atom_site_fract_x
 _atom_site_fract_y
 _atom_site_fract_z
 _atom_site_occupancy
  Hf  Hf0  1  0.49796606  0.69550555  0.88475482  1
  Hf  Hf1  1  0.81463766  -0.00313659  0.24436854  1
  Hf  Hf2  1  0.50181089  0.69005379  0.37473839  1
  Hf  Hf3  1  0.70735713  0.68726122  0.13247087  1
  Hf  Hf4  1  0.00070160  -0.00415755  0.74651069  1
  Hf  Hf5  1  0.79867305  0.22114465  0.01673038  1
  Hf  Hf6  1  0.88991301  0.30171587  0.86979990  1
  Hf  Hf7  1  0.13551005  0.89670622  0.38820474  1
  Hf  Hf8  1  0.28492409  0.71220057  0.38690620  1
  Hf  Hf9  1  0.30459734  0.11487049  0.87238477  1
  Hf  Hf10  1  0.30193533  0.09472407  0.38792128  1
  Hf  Hf11  1  -0.00456558  0.20848222  0.49436685  1
  Hf  Hf12  1  0.29689094  0.31082226  0.61876481  1
  Hf  Hf13  1  0.10820746  0.89411546  0.87025789  1
  Hf  Hf14  1  0.00997734  0.59062589  0.74699148  1
  Hf  Hf15  1  0.90708260  0.09814636  0.61880066  1
  Hf  Hf16  1  0.71254295  0.88285932  0.35919250  1
  Hf  Hf17  1  0.79881737  0.39790567  0.48967526  1
  Hf  Hf18  1  0.70376740  0.89220686  0.12997749  1
  Hf  Hf19  1  0.18463868  0.40821719  0.74138919  1
  Hf  Hf20  1  0.69503240  0.10542892  0.13162952  1
  Hf  Hf21  1  0.69977184  0.69832031  0.88224857  1
  Hf  Hf22  1  0.52491895  0.87961262  0.63825114  1
  Hf  Hf23  1  0.59468122  -0.00864885  0.00696398  1
  Hf  Hf24  1  0.71040041  0.90177243  0.89457888  1
  Hf  Hf25  1  0.91109743  0.89780099  0.89313853  1
  Hf  Hf26  1  0.09640729  0.30633274  0.35900485  1
  Hf  Hf27  1  0.30956283  0.90632181  0.85359328  1
  Hf  Hf28  1  0.09190402  0.72026236  0.12154910  1
  Hf  Hf29  1  0.68926777  0.71093481  0.62703742  1
  Hf  Hf30  1  0.90905779  0.49136682  0.61662025  1
  Hf  Hf31  1  0.79805200  0.80831975  0.75530731  1
  Hf  Hf32  1  0.19127270  0.62330627  0.24970545  1
  Hf  Hf33  1  0.39398260  0.59689539  0.74597240  1
  Hf  Hf34  1  0.69046042  0.49457427  0.62124588  1
  Hf  Hf35  1  0.00386821  0.20737612  0.74483806  1
  Hf  Hf36  1  0.59104808  0.19301323  0.50233425  1
  Hf  Hf37  1  0.93394644  0.89508811  0.11922058  1
  Hf  Hf38  1  0.10299416  0.11083769  0.87903948  1
  Hf  Hf39  1  0.28996786  0.49796965  0.88444181  1
  Zr  Zr40  1  0.58764733  0.59731851  0.74784471  1
  Zr  Zr41  1  0.49078246  0.08786916  0.12589261  1
  Zr  Zr42  1  0.80491167  0.59917035  0.74710103  1
  Zr  Zr43  1  0.30147473  0.71139102  0.87805788  1
  Zr  Zr44  1  0.29922568  0.30215235  0.38833810  1
  Zr  Zr45  1  0.41183120  0.80678242  0.49631746  1
  Zr  Zr46  1  0.38602139  0.59875858  0.24264275  1
  Zr  Zr47  1  0.19885631  0.00539549  -0.00147542  1
  Zr  Zr48  1  0.88821800  0.89670916  0.61295834  1
  Zr  Zr49  1  0.39045791  0.59583116  0.01289286  1
  Zr  Zr50  1  0.19997762  0.60035850  0.73465303  1
  Zr  Zr51  1  0.09745975  0.89615724  0.61743179  1
  Zr  Zr52  1  0.49315811  0.28763716  0.12232923  1
  Zr  Zr53  1  0.60708230  0.39484188  -0.00167243  1
  Zr  Zr54  1  0.09958175  0.29677296  0.13932221  1
  Zr  Zr55  1  0.20247162  0.02250810  0.73199758  1
  Zr  Zr56  1  0.10759539  0.10380349  0.37052088  1
  Zr  Zr57  1  0.31715407  0.89340148  0.64372327  1
  Zr  Zr58  1  0.09859144  0.08528792  0.13478930  1
  Zr  Zr59  1  0.79805191  0.57356430  0.00341728  1
  Zr  Zr60  1  0.19214701  0.42244413  0.50181387  1
  Zr  Zr61  1  0.40243820  0.39778250  0.24843042  1
  Zr  Zr62  1  0.49864161  0.10115183  0.86883611  1
  Zr  Zr63  1  0.79728179  0.19143143  0.48670479  1
  Zr  Zr64  1  -0.00113037  0.19604312  0.01319245  1
  Zr  Zr65  1  0.70686812  0.09112289  0.61859610  1
  Zr  Zr66  1  0.69863665  0.48535687  0.86444083  1
  Zr  Zr67  1  0.61727777  -0.00011410  0.74814096  1
  Zr  Zr68  1  0.70551520  0.10995139  0.88477276  1
  Zr  Zr69  1  0.70312037  0.31887051  0.14492661  1
  Zr  Zr70  1  0.21420440  0.41453905  0.24707066  1
  Zr  Zr71  1  0.90148330  0.69784227  0.61113283  1
  Zr  Zr72  1  0.89955943  0.09894528  0.88052073  1
  Zr  Zr73  1  0.69500497  0.29719612  0.36664544  1
  Zr  Zr74  1  0.50205572  0.88795202  0.85806810  1
  Zr  Zr75  1  0.10761341  0.69359480  0.88612942  1
  Zr  Zr76  1  -0.00228199  0.59411257  0.00391065  1
  Zr  Zr77  1  0.60762712  -0.01688794  0.49235139  1
  Zr  Zr78  1  0.07942099  0.50537768  0.14057445  1
  Zr  Zr79  1  0.59303309  0.58662290  0.23957575  1
  Ta  Ta80  1  0.40132756  0.39951603  0.74721910  1
  Ta  Ta81  1  0.58765730  -0.01180898  0.25422655  1
  Ta  Ta82  1  -0.00211148  0.80425485  0.48089099  1
  Ta  Ta83  1  0.00232962  0.78805410  0.74853003  1
  Ta  Ta84  1  0.21237617  0.00407259  0.51854054  1
  Ta  Ta85  1  0.59594840  0.59465235  0.01134796  1
  Ta  Ta86  1  0.61797043  0.78204604  0.48584294  1
  Ta  Ta87  1  0.09788516  0.31111121  0.88188077  1
  Ta  Ta88  1  0.58855631  0.19222193  0.25899763  1
  Ta  Ta89  1  0.49442729  0.09109983  0.37496868  1
  Ta  Ta90  1  0.07970858  0.31619883  0.61974931  1
  Ta  Ta91  1  0.82531869  0.78797240  0.24663426  1
  Ta  Ta92  1  0.39766446  -0.00104919  -0.00238091  1
  Ta  Ta93  1  0.68724298  0.50989338  0.37790237  1
  Ta  Ta94  1  0.49305618  0.29226651  0.38236433  1
  Ta  Ta95  1  0.19182768  0.40582243  0.01294567  1
  Ta  Ta96  1  0.88811962  0.29994281  0.62654334  1
  Ta  Ta97  1  0.10203895  0.69613210  0.60045021  1
  Ta  Ta98  1  0.21288786  0.19706840  0.24840059  1
  Ta  Ta99  1  0.01761448  -0.01599130  0.26239222  1
  Ta  Ta100  1  0.60084802  0.79335392  0.01148400  1
  Ta  Ta101  1  0.78192355  0.60952327  0.49063567  1
  Ta  Ta102  1  0.80739629  0.00029223  0.75337100  1
  Ta  Ta103  1  0.90707328  0.48962399  0.86873789  1
  Ta  Ta104  1  0.10144952  0.51516419  0.36735902  1
  Ta  Ta105  1  -0.01709332  0.61529123  0.26558786  1
  Ta  Ta106  1  0.30099274  0.12048318  0.11413600  1
  Ta  Ta107  1  0.81320511  0.78779504  0.01057111  1
  Ta  Ta108  1  0.40266526  0.81270194  0.25532969  1
  Ta  Ta109  1  0.59219663  0.40164407  0.49382987  1
  Ta  Ta110  1  0.49681745  0.70951983  0.12567524  1
  Ta  Ta111  1  -0.01967718  0.39600198  0.00935756  1
  Ta  Ta112  1  0.41338949  0.00633461  0.51720994  1
  Ta  Ta113  1  0.59266397  0.21073219  0.73898825  1
  Ta  Ta114  1  0.39633877  0.20029338  0.73306615  1
  Ta  Ta115  1  0.90150032  0.30144626  0.35277260  1
  Ta  Ta116  1  0.20851015  0.80763726  0.00868889  1
  Ta  Ta117  1  0.39637419  0.19544049  0.25587975  1
  Ta  Ta118  1  0.90506311  0.69784281  0.87932322  1
  Ta  Ta119  1  0.00553604  0.00433201  0.48742514  1
  Ti  Ti120  1  0.79616960  0.39187475  0.74213456  1
  Ti  Ti121  1  0.30601630  0.91614027  0.12586024  1
  Ti  Ti122  1  0.89198541  0.50270797  0.36855827  1
  Ti  Ti123  1  0.50196821  0.31031533  0.62135435  1
  Ti  Ti124  1  0.69663485  0.09172743  0.36392800  1
  Ti  Ti125  1  0.29191934  0.30310400  0.87226586  1
  Ti  Ti126  1  0.59060159  0.39760507  0.26019914  1
  Ti  Ti127  1  0.20938392  0.82534183  0.24514831  1
  Ti  Ti128  1  0.39613966  0.40907553  0.49990214  1
  Ti  Ti129  1  0.30981594  0.69121096  0.60824943  1
  Ti  Ti130  1  0.79125377  0.19464138  0.74470146  1
  Ti  Ti131  1  0.81044134  -0.01405720  0.47880492  1
  Ti  Ti132  1  0.39169260  -0.00085435  0.25281870  1
  Ti  Ti133  1  0.88562858  0.70696928  0.38353053  1
  Ti  Ti134  1  0.87460359  0.49184418  0.15022243  1
  Ti  Ti135  1  0.90426935  0.68746509  0.12839571  1
  Ti  Ti136  1  0.09550868  0.49413239  0.88492281  1
  Ti  Ti137  1  0.39922076  0.19690938  0.51414063  1
  Ti  Ti138  1  0.29781318  0.71361185  0.12371578  1
  Ti  Ti139  1  0.90458880  0.09828579  0.36378910  1
  Ti  Ti140  1  0.69446183  0.30159537  0.62374300  1
  Ti  Ti141  1  0.49481795  0.48746191  0.87989919  1
  Ti  Ti142  1  0.48868731  0.49616080  0.38316968  1
  Ti  Ti143  1  0.68779243  0.29777755  0.86525964  1
  Ti  Ti144  1  0.58936163  0.19964679  -0.00240838  1
  Ti  Ti145  1  0.80078555  0.19635603  0.25037949  1
  Ti  Ti146  1  0.19055556  0.20131934  0.51273105  1
  Ti  Ti147  1  0.81839828  0.01149738  0.02344728  1
  Ti  Ti148  1  0.90475959  0.30730128  0.15457951  1
  Ti  Ti149  1  0.40512486  0.81544811  0.00954704  1
  Ti  Ti150  1  0.38775206  0.38424157  0.00438317  1
  Ti  Ti151  1  0.01698332  0.79728209  0.27158877  1
  Ti  Ti152  1  0.49919124  0.49029484  0.11814605  1
  Ti  Ti153  1  0.59703814  0.79521363  0.24955109  1
  Ti  Ti154  1  0.00082399  0.59713608  0.48408035  1
  Ti  Ti155  1  0.48826643  0.29730719  0.86958279  1
  Ti  Ti156  1  0.48971229  0.50552910  0.61404105  1
  Ti  Ti157  1  0.19632989  0.21143121  0.73530108  1
  Ti  Ti158  1  0.19923424  0.78770142  0.73674157  1
  Ti  Ti159  1  -0.00418983  0.40357013  0.48361707  1
  Mo  Mo160  1  0.29721127  0.30006141  0.11994245  1
  Mo  Mo161  1  0.20777455  0.22123451  -0.00236332  1
  Mo  Mo162  1  0.19952651  0.60476518  0.50008691  1
  Mo  Mo163  1  0.30485182  0.49941148  0.62327083  1
  Mo  Mo164  1  0.09335717  0.70149204  0.38924895  1
  Mo  Mo165  1  0.40738199  0.77563783  0.73879808  1
  Mo  Mo166  1  0.22049869  0.00371610  0.24882554  1
  Mo  Mo167  1  0.49365499  0.89188710  0.12927158  1
  Mo  Mo168  1  0.00527960  0.79872225  -0.00320922  1
  Mo  Mo169  1  0.20606761  0.80558465  0.51403331  1
  Mo  Mo170  1  0.79722441  0.79912046  0.48896648  1
  Mo  Mo171  1  0.09790870  0.11244846  0.61397098  1
  Mo  Mo172  1  0.30026581  0.11064991  0.61470162  1
  Mo  Mo173  1  0.49779466  0.69268040  0.61390243  1
  Mo  Mo174  1  0.11819198  0.89724937  0.13164305  1
  Mo  Mo175  1  0.39658562  0.20385294  -0.00936139  1
  Mo  Mo176  1  0.60677646  0.79188739  0.75743704  1
  Mo  Mo177  1  0.08905870  0.50547415  0.61106841  1
  Mo  Mo178  1  0.31999978  0.91254213  0.38194108  1
  Mo  Mo179  1  -0.00642730  0.39896746  0.75052054  1
  Mo  Mo180  1  0.79289492  0.41104085  0.26825534  1
  Mo  Mo181  1  0.58383296  0.39068572  0.74723086  1
  Mo  Mo182  1  0.80845027  0.39710524  0.00465838  1
  Mo  Mo183  1  0.71241185  0.89531174  0.61689215  1
  Mo  Mo184  1  0.41012686  0.01340023  0.72918515  1
  Mo  Mo185  1  -0.00623236  0.18966962  0.25012943  1
  Mo  Mo186  1  0.91431732  0.90074301  0.37032463  1
  Mo  Mo187  1  0.39364503  0.59112527  0.49610657  1
  Mo  Mo188  1  0.59175912  0.59480475  0.50036598  1
  Mo  Mo189  1  0.90233063  0.10294155  0.14213751  1
  Mo  Mo190  1  0.29215928  0.50272597  0.11428117  1
  Mo  Mo191  1  0.70001020  0.69345242  0.36024104  1
  Mo  Mo192  1  0.20029007  0.59898691  0.01699479  1
  Mo  Mo193  1  0.30346594  0.51397557  0.37963224  1
  Mo  Mo194  1  0.50061702  0.09996871  0.62920930  1
  Mo  Mo195  1  -0.00426741  0.41173901  0.26250304  1
  Mo  Mo196  1  0.69214055  0.49575236  0.13342937  1
  Mo  Mo197  1  0.79941137  0.60326373  0.26248213  1
  Mo  Mo198  1  0.50207873  0.89965997  0.36969306  1
  Mo  Mo199  1  0.00486557  -0.00119229  0.00280994  1
