# generated using pymatgen
data_HfZrTaTiMo
_symmetry_space_group_name_H-M   'P 1'
_cell_length_a   15.20023092
_cell_length_b   15.18911943
_cell_length_c   16.87456505
_cell_angle_alpha   89.94541457
_cell_angle_beta   89.96602409
_cell_angle_gamma   89.93126182
_symmetry_Int_Tables_number   1
_chemical_formula_structural   HfZrTaTiMo
_chemical_formula_sum   'Hf40 Zr40 Ta40 Ti40 Mo40'
_cell_volume   3895.96264814
_cell_formula_units_Z   40
loop_
 _symmetry_equiv_pos_site_id
 _symmetry_equiv_pos_as_xyz
  1  'x, y, z'
loop_
 _atom_site_type_symbol
 _atom_site_label
 _atom_site_symmetry_multiplicity
 _atom_site_fract_x
 _atom_site_fract_y
 _atom_site_fract_z
 _atom_site_occupancy
  Hf  Hf0  1  0.12620843  0.49610114  0.13189686  1
  Hf  Hf1  1  0.60544009  -0.00156394  0.72591805  1
  Hf  Hf2  1  0.00793135  0.38536499  0.01356426  1
  Hf  Hf3  1  0.61028917  0.41912746  0.47858582  1
  Hf  Hf4  1  0.48433116  0.91251773  0.37437007  1
  Hf  Hf5  1  0.01144000  0.60632354  -0.00244314  1
  Hf  Hf6  1  0.79958552  0.40215920  0.01759612  1
  Hf  Hf7  1  0.22776464  0.39179474  -0.00328370  1
  Hf  Hf8  1  0.10596514  0.48701227  0.87269249  1
  Hf  Hf9  1  0.59984745  0.21396845  -0.00219920  1
  Hf  Hf10  1  0.57869826  0.79158910  0.49859707  1
  Hf  Hf11  1  0.91661329  0.51470222  0.13585219  1
  Hf  Hf12  1  0.09010353  0.88858986  0.38287248  1
  Hf  Hf13  1  0.40085683  0.41220759  0.27120962  1
  Hf  Hf14  1  0.20451306  0.18856160  0.00112725  1
  Hf  Hf15  1  0.50285688  0.91384842  0.87295475  1
  Hf  Hf16  1  0.41120740  0.59875048  0.75726555  1
  Hf  Hf17  1  0.00219132  0.57554120  0.49618437  1
  Hf  Hf18  1  0.00280231  0.21829688  0.49943055  1
  Hf  Hf19  1  0.59008329  0.79367896  0.73619865  1
  Hf  Hf20  1  0.30870250  0.31204133  0.14469318  1
  Hf  Hf21  1  0.71851071  0.11289628  0.11997386  1
  Hf  Hf22  1  0.90434731  0.49092761  0.87479252  1
  Hf  Hf23  1  0.29387202  0.10551681  0.86664342  1
  Hf  Hf24  1  0.40411045  0.59095750  -0.00317082  1
  Hf  Hf25  1  0.18050873  0.79207976  0.00670298  1
  Hf  Hf26  1  0.78039356  0.39861206  0.75269042  1
  Hf  Hf27  1  0.88084571  0.91019104  0.87770406  1
  Hf  Hf28  1  0.89489020  0.69137996  0.37881828  1
  Hf  Hf29  1  0.70137291  0.08455707  0.87238902  1
  Hf  Hf30  1  0.60349192  0.41110604  0.25482583  1
  Hf  Hf31  1  0.80091638  0.00423893  0.26659927  1
  Hf  Hf32  1  0.69134536  0.31916396  0.88418713  1
  Hf  Hf33  1  0.21401229  0.60388492  0.76260965  1
  Hf  Hf34  1  0.60042950  0.63833911  0.24939092  1
  Hf  Hf35  1  0.82315817  0.40462291  0.49357298  1
  Hf  Hf36  1  0.51546047  0.31214022  0.61480216  1
  Hf  Hf37  1  0.41039307  0.62208551  0.47552537  1
  Hf  Hf38  1  0.59274514  0.00421577  0.51381708  1
  Hf  Hf39  1  0.77554905  0.80206997  -0.00377612  1
  Zr  Zr40  1  0.91663255  0.07807188  0.12740842  1
  Zr  Zr41  1  0.28583943  0.89997909  0.87954179  1
  Zr  Zr42  1  0.09507523  0.48900667  0.35731984  1
  Zr  Zr43  1  0.41455786  0.18392646  0.26664992  1
  Zr  Zr44  1  0.39948635  0.00616004  0.73988602  1
  Zr  Zr45  1  0.79880382  0.39069656  0.23490625  1
  Zr  Zr46  1  0.30498880  0.29153975  0.61352106  1
  Zr  Zr47  1  0.90587407  0.70172867  0.60842848  1
  Zr  Zr48  1  0.50992910  0.70396839  0.88200866  1
  Zr  Zr49  1  0.60580203  -0.00200008  -0.00093095  1
  Zr  Zr50  1  0.18567411  0.00358127  0.25343373  1
  Zr  Zr51  1  0.39936133  0.40786366  0.48387082  1
  Zr  Zr52  1  0.89862300  0.70259118  0.88688872  1
  Zr  Zr53  1  0.62352641  0.20119205  0.25486236  1
  Zr  Zr54  1  0.50928799  0.52159028  0.61513718  1
  Zr  Zr55  1  -0.00151588  0.00738796  0.49313127  1
  Zr  Zr56  1  0.78195763  0.80774722  0.74078433  1
  Zr  Zr57  1  0.00680971  0.18564211  -0.00219718  1
  Zr  Zr58  1  0.69227287  0.90619985  0.13763119  1
  Zr  Zr59  1  0.29943612  0.10007284  0.13629627  1
  Zr  Zr60  1  0.72232827  0.29041241  0.38205078  1
  Zr  Zr61  1  0.18541793  0.79123062  0.74894109  1
  Zr  Zr62  1  0.11024401  0.28098208  0.86263182  1
  Zr  Zr63  1  0.11272783  0.27322025  0.14204970  1
  Zr  Zr64  1  0.89315700  0.29595375  0.63635640  1
  Zr  Zr65  1  0.21692779  0.38713178  0.74643275  1
  Zr  Zr66  1  0.09133990  0.88996750  0.60526572  1
  Zr  Zr67  1  0.80492108  0.61022225  0.74750879  1
  Zr  Zr68  1  0.91331822  0.49478791  0.63947695  1
  Zr  Zr69  1  0.50459363  0.10011980  0.12326731  1
  Zr  Zr70  1  0.30356291  0.50288363  0.61832161  1
  Zr  Zr71  1  0.60138583  0.21491270  0.75111317  1
  Zr  Zr72  1  0.38465434  0.79758733  0.75551685  1
  Zr  Zr73  1  0.48660587  0.51424697  0.13760978  1
  Zr  Zr74  1  0.19485463  0.79310419  0.24761410  1
  Zr  Zr75  1  0.28875974  0.29266973  0.37470424  1
  Zr  Zr76  1  0.80458567  0.00704836  0.72822307  1
  Zr  Zr77  1  0.61546261  0.61797882  0.01860379  1
  Zr  Zr78  1  0.78887579  0.01017208  0.50169724  1
  Zr  Zr79  1  -0.00986137  0.80181578  0.74595514  1
  Ta  Ta80  1  0.78171333  0.79097318  0.25809030  1
  Ta  Ta81  1  0.21066311  0.59745484  -0.01078771  1
  Ta  Ta82  1  0.39177477  0.00472806  -0.00030990  1
  Ta  Ta83  1  -0.01798812  0.79954444  0.25053767  1
  Ta  Ta84  1  0.80666899  0.19927991  -0.01285087  1
  Ta  Ta85  1  0.48480836  0.31460656  0.87395391  1
  Ta  Ta86  1  0.38979836  0.80038265  0.00666968  1
  Ta  Ta87  1  0.71510888  0.52391212  0.35991913  1
  Ta  Ta88  1  0.30067302  0.68542827  0.12418164  1
  Ta  Ta89  1  0.00449656  0.17315533  0.25751963  1
  Ta  Ta90  1  0.48535883  0.90431353  0.13342446  1
  Ta  Ta91  1  0.68340233  0.68744261  0.61101394  1
  Ta  Ta92  1  0.00443751  0.38565803  0.23374852  1
  Ta  Ta93  1  0.91739275  0.30207524  0.36235214  1
  Ta  Ta94  1  0.40919001  0.18766538  0.49065229  1
  Ta  Ta95  1  0.32671927  0.47752406  0.87122717  1
  Ta  Ta96  1  0.07704437  0.90095368  0.13195428  1
  Ta  Ta97  1  0.08676887  0.69430200  0.13403567  1
  Ta  Ta98  1  0.00097810  -0.01682446  -0.00487186  1
  Ta  Ta99  1  0.49066181  0.11456195  0.87680783  1
  Ta  Ta100  1  0.01786668  0.60646615  0.75897859  1
  Ta  Ta101  1  0.90720896  0.09959058  0.87194282  1
  Ta  Ta102  1  0.30806046  0.70373451  0.61469642  1
  Ta  Ta103  1  0.17644177  0.39532639  0.50384344  1
  Ta  Ta104  1  0.18983011  -0.00438289  0.00950888  1
  Ta  Ta105  1  0.70751894  0.52017145  0.88833048  1
  Ta  Ta106  1  0.18950645  -0.00291251  0.73970398  1
  Ta  Ta107  1  0.61394342  0.59551297  0.75287690  1
  Ta  Ta108  1  0.39712945  0.21390298  0.00083458  1
  Ta  Ta109  1  0.28896249  0.89892412  0.61607831  1
  Ta  Ta110  1  0.52156075  0.49388273  0.87822995  1
  Ta  Ta111  1  0.00393296  0.18637697  0.74846186  1
  Ta  Ta112  1  0.39939308  0.79334241  0.24815656  1
  Ta  Ta113  1  0.50956949  0.29587032  0.38196568  1
  Ta  Ta114  1  0.50625456  0.30484336  0.13064698  1
  Ta  Ta115  1  0.70191116  0.49135825  0.61999592  1
  Ta  Ta116  1  0.78523932  0.80134977  0.49976791  1
  Ta  Ta117  1  0.20108098  0.19110892  0.49860263  1
  Ta  Ta118  1  0.20080453  0.59647496  0.49486646  1
  Ta  Ta119  1  0.88501776  0.70353827  0.12150481  1
  Ti  Ti120  1  0.10176522  0.29465993  0.36241859  1
  Ti  Ti121  1  0.39451823  0.00067234  0.50862710  1
  Ti  Ti122  1  0.90730170  0.10619740  0.61889910  1
  Ti  Ti123  1  0.78810238  0.59728759  0.49820063  1
  Ti  Ti124  1  0.61171240  0.19765706  0.49363838  1
  Ti  Ti125  1  0.29379603  0.89762766  0.12668702  1
  Ti  Ti126  1  0.20629602  -0.00003726  0.49752126  1
  Ti  Ti127  1  0.10429859  0.10258736  0.38076087  1
  Ti  Ti128  1  0.71560588  0.52579809  0.13621475  1
  Ti  Ti129  1  0.89216384  0.27566492  0.13105859  1
  Ti  Ti130  1  0.89337756  0.89193387  0.38427782  1
  Ti  Ti131  1  0.88857575  0.11349775  0.38028640  1
  Ti  Ti132  1  0.20904952  0.59866962  0.25529725  1
  Ti  Ti133  1  0.90453301  0.49643364  0.35030809  1
  Ti  Ti134  1  0.89528882  0.89966034  0.60806208  1
  Ti  Ti135  1  0.90731081  0.29854993  0.86784411  1
  Ti  Ti136  1  0.09639909  0.29844797  0.63634590  1
  Ti  Ti137  1  0.68797142  0.89986247  0.37444067  1
  Ti  Ti138  1  0.08557382  0.88857075  0.87686373  1
  Ti  Ti139  1  0.58458767  0.80698977  0.00886107  1
  Ti  Ti140  1  0.29720536  0.09947405  0.62464828  1
  Ti  Ti141  1  0.30856653  0.08370792  0.37464269  1
  Ti  Ti142  1  0.39306581  0.21505598  0.74869773  1
  Ti  Ti143  1  0.58762813  0.00954117  0.26029272  1
  Ti  Ti144  1  0.70715599  0.13351906  0.62240998  1
  Ti  Ti145  1  0.10102614  0.49295580  0.63625608  1
  Ti  Ti146  1  0.49288442  0.11736794  0.62409783  1
  Ti  Ti147  1  0.20135444  0.78683935  0.49355163  1
  Ti  Ti148  1  -0.00025201  -0.00499221  0.74130134  1
  Ti  Ti149  1  0.29510265  0.89027604  0.37783444  1
  Ti  Ti150  1  0.39651784  0.61094979  0.26809117  1
  Ti  Ti151  1  0.28827244  0.50506117  0.38016676  1
  Ti  Ti152  1  0.59565402  0.41372557  0.01794278  1
  Ti  Ti153  1  0.88727211  0.89185587  0.12195326  1
  Ti  Ti154  1  0.79967304  0.20024015  0.76074858  1
  Ti  Ti155  1  0.10567678  0.10236931  0.62362161  1
  Ti  Ti156  1  0.47991117  0.88464856  0.61848009  1
  Ti  Ti157  1  0.10514496  0.68634558  0.61489112  1
  Ti  Ti158  1  0.09606047  0.69272138  0.37327095  1
  Ti  Ti159  1  0.10018717  0.07773788  0.86621253  1
  Mo  Mo160  1  0.31177801  0.29066854  0.87034761  1
  Mo  Mo161  1  0.69684755  0.09188779  0.38001067  1
  Mo  Mo162  1  0.80425614  0.59930640  0.00520020  1
  Mo  Mo163  1  0.20071698  0.18344507  0.73598148  1
  Mo  Mo164  1  0.70006184  0.30439905  0.11500696  1
  Mo  Mo165  1  0.80635345  0.20250625  0.50129045  1
  Mo  Mo166  1  0.39436223  -0.01533640  0.25259373  1
  Mo  Mo167  1  0.69949232  0.71126286  0.38455881  1
  Mo  Mo168  1  0.48850921  0.71904107  0.12411265  1
  Mo  Mo169  1  0.00563139  0.60961781  0.24805729  1
  Mo  Mo170  1  0.30310968  0.50725184  0.13233467  1
  Mo  Mo171  1  0.10125422  0.69716214  0.87904580  1
  Mo  Mo172  1  0.59854520  0.41264855  0.75006543  1
  Mo  Mo173  1  -0.00484649  0.78725645  0.49491950  1
  Mo  Mo174  1  0.81590382  0.19672462  0.25042311  1
  Mo  Mo175  1  0.60875922  0.60484226  0.48116239  1
  Mo  Mo176  1  0.80725646  0.00706106  -0.00441152  1
  Mo  Mo177  1  0.69366918  0.89116164  0.61241760  1
  Mo  Mo178  1  0.49504416  0.71677395  0.36652778  1
  Mo  Mo179  1  -0.00892670  -0.01361914  0.27078519  1
  Mo  Mo180  1  0.49238335  0.69565771  0.62509419  1
  Mo  Mo181  1  0.50814143  0.50974185  0.36207132  1
  Mo  Mo182  1  0.30057369  0.69307955  0.89077686  1
  Mo  Mo183  1  -0.00747360  0.80299876  0.01046165  1
  Mo  Mo184  1  0.80420634  0.60967537  0.24964660  1
  Mo  Mo185  1  0.59083904  0.82094353  0.25598760  1
  Mo  Mo186  1  0.38394050  0.81168791  0.49850337  1
  Mo  Mo187  1  0.41537918  0.39620562  0.00778326  1
  Mo  Mo188  1  0.70030330  0.30727080  0.61001839  1
  Mo  Mo189  1  0.69463162  0.70568535  0.87351351  1
  Mo  Mo190  1  0.28683536  0.70319612  0.37523837  1
  Mo  Mo191  1  0.10150420  0.08190034  0.12955958  1
  Mo  Mo192  1  0.68663355  0.89234305  0.87215941  1
  Mo  Mo193  1  0.20088249  0.19273855  0.26724551  1
  Mo  Mo194  1  0.00220160  0.39534935  0.75453776  1
  Mo  Mo195  1  0.50420332  0.10032862  0.38638084  1
  Mo  Mo196  1  0.41916506  0.39997284  0.74496460  1
  Mo  Mo197  1  0.00683540  0.39556790  0.49618039  1
  Mo  Mo198  1  0.69990497  0.71536828  0.12877463  1
  Mo  Mo199  1  0.20382292  0.40148557  0.25558646  1
