# generated using pymatgen
data_HfZrTaTiMo
_symmetry_space_group_name_H-M   'P 1'
_cell_length_a   15.20868253
_cell_length_b   15.21204187
_cell_length_c   16.83445080
_cell_angle_alpha   89.95241278
_cell_angle_beta   89.98001051
_cell_angle_gamma   90.00781569
_symmetry_Int_Tables_number   1
_chemical_formula_structural   HfZrTaTiMo
_chemical_formula_sum   'Hf40 Zr40 Ta40 Ti40 Mo40'
_cell_volume   3894.73469150
_cell_formula_units_Z   40
loop_
 _symmetry_equiv_pos_site_id
 _symmetry_equiv_pos_as_xyz
  1  'x, y, z'
loop_
 _atom_site_type_symbol
 _atom_site_label
 _atom_site_symmetry_multiplicity
 _atom_site_fract_x
 _atom_site_fract_y
 _atom_site_fract_z
 _atom_site_occupancy
  Hf  Hf0  1  -0.00190777  0.40630763  0.75743920  1
  Hf  Hf1  1  0.70491109  0.29420682  0.13557225  1
  Hf  Hf2  1  0.89761664  0.49697958  0.38055003  1
  Hf  Hf3  1  0.49226907  0.90824297  0.35944216  1
  Hf  Hf4  1  0.62971797  0.00167681  0.26313289  1
  Hf  Hf5  1  0.90481942  0.89282512  0.12850568  1
  Hf  Hf6  1  0.41095808  0.20615867  0.76671451  1
  Hf  Hf7  1  0.29817382  0.30676156  0.12468404  1
  Hf  Hf8  1  0.58576489  0.80381415  0.00312315  1
  Hf  Hf9  1  0.50204005  0.31237926  0.35403809  1
  Hf  Hf10  1  0.00477331  0.39279853  0.25724523  1
  Hf  Hf11  1  0.30988359  0.31082760  0.88613039  1
  Hf  Hf12  1  0.69059896  0.89600822  0.86821600  1
  Hf  Hf13  1  0.39535529  0.62849337  0.22987434  1
  Hf  Hf14  1  0.20223818  0.19717889  0.76687157  1
  Hf  Hf15  1  0.69755830  0.90363675  0.12238308  1
  Hf  Hf16  1  0.48276874  0.70414616  0.37301788  1
  Hf  Hf17  1  0.89849884  0.09977056  0.11861369  1
  Hf  Hf18  1  -0.00167307  -0.00562394  0.52275713  1
  Hf  Hf19  1  0.90333347  0.69146050  0.13327206  1
  Hf  Hf20  1  0.60787646  0.60266891  0.74956280  1
  Hf  Hf21  1  0.40248060  0.80069155  0.51050203  1
  Hf  Hf22  1  0.90267139  0.09330913  0.86688059  1
  Hf  Hf23  1  0.78306776  -0.00839624  0.51936528  1
  Hf  Hf24  1  0.69979223  0.69215857  0.12681476  1
  Hf  Hf25  1  0.69275651  0.30204772  0.87312340  1
  Hf  Hf26  1  0.30034081  0.51497359  0.88285228  1
  Hf  Hf27  1  0.90503749  0.48527167  0.60343880  1
  Hf  Hf28  1  0.59965877  0.39819843  0.01261592  1
  Hf  Hf29  1  0.29897097  0.88701642  0.36414276  1
  Hf  Hf30  1  0.69644567  0.50520523  0.60422773  1
  Hf  Hf31  1  0.58609149  0.00500168  0.49289700  1
  Hf  Hf32  1  0.89837669  0.87597983  0.62679725  1
  Hf  Hf33  1  0.80690625  0.79057393  -0.00318877  1
  Hf  Hf34  1  0.11901783  0.50059706  0.36610155  1
  Hf  Hf35  1  0.38868937  0.20373316  0.48857818  1
  Hf  Hf36  1  0.38841082  0.00318381  0.74667978  1
  Hf  Hf37  1  0.09449934  0.29974406  0.11937029  1
  Hf  Hf38  1  0.89058264  0.90018243  0.38402474  1
  Hf  Hf39  1  0.09778669  0.89725834  0.38585702  1
  Zr  Zr40  1  0.79871774  0.40237678  0.00373612  1
  Zr  Zr41  1  0.90500792  0.69981138  0.38529768  1
  Zr  Zr42  1  0.51037655  0.09878118  0.14139861  1
  Zr  Zr43  1  0.68314916  0.09859272  0.63387463  1
  Zr  Zr44  1  0.60535976  0.81166711  0.49578525  1
  Zr  Zr45  1  0.49463684  0.30964573  0.61818504  1
  Zr  Zr46  1  0.79732915  -0.00266026  -0.00841733  1
  Zr  Zr47  1  -0.02452662  0.20791201  0.51780254  1
  Zr  Zr48  1  0.79502323  0.40327648  0.74960785  1
  Zr  Zr49  1  0.49426040  0.49656201  0.88891072  1
  Zr  Zr50  1  0.30011725  0.70731881  0.64723022  1
  Zr  Zr51  1  0.29890515  0.09238856  0.36336592  1
  Zr  Zr52  1  0.18816586  0.20119563  0.24581519  1
  Zr  Zr53  1  0.70649383  0.71141759  0.61104440  1
  Zr  Zr54  1  0.91196489  0.67947812  0.87962673  1
  Zr  Zr55  1  0.20607956  0.80533353  0.50711742  1
  Zr  Zr56  1  0.91161359  0.88609762  0.86450440  1
  Zr  Zr57  1  -0.01127505  0.19462594  0.25611547  1
  Zr  Zr58  1  0.00466255  0.20016579  0.74725367  1
  Zr  Zr59  1  0.60039219  0.20405980  0.48571994  1
  Zr  Zr60  1  0.87964615  0.10236939  0.38464719  1
  Zr  Zr61  1  0.01391120  -0.02537285  -0.00266668  1
  Zr  Zr62  1  0.69459580  0.10046629  0.86957470  1
  Zr  Zr63  1  0.29626860  0.31640082  0.35752994  1
  Zr  Zr64  1  0.10158225  0.31116770  0.62094573  1
  Zr  Zr65  1  0.80948732  0.59517848  0.74710674  1
  Zr  Zr66  1  0.30117212  0.70828335  0.87043099  1
  Zr  Zr67  1  0.49867693  0.29718485  0.14600500  1
  Zr  Zr68  1  0.90172152  0.68418953  0.60135644  1
  Zr  Zr69  1  0.70035135  0.30229632  0.62068104  1
  Zr  Zr70  1  0.01215430  0.19891255  -0.01686970  1
  Zr  Zr71  1  0.21181145  0.40932114  0.50229082  1
  Zr  Zr72  1  0.09829102  0.09741025  0.39348659  1
  Zr  Zr73  1  0.01284436  0.80126055  0.25423500  1
  Zr  Zr74  1  0.30978826  0.10147547  0.12655565  1
  Zr  Zr75  1  0.18916670  -0.01665702  0.23234497  1
  Zr  Zr76  1  0.18467409  0.40721643  -0.00755220  1
  Zr  Zr77  1  0.28131922  0.89996348  0.87001552  1
  Zr  Zr78  1  0.57460528  0.40368587  0.75102627  1
  Zr  Zr79  1  0.30066022  0.29616930  0.63083029  1
  Ta  Ta80  1  0.30944837  0.52559906  0.36433763  1
  Ta  Ta81  1  0.79402894  0.79096707  0.75443691  1
  Ta  Ta82  1  0.00821645  -0.00414062  0.73747651  1
  Ta  Ta83  1  0.49812456  0.50816293  0.36081090  1
  Ta  Ta84  1  0.78843693  0.80584972  0.25766582  1
  Ta  Ta85  1  0.49630116  0.10889805  0.35293455  1
  Ta  Ta86  1  0.70174833  0.50804390  0.88147242  1
  Ta  Ta87  1  0.30782424  0.09467263  0.88989689  1
  Ta  Ta88  1  0.09923056  0.29632239  0.38623967  1
  Ta  Ta89  1  0.49665474  0.70055979  0.87573816  1
  Ta  Ta90  1  0.70334095  0.10168993  0.12007928  1
  Ta  Ta91  1  0.69606460  0.69630861  0.88167887  1
  Ta  Ta92  1  0.20632024  -0.01162113  0.01289661  1
  Ta  Ta93  1  0.09650238  0.70353534  0.62121470  1
  Ta  Ta94  1  0.89880478  0.30090972  0.87450878  1
  Ta  Ta95  1  0.28940303  0.51643215  0.11705637  1
  Ta  Ta96  1  0.60330510  0.60437847  0.25316784  1
  Ta  Ta97  1  0.48289640  0.10398462  0.62312716  1
  Ta  Ta98  1  0.79925762  -0.00707522  0.73866796  1
  Ta  Ta99  1  0.48475639  0.89554491  0.87091768  1
  Ta  Ta100  1  0.19845471  0.40935799  0.76219999  1
  Ta  Ta101  1  0.40867618  0.41905803  0.49073698  1
  Ta  Ta102  1  0.41601537  0.19842710  -0.00606040  1
  Ta  Ta103  1  0.90016284  0.29781611  0.12242527  1
  Ta  Ta104  1  -0.00919443  0.40538850  -0.00682620  1
  Ta  Ta105  1  0.50600781  0.51413814  0.12834380  1
  Ta  Ta106  1  0.41130505  0.59003468  0.74638354  1
  Ta  Ta107  1  0.11986628  0.90229617  0.63271527  1
  Ta  Ta108  1  0.58740973  0.59929643  0.48966423  1
  Ta  Ta109  1  0.60028516  0.60096565  0.00547791  1
  Ta  Ta110  1  0.89823096  0.49427457  0.13779107  1
  Ta  Ta111  1  0.08855572  0.51929844  0.87410031  1
  Ta  Ta112  1  0.02445089  0.59712653  0.49256044  1
  Ta  Ta113  1  0.59410685  0.79334570  0.24936532  1
  Ta  Ta114  1  0.50372109  0.69393628  0.62745647  1
  Ta  Ta115  1  0.80558326  0.19926943  0.74232226  1
  Ta  Ta116  1  0.21468563  0.60441105  0.50585306  1
  Ta  Ta117  1  0.00250611  0.59175653  0.01029202  1
  Ta  Ta118  1  0.39081932  -0.00329824  0.50432703  1
  Ta  Ta119  1  0.10731142  0.69488181  0.12602945  1
  Ti  Ti120  1  0.10928108  0.10466369  0.62013457  1
  Ti  Ti121  1  0.19243679  0.61937387  -0.00434782  1
  Ti  Ti122  1  0.21816820  0.78152901  0.23463024  1
  Ti  Ti123  1  0.80058606  0.58795348  0.00642221  1
  Ti  Ti124  1  0.00327620  0.59806693  0.74247501  1
  Ti  Ti125  1  0.59373858  0.79929443  0.74940472  1
  Ti  Ti126  1  0.11329286  0.07337672  0.87411667  1
  Ti  Ti127  1  0.69873879  0.49883526  0.37890649  1
  Ti  Ti128  1  0.31110459  0.49625711  0.63627986  1
  Ti  Ti129  1  0.59400645  0.19912229  0.75579232  1
  Ti  Ti130  1  0.71136564  0.28808361  0.36775096  1
  Ti  Ti131  1  0.58855732  0.00623042  -0.00533912  1
  Ti  Ti132  1  0.00529542  0.39843033  0.48956915  1
  Ti  Ti133  1  0.61505253  0.41462015  0.24644443  1
  Ti  Ti134  1  0.39317430  0.42149875  0.23835097  1
  Ti  Ti135  1  0.10991890  0.50915832  0.62661228  1
  Ti  Ti136  1  0.59599172  0.40674207  0.48692269  1
  Ti  Ti137  1  0.79166622  0.18259874  0.25164669  1
  Ti  Ti138  1  0.60008934  0.19651288  -0.00324510  1
  Ti  Ti139  1  0.28789744  0.09589790  0.61848330  1
  Ti  Ti140  1  0.80055827  0.20270218  -0.00336120  1
  Ti  Ti141  1  0.00757556  0.59877907  0.25439481  1
  Ti  Ti142  1  0.49955872  0.90155356  0.63346178  1
  Ti  Ti143  1  0.80474090  0.37469786  0.48938550  1
  Ti  Ti144  1  0.70222887  0.70048478  0.38074088  1
  Ti  Ti145  1  0.09514225  0.09360060  0.11695420  1
  Ti  Ti146  1  0.12478294  0.69813001  0.37252651  1
  Ti  Ti147  1  0.01190690  0.78809037  0.74788624  1
  Ti  Ti148  1  -0.00609782  0.00048275  0.24990617  1
  Ti  Ti149  1  0.40478622  -0.00629020  0.00262908  1
  Ti  Ti150  1  0.49209809  0.90128912  0.13734693  1
  Ti  Ti151  1  0.38783334  0.80023072  0.01131819  1
  Ti  Ti152  1  0.40392858  0.40749633  0.01512794  1
  Ti  Ti153  1  0.80568158  0.39221401  0.25575535  1
  Ti  Ti154  1  0.20403021  0.19345047  -0.00797131  1
  Ti  Ti155  1  0.58561858  0.00140173  0.75387736  1
  Ti  Ti156  1  0.39795264  0.60010767  0.50731350  1
  Ti  Ti157  1  0.79523869  0.59575271  0.25759017  1
  Ti  Ti158  1  0.09743415  0.50007636  0.13235346  1
  Ti  Ti159  1  0.18996587  0.60736143  0.75430827  1
  Mo  Mo160  1  0.40312436  -0.00136537  0.24398411  1
  Mo  Mo161  1  0.10234503  0.70690735  0.87257250  1
  Mo  Mo162  1  0.20107463  0.41088235  0.24071950  1
  Mo  Mo163  1  0.19546355  0.19789432  0.49771225  1
  Mo  Mo164  1  0.70219972  0.89080528  0.37356075  1
  Mo  Mo165  1  0.29733451  0.69825494  0.37514168  1
  Mo  Mo166  1  0.89345064  0.30153159  0.62814282  1
  Mo  Mo167  1  0.40556115  0.61005979  0.01249772  1
  Mo  Mo168  1  0.61363775  0.20430257  0.26206137  1
  Mo  Mo169  1  0.01679905  0.77935541  0.00287604  1
  Mo  Mo170  1  0.10140607  0.88970509  0.86056998  1
  Mo  Mo171  1  0.38725684  0.40777433  0.75429724  1
  Mo  Mo172  1  0.41276829  0.80023445  0.74771423  1
  Mo  Mo173  1  0.70042461  0.09582361  0.38210018  1
  Mo  Mo174  1  0.50207972  0.29598961  0.88709240  1
  Mo  Mo175  1  0.39736215  0.80881229  0.23418222  1
  Mo  Mo176  1  0.50561469  0.70895534  0.11843678  1
  Mo  Mo177  1  0.10101391  0.88989566  0.12709519  1
  Mo  Mo178  1  0.29660797  0.70255510  0.10522846  1
  Mo  Mo179  1  0.20778894  0.00468442  0.50604661  1
  Mo  Mo180  1  0.89628245  0.30150728  0.37481775  1
  Mo  Mo181  1  0.10178094  0.30818571  0.87576934  1
  Mo  Mo182  1  0.18573201  0.80759411  0.00572067  1
  Mo  Mo183  1  0.49868381  0.08930502  0.88200481  1
  Mo  Mo184  1  0.19812225  0.60101939  0.23995197  1
  Mo  Mo185  1  0.68868820  0.89813393  0.64610706  1
  Mo  Mo186  1  0.79025990  0.19682725  0.50787564  1
  Mo  Mo187  1  0.79065447  0.58730984  0.48379239  1
  Mo  Mo188  1  0.89835865  0.49750515  0.88016660  1
  Mo  Mo189  1  0.30487561  0.89675394  0.12224822  1
  Mo  Mo190  1  0.89633975  0.09363100  0.63814896  1
  Mo  Mo191  1  0.79832354  0.79915185  0.49272453  1
  Mo  Mo192  1  0.19585211  0.80446032  0.74276982  1
  Mo  Mo193  1  0.19367418  0.01113173  0.74743089  1
  Mo  Mo194  1  0.49663334  0.50702887  0.61572990  1
  Mo  Mo195  1  0.39951546  0.20697906  0.25290820  1
  Mo  Mo196  1  0.70757511  0.50185951  0.13987968  1
  Mo  Mo197  1  0.01012992  0.79353217  0.50226854  1
  Mo  Mo198  1  0.81132683  -0.00312367  0.24585555  1
  Mo  Mo199  1  0.30930842  0.91107181  0.63158506  1
