# generated using pymatgen
data_HfZrTaTiMo
_symmetry_space_group_name_H-M   'P 1'
_cell_length_a   15.20859704
_cell_length_b   15.20714330
_cell_length_c   16.85041890
_cell_angle_alpha   89.98078607
_cell_angle_beta   90.02270973
_cell_angle_gamma   90.11047814
_symmetry_Int_Tables_number   1
_chemical_formula_structural   HfZrTaTiMo
_chemical_formula_sum   'Hf40 Zr40 Ta40 Ti40 Mo40'
_cell_volume   3897.14556379
_cell_formula_units_Z   40
loop_
 _symmetry_equiv_pos_site_id
 _symmetry_equiv_pos_as_xyz
  1  'x, y, z'
loop_
 _atom_site_type_symbol
 _atom_site_label
 _atom_site_symmetry_multiplicity
 _atom_site_fract_x
 _atom_site_fract_y
 _atom_site_fract_z
 _atom_site_occupancy
  Hf  Hf0  1  0.00663350  0.39428772  0.75974236  1
  Hf  Hf1  1  0.71091792  0.70442723  0.63607296  1
  Hf  Hf2  1  0.80307551  0.80009791  0.24213250  1
  Hf  Hf3  1  0.81101220  0.40039229  0.50081384  1
  Hf  Hf4  1  0.60473898  -0.00071288  0.77365050  1
  Hf  Hf5  1  0.28256220  0.69443255  0.86941663  1
  Hf  Hf6  1  0.29934768  0.09584999  0.36666042  1
  Hf  Hf7  1  0.79548303  0.81118881  0.76696799  1
  Hf  Hf8  1  0.91416012  0.71649332  0.88366745  1
  Hf  Hf9  1  0.59543106  0.38841129  0.48318980  1
  Hf  Hf10  1  0.79532277  0.19956603  0.75708406  1
  Hf  Hf11  1  0.00570255  0.80291861  0.24859662  1
  Hf  Hf12  1  0.78191321  0.00442196  0.49235920  1
  Hf  Hf13  1  0.39519145  -0.00700156  0.00899096  1
  Hf  Hf14  1  0.20572920  0.20621167  0.49263953  1
  Hf  Hf15  1  0.68803153  0.91571113  0.63319179  1
  Hf  Hf16  1  0.59222070  0.20433986  0.75510498  1
  Hf  Hf17  1  0.90719090  0.30390630  0.36808855  1
  Hf  Hf18  1  0.70544976  0.69973313  0.38218206  1
  Hf  Hf19  1  0.49730729  0.69780434  0.36021427  1
  Hf  Hf20  1  0.70616799  0.49557295  0.37328489  1
  Hf  Hf21  1  0.60527451  0.18555578  0.49683362  1
  Hf  Hf22  1  0.20332323  0.18713502  0.23130719  1
  Hf  Hf23  1  0.79984301  0.60694392  0.23656714  1
  Hf  Hf24  1  0.00150361  0.00401398  0.24744600  1
  Hf  Hf25  1  0.00798627  0.40501573  0.23660030  1
  Hf  Hf26  1  0.50737016  0.09366116  0.62746817  1
  Hf  Hf27  1  0.00750497  0.19639077  -0.00008836  1
  Hf  Hf28  1  0.09783682  0.70541473  0.38356782  1
  Hf  Hf29  1  0.20282696  0.79075150  0.00700176  1
  Hf  Hf30  1  0.09370941  0.50135652  0.37549966  1
  Hf  Hf31  1  -0.00343218  0.59612357  0.51958008  1
  Hf  Hf32  1  0.89695935  0.89687903  0.38396720  1
  Hf  Hf33  1  0.00671758  0.61390502  0.74285433  1
  Hf  Hf34  1  -0.00121225  0.17357556  0.77186991  1
  Hf  Hf35  1  0.80527974  0.40153400  0.23637959  1
  Hf  Hf36  1  0.59950052  0.58299358  0.75313544  1
  Hf  Hf37  1  0.90080508  0.69630063  0.38332294  1
  Hf  Hf38  1  0.42424026  0.39883798  0.74799363  1
  Hf  Hf39  1  0.69126819  0.32039697  0.87541912  1
  Zr  Zr40  1  0.91351050  0.29766387  0.63214199  1
  Zr  Zr41  1  -0.00678848  -0.00056293  -0.00876114  1
  Zr  Zr42  1  0.68228959  0.09707411  0.35448037  1
  Zr  Zr43  1  0.69541863  0.49103297  0.62863446  1
  Zr  Zr44  1  0.20157527  0.40344155  0.50009558  1
  Zr  Zr45  1  0.28316157  0.09975600  0.88945414  1
  Zr  Zr46  1  0.20809170  0.81327769  0.51479475  1
  Zr  Zr47  1  0.20706653  0.80817215  0.73573274  1
  Zr  Zr48  1  0.48130564  0.89428897  0.64603000  1
  Zr  Zr49  1  0.88466916  0.50748403  0.86696248  1
  Zr  Zr50  1  0.09455772  0.92315091  0.62500941  1
  Zr  Zr51  1  0.21446687  0.40981354  0.74084746  1
  Zr  Zr52  1  0.58951157  0.59733841  0.50151605  1
  Zr  Zr53  1  0.10193450  0.89115733  0.87848472  1
  Zr  Zr54  1  0.31240191  0.30110307  0.89161968  1
  Zr  Zr55  1  0.00606199  0.40615488  -0.00454137  1
  Zr  Zr56  1  0.79494856  -0.00390888  0.24300851  1
  Zr  Zr57  1  0.29957030  0.08786061  0.62259308  1
  Zr  Zr58  1  0.59890937  0.36457380  0.25018587  1
  Zr  Zr59  1  0.19969617  0.20681425  0.74567233  1
  Zr  Zr60  1  0.39285983  0.59029308  0.01263468  1
  Zr  Zr61  1  0.40634673  0.80301814  0.49920185  1
  Zr  Zr62  1  0.11814072  0.29681395  0.88780743  1
  Zr  Zr63  1  0.19236686  0.61052727  0.24679860  1
  Zr  Zr64  1  0.68503329  0.50443659  0.12384234  1
  Zr  Zr65  1  0.29942250  0.71375660  0.36855722  1
  Zr  Zr66  1  0.78311119  0.61920002  0.00154495  1
  Zr  Zr67  1  0.08742934  0.11213045  0.61767914  1
  Zr  Zr68  1  0.49033032  0.68913242  0.87092362  1
  Zr  Zr69  1  0.59972630  0.80347433  0.50317923  1
  Zr  Zr70  1  0.37615110  -0.00330369  0.23195633  1
  Zr  Zr71  1  0.79492279  0.40199373  0.00798786  1
  Zr  Zr72  1  0.31813125  0.49973670  0.87608944  1
  Zr  Zr73  1  0.39941404  0.19512054  0.75313368  1
  Zr  Zr74  1  0.29825852  0.50265526  0.36496673  1
  Zr  Zr75  1  0.51530645  0.68652229  0.12670754  1
  Zr  Zr76  1  0.88569019  0.90128706  0.61941584  1
  Zr  Zr77  1  0.11967245  0.52186300  0.87792904  1
  Zr  Zr78  1  0.70355416  0.29251497  0.62804501  1
  Zr  Zr79  1  0.50327086  0.89025469  0.12860324  1
  Ta  Ta80  1  0.49271367  0.48922767  0.35879417  1
  Ta  Ta81  1  0.50154892  0.30171675  0.61492044  1
  Ta  Ta82  1  0.89488675  0.11105339  0.36707135  1
  Ta  Ta83  1  0.29739687  0.49398813  0.14583422  1
  Ta  Ta84  1  0.80923983  0.00928256  0.77057174  1
  Ta  Ta85  1  0.39597015  -0.00413330  0.48949543  1
  Ta  Ta86  1  0.10029170  0.90334430  0.12118847  1
  Ta  Ta87  1  -0.00686495  0.01183781  0.48702156  1
  Ta  Ta88  1  0.59721401  -0.00274658  -0.00690926  1
  Ta  Ta89  1  0.32009687  0.30378384  0.13328650  1
  Ta  Ta90  1  0.90243756  0.50495521  0.37280923  1
  Ta  Ta91  1  -0.00269955  0.80048516  0.51320095  1
  Ta  Ta92  1  0.58097012  -0.00411781  0.49139322  1
  Ta  Ta93  1  0.90137523  0.71493124  0.10813058  1
  Ta  Ta94  1  -0.00049059  0.80654590  0.73975610  1
  Ta  Ta95  1  0.48602856  0.48129734  0.14204952  1
  Ta  Ta96  1  0.31504515  0.30120402  0.61497553  1
  Ta  Ta97  1  -0.00206602  0.20204157  0.23628486  1
  Ta  Ta98  1  0.01555452  0.61537739  -0.00110758  1
  Ta  Ta99  1  0.60123620  0.59146552  0.25512944  1
  Ta  Ta100  1  0.89217582  0.10260547  0.11896624  1
  Ta  Ta101  1  0.88956953  0.50338873  0.64626186  1
  Ta  Ta102  1  0.10658372  0.50542960  0.11847380  1
  Ta  Ta103  1  0.89321344  0.29773337  0.87719337  1
  Ta  Ta104  1  0.79574050  0.20532207  0.23337051  1
  Ta  Ta105  1  0.10789033  0.29814054  0.36194763  1
  Ta  Ta106  1  0.49351921  0.10114855  0.88800216  1
  Ta  Ta107  1  0.09954639  0.70448321  0.12693199  1
  Ta  Ta108  1  0.61013204  0.78776306  -0.01092053  1
  Ta  Ta109  1  0.88870617  0.09463594  0.62571993  1
  Ta  Ta110  1  0.80672639  0.19420234  0.49868807  1
  Ta  Ta111  1  0.90884512  0.51445106  0.11334115  1
  Ta  Ta112  1  0.11171372  0.90797293  0.37727911  1
  Ta  Ta113  1  -0.00823314  0.60494613  0.24037888  1
  Ta  Ta114  1  0.20240243  0.60926515  0.51680657  1
  Ta  Ta115  1  0.68943135  0.89397898  0.37231159  1
  Ta  Ta116  1  0.70249275  0.89168038  0.10715802  1
  Ta  Ta117  1  0.49283681  0.90752934  0.35260449  1
  Ta  Ta118  1  0.09390927  0.10654743  0.37094068  1
  Ta  Ta119  1  0.60027249  0.19762473  0.01077142  1
  Ti  Ti120  1  -0.00164790  0.20557394  0.49278440  1
  Ti  Ti121  1  0.30415685  0.89299131  0.88047397  1
  Ti  Ti122  1  0.59082928  0.39611843  0.01538599  1
  Ti  Ti123  1  0.40255395  0.79500066  0.00130854  1
  Ti  Ti124  1  0.50535620  0.70116586  0.64432599  1
  Ti  Ti125  1  0.31797592  0.70865723  0.62786532  1
  Ti  Ti126  1  0.79359877  0.00063502  -0.01242103  1
  Ti  Ti127  1  0.49990585  0.10195990  0.13201452  1
  Ti  Ti128  1  0.49394488  0.49542738  0.61629822  1
  Ti  Ti129  1  0.69384661  0.09073466  0.12222831  1
  Ti  Ti130  1  0.09875114  0.49546634  0.62625291  1
  Ti  Ti131  1  0.69566742  0.69480024  0.86563890  1
  Ti  Ti132  1  0.00332442  0.39804702  0.50154215  1
  Ti  Ti133  1  0.69667998  0.10994649  0.88756355  1
  Ti  Ti134  1  0.89761622  0.90205968  0.11217692  1
  Ti  Ti135  1  0.30842804  0.49735867  0.61553463  1
  Ti  Ti136  1  0.10671917  0.30427464  0.62212310  1
  Ti  Ti137  1  0.51680270  0.48545581  0.88624511  1
  Ti  Ti138  1  0.39687571  0.59860362  0.50108325  1
  Ti  Ti139  1  0.20013262  0.00435301  0.49463923  1
  Ti  Ti140  1  0.11441450  0.30496994  0.11938459  1
  Ti  Ti141  1  0.80367896  0.60384793  0.51038596  1
  Ti  Ti142  1  0.19425056  0.01228235  0.01703537  1
  Ti  Ti143  1  0.40220137  0.39045947  0.48468506  1
  Ti  Ti144  1  0.40014256  0.19825706  0.01525240  1
  Ti  Ti145  1  0.21223668  0.82469846  0.24180762  1
  Ti  Ti146  1  0.49837585  0.89004325  0.87448049  1
  Ti  Ti147  1  0.40971049  0.19552537  0.48865278  1
  Ti  Ti148  1  0.90414198  0.30088173  0.11682689  1
  Ti  Ti149  1  0.30967163  0.70559898  0.13857963  1
  Ti  Ti150  1  0.39314723  0.59770429  0.73960847  1
  Ti  Ti151  1  0.49998071  0.29715471  0.89154508  1
  Ti  Ti152  1  0.18396055  0.00930259  0.75799934  1
  Ti  Ti153  1  0.38649919  -0.00731758  0.76562489  1
  Ti  Ti154  1  0.30877422  0.29891978  0.35490320  1
  Ti  Ti155  1  0.22118774  0.40906337  0.01100784  1
  Ti  Ti156  1  0.79730140  0.20013491  0.00432959  1
  Ti  Ti157  1  0.20111877  0.60956262  0.72423883  1
  Ti  Ti158  1  0.60915956  0.79816764  0.24685163  1
  Ti  Ti159  1  0.71005363  0.28660556  0.37201041  1
  Mo  Mo160  1  0.10484536  0.70104016  0.87181162  1
  Mo  Mo161  1  0.49156454  0.09678996  0.36259814  1
  Mo  Mo162  1  0.59773455  -0.01333897  0.23777879  1
  Mo  Mo163  1  0.20371710  0.59851278  0.01888958  1
  Mo  Mo164  1  0.80042224  0.81483629  -0.01203261  1
  Mo  Mo165  1  0.50377528  0.29169029  0.11888378  1
  Mo  Mo166  1  0.18557627  -0.00377300  0.24176832  1
  Mo  Mo167  1  0.88844945  0.10770233  0.88993773  1
  Mo  Mo168  1  0.10421130  0.09617701  0.88192227  1
  Mo  Mo169  1  0.49798511  0.27634272  0.37527207  1
  Mo  Mo170  1  0.70686876  0.28529448  0.11727530  1
  Mo  Mo171  1  0.59618291  0.79801601  0.76711228  1
  Mo  Mo172  1  0.39791853  0.79759183  0.75895556  1
  Mo  Mo173  1  0.30142954  0.91459210  0.63127317  1
  Mo  Mo174  1  0.09946055  0.70495942  0.61839500  1
  Mo  Mo175  1  0.39795380  0.79591922  0.24615271  1
  Mo  Mo176  1  0.80037506  0.79643409  0.50373721  1
  Mo  Mo177  1  0.40008767  0.38927226  0.25900043  1
  Mo  Mo178  1  0.19634989  0.39223486  0.24358891  1
  Mo  Mo179  1  0.08978181  0.10158376  0.12592214  1
  Mo  Mo180  1  0.59783391  0.39305030  0.75099859  1
  Mo  Mo181  1  0.89698763  0.70326775  0.62989150  1
  Mo  Mo182  1  0.29269756  0.89133608  0.11353271  1
  Mo  Mo183  1  0.69580285  0.71152595  0.12276313  1
  Mo  Mo184  1  0.59534111  0.59116951  -0.00666208  1
  Mo  Mo185  1  0.80074327  0.40370488  0.75719870  1
  Mo  Mo186  1  0.40966308  0.39424505  0.01065310  1
  Mo  Mo187  1  0.80236278  0.60463286  0.75677088  1
  Mo  Mo188  1  0.40415475  0.59659862  0.24343678  1
  Mo  Mo189  1  -0.00975872  -0.00837446  0.76402580  1
  Mo  Mo190  1  0.20565585  0.20120470  0.02648710  1
  Mo  Mo191  1  0.89884563  0.90511608  0.87613954  1
  Mo  Mo192  1  0.60328334  0.18340778  0.23312953  1
  Mo  Mo193  1  0.00343617  0.80344867  0.00901769  1
  Mo  Mo194  1  0.29573332  0.90478803  0.37278052  1
  Mo  Mo195  1  0.69517079  0.90075774  0.88884513  1
  Mo  Mo196  1  0.68837521  0.50740274  0.88147905  1
  Mo  Mo197  1  0.29866648  0.10082081  0.11718804  1
  Mo  Mo198  1  0.70511125  0.09175694  0.62756204  1
  Mo  Mo199  1  0.41392650  0.20142905  0.24638055  1
