# generated using pymatgen
data_HfZrTaTiMo
_symmetry_space_group_name_H-M   'P 1'
_cell_length_a   15.21508728
_cell_length_b   15.19802677
_cell_length_c   16.84958458
_cell_angle_alpha   90.01949927
_cell_angle_beta   90.00171148
_cell_angle_gamma   90.00449141
_symmetry_Int_Tables_number   1
_chemical_formula_structural   HfZrTaTiMo
_chemical_formula_sum   'Hf40 Zr40 Ta40 Ti40 Mo40'
_cell_volume   3896.28597106
_cell_formula_units_Z   40
loop_
 _symmetry_equiv_pos_site_id
 _symmetry_equiv_pos_as_xyz
  1  'x, y, z'
loop_
 _atom_site_type_symbol
 _atom_site_label
 _atom_site_symmetry_multiplicity
 _atom_site_fract_x
 _atom_site_fract_y
 _atom_site_fract_z
 _atom_site_occupancy
  Hf  Hf0  1  0.01547993  0.39612433  0.75282749  1
  Hf  Hf1  1  0.59561695  0.21714068  0.75557369  1
  Hf  Hf2  1  0.81108813  0.60073036  0.49999390  1
  Hf  Hf3  1  0.79503149  0.20438158  0.73428439  1
  Hf  Hf4  1  0.69241257  0.70354098  0.12859422  1
  Hf  Hf5  1  0.71184441  0.09431178  0.12441122  1
  Hf  Hf6  1  0.69207677  0.30497413  0.13758881  1
  Hf  Hf7  1  0.19156291  0.00191410  0.24324320  1
  Hf  Hf8  1  0.39109083  0.79420669  -0.00533671  1
  Hf  Hf9  1  0.71594976  0.49981261  0.12734961  1
  Hf  Hf10  1  0.69599212  0.10204745  0.86985674  1
  Hf  Hf11  1  0.39281039  0.79429721  0.50754523  1
  Hf  Hf12  1  0.49205284  0.10206555  0.87036574  1
  Hf  Hf13  1  0.41776611  0.58829227  0.50179397  1
  Hf  Hf14  1  0.11260349  0.30950448  0.38427106  1
  Hf  Hf15  1  -0.00419947  0.81443160  -0.02299476  1
  Hf  Hf16  1  0.51039514  0.70812157  0.86730347  1
  Hf  Hf17  1  0.41190115  0.59346491  0.75018194  1
  Hf  Hf18  1  0.09507447  0.09005712  0.87393333  1
  Hf  Hf19  1  0.49160379  0.90914516  0.86412222  1
  Hf  Hf20  1  0.20990884  0.79434916  0.25583332  1
  Hf  Hf21  1  0.49368178  0.31354694  0.62540450  1
  Hf  Hf22  1  0.90013984  0.50638828  0.86336772  1
  Hf  Hf23  1  0.10569569  0.09998743  0.39175105  1
  Hf  Hf24  1  -0.00220331  -0.02055103  0.51074037  1
  Hf  Hf25  1  0.30064833  0.88560584  0.12663171  1
  Hf  Hf26  1  0.11629224  0.28702438  0.88583061  1
  Hf  Hf27  1  0.89822780  0.69741904  0.12303023  1
  Hf  Hf28  1  0.09909129  0.50664096  0.11099153  1
  Hf  Hf29  1  0.70204924  0.49642041  0.37863404  1
  Hf  Hf30  1  0.21545668  0.59538629  0.24594460  1
  Hf  Hf31  1  0.78824875  0.81877180  0.25623762  1
  Hf  Hf32  1  0.11112025  0.50142157  0.88904941  1
  Hf  Hf33  1  0.00156473  0.19503948  0.73501518  1
  Hf  Hf34  1  0.41834544  -0.00020526  0.24692533  1
  Hf  Hf35  1  0.21312314  0.59839550  0.49948443  1
  Hf  Hf36  1  0.69584756  0.31327169  0.61417860  1
  Hf  Hf37  1  0.20427246  -0.00163818  0.74730846  1
  Hf  Hf38  1  0.20869356  0.20849316  0.23490775  1
  Hf  Hf39  1  -0.01959231  0.01257232  0.25314927  1
  Zr  Zr40  1  0.69736856  0.50886511  0.61289528  1
  Zr  Zr41  1  0.88840971  0.91337150  0.12237308  1
  Zr  Zr42  1  0.51489965  0.48596171  0.13042835  1
  Zr  Zr43  1  0.79307474  -0.01306932  0.72709397  1
  Zr  Zr44  1  0.19329398  -0.00074757  0.00707732  1
  Zr  Zr45  1  -0.00181279  0.39688877  -0.00201593  1
  Zr  Zr46  1  0.68464424  0.70633184  0.39230644  1
  Zr  Zr47  1  0.30585257  0.11091698  0.37288604  1
  Zr  Zr48  1  0.68986438  0.89292333  0.86501781  1
  Zr  Zr49  1  0.39993872  0.20743822  0.01747610  1
  Zr  Zr50  1  0.10829531  0.08913717  0.61024303  1
  Zr  Zr51  1  0.18587056  0.80365795  0.49880882  1
  Zr  Zr52  1  0.29361900  0.11059011  0.88277640  1
  Zr  Zr53  1  0.59731843  0.20787676  0.00067275  1
  Zr  Zr54  1  0.80716143  0.60347822  0.25981540  1
  Zr  Zr55  1  0.09646354  0.69470230  0.37060139  1
  Zr  Zr56  1  0.89549809  0.29440037  0.87244860  1
  Zr  Zr57  1  0.01014212  0.60032205  0.50482845  1
  Zr  Zr58  1  -0.00289042  0.80462387  0.25247655  1
  Zr  Zr59  1  0.89678775  0.30235686  0.12570522  1
  Zr  Zr60  1  0.89688977  0.08790138  0.86304639  1
  Zr  Zr61  1  0.47700010  0.70200348  0.36293808  1
  Zr  Zr62  1  0.68818182  0.10370210  0.39494972  1
  Zr  Zr63  1  0.30369498  0.47708981  0.37302265  1
  Zr  Zr64  1  -0.00012558  0.22069765  0.25538359  1
  Zr  Zr65  1  0.20463461  0.59168408  0.75779670  1
  Zr  Zr66  1  0.30615188  0.89847471  0.37414601  1
  Zr  Zr67  1  0.90367735  0.48474306  0.63695514  1
  Zr  Zr68  1  0.79408363  0.78655670  -0.01255328  1
  Zr  Zr69  1  0.22319431  0.38874291  0.75928594  1
  Zr  Zr70  1  0.40621492  0.21255599  0.49432632  1
  Zr  Zr71  1  0.38702066  0.20837397  0.75087909  1
  Zr  Zr72  1  0.29473170  0.69863464  0.63575914  1
  Zr  Zr73  1  0.47607046  0.69329746  0.13365239  1
  Zr  Zr74  1  0.89042034  0.09528971  0.39454083  1
  Zr  Zr75  1  0.10503701  0.70876542  0.11522798  1
  Zr  Zr76  1  0.49382987  0.29588699  0.35303762  1
  Zr  Zr77  1  0.91643097  0.69644274  0.64851336  1
  Zr  Zr78  1  0.10977496  0.30490376  0.61133097  1
  Zr  Zr79  1  0.70190022  0.90662063  0.40043097  1
  Ta  Ta80  1  0.21672891  0.39346930  0.01256971  1
  Ta  Ta81  1  0.89616656  0.70512914  0.37845318  1
  Ta  Ta82  1  0.77861313  0.78059474  0.74383985  1
  Ta  Ta83  1  0.52053180  0.70364753  0.62761426  1
  Ta  Ta84  1  0.48813154  0.90461673  0.62408690  1
  Ta  Ta85  1  0.09182609  0.90347255  0.12394643  1
  Ta  Ta86  1  0.29772258  0.90467337  0.87123925  1
  Ta  Ta87  1  0.91729031  0.49401356  0.37260330  1
  Ta  Ta88  1  0.79990059  0.19998243  -0.00209757  1
  Ta  Ta89  1  0.81484186  0.38904584  0.26478618  1
  Ta  Ta90  1  0.58752941  0.81000285  0.25119233  1
  Ta  Ta91  1  0.80007535  0.18802625  0.25835535  1
  Ta  Ta92  1  0.39356199  0.81061946  0.74419216  1
  Ta  Ta93  1  0.31808233  0.49916018  0.89565405  1
  Ta  Ta94  1  0.61008857  0.60583195  -0.00015174  1
  Ta  Ta95  1  0.60319858  0.41372775  0.76429825  1
  Ta  Ta96  1  0.08953444  0.87409563  0.63886066  1
  Ta  Ta97  1  0.18985877  0.39769324  0.22755454  1
  Ta  Ta98  1  0.62314894  0.61306139  0.75201920  1
  Ta  Ta99  1  0.50993641  0.90364446  0.38786138  1
  Ta  Ta100  1  0.30288448  0.70270028  0.86819060  1
  Ta  Ta101  1  0.79938856  -0.00224990  -0.01024998  1
  Ta  Ta102  1  0.59690254  -0.00039754  0.00244868  1
  Ta  Ta103  1  0.31514996  0.51375944  0.11084368  1
  Ta  Ta104  1  0.30184467  0.10079679  0.61310906  1
  Ta  Ta105  1  0.89762609  0.10132963  0.61630081  1
  Ta  Ta106  1  -0.00396693  0.18942685  0.00622834  1
  Ta  Ta107  1  0.58206744  0.40285245  0.48682271  1
  Ta  Ta108  1  0.59094843  0.80403879  0.00305504  1
  Ta  Ta109  1  0.31344326  0.48018026  0.62051175  1
  Ta  Ta110  1  0.50103149  0.49583874  0.35383033  1
  Ta  Ta111  1  -0.00917282  0.21096034  0.50339855  1
  Ta  Ta112  1  -0.01215976  0.61063339  -0.01014573  1
  Ta  Ta113  1  0.11274431  0.50661609  0.62853639  1
  Ta  Ta114  1  0.61567967  -0.00509865  0.25158713  1
  Ta  Ta115  1  0.51244767  0.50775903  0.88497861  1
  Ta  Ta116  1  0.60049693  0.60032379  0.25125378  1
  Ta  Ta117  1  0.40519187  -0.00151576  0.00847505  1
  Ta  Ta118  1  0.58917317  0.00569863  0.73088518  1
  Ta  Ta119  1  0.50979422  0.50073874  0.62956087  1
  Ti  Ti120  1  0.10526063  0.49608845  0.37252000  1
  Ti  Ti121  1  0.89561413  0.89670171  0.38433218  1
  Ti  Ti122  1  -0.00811487  0.79073949  0.50580437  1
  Ti  Ti123  1  0.50675482  0.09465528  0.38336475  1
  Ti  Ti124  1  0.69496936  0.90017719  0.11896062  1
  Ti  Ti125  1  0.50405068  0.89909694  0.12495178  1
  Ti  Ti126  1  0.49486964  0.10612719  0.62121915  1
  Ti  Ti127  1  0.38670037  0.38964866  0.23369947  1
  Ti  Ti128  1  0.41688447  0.39606618  0.00439375  1
  Ti  Ti129  1  0.31079002  0.09536067  0.12895630  1
  Ti  Ti130  1  0.09454423  0.90461566  0.37588136  1
  Ti  Ti131  1  0.21470510  0.61581772  -0.00429985  1
  Ti  Ti132  1  0.79964817  0.20892266  0.50674561  1
  Ti  Ti133  1  0.81271256  0.39178878  0.48899332  1
  Ti  Ti134  1  0.19657618  0.20224465  0.02433102  1
  Ti  Ti135  1  0.39664189  0.00132481  0.50105465  1
  Ti  Ti136  1  0.41149854  0.39904800  0.76819695  1
  Ti  Ti137  1  -0.00425297  -0.01513457  0.74214696  1
  Ti  Ti138  1  0.59125555  0.18627922  0.24272981  1
  Ti  Ti139  1  0.00554456  0.59318203  0.24937768  1
  Ti  Ti140  1  0.18877738  0.79992871  0.76076404  1
  Ti  Ti141  1  0.70974776  0.51435561  0.88072990  1
  Ti  Ti142  1  0.78809116  0.40023198  0.75439428  1
  Ti  Ti143  1  0.88709786  0.69633597  0.85737358  1
  Ti  Ti144  1  -0.00883677  0.00122131  -0.00217432  1
  Ti  Ti145  1  0.68262065  0.10721612  0.60857802  1
  Ti  Ti146  1  0.90472372  0.50114408  0.12729568  1
  Ti  Ti147  1  0.69875364  0.29554167  0.37478457  1
  Ti  Ti148  1  0.79579344  0.40045428  -0.00717362  1
  Ti  Ti149  1  0.08265691  0.10233668  0.12614952  1
  Ti  Ti150  1  0.19229836  0.80647904  -0.01541150  1
  Ti  Ti151  1  0.79622478  -0.00804579  0.52581143  1
  Ti  Ti152  1  0.09335184  0.69825486  0.87009489  1
  Ti  Ti153  1  0.60809360  0.39764735  -0.01193177  1
  Ti  Ti154  1  0.80588756  0.79908078  0.52023818  1
  Ti  Ti155  1  0.29701227  0.29773765  0.61090654  1
  Ti  Ti156  1  0.67794831  0.88157812  0.61680776  1
  Ti  Ti157  1  0.19790469  0.19975781  0.74505084  1
  Ti  Ti158  1  0.29046109  0.90771869  0.62267003  1
  Ti  Ti159  1  0.00063779  0.40293046  0.50306042  1
  Mo  Mo160  1  0.50410435  0.29455451  0.14379307  1
  Mo  Mo161  1  0.40388058  0.19464808  0.23236027  1
  Mo  Mo162  1  0.39479590  0.00229721  0.73656675  1
  Mo  Mo163  1  0.80673492  0.59011443  0.00210631  1
  Mo  Mo164  1  0.89565030  0.89172920  0.63103103  1
  Mo  Mo165  1  0.20423405  -0.00867035  0.50595922  1
  Mo  Mo166  1  0.30013067  0.69197885  0.37613962  1
  Mo  Mo167  1  0.20247897  0.40471820  0.50380006  1
  Mo  Mo168  1  -0.00694302  0.80327983  0.77117110  1
  Mo  Mo169  1  0.30622632  0.30807641  0.12101789  1
  Mo  Mo170  1  0.51032977  0.08756287  0.12467737  1
  Mo  Mo171  1  0.89838527  0.29894858  0.62012105  1
  Mo  Mo172  1  0.70275777  0.31208601  0.87643185  1
  Mo  Mo173  1  0.89224591  0.89892285  0.86313262  1
  Mo  Mo174  1  0.09934861  0.29884648  0.11651595  1
  Mo  Mo175  1  0.01033433  0.59850126  0.76269451  1
  Mo  Mo176  1  0.58611067  0.79877499  0.50489544  1
  Mo  Mo177  1  0.40140811  0.80400969  0.24896391  1
  Mo  Mo178  1  0.59664577  0.80653932  0.74094240  1
  Mo  Mo179  1  0.69756897  0.69269452  0.87852473  1
  Mo  Mo180  1  0.09930990  0.90004650  0.86307026  1
  Mo  Mo181  1  0.61319465  0.39762027  0.26029409  1
  Mo  Mo182  1  0.29577195  0.29959556  0.36465474  1
  Mo  Mo183  1  0.59469618  0.59639525  0.49441910  1
  Mo  Mo184  1  0.20406957  0.19985885  0.49615482  1
  Mo  Mo185  1  0.89592929  0.10506590  0.11972595  1
  Mo  Mo186  1  0.39489661  0.59019775  0.24772315  1
  Mo  Mo187  1  0.30623861  0.30865646  0.89081754  1
  Mo  Mo188  1  0.58562772  0.00425242  0.52033603  1
  Mo  Mo189  1  0.10338679  0.69618525  0.63970697  1
  Mo  Mo190  1  0.49847527  0.31496683  0.87849343  1
  Mo  Mo191  1  0.60030726  0.20958186  0.50093105  1
  Mo  Mo192  1  0.40841956  0.60080454  -0.00946397  1
  Mo  Mo193  1  0.79354797  0.00568346  0.25759782  1
  Mo  Mo194  1  0.29247236  0.69655331  0.11542827  1
  Mo  Mo195  1  0.70180653  0.70077561  0.61207199  1
  Mo  Mo196  1  0.89704483  0.30349598  0.37990709  1
  Mo  Mo197  1  0.79605578  0.59128889  0.74778329  1
  Mo  Mo198  1  0.00544597  0.41392439  0.24927551  1
  Mo  Mo199  1  0.40131322  0.40258441  0.49644171  1
