# generated using pymatgen
data_HfZrTaTiMo
_symmetry_space_group_name_H-M   'P 1'
_cell_length_a   15.18144742
_cell_length_b   15.18284816
_cell_length_c   16.82186539
_cell_angle_alpha   90.03750248
_cell_angle_beta   89.97025006
_cell_angle_gamma   90.12195780
_symmetry_Int_Tables_number   1
_chemical_formula_structural   HfZrTaTiMo
_chemical_formula_sum   'Hf40 Zr40 Ta40 Ti40 Mo40'
_cell_volume   3877.38965202
_cell_formula_units_Z   40
loop_
 _symmetry_equiv_pos_site_id
 _symmetry_equiv_pos_as_xyz
  1  'x, y, z'
loop_
 _atom_site_type_symbol
 _atom_site_label
 _atom_site_symmetry_multiplicity
 _atom_site_fract_x
 _atom_site_fract_y
 _atom_site_fract_z
 _atom_site_occupancy
  Hf  Hf0  1  0.39643207  0.00260669  0.50000957  1
  Hf  Hf1  1  0.38843181  0.79402423  0.00273580  1
  Hf  Hf2  1  0.80060362  0.79021112  0.48301284  1
  Hf  Hf3  1  0.69382059  0.49091826  0.39060594  1
  Hf  Hf4  1  0.29194462  0.30038570  0.88010103  1
  Hf  Hf5  1  0.80680134  -0.00723462  0.50184427  1
  Hf  Hf6  1  0.78658587  0.59039888  0.26332301  1
  Hf  Hf7  1  0.90077345  0.90920235  0.12926015  1
  Hf  Hf8  1  0.08930759  0.29927107  0.35798925  1
  Hf  Hf9  1  0.58730583  0.01312627  0.24436495  1
  Hf  Hf10  1  0.09551166  0.30895781  0.87781929  1
  Hf  Hf11  1  0.41393630  0.39588772  -0.00023849  1
  Hf  Hf12  1  0.79802675  -0.01077868  0.75222971  1
  Hf  Hf13  1  -0.00090909  0.19832766  0.49500364  1
  Hf  Hf14  1  0.30270606  0.29788793  0.12262605  1
  Hf  Hf15  1  0.40587556  0.17597510  -0.01123656  1
  Hf  Hf16  1  0.17593673  -0.00778777  0.26190124  1
  Hf  Hf17  1  0.31081735  0.30476140  0.63390288  1
  Hf  Hf18  1  0.81595076  0.40971629  0.75067192  1
  Hf  Hf19  1  0.89854152  0.28603995  0.12504174  1
  Hf  Hf20  1  0.19015974  0.19885184  0.00524096  1
  Hf  Hf21  1  0.61396381  0.40693769  0.24273708  1
  Hf  Hf22  1  0.19473032  -0.00727743  -0.00520914  1
  Hf  Hf23  1  0.69204683  0.11232329  0.11595322  1
  Hf  Hf24  1  0.20280701  0.19529488  0.48004147  1
  Hf  Hf25  1  0.31872594  0.30505335  0.36270263  1
  Hf  Hf26  1  -0.00512130  -0.00277382  0.75699185  1
  Hf  Hf27  1  0.92072463  0.49229788  0.88717926  1
  Hf  Hf28  1  0.89566929  0.70252374  0.13150243  1
  Hf  Hf29  1  0.39446389  0.59987483  0.24325774  1
  Hf  Hf30  1  0.50742210  0.10302890  0.38622134  1
  Hf  Hf31  1  0.20424202  0.01373273  0.75978473  1
  Hf  Hf32  1  0.20383047  0.39078154  0.49389035  1
  Hf  Hf33  1  0.49612580  0.90700137  0.87641577  1
  Hf  Hf34  1  0.30675706  0.49849242  0.61547360  1
  Hf  Hf35  1  0.69110259  0.90393603  0.37087852  1
  Hf  Hf36  1  0.88293538  0.49164731  0.12812249  1
  Hf  Hf37  1  0.39270169  0.19042171  0.76412041  1
  Hf  Hf38  1  0.41190746  0.22062517  0.50145984  1
  Hf  Hf39  1  0.50407532  0.71150611  0.13264600  1
  Zr  Zr40  1  0.60268489  0.81321000  0.00134977  1
  Zr  Zr41  1  0.29340756  0.70124075  0.62679478  1
  Zr  Zr42  1  0.30341438  0.89600672  0.62175321  1
  Zr  Zr43  1  0.50928454  0.70017723  0.36230033  1
  Zr  Zr44  1  0.77695715  0.78992038  0.75789760  1
  Zr  Zr45  1  0.19294859  0.60941454  0.49182624  1
  Zr  Zr46  1  0.69117773  0.30138967  0.63194391  1
  Zr  Zr47  1  0.09029396  0.50632782  0.61705347  1
  Zr  Zr48  1  0.49495311  0.89701003  0.37381700  1
  Zr  Zr49  1  0.09061368  0.50687201  0.37014920  1
  Zr  Zr50  1  0.50492617  0.69899596  0.86796354  1
  Zr  Zr51  1  0.41518968  0.19198974  0.24653800  1
  Zr  Zr52  1  0.09282479  0.90593997  0.62406692  1
  Zr  Zr53  1  0.49620838  0.70856728  0.63213933  1
  Zr  Zr54  1  0.09101101  0.69012121  0.88232712  1
  Zr  Zr55  1  0.20892873  0.40724309  0.23876367  1
  Zr  Zr56  1  0.69260144  0.89605729  0.13904730  1
  Zr  Zr57  1  0.29539680  0.08753454  0.12713868  1
  Zr  Zr58  1  0.17899009  0.00357170  0.47951824  1
  Zr  Zr59  1  -0.01606055  0.79065657  0.74493986  1
  Zr  Zr60  1  0.19671484  0.60979259  0.24452622  1
  Zr  Zr61  1  0.71709572  0.50706595  0.62011348  1
  Zr  Zr62  1  0.90225674  0.09467261  0.62335103  1
  Zr  Zr63  1  0.00281350  0.80777265  0.00498424  1
  Zr  Zr64  1  0.19741344  0.79932449  0.75907185  1
  Zr  Zr65  1  0.29163489  0.10546386  0.62287218  1
  Zr  Zr66  1  0.61927069  0.41208458  -0.00690231  1
  Zr  Zr67  1  0.00681743  0.59435966  0.02174622  1
  Zr  Zr68  1  0.49429678  0.49127385  0.37997722  1
  Zr  Zr69  1  0.51787391  0.28852185  0.11975357  1
  Zr  Zr70  1  0.79510022  0.19323377  0.75894801  1
  Zr  Zr71  1  0.30502352  0.50904359  0.38027774  1
  Zr  Zr72  1  0.50966820  0.48848622  0.63035645  1
  Zr  Zr73  1  0.60376958  0.00591190  0.75322203  1
  Zr  Zr74  1  0.18739612  0.59008153  0.75589005  1
  Zr  Zr75  1  0.78351913  -0.00351741  -0.01236623  1
  Zr  Zr76  1  0.89929343  0.67525623  0.61028215  1
  Zr  Zr77  1  0.80282108  0.79639188  0.26560372  1
  Zr  Zr78  1  0.69649488  0.70564552  0.61663883  1
  Zr  Zr79  1  0.39492291  0.59056872  0.75737863  1
  Ta  Ta80  1  -0.00043623  0.80830621  0.49830835  1
  Ta  Ta81  1  0.27987687  0.88460848  0.12448582  1
  Ta  Ta82  1  0.90227715  0.49040034  0.37357876  1
  Ta  Ta83  1  0.01922814  0.80801383  0.24351665  1
  Ta  Ta84  1  -0.00597322  0.19452157  0.00083147  1
  Ta  Ta85  1  0.79646113  0.19736614  0.25361743  1
  Ta  Ta86  1  0.71661491  0.52152685  0.86612434  1
  Ta  Ta87  1  0.38196243  -0.00240308  0.25569965  1
  Ta  Ta88  1  0.88966365  0.11041545  0.38083898  1
  Ta  Ta89  1  0.71020878  0.28654484  0.38832079  1
  Ta  Ta90  1  0.79335098  0.78913219  -0.00217592  1
  Ta  Ta91  1  0.90782372  0.30220539  0.62778487  1
  Ta  Ta92  1  0.20442918  0.80167492  0.48575395  1
  Ta  Ta93  1  -0.00165544  0.39844962  0.49942541  1
  Ta  Ta94  1  0.69428028  0.68496650  0.13247641  1
  Ta  Ta95  1  0.30338634  0.50146285  0.89729976  1
  Ta  Ta96  1  0.88408341  0.68463543  0.88169371  1
  Ta  Ta97  1  0.89028151  0.09912332  0.12018021  1
  Ta  Ta98  1  0.10718981  0.29564629  0.62764763  1
  Ta  Ta99  1  0.01528103  0.38930406  0.02200257  1
  Ta  Ta100  1  0.60439841  0.20551524  -0.02611300  1
  Ta  Ta101  1  0.69174786  0.10195120  0.61313695  1
  Ta  Ta102  1  0.92053849  0.91330458  0.36868602  1
  Ta  Ta103  1  0.09892343  0.10968388  0.87363502  1
  Ta  Ta104  1  0.71423474  0.30613665  0.11738182  1
  Ta  Ta105  1  0.00354794  0.20366218  0.75064817  1
  Ta  Ta106  1  0.21009594  0.80023056  0.26308761  1
  Ta  Ta107  1  0.40223269  -0.00068986  0.74874255  1
  Ta  Ta108  1  0.01497956  0.40050251  0.74668434  1
  Ta  Ta109  1  0.51944405  0.30353338  0.37014251  1
  Ta  Ta110  1  0.30261003  0.51390663  0.10110333  1
  Ta  Ta111  1  0.10123810  0.28497530  0.14007268  1
  Ta  Ta112  1  0.58880141  0.21090118  0.76701974  1
  Ta  Ta113  1  -0.00169822  0.40133820  0.23592558  1
  Ta  Ta114  1  0.51374710  0.51477481  0.11983352  1
  Ta  Ta115  1  0.81035419  0.38789502  0.50080184  1
  Ta  Ta116  1  0.60199284  0.60555775  0.49940041  1
  Ta  Ta117  1  0.89384915  0.88927421  0.88137089  1
  Ta  Ta118  1  -0.00466556  0.00715973  -0.00791791  1
  Ta  Ta119  1  0.12664837  0.71763136  0.11735941  1
  Ti  Ti120  1  0.79789397  0.01317131  0.25752898  1
  Ti  Ti121  1  0.60420086  0.60864563  -0.00454172  1
  Ti  Ti122  1  0.41262378  0.40386598  0.23153774  1
  Ti  Ti123  1  0.29587432  0.69260733  0.88419355  1
  Ti  Ti124  1  0.80855176  0.39604789  -0.00782257  1
  Ti  Ti125  1  0.00144265  0.60225239  0.23819427  1
  Ti  Ti126  1  0.48177785  0.91809713  0.12261007  1
  Ti  Ti127  1  0.09447039  0.89937601  0.87286591  1
  Ti  Ti128  1  0.61828647  0.61064855  0.75214287  1
  Ti  Ti129  1  0.79615943  0.20187289  -0.01549732  1
  Ti  Ti130  1  0.09536838  0.70937810  0.37343725  1
  Ti  Ti131  1  0.58127243  0.01832472  -0.00627600  1
  Ti  Ti132  1  0.20906615  0.40164774  0.75249234  1
  Ti  Ti133  1  0.50450286  0.11035520  0.62277101  1
  Ti  Ti134  1  0.90685184  0.29698998  0.87673694  1
  Ti  Ti135  1  0.70134998  0.31535215  0.86466295  1
  Ti  Ti136  1  0.29958917  0.90104508  0.87726773  1
  Ti  Ti137  1  0.91174125  0.69046051  0.37356490  1
  Ti  Ti138  1  0.58853197  0.38211537  0.50717031  1
  Ti  Ti139  1  0.08316612  0.08944005  0.12866588  1
  Ti  Ti140  1  0.79070258  0.59367878  0.00541616  1
  Ti  Ti141  1  -0.00815981  0.18524782  0.25394229  1
  Ti  Ti142  1  0.09618089  0.70432651  0.61661478  1
  Ti  Ti143  1  0.30142551  0.89709917  0.37809653  1
  Ti  Ti144  1  0.59034417  0.80513780  0.49813341  1
  Ti  Ti145  1  0.89984550  0.09989222  0.87589285  1
  Ti  Ti146  1  0.69614192  0.90081969  0.61777398  1
  Ti  Ti147  1  -0.01552084  0.58749956  0.74999100  1
  Ti  Ti148  1  0.80278586  0.38559642  0.25960597  1
  Ti  Ti149  1  0.40398562  0.61555952  0.49784132  1
  Ti  Ti150  1  0.39437728  0.80482264  0.24334033  1
  Ti  Ti151  1  0.61453764  0.20491514  0.25272028  1
  Ti  Ti152  1  0.09965218  0.10756791  0.62876231  1
  Ti  Ti153  1  0.69664993  0.10266575  0.39473218  1
  Ti  Ti154  1  0.41828961  0.39106130  0.76543992  1
  Ti  Ti155  1  0.20364609  0.18353777  0.26417297  1
  Ti  Ti156  1  0.50566684  0.90487974  0.62430051  1
  Ti  Ti157  1  0.11771684  0.49423372  0.89466232  1
  Ti  Ti158  1  0.51292912  0.49985867  0.87180641  1
  Ti  Ti159  1  0.40004075  0.80434860  0.75655019  1
  Mo  Mo160  1  0.60348933  0.19972727  0.50419163  1
  Mo  Mo161  1  0.30728950  0.70393849  0.12142629  1
  Mo  Mo162  1  0.81198013  0.60140058  0.75244219  1
  Mo  Mo163  1  0.39824628  0.79931110  0.49790939  1
  Mo  Mo164  1  0.10228495  0.49917913  0.12642692  1
  Mo  Mo165  1  0.60052278  0.59884026  0.24879987  1
  Mo  Mo166  1  0.09403405  0.89044753  0.37642246  1
  Mo  Mo167  1  0.50176334  0.30775044  0.87708326  1
  Mo  Mo168  1  0.69811135  0.10530287  0.87680056  1
  Mo  Mo169  1  0.90594176  0.48761176  0.61680083  1
  Mo  Mo170  1  0.29507266  0.08909030  0.87614839  1
  Mo  Mo171  1  0.20889673  0.60798394  0.00220380  1
  Mo  Mo172  1  0.09964357  0.90605844  0.12366367  1
  Mo  Mo173  1  0.69586595  0.69728620  0.38371435  1
  Mo  Mo174  1  0.89965838  0.30227202  0.36801809  1
  Mo  Mo175  1  -0.01519453  0.00552486  0.24607375  1
  Mo  Mo176  1  0.60017908  0.80379347  0.24228014  1
  Mo  Mo177  1  0.41511549  0.59717101  -0.00437583  1
  Mo  Mo178  1  0.69765453  0.70035214  0.88125345  1
  Mo  Mo179  1  0.30310175  0.09769070  0.36738425  1
  Mo  Mo180  1  0.59895914  -0.00241469  0.51225648  1
  Mo  Mo181  1  0.49600521  0.09834085  0.86978946  1
  Mo  Mo182  1  0.19844979  0.40080617  0.01426975  1
  Mo  Mo183  1  0.07638077  0.09271684  0.36597201  1
  Mo  Mo184  1  0.70257558  0.49952276  0.12261894  1
  Mo  Mo185  1  0.19858070  0.80157135  -0.01330642  1
  Mo  Mo186  1  0.89117849  0.88873412  0.61977124  1
  Mo  Mo187  1  0.30947141  0.71300223  0.37711462  1
  Mo  Mo188  1  0.60592084  0.41008080  0.76478053  1
  Mo  Mo189  1  0.50148565  0.09355625  0.12101062  1
  Mo  Mo190  1  0.69733956  0.89832497  0.87901147  1
  Mo  Mo191  1  0.59100712  0.81103260  0.74754358  1
  Mo  Mo192  1  0.50387818  0.29494895  0.63917458  1
  Mo  Mo193  1  0.40696775  0.40261563  0.50240953  1
  Mo  Mo194  1  0.80232296  0.59172646  0.47826177  1
  Mo  Mo195  1  0.80171838  0.20309848  0.50608532  1
  Mo  Mo196  1  0.39514062  -0.01063897  0.00166939  1
  Mo  Mo197  1  -0.00753255  0.60548211  0.48742823  1
  Mo  Mo198  1  0.18871807  0.21176925  0.75297577  1
  Mo  Mo199  1  -0.00515860  -0.00245465  0.50315047  1
