# generated using pymatgen
data_HfZrTaTiMo
_symmetry_space_group_name_H-M   'P 1'
_cell_length_a   15.18409661
_cell_length_b   15.18402216
_cell_length_c   16.82557110
_cell_angle_alpha   90.03784409
_cell_angle_beta   89.99189738
_cell_angle_gamma   90.02576353
_symmetry_Int_Tables_number   1
_chemical_formula_structural   HfZrTaTiMo
_chemical_formula_sum   'Hf40 Zr40 Ta40 Ti40 Mo40'
_cell_volume   3879.22936228
_cell_formula_units_Z   40
loop_
 _symmetry_equiv_pos_site_id
 _symmetry_equiv_pos_as_xyz
  1  'x, y, z'
loop_
 _atom_site_type_symbol
 _atom_site_label
 _atom_site_symmetry_multiplicity
 _atom_site_fract_x
 _atom_site_fract_y
 _atom_site_fract_z
 _atom_site_occupancy
  Hf  Hf0  1  0.49921449  0.28499172  0.12568258  1
  Hf  Hf1  1  0.11676079  0.30917280  0.37289721  1
  Hf  Hf2  1  0.39728169  0.78977412  0.49735883  1
  Hf  Hf3  1  0.68264191  0.09454400  0.12908463  1
  Hf  Hf4  1  0.79849396  0.01122786  0.73936079  1
  Hf  Hf5  1  0.80253649  0.80652807  0.73650519  1
  Hf  Hf6  1  -0.00359381  -0.00663777  0.25641047  1
  Hf  Hf7  1  0.80029653  0.20159078  0.25422924  1
  Hf  Hf8  1  0.60863064  0.59204294  0.24069319  1
  Hf  Hf9  1  0.80629087  0.39440663  0.51623857  1
  Hf  Hf10  1  0.31004381  0.89807003  0.88411203  1
  Hf  Hf11  1  0.38357060  0.20336026  0.48319820  1
  Hf  Hf12  1  0.91130602  0.90921394  0.62196932  1
  Hf  Hf13  1  0.81367406  0.40071223  0.75881568  1
  Hf  Hf14  1  0.11175390  0.69959650  0.63370296  1
  Hf  Hf15  1  0.28274064  0.88905715  0.37302950  1
  Hf  Hf16  1  0.08780280  0.70436069  0.11760861  1
  Hf  Hf17  1  0.39893996  0.59297752  0.24402260  1
  Hf  Hf18  1  0.00383625  0.40045811  -0.01831614  1
  Hf  Hf19  1  0.38440211  0.79354267  0.74341714  1
  Hf  Hf20  1  0.28999946  0.29967294  0.12894008  1
  Hf  Hf21  1  0.58376900  0.19994748  0.75132597  1
  Hf  Hf22  1  0.50632657  0.70906150  0.36337768  1
  Hf  Hf23  1  0.69104364  0.90785358  0.87340860  1
  Hf  Hf24  1  0.37787564  0.19062357  0.00611170  1
  Hf  Hf25  1  0.70797559  0.49613914  0.10662302  1
  Hf  Hf26  1  0.79490052  0.79810723  0.50910039  1
  Hf  Hf27  1  0.78452843  0.20270212  0.75123160  1
  Hf  Hf28  1  0.70113657  0.71238339  0.88153915  1
  Hf  Hf29  1  0.21134499  0.39322557  -0.00761731  1
  Hf  Hf30  1  0.19600840  0.59521113  0.24036759  1
  Hf  Hf31  1  0.28413613  0.89059494  0.61456806  1
  Hf  Hf32  1  0.59675731  0.79115952  0.74227863  1
  Hf  Hf33  1  0.39183526  -0.00749388  0.49022128  1
  Hf  Hf34  1  0.60248773  0.38446540  -0.01109837  1
  Hf  Hf35  1  0.69780279  0.51178194  0.64080117  1
  Hf  Hf36  1  0.00312806  0.20184130  0.49458928  1
  Hf  Hf37  1  0.10259315  0.89806849  0.89089040  1
  Hf  Hf38  1  0.79239996  0.00050518  0.00318547  1
  Hf  Hf39  1  0.19417756  -0.01128964  0.75774556  1
  Zr  Zr40  1  0.29668696  0.29178959  0.85982048  1
  Zr  Zr41  1  0.70537641  0.70255551  0.36927343  1
  Zr  Zr42  1  0.51176135  0.49745101  0.37245477  1
  Zr  Zr43  1  0.21805603  0.61210026  0.75767194  1
  Zr  Zr44  1  0.91000281  0.50895709  0.10842660  1
  Zr  Zr45  1  0.89989827  0.10891899  0.12961097  1
  Zr  Zr46  1  0.48300240  0.48624311  0.11205896  1
  Zr  Zr47  1  -0.00329571  0.01227500  -0.00931710  1
  Zr  Zr48  1  0.48884540  0.10419708  0.61052579  1
  Zr  Zr49  1  0.91544124  0.69496581  0.38200351  1
  Zr  Zr50  1  0.59195042  -0.00221709  0.73480909  1
  Zr  Zr51  1  0.08703309  0.30089714  0.12835896  1
  Zr  Zr52  1  0.93163143  0.49835564  0.63479661  1
  Zr  Zr53  1  0.50158201  0.49770018  0.62414720  1
  Zr  Zr54  1  0.21173851  0.59770236  0.00639124  1
  Zr  Zr55  1  0.70231393  0.29771184  0.12405231  1
  Zr  Zr56  1  0.39596671  0.19014621  0.26144573  1
  Zr  Zr57  1  0.30694937  0.28909058  0.63669389  1
  Zr  Zr58  1  0.40441277  0.40209053  0.75073505  1
  Zr  Zr59  1  0.90060289  0.30680192  0.37597828  1
  Zr  Zr60  1  0.09677511  0.30274824  0.64116826  1
  Zr  Zr61  1  0.08768422  0.51600068  0.38507876  1
  Zr  Zr62  1  0.41333550  -0.00469936  0.02224107  1
  Zr  Zr63  1  0.11321077  0.10831999  0.12656810  1
  Zr  Zr64  1  0.10398918  0.90304985  0.11705524  1
  Zr  Zr65  1  0.01191344  -0.00342744  0.48497224  1
  Zr  Zr66  1  -0.00458410  0.41012530  0.24811722  1
  Zr  Zr67  1  0.61153825  0.39694295  0.49988150  1
  Zr  Zr68  1  0.48013307  0.08559040  0.87194188  1
  Zr  Zr69  1  0.81008768  0.61335289  0.75336334  1
  Zr  Zr70  1  0.59156751  0.61620958  0.01053972  1
  Zr  Zr71  1  0.28818059  0.49419354  0.37933600  1
  Zr  Zr72  1  0.69989070  0.51272046  0.87827188  1
  Zr  Zr73  1  0.80886948  0.59470426  0.50939463  1
  Zr  Zr74  1  0.80851858  0.59252429  0.24851811  1
  Zr  Zr75  1  0.71403524  0.71041148  0.12321151  1
  Zr  Zr76  1  0.29913209  0.51472761  0.61961997  1
  Zr  Zr77  1  0.50130499  0.69557902  0.62252769  1
  Zr  Zr78  1  0.60745329  0.39246899  0.76116037  1
  Zr  Zr79  1  0.08350504  0.09548738  0.63083566  1
  Ta  Ta80  1  0.79574881  0.20260848  -0.00996762  1
  Ta  Ta81  1  0.20084453  0.00576015  0.25926286  1
  Ta  Ta82  1  0.20097940  0.39164580  0.51142423  1
  Ta  Ta83  1  0.79383573  -0.00569407  0.25674332  1
  Ta  Ta84  1  0.10714250  0.70258040  0.88207875  1
  Ta  Ta85  1  0.11372395  0.72156365  0.36241780  1
  Ta  Ta86  1  0.81585255  0.80380628  0.25076416  1
  Ta  Ta87  1  0.59892798  0.19774019  0.26525528  1
  Ta  Ta88  1  0.58837013  0.17829921  -0.00214596  1
  Ta  Ta89  1  0.40370459  0.59855241  0.48741135  1
  Ta  Ta90  1  0.39025704  0.00019723  0.73772994  1
  Ta  Ta91  1  0.39604496  0.00155586  0.25314356  1
  Ta  Ta92  1  0.89301261  0.09657109  0.37479959  1
  Ta  Ta93  1  0.90071992  0.28506920  0.63353582  1
  Ta  Ta94  1  0.49808999  0.88748277  0.87739753  1
  Ta  Ta95  1  0.39650758  0.80431048  0.24243263  1
  Ta  Ta96  1  0.90066812  0.88933052  0.12376741  1
  Ta  Ta97  1  -0.00182101  0.61364454  0.24454107  1
  Ta  Ta98  1  0.68658601  0.89858636  0.61320924  1
  Ta  Ta99  1  0.39827796  0.39768785  0.49606655  1
  Ta  Ta100  1  0.80054841  0.00579866  0.50324512  1
  Ta  Ta101  1  0.49047552  0.29235844  0.88334929  1
  Ta  Ta102  1  0.89185042  0.89562348  0.87343545  1
  Ta  Ta103  1  0.28142123  0.09501338  0.61430121  1
  Ta  Ta104  1  0.69902900  0.10001894  0.38341590  1
  Ta  Ta105  1  0.40827451  0.78963791  0.01821982  1
  Ta  Ta106  1  -0.00756754  0.00047826  0.76734066  1
  Ta  Ta107  1  0.38983673  0.39192748  0.25720139  1
  Ta  Ta108  1  0.79493216  0.20065231  0.50313594  1
  Ta  Ta109  1  0.60985699  0.61218232  0.49712047  1
  Ta  Ta110  1  0.80756541  0.39692379  -0.02192427  1
  Ta  Ta111  1  0.89533948  0.89392312  0.38025099  1
  Ta  Ta112  1  0.49101727  0.50479727  0.88782039  1
  Ta  Ta113  1  0.59787786  -0.00738679  0.49552003  1
  Ta  Ta114  1  0.20172845  0.62499471  0.49799625  1
  Ta  Ta115  1  0.69121955  0.10180672  0.87919734  1
  Ta  Ta116  1  0.01578502  0.79172749  0.49994114  1
  Ta  Ta117  1  0.51325930  0.90427170  0.14394153  1
  Ta  Ta118  1  0.00760629  0.79982278  0.75876892  1
  Ta  Ta119  1  0.49474489  0.69839972  0.87688651  1
  Ti  Ti120  1  0.50267626  0.09617197  0.38277003  1
  Ti  Ti121  1  0.30156184  0.70031354  0.12899778  1
  Ti  Ti122  1  0.50492009  0.71029428  0.13901289  1
  Ti  Ti123  1  0.31233187  0.50571477  0.87710438  1
  Ti  Ti124  1  0.09935464  0.89771097  0.62801349  1
  Ti  Ti125  1  0.00639748  0.19575580  0.26283095  1
  Ti  Ti126  1  0.20717997  0.20077342  0.26141499  1
  Ti  Ti127  1  0.29823110  0.90301145  0.13317874  1
  Ti  Ti128  1  0.69675153  0.89807346  0.37811927  1
  Ti  Ti129  1  0.91416655  0.70097093  0.62452334  1
  Ti  Ti130  1  0.59776109  0.81765970  0.00760412  1
  Ti  Ti131  1  0.50245255  0.29930169  0.37715424  1
  Ti  Ti132  1  0.10676143  0.49545206  0.11891926  1
  Ti  Ti133  1  0.89395259  0.30688491  0.11649182  1
  Ti  Ti134  1  0.79138259  0.40537946  0.25110885  1
  Ti  Ti135  1  0.31131759  0.70014012  0.88713392  1
  Ti  Ti136  1  0.83028875  0.61110373  -0.01586988  1
  Ti  Ti137  1  0.10891048  0.50200470  0.87553347  1
  Ti  Ti138  1  0.01014438  0.59619950  0.76619225  1
  Ti  Ti139  1  0.50378362  0.89614336  0.36573733  1
  Ti  Ti140  1  0.89329780  0.49975782  0.38139051  1
  Ti  Ti141  1  0.20036306  0.18021749  0.75787071  1
  Ti  Ti142  1  0.60063802  0.39408851  0.25114613  1
  Ti  Ti143  1  0.70057818  0.90018892  0.13421240  1
  Ti  Ti144  1  0.69996899  0.30438864  0.37519580  1
  Ti  Ti145  1  0.09710970  0.29859226  0.85619421  1
  Ti  Ti146  1  0.19418274  0.41337427  0.74668184  1
  Ti  Ti147  1  0.51013004  0.29422995  0.61283359  1
  Ti  Ti148  1  0.21164682  0.80152554  0.00782052  1
  Ti  Ti149  1  0.69204883  0.11373982  0.60948425  1
  Ti  Ti150  1  0.18276326  0.19521590  -0.01768430  1
  Ti  Ti151  1  0.21566739  0.01586217  -0.00452284  1
  Ti  Ti152  1  -0.00777133  0.20193277  -0.01491156  1
  Ti  Ti153  1  -0.01355560  0.18726371  0.76095114  1
  Ti  Ti154  1  0.80350656  0.80333305  0.00099175  1
  Ti  Ti155  1  0.90024033  0.29329688  0.86857505  1
  Ti  Ti156  1  0.59773203  0.00323336  0.26267814  1
  Ti  Ti157  1  -0.01284796  0.78864330  -0.00904589  1
  Ti  Ti158  1  0.29942426  0.69917564  0.36178338  1
  Ti  Ti159  1  0.00654755  0.40566193  0.50530375  1
  Mo  Mo160  1  0.00001689  0.80245697  0.24870104  1
  Mo  Mo161  1  0.00830974  0.40009144  0.76624290  1
  Mo  Mo162  1  0.59623134  0.80578077  0.49842065  1
  Mo  Mo163  1  0.20117840  0.40222047  0.24476534  1
  Mo  Mo164  1  0.28869488  0.09748817  0.38115422  1
  Mo  Mo165  1  0.91458231  0.50364736  0.87295883  1
  Mo  Mo166  1  0.00886415  0.60077182  -0.01573287  1
  Mo  Mo167  1  0.69981576  0.29548600  0.62341305  1
  Mo  Mo168  1  0.88888425  0.09943478  0.87726069  1
  Mo  Mo169  1  0.90371952  0.70723714  0.11903427  1
  Mo  Mo170  1  0.19270551  0.80989387  0.49695231  1
  Mo  Mo171  1  0.19251926  0.19759634  0.49836126  1
  Mo  Mo172  1  0.19386169  0.80157340  0.76154745  1
  Mo  Mo173  1  0.70013307  0.70064756  0.62074959  1
  Mo  Mo174  1  0.29135405  0.09429971  0.13304779  1
  Mo  Mo175  1  0.39650394  0.39639400  -0.00898173  1
  Mo  Mo176  1  0.09675080  0.10805104  0.87112253  1
  Mo  Mo177  1  0.41199621  0.60317678  0.75957365  1
  Mo  Mo178  1  0.89465870  0.10359510  0.62180992  1
  Mo  Mo179  1  0.59928246  -0.00832797  0.00407661  1
  Mo  Mo180  1  0.70912020  0.49017071  0.37221174  1
  Mo  Mo181  1  0.01394253  0.60578278  0.50477579  1
  Mo  Mo182  1  0.69567885  0.29067190  0.88321330  1
  Mo  Mo183  1  0.10844406  0.50073708  0.62400954  1
  Mo  Mo184  1  0.59003772  0.60133359  0.76130864  1
  Mo  Mo185  1  0.09156096  0.89603335  0.36525078  1
  Mo  Mo186  1  0.49378932  0.90400471  0.61772996  1
  Mo  Mo187  1  0.30255296  0.69885350  0.61770775  1
  Mo  Mo188  1  0.20370507  0.80318281  0.23591344  1
  Mo  Mo189  1  0.39345129  0.18693308  0.74355773  1
  Mo  Mo190  1  0.10024733  0.10465904  0.36552239  1
  Mo  Mo191  1  0.50001456  0.09558434  0.13910772  1
  Mo  Mo192  1  0.61005243  0.81274222  0.24823722  1
  Mo  Mo193  1  0.90948931  0.70965009  0.86976795  1
  Mo  Mo194  1  0.29289647  0.09101501  0.87280795  1
  Mo  Mo195  1  0.19490689  0.01157269  0.48932233  1
  Mo  Mo196  1  0.39675839  0.60570295  0.01013694  1
  Mo  Mo197  1  0.29503528  0.49055919  0.13158992  1
  Mo  Mo198  1  0.30040268  0.30509829  0.37606346  1
  Mo  Mo199  1  0.60023193  0.19883201  0.48398517  1
