# generated using pymatgen
data_HfZrTaTiMo
_symmetry_space_group_name_H-M   'P 1'
_cell_length_a   15.20449445
_cell_length_b   15.21263310
_cell_length_c   16.83507166
_cell_angle_alpha   90.00021941
_cell_angle_beta   90.00710390
_cell_angle_gamma   89.98685926
_symmetry_Int_Tables_number   1
_chemical_formula_structural   HfZrTaTiMo
_chemical_formula_sum   'Hf40 Zr40 Ta40 Ti40 Mo40'
_cell_volume   3893.95860323
_cell_formula_units_Z   40
loop_
 _symmetry_equiv_pos_site_id
 _symmetry_equiv_pos_as_xyz
  1  'x, y, z'
loop_
 _atom_site_type_symbol
 _atom_site_label
 _atom_site_symmetry_multiplicity
 _atom_site_fract_x
 _atom_site_fract_y
 _atom_site_fract_z
 _atom_site_occupancy
  Hf  Hf0  1  0.20943914  0.19528687  0.49460924  1
  Hf  Hf1  1  0.49997288  0.89400504  0.12032057  1
  Hf  Hf2  1  0.20882498  0.79745210  0.24524142  1
  Hf  Hf3  1  0.09847847  0.30477737  0.37756063  1
  Hf  Hf4  1  0.88240090  0.51037715  0.65318629  1
  Hf  Hf5  1  0.28961480  0.09983926  0.12478571  1
  Hf  Hf6  1  0.89691764  0.10218236  0.88716696  1
  Hf  Hf7  1  0.80039831  0.40096783  0.50246031  1
  Hf  Hf8  1  0.10469896  0.48831058  0.86914399  1
  Hf  Hf9  1  0.70672600  0.70142854  0.61542259  1
  Hf  Hf10  1  0.89969341  0.30780761  0.86549835  1
  Hf  Hf11  1  0.29120855  0.09465509  0.87099902  1
  Hf  Hf12  1  0.59229500  -0.00303205  0.48736236  1
  Hf  Hf13  1  0.79464281  0.00989980  0.48501149  1
  Hf  Hf14  1  0.51610039  0.88118658  0.88620463  1
  Hf  Hf15  1  0.60109944  0.19724600  0.25856138  1
  Hf  Hf16  1  0.31223139  0.69792764  0.86001721  1
  Hf  Hf17  1  0.48819844  0.88829433  0.62130189  1
  Hf  Hf18  1  0.31150257  0.30716421  0.37576801  1
  Hf  Hf19  1  0.90118440  0.09219327  0.12539346  1
  Hf  Hf20  1  -0.00850543  0.00935593  0.74651876  1
  Hf  Hf21  1  0.09815115  0.90880004  0.87852078  1
  Hf  Hf22  1  0.09432211  0.09925148  0.37440358  1
  Hf  Hf23  1  0.10775374  0.09202587  0.61952183  1
  Hf  Hf24  1  0.41189810  -0.00742834  0.76132797  1
  Hf  Hf25  1  0.39513382  0.20792433  -0.00399342  1
  Hf  Hf26  1  0.20531891  0.41002922  0.51730117  1
  Hf  Hf27  1  0.39326895  0.00026523  0.49302776  1
  Hf  Hf28  1  0.90654666  0.30067502  0.36637236  1
  Hf  Hf29  1  0.31660800  0.48563693  0.85571082  1
  Hf  Hf30  1  0.68445161  0.50516701  0.61667824  1
  Hf  Hf31  1  0.10095435  0.70434603  0.10724262  1
  Hf  Hf32  1  0.62184183  -0.00892499  0.76477623  1
  Hf  Hf33  1  0.19494461  0.80236355  0.50670047  1
  Hf  Hf34  1  0.51120203  0.10318394  0.11620133  1
  Hf  Hf35  1  0.88971067  0.51632497  0.12211990  1
  Hf  Hf36  1  0.40257163  0.20082107  0.25226031  1
  Hf  Hf37  1  0.80156330  0.80677265  0.49683669  1
  Hf  Hf38  1  0.77674465  0.80895417  0.75750406  1
  Hf  Hf39  1  0.91062124  0.50842306  0.36706482  1
  Zr  Zr40  1  0.68110857  0.49973318  0.12163930  1
  Zr  Zr41  1  0.70720808  0.09641836  0.62608754  1
  Zr  Zr42  1  0.20048783  0.59983951  0.23966625  1
  Zr  Zr43  1  0.79865364  0.40823611  -0.00421976  1
  Zr  Zr44  1  0.70293279  0.70906769  0.37896358  1
  Zr  Zr45  1  0.39729226  0.61108375  0.25299906  1
  Zr  Zr46  1  0.09913137  0.89336255  0.36675292  1
  Zr  Zr47  1  0.31503563  0.29510221  0.62690605  1
  Zr  Zr48  1  0.39494865  0.79276857  -0.00378502  1
  Zr  Zr49  1  0.00998407  0.21016783  0.73952066  1
  Zr  Zr50  1  0.79315333  0.20045931  0.23553856  1
  Zr  Zr51  1  0.31170653  0.89261076  0.37164900  1
  Zr  Zr52  1  0.00977832  0.61185470  0.76314378  1
  Zr  Zr53  1  0.70157726  0.50479775  0.38322915  1
  Zr  Zr54  1  0.69044634  0.30261550  0.63355261  1
  Zr  Zr55  1  0.41387272  0.59116112  -0.00118221  1
  Zr  Zr56  1  0.70723173  0.70059098  0.12126393  1
  Zr  Zr57  1  0.42628672  0.59152679  0.73442122  1
  Zr  Zr58  1  0.90526510  0.30718077  0.12308798  1
  Zr  Zr59  1  0.10543536  0.71384895  0.89378858  1
  Zr  Zr60  1  0.77095043  0.19912072  0.01074913  1
  Zr  Zr61  1  0.20726532  0.40184721  0.24207142  1
  Zr  Zr62  1  -0.01447612  0.59767184  -0.00828934  1
  Zr  Zr63  1  0.18685059  0.38608333  0.72968618  1
  Zr  Zr64  1  0.19227881  0.79344452  0.74346754  1
  Zr  Zr65  1  0.40396291  0.40251047  0.01133215  1
  Zr  Zr66  1  -0.00240390  0.40727243  0.51325536  1
  Zr  Zr67  1  0.61995712  0.60273017  0.75975579  1
  Zr  Zr68  1  0.10978876  0.50681977  0.37932608  1
  Zr  Zr69  1  -0.00407645  -0.00850705  0.50083648  1
  Zr  Zr70  1  0.59277523  0.59855072  0.26399255  1
  Zr  Zr71  1  0.90070055  0.88863034  0.36446606  1
  Zr  Zr72  1  0.20946582  0.38802348  0.00602835  1
  Zr  Zr73  1  0.32097848  0.70991298  0.61846037  1
  Zr  Zr74  1  0.31504559  0.09451963  0.63245993  1
  Zr  Zr75  1  0.39418372  -0.00502785  -0.00413223  1
  Zr  Zr76  1  0.21524778  0.59432294  0.00419810  1
  Zr  Zr77  1  0.88994108  0.30495766  0.64332210  1
  Zr  Zr78  1  0.70674221  0.29433064  0.37924244  1
  Zr  Zr79  1  0.88277407  0.90863253  0.63015591  1
  Ta  Ta80  1  0.59817959  0.19686580  0.49033510  1
  Ta  Ta81  1  0.79186594  0.40658359  0.24340379  1
  Ta  Ta82  1  -0.00826362  0.19892611  0.50961789  1
  Ta  Ta83  1  0.79155284  0.00151727  0.25207423  1
  Ta  Ta84  1  0.29276811  0.69318380  0.39131223  1
  Ta  Ta85  1  0.10859061  0.28411304  0.12330505  1
  Ta  Ta86  1  0.21063642  0.59130669  0.72827624  1
  Ta  Ta87  1  0.89545954  0.90307878  0.87844865  1
  Ta  Ta88  1  0.51028732  0.69378708  0.12248904  1
  Ta  Ta89  1  0.20113942  0.19571726  0.25846002  1
  Ta  Ta90  1  0.00063179  0.60500346  0.23829877  1
  Ta  Ta91  1  0.68288785  0.89631613  0.61777945  1
  Ta  Ta92  1  0.10320863  0.90873270  0.12781354  1
  Ta  Ta93  1  0.59615376  0.19431541  0.75700091  1
  Ta  Ta94  1  0.59875831  0.00058866  0.25624439  1
  Ta  Ta95  1  -0.01115831  0.80610212  0.75313621  1
  Ta  Ta96  1  0.59748525  0.39406921  -0.00954372  1
  Ta  Ta97  1  0.89636188  0.10484296  0.36526241  1
  Ta  Ta98  1  0.61885524  0.00666473  -0.00632686  1
  Ta  Ta99  1  0.08809026  0.69608634  0.37582861  1
  Ta  Ta100  1  0.00461563  0.39412308  -0.00223745  1
  Ta  Ta101  1  0.19105667  0.00325008  0.00668061  1
  Ta  Ta102  1  0.09389890  0.49064130  0.11862493  1
  Ta  Ta103  1  0.88713484  0.71163559  0.87902940  1
  Ta  Ta104  1  0.51235084  0.10714276  0.88538208  1
  Ta  Ta105  1  0.82465713  0.60756876  0.49946943  1
  Ta  Ta106  1  0.09391712  0.89280003  0.62942214  1
  Ta  Ta107  1  0.29072801  0.90867263  0.63355682  1
  Ta  Ta108  1  0.10043528  0.10226532  0.87599429  1
  Ta  Ta109  1  -0.00455219  0.79125025  0.23368249  1
  Ta  Ta110  1  0.69314623  0.29767642  0.86222305  1
  Ta  Ta111  1  0.69771601  0.90814135  0.12828260  1
  Ta  Ta112  1  0.59323375  0.39574163  0.26142993  1
  Ta  Ta113  1  0.29426902  0.29368964  0.86239825  1
  Ta  Ta114  1  0.58271416  0.39849746  0.48975068  1
  Ta  Ta115  1  0.41030985  0.20155944  0.75936571  1
  Ta  Ta116  1  -0.00508400  0.77691266  0.50843082  1
  Ta  Ta117  1  0.10419901  0.28927865  0.88074352  1
  Ta  Ta118  1  0.40076187  -0.01036543  0.24671360  1
  Ta  Ta119  1  0.41026370  0.41191444  0.24154944  1
  Ti  Ti120  1  0.49102766  0.09361037  0.37015194  1
  Ti  Ti121  1  0.90373232  0.70141359  0.63970072  1
  Ti  Ti122  1  0.40325420  0.39994454  0.50397903  1
  Ti  Ti123  1  0.48972463  0.70988700  0.39299419  1
  Ti  Ti124  1  0.20197891  0.00487186  0.24975202  1
  Ti  Ti125  1  0.20132328  -0.00237306  0.49254862  1
  Ti  Ti126  1  0.30779984  0.50501207  0.38103126  1
  Ti  Ti127  1  0.51648979  0.30676511  0.12408329  1
  Ti  Ti128  1  0.79797153  0.18088276  0.75336502  1
  Ti  Ti129  1  0.08446851  0.50543481  0.63382430  1
  Ti  Ti130  1  0.89263428  0.50406012  0.86094894  1
  Ti  Ti131  1  0.18860381  0.60548490  0.52206446  1
  Ti  Ti132  1  0.30542405  0.29765325  0.13252278  1
  Ti  Ti133  1  -0.01064939  0.81445374  0.01315483  1
  Ti  Ti134  1  0.01447972  0.19375629  0.00668709  1
  Ti  Ti135  1  0.58320632  0.40515376  0.75362933  1
  Ti  Ti136  1  0.70281823  0.49924791  0.87569059  1
  Ti  Ti137  1  -0.00329645  -0.00440166  0.24345022  1
  Ti  Ti138  1  0.80308192  -0.00568481  0.00926880  1
  Ti  Ti139  1  0.41489897  0.20041089  0.49065659  1
  Ti  Ti140  1  0.80281093  0.19875556  0.50167490  1
  Ti  Ti141  1  0.40639156  0.58642570  0.50404389  1
  Ti  Ti142  1  0.80063971  0.80484503  0.00901821  1
  Ti  Ti143  1  0.68888478  0.90008450  0.36727588  1
  Ti  Ti144  1  0.49328121  0.31026730  0.87072433  1
  Ti  Ti145  1  0.50870864  0.10119597  0.62624504  1
  Ti  Ti146  1  0.00699655  0.19572620  0.24255459  1
  Ti  Ti147  1  0.68909919  0.71944622  0.89056315  1
  Ti  Ti148  1  0.80275514  0.80274229  0.24071675  1
  Ti  Ti149  1  0.30937137  0.71150111  0.12181965  1
  Ti  Ti150  1  0.00219369  0.40302855  0.24081732  1
  Ti  Ti151  1  0.20073784  0.18824926  0.74407184  1
  Ti  Ti152  1  0.50407387  0.29790875  0.62746957  1
  Ti  Ti153  1  0.29017602  0.89455660  0.86723894  1
  Ti  Ti154  1  0.80854702  0.61154117  0.25353618  1
  Ti  Ti155  1  0.51957438  0.69106775  0.59878410  1
  Ti  Ti156  1  -0.00078157  -0.00009969  0.00873255  1
  Ti  Ti157  1  0.58626961  0.80211344  0.25351379  1
  Ti  Ti158  1  0.60252053  0.60041853  -0.01259858  1
  Ti  Ti159  1  0.57757361  0.78911189  0.74625105  1
  Mo  Mo160  1  -0.00229618  0.40387239  0.75533988  1
  Mo  Mo161  1  0.50315532  0.89292494  0.36560767  1
  Mo  Mo162  1  0.90860992  0.69791574  0.36952137  1
  Mo  Mo163  1  0.50660423  0.69385632  0.87608479  1
  Mo  Mo164  1  0.80167102  -0.00020052  0.75775375  1
  Mo  Mo165  1  0.40402936  0.80042306  0.75710846  1
  Mo  Mo166  1  0.79180462  0.60868236  -0.02042700  1
  Mo  Mo167  1  0.19820721  0.19423472  -0.00148221  1
  Mo  Mo168  1  0.71517677  0.90125788  0.89407671  1
  Mo  Mo169  1  0.51330806  0.49282176  0.87378770  1
  Mo  Mo170  1  0.29514257  0.90003990  0.13153494  1
  Mo  Mo171  1  0.89540081  0.89695538  0.13195263  1
  Mo  Mo172  1  0.40546001  0.39144177  0.74505885  1
  Mo  Mo173  1  0.69011598  0.09146871  0.12629651  1
  Mo  Mo174  1  0.09959344  0.29485935  0.61143723  1
  Mo  Mo175  1  0.49729683  0.30053143  0.37761164  1
  Mo  Mo176  1  0.59721371  0.80370023  0.49481452  1
  Mo  Mo177  1  0.29891766  0.09833605  0.36619969  1
  Mo  Mo178  1  0.30320865  0.50179701  0.12950929  1
  Mo  Mo179  1  0.70099751  0.09668797  0.37666276  1
  Mo  Mo180  1  0.40699457  0.79341328  0.24654214  1
  Mo  Mo181  1  0.39938285  0.79707745  0.49850016  1
  Mo  Mo182  1  0.60726118  0.79891109  0.01078768  1
  Mo  Mo183  1  0.79804162  0.61472814  0.76951288  1
  Mo  Mo184  1  0.09709130  0.09911405  0.13449006  1
  Mo  Mo185  1  0.59216545  0.21046278  -0.00972485  1
  Mo  Mo186  1  0.30476969  0.50149804  0.62313202  1
  Mo  Mo187  1  0.70480710  0.10416895  0.87371947  1
  Mo  Mo188  1  0.68674415  0.30476700  0.12988013  1
  Mo  Mo189  1  0.77966524  0.40948101  0.76226710  1
  Mo  Mo190  1  0.50112276  0.48677970  0.61605497  1
  Mo  Mo191  1  0.48544124  0.49725143  0.38122221  1
  Mo  Mo192  1  0.50576445  0.50141809  0.12810717  1
  Mo  Mo193  1  -0.00014977  0.60170745  0.51114061  1
  Mo  Mo194  1  0.09539613  0.69887428  0.62780763  1
  Mo  Mo195  1  0.59795298  0.59750871  0.48842281  1
  Mo  Mo196  1  0.20602989  0.81843997  0.00827814  1
  Mo  Mo197  1  0.89851278  0.70445713  0.11930992  1
  Mo  Mo198  1  0.89628928  0.10614572  0.62050037  1
  Mo  Mo199  1  0.19482204  -0.00268710  0.75041536  1
