# generated using pymatgen
data_HfZrTaTiMo
_symmetry_space_group_name_H-M   'P 1'
_cell_length_a   15.21488780
_cell_length_b   15.21227636
_cell_length_c   16.83127562
_cell_angle_alpha   90.01171349
_cell_angle_beta   89.99207627
_cell_angle_gamma   89.97859726
_symmetry_Int_Tables_number   1
_chemical_formula_structural   HfZrTaTiMo
_chemical_formula_sum   'Hf40 Zr40 Ta40 Ti40 Mo40'
_cell_volume   3895.65015924
_cell_formula_units_Z   40
loop_
 _symmetry_equiv_pos_site_id
 _symmetry_equiv_pos_as_xyz
  1  'x, y, z'
loop_
 _atom_site_type_symbol
 _atom_site_label
 _atom_site_symmetry_multiplicity
 _atom_site_fract_x
 _atom_site_fract_y
 _atom_site_fract_z
 _atom_site_occupancy
  Hf  Hf0  1  0.19569875  0.40081873  0.49149699  1
  Hf  Hf1  1  0.49958363  0.30444725  0.12121871  1
  Hf  Hf2  1  0.28171435  0.90300348  0.12904638  1
  Hf  Hf3  1  0.48702560  0.90293514  0.12704742  1
  Hf  Hf4  1  -0.00258877  0.61839233  0.73355188  1
  Hf  Hf5  1  0.61041688  0.80969907  0.74131958  1
  Hf  Hf6  1  0.50272698  0.30282912  0.88622841  1
  Hf  Hf7  1  0.30497858  0.70119581  0.61728747  1
  Hf  Hf8  1  0.88717796  0.71189646  0.12955501  1
  Hf  Hf9  1  0.21416531  0.60222954  0.01851584  1
  Hf  Hf10  1  0.30062795  0.10089787  0.89415028  1
  Hf  Hf11  1  0.91043837  0.47868539  0.86197653  1
  Hf  Hf12  1  0.31801109  0.09609258  0.10773052  1
  Hf  Hf13  1  0.30696047  0.49815791  0.62226991  1
  Hf  Hf14  1  0.20739562  0.18445783  0.24930843  1
  Hf  Hf15  1  0.69027789  0.08457642  0.37528673  1
  Hf  Hf16  1  -0.01017608  0.19856621  0.24510692  1
  Hf  Hf17  1  0.09456617  0.89631924  0.37826506  1
  Hf  Hf18  1  0.78550123  0.00163647  -0.01833695  1
  Hf  Hf19  1  0.30483355  0.50343531  0.87848380  1
  Hf  Hf20  1  0.61290470  0.41388272  0.00634933  1
  Hf  Hf21  1  0.29503499  0.90256657  0.87229350  1
  Hf  Hf22  1  0.59551038  0.39627061  0.25399101  1
  Hf  Hf23  1  0.18795677  0.79696717  0.00024520  1
  Hf  Hf24  1  0.51428248  0.51154216  0.86998549  1
  Hf  Hf25  1  0.09168183  0.08860254  0.37107726  1
  Hf  Hf26  1  0.61162894  0.38646470  0.49301383  1
  Hf  Hf27  1  0.40740868  0.19782154  0.25221335  1
  Hf  Hf28  1  0.61213926  0.60237019  0.73293827  1
  Hf  Hf29  1  0.50102224  0.10294441  0.88445207  1
  Hf  Hf30  1  0.01131723  0.59860865  0.02089401  1
  Hf  Hf31  1  0.08120205  0.31504709  0.88767834  1
  Hf  Hf32  1  -0.01298997  0.00069400  0.00950558  1
  Hf  Hf33  1  -0.01430740  0.19454284  0.49556097  1
  Hf  Hf34  1  0.18144567  0.80490270  0.74033773  1
  Hf  Hf35  1  -0.01128732  0.40780144  0.49597664  1
  Hf  Hf36  1  0.10060725  0.29800852  0.12421572  1
  Hf  Hf37  1  0.29579219  0.90492961  0.61467746  1
  Hf  Hf38  1  0.10593000  0.72050416  0.14632266  1
  Hf  Hf39  1  0.30258815  0.30058120  0.11414516  1
  Zr  Zr40  1  0.10093872  0.09716211  0.62009747  1
  Zr  Zr41  1  0.70724146  0.50023102  0.13616529  1
  Zr  Zr42  1  0.39999931  0.20086460  0.75168863  1
  Zr  Zr43  1  0.00358043  0.61101399  0.51146735  1
  Zr  Zr44  1  0.80389140  0.60089206  0.26325106  1
  Zr  Zr45  1  0.79425783  0.59300315  0.00363052  1
  Zr  Zr46  1  0.50686505  0.70437245  0.60873451  1
  Zr  Zr47  1  0.79816049  0.81875964  0.26295798  1
  Zr  Zr48  1  0.09644923  0.70063892  0.36231759  1
  Zr  Zr49  1  0.69614045  0.70575567  0.39025435  1
  Zr  Zr50  1  0.70255003  0.11654645  0.61704946  1
  Zr  Zr51  1  0.29513275  0.29638174  0.61552336  1
  Zr  Zr52  1  0.50323701  0.49430387  0.61893695  1
  Zr  Zr53  1  0.40366158  0.40150705  0.75659088  1
  Zr  Zr54  1  0.87585938  0.30179926  0.62829532  1
  Zr  Zr55  1  0.70989054  0.90196404  0.60719364  1
  Zr  Zr56  1  0.50584308  0.28607801  0.61964297  1
  Zr  Zr57  1  -0.01290008  0.20030908  0.74998299  1
  Zr  Zr58  1  0.19019734  0.39659235  0.75562426  1
  Zr  Zr59  1  0.79494734  0.00198234  0.76097122  1
  Zr  Zr60  1  0.41756720  0.61555541  0.26901094  1
  Zr  Zr61  1  0.32433836  0.49831050  0.13765539  1
  Zr  Zr62  1  0.39463068  0.79744090  -0.00011380  1
  Zr  Zr63  1  0.19938571  0.60230133  0.74158990  1
  Zr  Zr64  1  0.20157839  0.59551517  0.49162618  1
  Zr  Zr65  1  0.90473808  0.68592978  0.87881555  1
  Zr  Zr66  1  0.30043239  0.69538374  0.86698811  1
  Zr  Zr67  1  0.81134990  0.38955486  0.26373341  1
  Zr  Zr68  1  0.09333299  0.30127319  0.36742006  1
  Zr  Zr69  1  0.19843393  0.20018309  0.75682022  1
  Zr  Zr70  1  0.79978781  0.18744215  0.26309712  1
  Zr  Zr71  1  0.59844474  0.78641759  -0.00016514  1
  Zr  Zr72  1  0.70533242  0.30368109  0.87768100  1
  Zr  Zr73  1  0.70361529  0.89765929  0.12865434  1
  Zr  Zr74  1  0.39798173  0.00526019  0.74273094  1
  Zr  Zr75  1  0.08538626  0.09855160  0.87948928  1
  Zr  Zr76  1  0.81510988  0.78985342  0.74651780  1
  Zr  Zr77  1  0.50519122  0.89980220  0.87223634  1
  Zr  Zr78  1  -0.02079249  -0.01891943  0.23741281  1
  Zr  Zr79  1  0.20884637  0.59958044  0.25087073  1
  Ta  Ta80  1  0.71356447  0.50484847  0.86311248  1
  Ta  Ta81  1  0.19952343  0.19758249  0.49063129  1
  Ta  Ta82  1  0.71585537  0.48717872  0.62161605  1
  Ta  Ta83  1  0.81714038  0.38877331  0.00636597  1
  Ta  Ta84  1  0.40158355  0.79611644  0.74284790  1
  Ta  Ta85  1  0.19217726  0.00240640  0.74786315  1
  Ta  Ta86  1  0.59930275  0.01095615  0.74222992  1
  Ta  Ta87  1  0.79786437  0.80335735  -0.01111283  1
  Ta  Ta88  1  0.39894607  0.18771243  0.48926782  1
  Ta  Ta89  1  0.09928995  0.51624041  0.87823417  1
  Ta  Ta90  1  0.38851906  -0.00303159  0.25684015  1
  Ta  Ta91  1  0.79112567  0.21004617  0.47760996  1
  Ta  Ta92  1  0.59952637  0.19198437  0.24735459  1
  Ta  Ta93  1  0.50631119  0.50062675  0.38107534  1
  Ta  Ta94  1  0.60690535  0.19077361  0.01090313  1
  Ta  Ta95  1  0.69579467  0.69541496  0.87028688  1
  Ta  Ta96  1  0.80194944  0.39858936  0.48074292  1
  Ta  Ta97  1  0.81179764  0.58874891  0.49213003  1
  Ta  Ta98  1  0.29775727  0.30064319  0.90098670  1
  Ta  Ta99  1  0.40549594  0.41379253  -0.00100180  1
  Ta  Ta100  1  -0.00390320  -0.01421904  0.74551460  1
  Ta  Ta101  1  0.30295276  0.29524015  0.37316740  1
  Ta  Ta102  1  -0.00465831  0.59300475  0.23766435  1
  Ta  Ta103  1  0.08984357  0.30379434  0.62029859  1
  Ta  Ta104  1  0.31296253  0.90828424  0.38934919  1
  Ta  Ta105  1  -0.00499053  0.80648558  0.00839326  1
  Ta  Ta106  1  0.19343224  0.79920661  0.49923838  1
  Ta  Ta107  1  0.58192173  0.79773761  0.25635704  1
  Ta  Ta108  1  0.80207654  0.19226263  -0.00753526  1
  Ta  Ta109  1  0.20442334  0.39537702  0.24983638  1
  Ta  Ta110  1  0.60986887  0.59203930  0.49989314  1
  Ta  Ta111  1  0.70974818  0.28763938  0.12422326  1
  Ta  Ta112  1  0.40265915  0.59838559  0.48432043  1
  Ta  Ta113  1  0.90732280  0.89570081  0.87476105  1
  Ta  Ta114  1  -0.00117510  0.40525087  0.23508994  1
  Ta  Ta115  1  0.59296396  -0.00052016  0.00400299  1
  Ta  Ta116  1  0.10574310  0.08655683  0.12815847  1
  Ta  Ta117  1  0.49581537  0.90495858  0.61466798  1
  Ta  Ta118  1  0.40157308  0.39505663  0.48492110  1
  Ta  Ta119  1  0.18872159  -0.00661367  0.00099662  1
  Ti  Ti120  1  0.09312597  0.89867169  0.87284697  1
  Ti  Ti121  1  0.68287165  0.69582941  0.12903410  1
  Ti  Ti122  1  0.81185362  0.01009558  0.49414186  1
  Ti  Ti123  1  0.89582885  0.50081738  0.63748987  1
  Ti  Ti124  1  0.51139387  0.51828947  0.12873433  1
  Ti  Ti125  1  0.87986209  0.09473629  0.12593168  1
  Ti  Ti126  1  0.18768681  0.19656736  0.00336104  1
  Ti  Ti127  1  0.09363250  0.49987926  0.36281800  1
  Ti  Ti128  1  0.60330314  0.60599417  0.26269728  1
  Ti  Ti129  1  0.72174617  0.69546601  0.60610136  1
  Ti  Ti130  1  0.89919739  0.90529721  0.38829335  1
  Ti  Ti131  1  0.79378337  0.19938803  0.76750561  1
  Ti  Ti132  1  0.90736925  0.88861015  0.61007339  1
  Ti  Ti133  1  0.68981025  0.89611302  0.39319103  1
  Ti  Ti134  1  0.58582530  0.00257153  0.50408602  1
  Ti  Ti135  1  0.59170058  -0.00639097  0.25285102  1
  Ti  Ti136  1  0.59516775  0.19449441  0.49074867  1
  Ti  Ti137  1  0.09779587  0.49561214  0.62767900  1
  Ti  Ti138  1  -0.01589703  0.20362392  0.01053728  1
  Ti  Ti139  1  0.60453678  0.19802236  0.74885288  1
  Ti  Ti140  1  0.09146428  0.90076681  0.61110004  1
  Ti  Ti141  1  0.30489822  0.71434905  0.38082614  1
  Ti  Ti142  1  0.48785212  0.08377302  0.37575874  1
  Ti  Ti143  1  0.09221749  0.70660513  0.87503136  1
  Ti  Ti144  1  0.42360619  0.60877979  0.00633363  1
  Ti  Ti145  1  0.89889438  0.08837440  0.62179015  1
  Ti  Ti146  1  -0.00186050  0.40719410  0.02115797  1
  Ti  Ti147  1  0.61635550  0.39231618  0.74309679  1
  Ti  Ti148  1  0.50069888  0.72220723  0.39849963  1
  Ti  Ti149  1  0.20359507  0.00694491  0.49489859  1
  Ti  Ti150  1  0.32452198  0.71172265  0.14180649  1
  Ti  Ti151  1  0.30455145  0.10106641  0.61768168  1
  Ti  Ti152  1  0.70173251  0.49677099  0.37388807  1
  Ti  Ti153  1  0.30604403  0.49256012  0.36604490  1
  Ti  Ti154  1  0.19397330  0.41367551  0.00642101  1
  Ti  Ti155  1  0.50137120  0.29447339  0.37335177  1
  Ti  Ti156  1  0.69296503  0.09150554  0.13263038  1
  Ti  Ti157  1  0.49922113  0.69728693  0.86172581  1
  Ti  Ti158  1  0.21177584  0.81952861  0.26217614  1
  Ti  Ti159  1  0.90741323  0.70800264  0.37720494  1
  Mo  Mo160  1  0.68606937  0.09996302  0.87274042  1
  Mo  Mo161  1  0.40690684  0.20733303  0.00278937  1
  Mo  Mo162  1  0.20039720  -0.00165893  0.25353693  1
  Mo  Mo163  1  0.09322977  0.90197854  0.12717302  1
  Mo  Mo164  1  0.60380823  0.80499492  0.50968977  1
  Mo  Mo165  1  0.69892348  0.30118713  0.62503812  1
  Mo  Mo166  1  0.79655106  0.59455051  0.74215310  1
  Mo  Mo167  1  -0.00838317  0.79444352  0.25117055  1
  Mo  Mo168  1  0.39975863  0.00597941  0.50341534  1
  Mo  Mo169  1  0.10981020  0.49874416  0.13549192  1
  Mo  Mo170  1  0.80059042  0.39506589  0.74950286  1
  Mo  Mo171  1  0.78663220  -0.00137187  0.25745587  1
  Mo  Mo172  1  0.68917804  0.29322905  0.36952100  1
  Mo  Mo173  1  -0.00021444  0.80387106  0.49888252  1
  Mo  Mo174  1  -0.00286539  -0.00174292  0.50274971  1
  Mo  Mo175  1  0.90329004  0.49683182  0.12465150  1
  Mo  Mo176  1  0.00082639  0.81016103  0.74596838  1
  Mo  Mo177  1  0.00481544  0.40388527  0.74302470  1
  Mo  Mo178  1  0.89699763  0.08906266  0.37947291  1
  Mo  Mo179  1  0.50055168  0.09672044  0.61684967  1
  Mo  Mo180  1  0.40123460  0.81175451  0.26430893  1
  Mo  Mo181  1  0.40871959  0.61065253  0.74754590  1
  Mo  Mo182  1  0.50563682  0.69820775  0.13468566  1
  Mo  Mo183  1  0.90186515  0.30063359  0.37561770  1
  Mo  Mo184  1  0.69812385  0.89338723  0.87293472  1
  Mo  Mo185  1  0.29724672  0.09834434  0.37803843  1
  Mo  Mo186  1  0.91107042  0.50818784  0.37346594  1
  Mo  Mo187  1  0.40130366  -0.00242325  0.00054554  1
  Mo  Mo188  1  0.50928204  0.90675240  0.38148416  1
  Mo  Mo189  1  0.81047078  0.79878637  0.49077716  1
  Mo  Mo190  1  0.39727534  0.80517202  0.49717840  1
  Mo  Mo191  1  0.51107361  0.09727731  0.12798868  1
  Mo  Mo192  1  0.90455130  0.29310808  0.88145051  1
  Mo  Mo193  1  0.40157474  0.39689889  0.26858202  1
  Mo  Mo194  1  0.60087448  0.60255420  -0.00428673  1
  Mo  Mo195  1  0.09825784  0.71457589  0.61604215  1
  Mo  Mo196  1  0.88888050  0.90028172  0.11446392  1
  Mo  Mo197  1  0.89593533  0.29095491  0.12001405  1
  Mo  Mo198  1  0.89341740  0.70317778  0.61389532  1
  Mo  Mo199  1  0.89687696  0.10224850  0.87645873  1
