# generated using pymatgen
data_HfZrTaTiMo
_symmetry_space_group_name_H-M   'P 1'
_cell_length_a   15.20647428
_cell_length_b   15.19586054
_cell_length_c   16.85814261
_cell_angle_alpha   89.99394315
_cell_angle_beta   90.05500253
_cell_angle_gamma   89.96844530
_symmetry_Int_Tables_number   1
_chemical_formula_structural   HfZrTaTiMo
_chemical_formula_sum   'Hf40 Zr40 Ta40 Ti40 Mo40'
_cell_volume   3895.50069056
_cell_formula_units_Z   40
loop_
 _symmetry_equiv_pos_site_id
 _symmetry_equiv_pos_as_xyz
  1  'x, y, z'
loop_
 _atom_site_type_symbol
 _atom_site_label
 _atom_site_symmetry_multiplicity
 _atom_site_fract_x
 _atom_site_fract_y
 _atom_site_fract_z
 _atom_site_occupancy
  Hf  Hf0  1  0.69156325  0.91885714  0.88187527  1
  Hf  Hf1  1  0.39520834  0.19724663  0.24599343  1
  Hf  Hf2  1  0.41814169  0.78831554  0.75652560  1
  Hf  Hf3  1  0.40727874  0.00192883  0.74096600  1
  Hf  Hf4  1  0.08572528  0.28654594  0.11973734  1
  Hf  Hf5  1  0.19638300  -0.01066059  0.74026884  1
  Hf  Hf6  1  0.30757454  0.49278544  0.11177695  1
  Hf  Hf7  1  0.30131717  0.68072117  0.36424081  1
  Hf  Hf8  1  0.19390058  0.60553397  -0.00039141  1
  Hf  Hf9  1  0.30597971  0.87714285  0.62670468  1
  Hf  Hf10  1  0.68499133  0.71286201  0.86542157  1
  Hf  Hf11  1  0.78287630  0.60108806  -0.00540219  1
  Hf  Hf12  1  0.81119549  0.79730427  -0.00113946  1
  Hf  Hf13  1  0.10361833  0.88528985  0.87311784  1
  Hf  Hf14  1  0.70928025  0.29964969  0.38429024  1
  Hf  Hf15  1  0.39474829  0.79780134  -0.00056375  1
  Hf  Hf16  1  0.51232000  0.30413946  0.87382198  1
  Hf  Hf17  1  0.70487573  0.90430171  0.12500141  1
  Hf  Hf18  1  0.19279278  0.19113690  -0.00271643  1
  Hf  Hf19  1  0.09190929  0.09268571  0.61493395  1
  Hf  Hf20  1  0.30171793  0.47158569  0.37531969  1
  Hf  Hf21  1  0.20569792  0.37332656  0.52169456  1
  Hf  Hf22  1  0.09800243  0.50320311  0.12446682  1
  Hf  Hf23  1  0.78906174  0.02601230  -0.00437927  1
  Hf  Hf24  1  0.30572268  0.09692469  0.11968369  1
  Hf  Hf25  1  0.30655901  0.09729018  0.87504715  1
  Hf  Hf26  1  0.90788338  0.90182448  0.88006581  1
  Hf  Hf27  1  0.79837996  0.01477013  0.26049073  1
  Hf  Hf28  1  0.59435365  0.00294936  0.25632115  1
  Hf  Hf29  1  0.31338122  0.48860221  0.88757234  1
  Hf  Hf30  1  -0.01473599  0.38939300  -0.00027005  1
  Hf  Hf31  1  0.21692848  0.40029315  0.74097723  1
  Hf  Hf32  1  0.08829390  0.89489877  0.37756963  1
  Hf  Hf33  1  0.78990900  0.60699111  0.25488491  1
  Hf  Hf34  1  0.49795229  0.49931452  0.37577459  1
  Hf  Hf35  1  0.80636936  0.82193290  0.48315384  1
  Hf  Hf36  1  0.29577769  0.70045403  0.13006523  1
  Hf  Hf37  1  0.39473265  0.58163103  0.75197602  1
  Hf  Hf38  1  0.90563561  0.31022300  0.37762301  1
  Hf  Hf39  1  0.90682471  0.71032842  0.36840014  1
  Zr  Zr40  1  0.00377934  0.22284089  0.51607764  1
  Zr  Zr41  1  0.79479737  0.20814245  0.74310187  1
  Zr  Zr42  1  0.40002681  0.59298560  0.24265434  1
  Zr  Zr43  1  0.27768224  0.69789691  0.86476706  1
  Zr  Zr44  1  -0.01315839  0.62547407  -0.00706718  1
  Zr  Zr45  1  0.10494916  0.49861782  0.87288094  1
  Zr  Zr46  1  0.11975431  0.29184817  0.37551566  1
  Zr  Zr47  1  0.21117337  0.38426253  0.23295165  1
  Zr  Zr48  1  0.60202849  0.20248334  0.26006018  1
  Zr  Zr49  1  0.89770752  0.12242892  0.12229199  1
  Zr  Zr50  1  0.20430558  0.77959735  0.50076838  1
  Zr  Zr51  1  0.69369637  0.10247785  0.60818456  1
  Zr  Zr52  1  0.19623784  0.19880314  0.74224764  1
  Zr  Zr53  1  0.80679384  0.01476635  0.75566512  1
  Zr  Zr54  1  0.59833912  0.79375065  0.01136406  1
  Zr  Zr55  1  0.10868154  0.50958129  0.63112562  1
  Zr  Zr56  1  0.20022633  0.80409164  0.24978098  1
  Zr  Zr57  1  0.40160916  -0.01408912  0.50457029  1
  Zr  Zr58  1  0.88857607  0.49509078  0.12468435  1
  Zr  Zr59  1  0.89372551  0.49858638  0.86890474  1
  Zr  Zr60  1  0.30865049  0.29430281  0.87726046  1
  Zr  Zr61  1  0.60269068  0.80666387  0.49038534  1
  Zr  Zr62  1  0.71469106  0.90041161  0.62589364  1
  Zr  Zr63  1  0.00108434  -0.00445939  0.24995167  1
  Zr  Zr64  1  0.61401077  0.19588834  -0.00192730  1
  Zr  Zr65  1  0.59932378  0.00531993  0.74572364  1
  Zr  Zr66  1  0.30394717  0.89852891  0.86763944  1
  Zr  Zr67  1  0.89502278  0.71530216  0.62699199  1
  Zr  Zr68  1  0.00499548  0.00452689  0.00334935  1
  Zr  Zr69  1  0.69058853  0.49617392  0.12809031  1
  Zr  Zr70  1  0.48842026  0.30539724  0.38165751  1
  Zr  Zr71  1  0.10232031  0.68879606  0.36266622  1
  Zr  Zr72  1  0.51853840  0.50462843  0.62394715  1
  Zr  Zr73  1  0.30713229  0.89390466  0.37496388  1
  Zr  Zr74  1  0.68006004  0.69765892  0.63699393  1
  Zr  Zr75  1  0.09887639  0.48893364  0.37121322  1
  Zr  Zr76  1  0.90019468  0.50361625  0.62742026  1
  Zr  Zr77  1  0.79056853  0.60710992  0.49468663  1
  Zr  Zr78  1  -0.00107139  0.19579020  0.25798209  1
  Zr  Zr79  1  0.79137462  0.59965360  0.75513897  1
  Ta  Ta80  1  0.19979068  0.38798022  0.00425756  1
  Ta  Ta81  1  0.41444547  0.00102209  0.00095269  1
  Ta  Ta82  1  0.01043638  0.61811827  0.75768364  1
  Ta  Ta83  1  0.28542495  0.67840095  0.63674444  1
  Ta  Ta84  1  0.41069177  0.38708300  0.23412313  1
  Ta  Ta85  1  0.30224794  0.90517687  0.12785751  1
  Ta  Ta86  1  0.59644055  0.60561950  0.48614244  1
  Ta  Ta87  1  -0.00396176  0.00272057  0.74328031  1
  Ta  Ta88  1  -0.00983629  0.19807102  0.73687528  1
  Ta  Ta89  1  0.49314494  0.70725094  0.37558449  1
  Ta  Ta90  1  0.48515304  0.70610561  0.61617000  1
  Ta  Ta91  1  0.58793749  0.59175924  -0.01067023  1
  Ta  Ta92  1  0.50535987  0.90090872  0.37248075  1
  Ta  Ta93  1  0.29170549  0.10853456  0.38682534  1
  Ta  Ta94  1  0.39284392  0.59851972  0.50351975  1
  Ta  Ta95  1  0.08793910  0.70640303  0.13527360  1
  Ta  Ta96  1  0.90224232  0.50102053  0.37559547  1
  Ta  Ta97  1  0.20372146  0.00920520  0.25616841  1
  Ta  Ta98  1  0.51072582  0.09483414  0.87742071  1
  Ta  Ta99  1  0.09883310  0.09332024  0.39324030  1
  Ta  Ta100  1  -0.00472186  0.59914686  0.24543213  1
  Ta  Ta101  1  0.69482467  0.11612197  0.13179485  1
  Ta  Ta102  1  0.59877565  0.60614474  0.26135005  1
  Ta  Ta103  1  0.89699756  0.10385846  0.39000258  1
  Ta  Ta104  1  0.10634585  0.89942729  0.12493008  1
  Ta  Ta105  1  0.69675142  0.31421118  0.61647680  1
  Ta  Ta106  1  0.00194902  0.39024804  0.74496499  1
  Ta  Ta107  1  0.20918987  -0.00982704  -0.00146442  1
  Ta  Ta108  1  0.09370520  0.09344428  0.86931416  1
  Ta  Ta109  1  0.49168547  0.09918672  0.39225123  1
  Ta  Ta110  1  0.00100457  0.79997770  0.50559114  1
  Ta  Ta111  1  0.00367150  0.60210452  0.50004220  1
  Ta  Ta112  1  0.29873574  0.09730676  0.61596538  1
  Ta  Ta113  1  0.61043455  0.41026351  0.50056704  1
  Ta  Ta114  1  0.49537198  0.10976816  0.60899950  1
  Ta  Ta115  1  0.51902670  0.29742997  0.12510519  1
  Ta  Ta116  1  0.60795735  0.79549691  0.25069371  1
  Ta  Ta117  1  0.49723935  0.90853466  0.12870531  1
  Ta  Ta118  1  0.19371954  -0.00979842  0.50475392  1
  Ta  Ta119  1  0.08846116  0.29039242  0.87317611  1
  Ti  Ti120  1  0.60824747  0.40192008  0.25207958  1
  Ti  Ti121  1  0.58193840  0.60296888  0.76632771  1
  Ti  Ti122  1  0.09504362  0.88650100  0.62297159  1
  Ti  Ti123  1  0.80276933  0.81009784  0.75749376  1
  Ti  Ti124  1  0.70611124  0.49646245  0.37235799  1
  Ti  Ti125  1  0.89288036  0.30487810  0.86765205  1
  Ti  Ti126  1  0.40925449  0.19947311  0.74054131  1
  Ti  Ti127  1  0.51376538  0.89738110  0.62068262  1
  Ti  Ti128  1  0.69569034  0.09748709  0.39386980  1
  Ti  Ti129  1  0.81241927  0.40411533  0.50853356  1
  Ti  Ti130  1  0.38538141  0.21220469  0.50692936  1
  Ti  Ti131  1  0.80699609  0.20275583  0.51316102  1
  Ti  Ti132  1  0.41141479  0.19949987  0.00953593  1
  Ti  Ti133  1  -0.00968271  0.39817508  0.24165493  1
  Ti  Ti134  1  0.61362468  0.39566957  0.00069157  1
  Ti  Ti135  1  0.59149838  0.21001439  0.50039461  1
  Ti  Ti136  1  0.79897159  0.81305292  0.26050418  1
  Ti  Ti137  1  0.90752661  0.89933499  0.12370514  1
  Ti  Ti138  1  0.50695788  0.89279579  0.87874803  1
  Ti  Ti139  1  0.68920866  0.48581091  0.87413286  1
  Ti  Ti140  1  0.10449117  0.09169087  0.12386735  1
  Ti  Ti141  1  0.88862275  0.71061106  0.13690620  1
  Ti  Ti142  1  0.20296674  0.19234478  0.24645230  1
  Ti  Ti143  1  0.41548904  0.38853928  0.73567482  1
  Ti  Ti144  1  0.80412727  0.23010589  -0.00352528  1
  Ti  Ti145  1  0.50532681  0.49946177  0.12516438  1
  Ti  Ti146  1  0.18800616  0.79920395  0.00684474  1
  Ti  Ti147  1  0.60696935  0.40196142  0.74593246  1
  Ti  Ti148  1  0.41916062  0.39434187  0.00827833  1
  Ti  Ti149  1  0.90535425  0.11789422  0.87993453  1
  Ti  Ti150  1  0.50893982  0.69431910  0.12820219  1
  Ti  Ti151  1  0.79539313  0.39978087  0.73940333  1
  Ti  Ti152  1  -0.00078263  0.80515378  0.74427297  1
  Ti  Ti153  1  0.41214070  0.80498282  0.24297759  1
  Ti  Ti154  1  0.40493998  0.39810579  0.52116029  1
  Ti  Ti155  1  0.40861381  0.60161177  -0.00441699  1
  Ti  Ti156  1  -0.02049854  -0.00873725  0.50628148  1
  Ti  Ti157  1  0.39806653  0.00388243  0.25523869  1
  Ti  Ti158  1  0.59935689  0.20681834  0.74631578  1
  Ti  Ti159  1  0.20262979  0.58188244  0.50152329  1
  Mo  Mo160  1  0.88457687  0.30322987  0.13224588  1
  Mo  Mo161  1  0.09606067  0.69889306  0.62320368  1
  Mo  Mo162  1  0.18262005  0.78382488  0.73711141  1
  Mo  Mo163  1  0.89792755  0.30749500  0.62670113  1
  Mo  Mo164  1  0.30594138  0.29163156  0.37491382  1
  Mo  Mo165  1  -0.00547281  0.20181844  -0.01131685  1
  Mo  Mo166  1  0.89597232  0.09758917  0.61540851  1
  Mo  Mo167  1  0.89784436  0.71343910  0.86322966  1
  Mo  Mo168  1  0.78896252  0.39928072  -0.00745454  1
  Mo  Mo169  1  0.71505237  0.30146942  0.13409530  1
  Mo  Mo170  1  0.00141881  0.80357802  0.01252547  1
  Mo  Mo171  1  0.19754860  0.59355929  0.75704777  1
  Mo  Mo172  1  0.79904565  0.00811056  0.48962776  1
  Mo  Mo173  1  0.50310821  0.09534434  0.12482075  1
  Mo  Mo174  1  0.20386331  0.18681660  0.50936516  1
  Mo  Mo175  1  0.49222314  0.69299057  0.88214936  1
  Mo  Mo176  1  0.90274294  0.91101446  0.37258926  1
  Mo  Mo177  1  0.00063933  0.41626124  0.50446700  1
  Mo  Mo178  1  0.69595308  0.11958374  0.87329954  1
  Mo  Mo179  1  0.40264153  0.78410495  0.49956568  1
  Mo  Mo180  1  0.30871642  0.29547908  0.10780937  1
  Mo  Mo181  1  0.59634554  0.80226705  0.74966648  1
  Mo  Mo182  1  0.31141455  0.49569879  0.62094902  1
  Mo  Mo183  1  0.90780300  0.90965980  0.62780905  1
  Mo  Mo184  1  -0.01262871  0.80103863  0.23862561  1
  Mo  Mo185  1  0.69985745  0.50031260  0.62100377  1
  Mo  Mo186  1  0.79950262  0.39890025  0.25937410  1
  Mo  Mo187  1  0.08473543  0.70871494  0.87526374  1
  Mo  Mo188  1  0.69529937  0.69924153  0.12908660  1
  Mo  Mo189  1  0.19309660  0.59095997  0.23666625  1
  Mo  Mo190  1  0.31622118  0.28694266  0.63371160  1
  Mo  Mo191  1  0.51104581  0.29426855  0.62200196  1
  Mo  Mo192  1  0.69484497  0.70330933  0.37008185  1
  Mo  Mo193  1  0.69797684  0.90674093  0.36517053  1
  Mo  Mo194  1  0.09968785  0.30131111  0.63622580  1
  Mo  Mo195  1  0.50396111  0.49024532  0.87741377  1
  Mo  Mo196  1  0.59832507  0.00353279  0.49256100  1
  Mo  Mo197  1  0.70513594  0.30990188  0.86708515  1
  Mo  Mo198  1  0.59516940  0.00272220  0.00750537  1
  Mo  Mo199  1  0.79659882  0.20426075  0.26030155  1
