# generated using pymatgen
data_HfZrTaTiMo
_symmetry_space_group_name_H-M   'P 1'
_cell_length_a   15.21220053
_cell_length_b   15.21018391
_cell_length_c   16.85008353
_cell_angle_alpha   89.90987522
_cell_angle_beta   89.96996869
_cell_angle_gamma   89.99417129
_symmetry_Int_Tables_number   1
_chemical_formula_structural   HfZrTaTiMo
_chemical_formula_sum   'Hf40 Zr40 Ta40 Ti40 Mo40'
_cell_volume   3898.77314450
_cell_formula_units_Z   40
loop_
 _symmetry_equiv_pos_site_id
 _symmetry_equiv_pos_as_xyz
  1  'x, y, z'
loop_
 _atom_site_type_symbol
 _atom_site_label
 _atom_site_symmetry_multiplicity
 _atom_site_fract_x
 _atom_site_fract_y
 _atom_site_fract_z
 _atom_site_occupancy
  Hf  Hf0  1  0.60517594  0.61817348  0.73362682  1
  Hf  Hf1  1  0.88807179  0.89584589  0.87025100  1
  Hf  Hf2  1  0.78882588  -0.00278269  0.48679594  1
  Hf  Hf3  1  0.39313836  0.38790803  0.00214225  1
  Hf  Hf4  1  0.30642735  0.50399431  0.11791613  1
  Hf  Hf5  1  0.50212250  0.69730077  0.89371640  1
  Hf  Hf6  1  0.20962984  0.80034799  0.23883590  1
  Hf  Hf7  1  0.30706795  0.69669761  0.38377023  1
  Hf  Hf8  1  0.71317764  0.08801410  0.62934893  1
  Hf  Hf9  1  0.20428919  -0.00088051  0.76116368  1
  Hf  Hf10  1  0.89304754  0.50917572  0.36748346  1
  Hf  Hf11  1  0.41800828  0.00152906  0.75678153  1
  Hf  Hf12  1  0.90204584  0.10208569  0.36406509  1
  Hf  Hf13  1  0.10295869  0.10596082  0.62407709  1
  Hf  Hf14  1  0.19783004  0.61125409  0.74271472  1
  Hf  Hf15  1  0.50120841  0.50203111  0.87445607  1
  Hf  Hf16  1  0.31012545  0.10271184  0.37778194  1
  Hf  Hf17  1  0.00932653  0.79686609  0.73256980  1
  Hf  Hf18  1  0.80261156  0.19841423  0.49398572  1
  Hf  Hf19  1  0.19159414  0.79543095  0.00277483  1
  Hf  Hf20  1  0.49671709  0.29469580  0.13175494  1
  Hf  Hf21  1  0.09561851  0.50644597  0.12862062  1
  Hf  Hf22  1  0.66337747  0.89700708  0.63700890  1
  Hf  Hf23  1  0.58830832  0.39883773  0.73746391  1
  Hf  Hf24  1  0.50937626  0.50485134  0.38464383  1
  Hf  Hf25  1  0.79014733  0.80002522  0.50496778  1
  Hf  Hf26  1  0.09134661  0.89551578  0.87731161  1
  Hf  Hf27  1  0.79453619  0.39990860  0.49639335  1
  Hf  Hf28  1  0.20818989  0.60238368  0.24881040  1
  Hf  Hf29  1  0.59192701  0.78215439  0.24458680  1
  Hf  Hf30  1  0.70700752  0.69511801  0.87972599  1
  Hf  Hf31  1  -0.00380058  0.40259682  0.49496679  1
  Hf  Hf32  1  0.00068572  0.40846343  0.75726647  1
  Hf  Hf33  1  0.90666026  0.09997208  0.90249955  1
  Hf  Hf34  1  0.40254796  0.40672311  0.25871065  1
  Hf  Hf35  1  0.30993957  0.90327291  0.62651243  1
  Hf  Hf36  1  0.90693412  0.29583230  0.63007937  1
  Hf  Hf37  1  0.09159594  0.50400723  0.62181975  1
  Hf  Hf38  1  0.10224194  0.30790652  0.11847120  1
  Hf  Hf39  1  0.49834289  0.29995273  0.87986361  1
  Zr  Zr40  1  0.49436240  0.88515846  0.10661545  1
  Zr  Zr41  1  0.00339345  0.81223120  0.24513824  1
  Zr  Zr42  1  0.40888904  0.39400990  0.49325381  1
  Zr  Zr43  1  0.39629808  -0.01381209  0.25555189  1
  Zr  Zr44  1  0.50390261  0.09827331  0.11810418  1
  Zr  Zr45  1  0.80221154  0.59881275  0.00618237  1
  Zr  Zr46  1  0.89439076  0.70612989  0.38006112  1
  Zr  Zr47  1  0.31496619  0.10670882  0.61043919  1
  Zr  Zr48  1  0.10238115  0.50761170  0.37172725  1
  Zr  Zr49  1  0.72203382  0.09714925  0.13359320  1
  Zr  Zr50  1  0.51094551  0.09899932  0.89475433  1
  Zr  Zr51  1  0.89073045  0.30324359  0.88623113  1
  Zr  Zr52  1  0.01258269  0.20925902  0.76347887  1
  Zr  Zr53  1  0.20992676  0.20310909  0.76158906  1
  Zr  Zr54  1  0.60304402  0.18685684  0.74924879  1
  Zr  Zr55  1  0.78643903  0.78242002  0.74282911  1
  Zr  Zr56  1  0.70123716  0.29872464  0.62843752  1
  Zr  Zr57  1  0.31073309  0.09889926  0.11970929  1
  Zr  Zr58  1  0.19846174  -0.00883597  0.49717738  1
  Zr  Zr59  1  0.69665956  0.31196985  0.13464499  1
  Zr  Zr60  1  0.30815612  0.30792337  0.61409773  1
  Zr  Zr61  1  0.09272423  0.29536758  0.37036904  1
  Zr  Zr62  1  0.41084832  0.60747376  0.24798838  1
  Zr  Zr63  1  0.09736879  0.10184735  0.10681980  1
  Zr  Zr64  1  -0.00721969  0.41234414  -0.00200723  1
  Zr  Zr65  1  0.87835555  0.91390224  0.63745453  1
  Zr  Zr66  1  0.29710953  0.49602369  0.87937638  1
  Zr  Zr67  1  0.09659437  0.08709020  0.37042423  1
  Zr  Zr68  1  0.41028528  0.78974729  0.75163288  1
  Zr  Zr69  1  0.20158278  0.19566909  0.24810693  1
  Zr  Zr70  1  0.20756968  0.40450923  0.74622141  1
  Zr  Zr71  1  0.20599273  0.59676104  0.50794058  1
  Zr  Zr72  1  0.89676852  0.71839282  0.12056453  1
  Zr  Zr73  1  0.22064945  0.22093849  -0.00693908  1
  Zr  Zr74  1  -0.00784045  0.01361964  0.74866806  1
  Zr  Zr75  1  -0.00663763  -0.00269441  0.51093215  1
  Zr  Zr76  1  0.60650256  -0.01836853  0.24170466  1
  Zr  Zr77  1  0.09885311  0.71795494  0.38080607  1
  Zr  Zr78  1  -0.01283340  0.39267952  0.24603578  1
  Zr  Zr79  1  0.59296761  0.20687463  0.49775832  1
  Ta  Ta80  1  0.51026092  0.08491661  0.61547114  1
  Ta  Ta81  1  0.89082113  0.51344758  0.87062895  1
  Ta  Ta82  1  0.69993585  0.10359767  0.35977832  1
  Ta  Ta83  1  0.18727175  -0.01447085  0.24448311  1
  Ta  Ta84  1  0.50641752  0.70384018  0.38586074  1
  Ta  Ta85  1  0.00276895  0.80615334  0.52090149  1
  Ta  Ta86  1  0.61314895  -0.00710467  0.00780712  1
  Ta  Ta87  1  0.29900102  0.89545510  0.11193965  1
  Ta  Ta88  1  0.71095600  0.09669037  0.88323063  1
  Ta  Ta89  1  0.20579526  -0.00471606  -0.00635800  1
  Ta  Ta90  1  0.50259782  0.89497923  0.89315165  1
  Ta  Ta91  1  0.69389101  0.69989189  0.12104884  1
  Ta  Ta92  1  0.77848086  0.40364275  0.00188007  1
  Ta  Ta93  1  0.79572579  0.40284225  0.75057758  1
  Ta  Ta94  1  0.49262662  0.50317828  0.62267790  1
  Ta  Ta95  1  0.79803325  -0.01462103  0.00472382  1
  Ta  Ta96  1  0.30146512  0.30143829  0.37472703  1
  Ta  Ta97  1  0.89480681  0.68735920  0.61982930  1
  Ta  Ta98  1  -0.00083054  0.19993362  0.50119015  1
  Ta  Ta99  1  0.30351870  0.30174299  0.13846793  1
  Ta  Ta100  1  0.91133447  0.70392197  0.87897887  1
  Ta  Ta101  1  0.41989268  -0.01367673  0.48785472  1
  Ta  Ta102  1  0.40920839  0.21027182  0.74608253  1
  Ta  Ta103  1  0.88645098  0.49827580  0.13262517  1
  Ta  Ta104  1  0.78931179  0.61261354  0.24457706  1
  Ta  Ta105  1  0.78432389  0.59504436  0.50748699  1
  Ta  Ta106  1  0.69179736  0.69546175  0.37932591  1
  Ta  Ta107  1  0.00540099  0.61215791  0.00080135  1
  Ta  Ta108  1  0.19302969  0.80004216  0.51909459  1
  Ta  Ta109  1  0.69831098  0.49393937  0.86742583  1
  Ta  Ta110  1  0.49341862  0.68506479  0.10148243  1
  Ta  Ta111  1  0.79002971  0.81875571  0.25330319  1
  Ta  Ta112  1  -0.01091989  -0.00034594  0.22912489  1
  Ta  Ta113  1  0.10489138  0.30228697  0.61492997  1
  Ta  Ta114  1  0.69599380  0.50762856  0.37344602  1
  Ta  Ta115  1  0.10362007  0.10178883  0.89536706  1
  Ta  Ta116  1  0.51129979  0.08898141  0.37332302  1
  Ta  Ta117  1  0.31540455  0.10262205  0.88616908  1
  Ta  Ta118  1  0.20204519  0.60102870  0.00263107  1
  Ta  Ta119  1  0.81144740  0.18893820  0.75570688  1
  Ti  Ti120  1  0.19957658  0.20637847  0.49232440  1
  Ti  Ti121  1  0.60691888  0.41861851  0.51666377  1
  Ti  Ti122  1  0.30664921  0.89287392  0.88268573  1
  Ti  Ti123  1  0.59736780  0.19928507  0.25231057  1
  Ti  Ti124  1  0.68768203  0.30849398  0.36488001  1
  Ti  Ti125  1  -0.00662026  0.60744697  0.24502712  1
  Ti  Ti126  1  0.60140016  0.58718359  0.24175782  1
  Ti  Ti127  1  0.69775114  0.29741290  0.87443065  1
  Ti  Ti128  1  0.49523230  0.28504525  0.36406746  1
  Ti  Ti129  1  0.39976335  0.79403989  0.24571805  1
  Ti  Ti130  1  0.20266057  0.80146423  0.74171253  1
  Ti  Ti131  1  0.61602299  0.20940310  0.00504158  1
  Ti  Ti132  1  0.89417323  0.28579631  0.10590318  1
  Ti  Ti133  1  0.39885059  0.58908166  0.74105868  1
  Ti  Ti134  1  0.30238392  0.69527335  0.87889749  1
  Ti  Ti135  1  0.51426506  0.48789740  0.12005522  1
  Ti  Ti136  1  0.10159188  0.70013922  0.87502084  1
  Ti  Ti137  1  0.58485388  0.80672074  0.50228889  1
  Ti  Ti138  1  0.10149772  0.70523159  0.12327043  1
  Ti  Ti139  1  0.11267279  0.31681488  0.88942411  1
  Ti  Ti140  1  0.20434912  0.40530724  0.49364701  1
  Ti  Ti141  1  0.88805078  0.50038424  0.62987123  1
  Ti  Ti142  1  0.09513643  0.51266251  0.87851837  1
  Ti  Ti143  1  -0.00161620  -0.01878324  0.01573174  1
  Ti  Ti144  1  -0.00771418  0.60483730  0.74847572  1
  Ti  Ti145  1  0.40730007  0.59983939  0.50783016  1
  Ti  Ti146  1  0.90986693  0.90228355  0.37501718  1
  Ti  Ti147  1  0.61923374  0.79914639  0.00332227  1
  Ti  Ti148  1  0.20330374  0.40465566  0.25783113  1
  Ti  Ti149  1  -0.00576145  0.60745261  0.50306991  1
  Ti  Ti150  1  0.39768950  0.79906813  0.50377191  1
  Ti  Ti151  1  0.67818970  0.89763016  0.37754344  1
  Ti  Ti152  1  0.78542628  0.40909372  0.25238585  1
  Ti  Ti153  1  0.89139129  0.30029492  0.36954481  1
  Ti  Ti154  1  -0.00646957  0.19506707  0.23345433  1
  Ti  Ti155  1  0.30978011  0.69463190  0.62302106  1
  Ti  Ti156  1  0.60913705  0.57732262  0.00628577  1
  Ti  Ti157  1  0.68969113  0.90135702  0.86506380  1
  Ti  Ti158  1  0.80774866  0.20495300  0.24788241  1
  Ti  Ti159  1  0.29000580  0.89200389  0.37804064  1
  Mo  Mo160  1  0.60363708  0.39895694  -0.00446163  1
  Mo  Mo161  1  0.40413543  0.40052107  0.74317336  1
  Mo  Mo162  1  0.59730729  0.40167630  0.26166673  1
  Mo  Mo163  1  0.49085170  0.88365662  0.37262863  1
  Mo  Mo164  1  0.89744604  0.10967589  0.62578909  1
  Mo  Mo165  1  0.78842110  0.00744140  0.76384425  1
  Mo  Mo166  1  0.48924901  0.90308046  0.62260657  1
  Mo  Mo167  1  0.40608720  0.19068004  0.49085313  1
  Mo  Mo168  1  0.89998767  0.10357912  0.11201083  1
  Mo  Mo169  1  -0.00453390  0.79790480  -0.00131207  1
  Mo  Mo170  1  0.70386200  0.50286047  0.62929103  1
  Mo  Mo171  1  0.58595103  0.80350129  0.76085868  1
  Mo  Mo172  1  0.69619936  0.50502689  0.13308698  1
  Mo  Mo173  1  0.88921187  0.90986484  0.12524289  1
  Mo  Mo174  1  0.39075637  0.79139713  -0.00848091  1
  Mo  Mo175  1  0.59635247  -0.00534927  0.76247308  1
  Mo  Mo176  1  0.80480548  -0.00396327  0.26217607  1
  Mo  Mo177  1  0.69506669  0.70081879  0.61565662  1
  Mo  Mo178  1  0.09611080  0.69941571  0.62345416  1
  Mo  Mo179  1  0.30864469  0.70411957  0.11710737  1
  Mo  Mo180  1  0.60226995  -0.00277309  0.48860200  1
  Mo  Mo181  1  0.79440914  0.20206876  0.00106027  1
  Mo  Mo182  1  0.19568206  0.41248225  0.00017725  1
  Mo  Mo183  1  0.40809443  0.19978800  0.00189290  1
  Mo  Mo184  1  0.80572340  0.59257903  0.74713121  1
  Mo  Mo185  1  0.59865751  0.60933411  0.51307480  1
  Mo  Mo186  1  0.70764226  0.88599727  0.12418833  1
  Mo  Mo187  1  0.10071599  0.90013934  0.11679765  1
  Mo  Mo188  1  0.30664405  0.50644271  0.62742200  1
  Mo  Mo189  1  0.30818838  0.29835031  0.86729253  1
  Mo  Mo190  1  0.40063732  0.59455476  0.00065376  1
  Mo  Mo191  1  0.40368504  0.19968692  0.25846585  1
  Mo  Mo192  1  0.10843316  0.90124033  0.63720813  1
  Mo  Mo193  1  0.49708039  0.29064094  0.62335310  1
  Mo  Mo194  1  0.49870745  0.71119116  0.61348782  1
  Mo  Mo195  1  0.39780290  -0.00726577  -0.00716920  1
  Mo  Mo196  1  0.00647329  0.20467966  -0.00277325  1
  Mo  Mo197  1  0.30223104  0.49771468  0.37646222  1
  Mo  Mo198  1  0.09896771  0.89608400  0.37419433  1
  Mo  Mo199  1  0.79621833  0.80466850  -0.00624569  1
