# generated using pymatgen
data_HfZrTaTiMo
_symmetry_space_group_name_H-M   'P 1'
_cell_length_a   15.21492645
_cell_length_b   15.19852631
_cell_length_c   16.84609699
_cell_angle_alpha   89.97078501
_cell_angle_beta   90.00428506
_cell_angle_gamma   89.89353513
_symmetry_Int_Tables_number   1
_chemical_formula_structural   HfZrTaTiMo
_chemical_formula_sum   'Hf40 Zr40 Ta40 Ti40 Mo40'
_cell_volume   3895.55935912
_cell_formula_units_Z   40
loop_
 _symmetry_equiv_pos_site_id
 _symmetry_equiv_pos_as_xyz
  1  'x, y, z'
loop_
 _atom_site_type_symbol
 _atom_site_label
 _atom_site_symmetry_multiplicity
 _atom_site_fract_x
 _atom_site_fract_y
 _atom_site_fract_z
 _atom_site_occupancy
  Hf  Hf0  1  0.70029250  0.89482909  0.36796943  1
  Hf  Hf1  1  0.49583605  0.49353236  0.36769363  1
  Hf  Hf2  1  0.30034764  0.91820229  0.11509169  1
  Hf  Hf3  1  0.08732896  0.49148911  0.13897850  1
  Hf  Hf4  1  0.41664250  0.79997205  -0.01328946  1
  Hf  Hf5  1  0.89236324  0.90226824  0.63503877  1
  Hf  Hf6  1  0.90296081  0.49774607  0.36237407  1
  Hf  Hf7  1  0.79134872  0.61146738  0.24530690  1
  Hf  Hf8  1  0.41095919  0.19231128  0.25399198  1
  Hf  Hf9  1  0.61131254  0.20576487  0.50593176  1
  Hf  Hf10  1  0.19172461  0.41208696  0.49501880  1
  Hf  Hf11  1  0.01181269  0.78714755  0.51415463  1
  Hf  Hf12  1  0.69171442  0.68949900  0.64224992  1
  Hf  Hf13  1  0.20395787  0.59701740  0.00546508  1
  Hf  Hf14  1  0.91115373  0.50395574  0.88290349  1
  Hf  Hf15  1  0.41109751  0.61231501  0.75391231  1
  Hf  Hf16  1  0.79677531  0.40207304  0.24077604  1
  Hf  Hf17  1  0.50694224  0.10346944  0.87554157  1
  Hf  Hf18  1  0.10453562  0.68917178  0.37109700  1
  Hf  Hf19  1  0.59476027  0.39680260  0.24144293  1
  Hf  Hf20  1  0.41112680  0.61349280  0.51285611  1
  Hf  Hf21  1  0.69804912  0.90069233  0.63735349  1
  Hf  Hf22  1  0.71756429  0.48690494  0.63863130  1
  Hf  Hf23  1  0.08678336  0.89509748  0.37065865  1
  Hf  Hf24  1  0.00449723  -0.00747367  0.75549475  1
  Hf  Hf25  1  0.29309748  0.90197948  0.39399223  1
  Hf  Hf26  1  0.60511878  0.19318880  0.73430190  1
  Hf  Hf27  1  0.20372740  0.59985898  0.74940071  1
  Hf  Hf28  1  0.90086812  0.88558383  0.86934565  1
  Hf  Hf29  1  0.29810511  0.31477701  0.37481326  1
  Hf  Hf30  1  0.39829265  0.23015870  0.01686523  1
  Hf  Hf31  1  0.00627206  -0.00870776  -0.00043744  1
  Hf  Hf32  1  0.50683140  0.09914484  0.12440087  1
  Hf  Hf33  1  0.20019824  0.00921746  0.74719492  1
  Hf  Hf34  1  0.49515291  0.08953074  0.61585122  1
  Hf  Hf35  1  0.29974397  0.51484457  0.36410681  1
  Hf  Hf36  1  0.00645053  0.39809887  0.75464554  1
  Hf  Hf37  1  0.79437217  0.40408106  0.49049883  1
  Hf  Hf38  1  0.39957622  0.00722532  0.75585078  1
  Hf  Hf39  1  0.60247994  0.38742663  0.74637070  1
  Zr  Zr40  1  0.80483752  0.19970249  0.24469068  1
  Zr  Zr41  1  0.09927233  0.49113321  0.35105455  1
  Zr  Zr42  1  0.51129092  0.69160628  0.36011637  1
  Zr  Zr43  1  0.69122065  0.28949420  0.12127327  1
  Zr  Zr44  1  0.80601991  0.81278181  0.49852581  1
  Zr  Zr45  1  0.38962743  0.80644910  0.76734962  1
  Zr  Zr46  1  0.30492107  0.70711213  0.37935772  1
  Zr  Zr47  1  0.87726802  0.30421851  0.62679620  1
  Zr  Zr48  1  0.40713892  0.81410133  0.24508096  1
  Zr  Zr49  1  0.69919960  0.90270573  0.86248947  1
  Zr  Zr50  1  0.39952888  0.01800673  -0.00402988  1
  Zr  Zr51  1  0.08758566  0.28401583  0.61896676  1
  Zr  Zr52  1  0.49158531  0.30359567  0.87356523  1
  Zr  Zr53  1  0.49054915  0.91185334  0.38665060  1
  Zr  Zr54  1  0.91256313  0.10687887  0.62255926  1
  Zr  Zr55  1  0.91442035  0.09871138  0.12920753  1
  Zr  Zr56  1  0.60190403  0.78188488  0.49927763  1
  Zr  Zr57  1  0.40285475  0.20804551  0.49821847  1
  Zr  Zr58  1  0.20790636  0.39314594  0.01618502  1
  Zr  Zr59  1  -0.00569954  0.19385509  0.76100184  1
  Zr  Zr60  1  0.49596847  0.87989315  0.61835880  1
  Zr  Zr61  1  0.00715808  0.60534599  0.00288741  1
  Zr  Zr62  1  0.20386478  0.18659409  0.01927938  1
  Zr  Zr63  1  0.78446344  0.40595495  0.00101169  1
  Zr  Zr64  1  0.39763522  0.21353832  0.73540271  1
  Zr  Zr65  1  0.60046165  0.60105959  -0.01829359  1
  Zr  Zr66  1  -0.02176421  0.00269987  0.48520029  1
  Zr  Zr67  1  0.89536128  0.29879918  0.88988572  1
  Zr  Zr68  1  0.00165467  0.58093058  0.50739277  1
  Zr  Zr69  1  0.20041261  0.80535771  0.24133469  1
  Zr  Zr70  1  0.79626991  -0.00960576  0.00360662  1
  Zr  Zr71  1  0.71212993  0.09457079  0.37286299  1
  Zr  Zr72  1  0.28764572  0.31314854  0.61835643  1
  Zr  Zr73  1  0.60940724  0.58217105  0.50431774  1
  Zr  Zr74  1  0.10424808  0.09747037  0.88641888  1
  Zr  Zr75  1  0.31618919  0.70199479  0.11762280  1
  Zr  Zr76  1  0.29987059  0.90807596  0.60887051  1
  Zr  Zr77  1  0.90311071  0.70761950  0.37359277  1
  Zr  Zr78  1  0.20938234  0.19187926  0.25308781  1
  Zr  Zr79  1  0.28645644  0.91385823  0.88860595  1
  Ta  Ta80  1  0.19421287  0.21238363  0.75447540  1
  Ta  Ta81  1  0.09880185  0.90460581  0.62112389  1
  Ta  Ta82  1  0.81116334  0.59272215  0.76112058  1
  Ta  Ta83  1  0.49301416  0.50801408  0.12545464  1
  Ta  Ta84  1  0.11906914  0.48853478  0.87533844  1
  Ta  Ta85  1  0.18218774  0.00980165  0.49495294  1
  Ta  Ta86  1  0.69748675  0.30713449  0.37310898  1
  Ta  Ta87  1  0.79981052  0.80328530  0.24717195  1
  Ta  Ta88  1  0.89847707  0.89714215  0.13624002  1
  Ta  Ta89  1  0.68844182  0.51518236  0.12111703  1
  Ta  Ta90  1  0.09210247  0.90138375  0.13027586  1
  Ta  Ta91  1  0.57870686  0.39805916  0.00463853  1
  Ta  Ta92  1  0.39803770  0.39210778  0.24146798  1
  Ta  Ta93  1  0.18865377  0.80146555  0.74468733  1
  Ta  Ta94  1  0.30069596  0.12742368  0.87509170  1
  Ta  Ta95  1  0.69395272  0.50829563  0.36675955  1
  Ta  Ta96  1  0.28033712  0.10959229  0.61261694  1
  Ta  Ta97  1  0.89581248  0.68719989  0.62967138  1
  Ta  Ta98  1  0.40904032  0.41222891  0.51043563  1
  Ta  Ta99  1  0.09116784  0.28968203  0.13911704  1
  Ta  Ta100  1  0.19704993  0.60908896  0.23312153  1
  Ta  Ta101  1  0.51089004  0.89707857  0.12214476  1
  Ta  Ta102  1  0.28921008  0.32459190  0.87063419  1
  Ta  Ta103  1  0.30245905  0.51052928  0.62512866  1
  Ta  Ta104  1  0.71813192  0.09837364  0.61751877  1
  Ta  Ta105  1  0.19827907  0.61510063  0.51611776  1
  Ta  Ta106  1  0.08757681  0.29486752  0.35589941  1
  Ta  Ta107  1  0.18261968  0.79842841  0.00823297  1
  Ta  Ta108  1  0.60878700  0.00037457  0.50117610  1
  Ta  Ta109  1  0.60111520  -0.00660472  -0.00240016  1
  Ta  Ta110  1  0.58530963  0.78166420  0.76557138  1
  Ta  Ta111  1  0.89498017  0.50244268  0.12189468  1
  Ta  Ta112  1  0.79721194  0.19194309  0.00461052  1
  Ta  Ta113  1  0.09898696  0.88391625  0.87627112  1
  Ta  Ta114  1  0.18256778  0.19948676  0.48036939  1
  Ta  Ta115  1  0.80240066  0.61097895  -0.00249905  1
  Ta  Ta116  1  -0.00442759  0.38161180  0.49282707  1
  Ta  Ta117  1  0.51678243  0.69700980  0.12610242  1
  Ta  Ta118  1  0.91024511  0.30590929  0.11064659  1
  Ta  Ta119  1  0.30304904  0.49961704  0.13692377  1
  Ti  Ti120  1  -0.00712008  0.79400612  0.00488313  1
  Ti  Ti121  1  0.90413280  0.69903137  0.12796890  1
  Ti  Ti122  1  0.38869188  0.41120117  0.74145716  1
  Ti  Ti123  1  0.30284547  0.71480313  0.62290206  1
  Ti  Ti124  1  0.71050099  0.69334234  0.86825468  1
  Ti  Ti125  1  0.80446694  0.78837272  0.75153264  1
  Ti  Ti126  1  0.89805752  0.09966650  0.88662098  1
  Ti  Ti127  1  0.90713871  0.49565459  0.63123912  1
  Ti  Ti128  1  0.20945694  0.00033300  0.25822524  1
  Ti  Ti129  1  0.69540627  0.89659026  0.12919217  1
  Ti  Ti130  1  0.31650265  0.09244589  0.38535280  1
  Ti  Ti131  1  0.50458362  0.29833824  0.37844355  1
  Ti  Ti132  1  0.59796171  -0.00289653  0.74982813  1
  Ti  Ti133  1  0.78816843  0.21580144  0.76003727  1
  Ti  Ti134  1  0.10811352  0.08658542  0.13419414  1
  Ti  Ti135  1  0.79938847  0.01914809  0.75591091  1
  Ti  Ti136  1  0.10472502  0.49440904  0.63034355  1
  Ti  Ti137  1  0.90055539  0.29122847  0.36746119  1
  Ti  Ti138  1  0.00185816  0.78560437  0.74192420  1
  Ti  Ti139  1  0.49273154  0.49665739  0.86911833  1
  Ti  Ti140  1  0.61085041  0.79136330  0.24759406  1
  Ti  Ti141  1  0.58611947  -0.00012838  0.25373341  1
  Ti  Ti142  1  0.60034390  0.19618814  0.25829945  1
  Ti  Ti143  1  0.70061363  0.48484096  0.86642048  1
  Ti  Ti144  1  0.40149564  0.59156263  -0.01131257  1
  Ti  Ti145  1  0.60946273  0.80215912  -0.01256421  1
  Ti  Ti146  1  0.81626839  0.19362486  0.48781861  1
  Ti  Ti147  1  0.00490350  0.60087963  0.74993242  1
  Ti  Ti148  1  0.28841155  0.70044993  0.88219059  1
  Ti  Ti149  1  0.70030329  0.08469541  0.13112655  1
  Ti  Ti150  1  0.09150824  0.69763508  0.87230940  1
  Ti  Ti151  1  -0.00204829  0.79302924  0.24361910  1
  Ti  Ti152  1  0.09739558  0.29848198  0.89183477  1
  Ti  Ti153  1  0.50887412  0.50632001  0.63861845  1
  Ti  Ti154  1  0.60240810  0.19905911  -0.00015631  1
  Ti  Ti155  1  0.79960818  0.60705283  0.49504959  1
  Ti  Ti156  1  0.70329817  0.10964002  0.87794331  1
  Ti  Ti157  1  0.70107375  0.70767480  0.11641788  1
  Ti  Ti158  1  0.80381298  0.79454582  -0.00029103  1
  Ti  Ti159  1  0.59684687  0.39388493  0.51052212  1
  Mo  Mo160  1  0.09544254  0.70500418  0.12731225  1
  Mo  Mo161  1  0.39719653  0.41892690  0.00538025  1
  Mo  Mo162  1  0.91098919  0.10075865  0.35825739  1
  Mo  Mo163  1  0.19435822  -0.00622345  0.00467200  1
  Mo  Mo164  1  0.70625939  0.69499295  0.37188939  1
  Mo  Mo165  1  0.70472678  0.29279631  0.61975052  1
  Mo  Mo166  1  0.30325179  0.09640665  0.13619182  1
  Mo  Mo167  1  -0.00004279  0.20078556  0.00479660  1
  Mo  Mo168  1  0.00584031  -0.00506691  0.25191092  1
  Mo  Mo169  1  -0.00675035  0.60489561  0.23628303  1
  Mo  Mo170  1  0.49942852  0.31484997  0.62178540  1
  Mo  Mo171  1  0.00254251  0.19259711  0.25177943  1
  Mo  Mo172  1  0.49949998  0.30472897  0.12655640  1
  Mo  Mo173  1  0.19852104  0.40166013  0.75024027  1
  Mo  Mo174  1  0.00724958  0.39800642  0.00041395  1
  Mo  Mo175  1  0.68969382  0.29041917  0.88601176  1
  Mo  Mo176  1  -0.01418437  0.38763402  0.24547666  1
  Mo  Mo177  1  0.80181089  0.39981227  0.76381816  1
  Mo  Mo178  1  0.10651436  0.09363465  0.36582174  1
  Mo  Mo179  1  0.19334218  0.80017188  0.51063332  1
  Mo  Mo180  1  0.49899070  0.69306607  0.63508220  1
  Mo  Mo181  1  0.79291564  -0.00564985  0.23642265  1
  Mo  Mo182  1  0.39795520  0.00652759  0.24873699  1
  Mo  Mo183  1  0.10372046  0.09633690  0.62020487  1
  Mo  Mo184  1  0.40298040  0.59911932  0.24105284  1
  Mo  Mo185  1  0.79307110  0.00513052  0.49650226  1
  Mo  Mo186  1  0.50833295  0.90509540  0.87449217  1
  Mo  Mo187  1  0.50856941  0.10078770  0.38190620  1
  Mo  Mo188  1  0.30410965  0.50381143  0.87340965  1
  Mo  Mo189  1  0.00094552  0.19958619  0.48255361  1
  Mo  Mo190  1  0.60200868  0.60041083  0.23929588  1
  Mo  Mo191  1  0.20090357  0.39647612  0.24138004  1
  Mo  Mo192  1  0.89083768  0.91491622  0.34521470  1
  Mo  Mo193  1  0.29801370  0.30401229  0.14004292  1
  Mo  Mo194  1  0.50319526  0.69754925  0.88129819  1
  Mo  Mo195  1  0.39581636  0.01032433  0.50317943  1
  Mo  Mo196  1  0.10137359  0.69533145  0.63615778  1
  Mo  Mo197  1  0.90295427  0.69992899  0.87225383  1
  Mo  Mo198  1  0.60787762  0.59093526  0.76836893  1
  Mo  Mo199  1  0.39952978  0.79667895  0.50232561  1
