# generated using pymatgen
data_HfZrTaTiMo
_symmetry_space_group_name_H-M   'P 1'
_cell_length_a   15.21247335
_cell_length_b   15.20227371
_cell_length_c   16.84009137
_cell_angle_alpha   89.93692413
_cell_angle_beta   89.93880750
_cell_angle_gamma   90.06809995
_symmetry_Int_Tables_number   1
_chemical_formula_structural   HfZrTaTiMo
_chemical_formula_sum   'Hf40 Zr40 Ta40 Ti40 Mo40'
_cell_volume   3894.50264399
_cell_formula_units_Z   40
loop_
 _symmetry_equiv_pos_site_id
 _symmetry_equiv_pos_as_xyz
  1  'x, y, z'
loop_
 _atom_site_type_symbol
 _atom_site_label
 _atom_site_symmetry_multiplicity
 _atom_site_fract_x
 _atom_site_fract_y
 _atom_site_fract_z
 _atom_site_occupancy
  Hf  Hf0  1  0.79146822  0.39780689  0.00093276  1
  Hf  Hf1  1  0.82614546  0.40686686  0.49960441  1
  Hf  Hf2  1  0.20632874  0.20219403  0.75565306  1
  Hf  Hf3  1  0.31229747  0.49201428  0.38838993  1
  Hf  Hf4  1  0.61185416  0.40774908  0.74602306  1
  Hf  Hf5  1  0.78931721  0.00016694  0.48749096  1
  Hf  Hf6  1  0.10670384  0.72172158  0.86697412  1
  Hf  Hf7  1  0.90066873  0.69890633  0.86579965  1
  Hf  Hf8  1  0.60581447  0.39728951  0.24140376  1
  Hf  Hf9  1  0.90651052  0.30546224  0.11150790  1
  Hf  Hf10  1  0.59822338  0.18744502  0.49220983  1
  Hf  Hf11  1  0.22340748  0.41159736  -0.00934690  1
  Hf  Hf12  1  0.82031715  0.39134108  0.76104630  1
  Hf  Hf13  1  0.48992181  0.09085515  0.12698677  1
  Hf  Hf14  1  0.70289229  0.70191156  0.86158239  1
  Hf  Hf15  1  0.18928699  0.59790087  0.27038511  1
  Hf  Hf16  1  0.19008839  0.39337163  0.49348014  1
  Hf  Hf17  1  0.31051836  0.69995596  0.60614311  1
  Hf  Hf18  1  0.11275745  0.51576254  0.12376295  1
  Hf  Hf19  1  0.00782481  0.60314783  0.74317695  1
  Hf  Hf20  1  0.58491655  0.80551846  0.76451323  1
  Hf  Hf21  1  0.72549258  0.29619202  0.63136919  1
  Hf  Hf22  1  0.20058338  0.81566387  0.48877525  1
  Hf  Hf23  1  0.30292595  0.92228308  0.61750345  1
  Hf  Hf24  1  0.29345189  0.09905921  0.12356497  1
  Hf  Hf25  1  0.90344950  0.51239943  0.11541261  1
  Hf  Hf26  1  0.89676536  0.90876443  0.36094732  1
  Hf  Hf27  1  0.51242081  0.28768390  0.86712380  1
  Hf  Hf28  1  0.10621080  0.92145339  0.36219736  1
  Hf  Hf29  1  0.59643882  0.59805524  0.24885396  1
  Hf  Hf30  1  0.69683811  0.68689444  0.64462557  1
  Hf  Hf31  1  0.60976292  0.20019876  0.01704528  1
  Hf  Hf32  1  0.59352578  -0.01707331  0.24592699  1
  Hf  Hf33  1  0.60483643  0.80882944  -0.01135825  1
  Hf  Hf34  1  0.09489851  0.11689910  0.35602611  1
  Hf  Hf35  1  0.21630279  0.80149093  0.26370096  1
  Hf  Hf36  1  0.70836449  0.31034094  0.37096199  1
  Hf  Hf37  1  0.39923581  0.40689650  0.75275524  1
  Hf  Hf38  1  0.10741308  0.30766468  0.88201398  1
  Hf  Hf39  1  0.19012219  -0.00211012  0.76232243  1
  Zr  Zr40  1  0.48494330  0.49502053  0.12262717  1
  Zr  Zr41  1  0.67662521  0.09579732  0.63409962  1
  Zr  Zr42  1  0.90804518  0.90652456  0.87551679  1
  Zr  Zr43  1  0.89772162  0.69963868  0.62175950  1
  Zr  Zr44  1  0.89653264  0.69454242  0.38066678  1
  Zr  Zr45  1  0.89568755  0.90448019  0.61992206  1
  Zr  Zr46  1  0.09466214  0.90732198  0.61727405  1
  Zr  Zr47  1  0.49857120  0.68947740  0.38561038  1
  Zr  Zr48  1  0.69429085  0.71169059  0.37982014  1
  Zr  Zr49  1  0.51389335  0.28467568  0.63324865  1
  Zr  Zr50  1  0.79691565  0.59614007  0.24675534  1
  Zr  Zr51  1  0.89172538  0.10442634  0.62225291  1
  Zr  Zr52  1  0.20558530  0.20206579  -0.00272370  1
  Zr  Zr53  1  0.30130333  0.69321608  0.39559410  1
  Zr  Zr54  1  0.28514695  0.87689717  0.88379312  1
  Zr  Zr55  1  -0.00455500  0.20664247  0.74739019  1
  Zr  Zr56  1  0.81368661  0.80378226  0.00978631  1
  Zr  Zr57  1  0.58691851  0.60039103  -0.01193855  1
  Zr  Zr58  1  0.30649075  0.88733470  0.11410124  1
  Zr  Zr59  1  0.90883821  0.28550406  0.89913960  1
  Zr  Zr60  1  0.89959872  0.10956734  0.35607376  1
  Zr  Zr61  1  0.41014991  0.17935085  0.74549891  1
  Zr  Zr62  1  0.29022252  0.67839379  0.12114342  1
  Zr  Zr63  1  0.09833322  0.89669445  0.14641624  1
  Zr  Zr64  1  0.80261159  0.20290215  0.49012763  1
  Zr  Zr65  1  0.40742385  0.38965074  0.51117234  1
  Zr  Zr66  1  0.19817337  0.19717690  0.49671470  1
  Zr  Zr67  1  0.69364792  0.89782947  0.63789836  1
  Zr  Zr68  1  0.58294522  -0.02090529  0.48642324  1
  Zr  Zr69  1  0.79259786  0.80392570  0.23915292  1
  Zr  Zr70  1  0.70610519  0.50323887  0.87294294  1
  Zr  Zr71  1  0.39471309  0.17649693  0.50779743  1
  Zr  Zr72  1  0.61940392  0.40594644  0.51228459  1
  Zr  Zr73  1  0.79171338  0.21588174  0.23499551  1
  Zr  Zr74  1  -0.00573296  0.58325014  0.49851564  1
  Zr  Zr75  1  0.49038949  0.69901514  0.11869615  1
  Zr  Zr76  1  0.18676438  -0.01051620  -0.00586769  1
  Zr  Zr77  1  0.07334539  0.09809899  0.88357834  1
  Zr  Zr78  1  0.01073057  0.62532886  0.00119972  1
  Zr  Zr79  1  0.49601592  0.29712295  0.37446091  1
  Ta  Ta80  1  0.00748562  0.40976523  0.24053754  1
  Ta  Ta81  1  0.21484971  0.60313601  0.74019712  1
  Ta  Ta82  1  0.10752041  0.69792388  0.60757903  1
  Ta  Ta83  1  0.10731217  0.49858562  0.62432064  1
  Ta  Ta84  1  0.69856152  0.69944309  0.11693980  1
  Ta  Ta85  1  0.78762300  0.00436206  0.23104442  1
  Ta  Ta86  1  0.40076006  -0.00075433  -0.00981193  1
  Ta  Ta87  1  0.69026942  0.09615998  0.35723130  1
  Ta  Ta88  1  0.91412339  0.50174161  0.88251451  1
  Ta  Ta89  1  0.39395267  -0.01160484  0.76302534  1
  Ta  Ta90  1  0.01312539  0.40718942  0.75884981  1
  Ta  Ta91  1  0.40999875  0.79602115  0.25840475  1
  Ta  Ta92  1  0.40359295  0.20337690  -0.00553645  1
  Ta  Ta93  1  0.38773994  -0.01508818  0.25327576  1
  Ta  Ta94  1  0.59197795  0.19732752  0.24043659  1
  Ta  Ta95  1  0.39014700  0.19680919  0.25258507  1
  Ta  Ta96  1  0.11583409  0.51849587  0.87452166  1
  Ta  Ta97  1  0.78138619  0.00247642  0.02203215  1
  Ta  Ta98  1  0.50553265  0.51946894  0.63183968  1
  Ta  Ta99  1  0.00213570  0.21894348  0.50220527  1
  Ta  Ta100  1  0.41819074  0.81831449  0.49364338  1
  Ta  Ta101  1  0.30094544  0.50397604  0.61555042  1
  Ta  Ta102  1  0.20143511  0.79689411  0.73462775  1
  Ta  Ta103  1  0.59247718  0.39648617  -0.00000720  1
  Ta  Ta104  1  0.00545645  0.01604135  0.49216240  1
  Ta  Ta105  1  0.92298874  0.31394778  0.36445480  1
  Ta  Ta106  1  0.10440915  0.10192436  0.62272827  1
  Ta  Ta107  1  0.20439647  0.40633248  0.75271414  1
  Ta  Ta108  1  -0.00087600  0.80605079  0.48515966  1
  Ta  Ta109  1  0.89804250  0.10500550  0.12102071  1
  Ta  Ta110  1  0.49464911  0.90412049  0.63378716  1
  Ta  Ta111  1  -0.01063032  -0.00709951  0.01610792  1
  Ta  Ta112  1  0.48750422  0.08724663  0.36211632  1
  Ta  Ta113  1  0.01650577  0.41061176  0.00009732  1
  Ta  Ta114  1  0.60758596  0.59846499  0.50629675  1
  Ta  Ta115  1  0.50297918  0.70937944  0.61993797  1
  Ta  Ta116  1  0.11659747  0.30893716  0.11913140  1
  Ta  Ta117  1  0.20171260  0.39422123  0.26123540  1
  Ta  Ta118  1  0.39047833  0.78957473  0.75283492  1
  Ta  Ta119  1  0.79821461  0.18370011  0.76240077  1
  Ti  Ti120  1  0.17622511  0.78236761  0.01306287  1
  Ti  Ti121  1  0.01137179  0.78606884  0.26928853  1
  Ti  Ti122  1  0.70721557  0.28942996  0.87770222  1
  Ti  Ti123  1  0.70736635  0.91647288  0.86859414  1
  Ti  Ti124  1  0.80572147  0.41008691  0.24363967  1
  Ti  Ti125  1  0.09774780  0.30624936  0.63110747  1
  Ti  Ti126  1  0.39514300  0.39011514  0.25702101  1
  Ti  Ti127  1  0.00665469  0.21704811  0.23280619  1
  Ti  Ti128  1  0.30144226  0.48033505  0.13331484  1
  Ti  Ti129  1  -0.01599830  0.00651994  0.74919641  1
  Ti  Ti130  1  0.49323041  0.90449451  0.87857496  1
  Ti  Ti131  1  0.48439319  0.29978379  0.12535091  1
  Ti  Ti132  1  0.49658346  0.89127495  0.11588887  1
  Ti  Ti133  1  0.40724385  0.39281533  -0.02040137  1
  Ti  Ti134  1  0.09369031  0.10119420  0.13246080  1
  Ti  Ti135  1  0.29473691  0.29880232  0.62901186  1
  Ti  Ti136  1  0.78709267  0.80334466  0.50008790  1
  Ti  Ti137  1  0.00805838  0.80908437  0.73988862  1
  Ti  Ti138  1  0.29593150  0.67978583  0.87293971  1
  Ti  Ti139  1  0.58289684  0.01818493  0.76391232  1
  Ti  Ti140  1  0.69438864  0.50251225  0.11451513  1
  Ti  Ti141  1  0.59604750  0.00154441  0.00260381  1
  Ti  Ti142  1  0.08315359  0.48867850  0.37949780  1
  Ti  Ti143  1  0.38649722  0.57960772  -0.01638040  1
  Ti  Ti144  1  -0.00224334  0.59865155  0.26114198  1
  Ti  Ti145  1  0.40192771  0.78340910  -0.01367742  1
  Ti  Ti146  1  0.90158247  0.49044463  0.63582349  1
  Ti  Ti147  1  0.20659249  0.21124325  0.24433465  1
  Ti  Ti148  1  0.78966376  0.59072862  0.50044301  1
  Ti  Ti149  1  0.68963139  0.10211847  0.87960552  1
  Ti  Ti150  1  0.92133621  0.70974312  0.13248983  1
  Ti  Ti151  1  0.80754517  0.81015644  0.75035284  1
  Ti  Ti152  1  0.30805906  0.10150790  0.88052057  1
  Ti  Ti153  1  0.28867891  0.08930665  0.36640052  1
  Ti  Ti154  1  0.39346779  0.59405892  0.25506168  1
  Ti  Ti155  1  0.87790923  0.09844468  0.90233128  1
  Ti  Ti156  1  0.51333803  0.49497800  0.38284417  1
  Ti  Ti157  1  0.90513843  0.90351237  0.13951264  1
  Ti  Ti158  1  0.59969924  0.79659039  0.24208326  1
  Ti  Ti159  1  0.79969243  0.60715045  0.00058394  1
  Mo  Mo160  1  0.00578156  0.39363817  0.50519811  1
  Mo  Mo161  1  0.29690684  0.28901228  0.36730948  1
  Mo  Mo162  1  0.00635799  0.19799892  0.01935683  1
  Mo  Mo163  1  0.40341901  0.60786065  0.74881767  1
  Mo  Mo164  1  0.09609204  0.69916131  0.39152055  1
  Mo  Mo165  1  -0.00579186  0.00890185  0.23384950  1
  Mo  Mo166  1  0.79295555  0.00427396  0.76327818  1
  Mo  Mo167  1  0.60530162  0.79650458  0.51083728  1
  Mo  Mo168  1  0.38986026  -0.00142967  0.48655658  1
  Mo  Mo169  1  0.00617126  0.81427705  0.00868735  1
  Mo  Mo170  1  0.48422328  0.70172812  0.87547854  1
  Mo  Mo171  1  0.79332830  0.19274817  0.00949642  1
  Mo  Mo172  1  0.61226574  0.19894344  0.75729192  1
  Mo  Mo173  1  0.89441767  0.49220931  0.36527604  1
  Mo  Mo174  1  0.20569402  0.60196826  -0.00354838  1
  Mo  Mo175  1  0.68823466  0.89523344  0.11760088  1
  Mo  Mo176  1  0.50451935  0.88770246  0.36645903  1
  Mo  Mo177  1  0.10002998  0.30244262  0.36245893  1
  Mo  Mo178  1  0.41306766  0.59220555  0.50693529  1
  Mo  Mo179  1  0.19804723  0.59366658  0.50168075  1
  Mo  Mo180  1  0.58430448  0.60150094  0.75981476  1
  Mo  Mo181  1  0.30325866  0.49910080  0.86458408  1
  Mo  Mo182  1  0.50171871  0.09303605  0.88778346  1
  Mo  Mo183  1  0.49991426  0.50186373  0.86909947  1
  Mo  Mo184  1  0.08858470  0.89788199  0.86974724  1
  Mo  Mo185  1  0.69005203  0.09933573  0.13572933  1
  Mo  Mo186  1  0.48466331  0.07470122  0.62805938  1
  Mo  Mo187  1  0.69176795  0.31203411  0.12636866  1
  Mo  Mo188  1  0.09535483  0.69973150  0.14263321  1
  Mo  Mo189  1  0.31043439  0.90962753  0.37705230  1
  Mo  Mo190  1  0.70016559  0.50322183  0.37542737  1
  Mo  Mo191  1  0.31111002  0.30602111  0.12733313  1
  Mo  Mo192  1  0.20606793  0.01462392  0.24301360  1
  Mo  Mo193  1  0.91307128  0.30188642  0.63304905  1
  Mo  Mo194  1  0.30792025  0.29457307  0.86949107  1
  Mo  Mo195  1  0.70298315  0.90286002  0.36890162  1
  Mo  Mo196  1  0.71353013  0.50766832  0.63757505  1
  Mo  Mo197  1  0.19479942  0.01471564  0.49491671  1
  Mo  Mo198  1  0.80504594  0.58882468  0.75046360  1
  Mo  Mo199  1  0.29004235  0.09739867  0.63127891  1
