# generated using pymatgen
data_HfZrTaTiMo
_symmetry_space_group_name_H-M   'P 1'
_cell_length_a   15.21098943
_cell_length_b   15.22513752
_cell_length_c   16.86196359
_cell_angle_alpha   89.99403262
_cell_angle_beta   90.04332812
_cell_angle_gamma   90.03490338
_symmetry_Int_Tables_number   1
_chemical_formula_structural   HfZrTaTiMo
_chemical_formula_sum   'Hf40 Zr40 Ta40 Ti40 Mo40'
_cell_volume   3905.05026621
_cell_formula_units_Z   40
loop_
 _symmetry_equiv_pos_site_id
 _symmetry_equiv_pos_as_xyz
  1  'x, y, z'
loop_
 _atom_site_type_symbol
 _atom_site_label
 _atom_site_symmetry_multiplicity
 _atom_site_fract_x
 _atom_site_fract_y
 _atom_site_fract_z
 _atom_site_occupancy
  Hf  Hf0  1  0.49692862  0.28946633  0.37758917  1
  Hf  Hf1  1  -0.00835954  0.19586673  0.01368903  1
  Hf  Hf2  1  0.60633234  0.59968073  0.76248119  1
  Hf  Hf3  1  0.50125017  0.29981262  0.62531278  1
  Hf  Hf4  1  -0.00678615  0.18173735  0.22644883  1
  Hf  Hf5  1  0.71497652  0.69781497  0.88795189  1
  Hf  Hf6  1  -0.00826715  0.60206405  0.24136226  1
  Hf  Hf7  1  0.01981977  0.78776874  0.00262078  1
  Hf  Hf8  1  0.60370747  0.39854574  0.50131960  1
  Hf  Hf9  1  0.79708252  0.81463505  0.49228384  1
  Hf  Hf10  1  0.41595503  0.79798047  0.75939513  1
  Hf  Hf11  1  0.70520387  0.90391960  0.35908765  1
  Hf  Hf12  1  -0.00026240  0.01278590  0.49912126  1
  Hf  Hf13  1  0.72332748  0.90957087  0.11215702  1
  Hf  Hf14  1  0.30280374  0.30896700  0.36886220  1
  Hf  Hf15  1  0.83502763  0.80562001  0.24964744  1
  Hf  Hf16  1  0.29626664  0.49836233  0.87583044  1
  Hf  Hf17  1  0.29511601  0.70139198  0.37156562  1
  Hf  Hf18  1  0.08772429  0.50852477  0.37486997  1
  Hf  Hf19  1  0.18756231  0.39780720  -0.00878901  1
  Hf  Hf20  1  0.20916786  0.80267481  0.50439871  1
  Hf  Hf21  1  0.19869715  0.39423495  0.50265656  1
  Hf  Hf22  1  0.52878389  0.89864390  0.63270738  1
  Hf  Hf23  1  0.70768916  0.69224054  0.36588302  1
  Hf  Hf24  1  -0.00819752  0.39315003  0.76504030  1
  Hf  Hf25  1  0.89194660  0.91074250  0.63043184  1
  Hf  Hf26  1  0.21488926  0.80864461  -0.00443887  1
  Hf  Hf27  1  0.31278612  0.90498984  0.87496098  1
  Hf  Hf28  1  0.70427655  0.30282843  0.36953941  1
  Hf  Hf29  1  0.18721156  0.60843442  -0.00483158  1
  Hf  Hf30  1  0.59385922  -0.00398090  0.23209999  1
  Hf  Hf31  1  0.17245905  0.19152420  0.50363485  1
  Hf  Hf32  1  0.89228967  0.12634416  0.62419978  1
  Hf  Hf33  1  0.59885046  0.60680410  0.49876645  1
  Hf  Hf34  1  0.30129883  0.91028230  0.36235813  1
  Hf  Hf35  1  0.09341042  0.30958757  0.12718616  1
  Hf  Hf36  1  -0.00244979  0.59490283  0.51114673  1
  Hf  Hf37  1  0.89503432  0.69942129  0.62936036  1
  Hf  Hf38  1  0.20372742  0.18394753  0.23318063  1
  Hf  Hf39  1  -0.03152025  0.40016472  0.24402160  1
  Zr  Zr40  1  0.31698072  0.89427511  0.63074575  1
  Zr  Zr41  1  0.19796468  0.42276767  0.24649705  1
  Zr  Zr42  1  0.29022115  0.27614745  0.88266273  1
  Zr  Zr43  1  0.71799462  0.27921360  0.63395363  1
  Zr  Zr44  1  0.09592004  0.48937933  0.63517384  1
  Zr  Zr45  1  0.60655092  -0.02146012  0.49289499  1
  Zr  Zr46  1  0.11080214  0.92160057  0.63988279  1
  Zr  Zr47  1  0.80705717  0.20829063  0.23315106  1
  Zr  Zr48  1  0.79593901  -0.00137697  0.76159798  1
  Zr  Zr49  1  0.40137815  0.00206642  0.49894398  1
  Zr  Zr50  1  0.91164588  0.69096664  0.87730869  1
  Zr  Zr51  1  0.49102182  0.49491898  0.37129628  1
  Zr  Zr52  1  0.60954104  0.18440098  0.50338302  1
  Zr  Zr53  1  0.59802315  0.19549810  0.23320368  1
  Zr  Zr54  1  0.66810857  0.29555963  0.86732425  1
  Zr  Zr55  1  0.50613396  0.69803135  0.36173341  1
  Zr  Zr56  1  0.09338437  0.28814233  0.35859194  1
  Zr  Zr57  1  0.40700670  0.38985757  0.75866301  1
  Zr  Zr58  1  0.50143655  0.68793338  0.12112325  1
  Zr  Zr59  1  -0.00793110  0.38014497  0.50412448  1
  Zr  Zr60  1  0.91981672  0.70283708  0.37992964  1
  Zr  Zr61  1  0.19000891  0.38154952  0.76014611  1
  Zr  Zr62  1  0.28519199  0.09206195  0.62812670  1
  Zr  Zr63  1  0.49767767  0.11183001  0.88020003  1
  Zr  Zr64  1  0.49597976  0.69774324  0.62744956  1
  Zr  Zr65  1  -0.01436399  0.40689041  -0.01384955  1
  Zr  Zr66  1  0.19970959  0.60371770  0.50814205  1
  Zr  Zr67  1  0.01234940  0.80812254  0.50512531  1
  Zr  Zr68  1  0.73122852  0.69441315  0.11537234  1
  Zr  Zr69  1  0.40955625  0.80812813  0.24541080  1
  Zr  Zr70  1  0.61395946  0.79562349  0.23064999  1
  Zr  Zr71  1  0.30779119  0.31893931  0.12741908  1
  Zr  Zr72  1  0.79115375  0.40541740  0.76395867  1
  Zr  Zr73  1  0.29779255  0.11072585  0.37382483  1
  Zr  Zr74  1  0.78146292  0.40949977  -0.01582841  1
  Zr  Zr75  1  0.69650356  0.71932039  0.62745004  1
  Zr  Zr76  1  0.60682519  0.58616910  -0.00489084  1
  Zr  Zr77  1  0.60408447  0.01603274  0.01346379  1
  Zr  Zr78  1  0.69985320  0.50142031  0.62755589  1
  Zr  Zr79  1  0.30872644  0.49962661  0.63192239  1
  Ta  Ta80  1  0.49912789  0.09640451  0.63110150  1
  Ta  Ta81  1  0.39795289  0.59679078  -0.00792795  1
  Ta  Ta82  1  0.30065007  0.90168108  0.13064647  1
  Ta  Ta83  1  0.39646674  -0.00230702  0.01527815  1
  Ta  Ta84  1  0.61533712  0.81753088  0.77212251  1
  Ta  Ta85  1  0.49963619  0.09063256  0.36824941  1
  Ta  Ta86  1  0.50195787  0.70521513  0.88840525  1
  Ta  Ta87  1  0.39412624  0.20493709  0.50945276  1
  Ta  Ta88  1  0.41464727  0.00417685  0.75437130  1
  Ta  Ta89  1  0.42241032  0.80313256  0.48828073  1
  Ta  Ta90  1  0.60158631  0.80400136  0.00613647  1
  Ta  Ta91  1  0.10382656  0.10969899  0.87987124  1
  Ta  Ta92  1  0.00109305  0.81055229  0.75238758  1
  Ta  Ta93  1  0.58349751  0.39617437  0.00784421  1
  Ta  Ta94  1  0.59671057  0.21062247  0.01973383  1
  Ta  Ta95  1  0.09194490  0.08066372  0.36096166  1
  Ta  Ta96  1  0.90258638  0.09912757  0.88134460  1
  Ta  Ta97  1  0.20831562  0.80417625  0.75542077  1
  Ta  Ta98  1  0.20338575  0.60161921  0.75352199  1
  Ta  Ta99  1  -0.00913875  -0.01697149  0.24375988  1
  Ta  Ta100  1  0.11086689  0.90084423  0.13110534  1
  Ta  Ta101  1  0.18941086  0.62118246  0.24382029  1
  Ta  Ta102  1  0.10470407  0.70584620  0.64521832  1
  Ta  Ta103  1  0.39754936  0.01518892  0.23260213  1
  Ta  Ta104  1  0.19973563  0.00746467  0.00491061  1
  Ta  Ta105  1  0.10596336  0.91111918  0.86827187  1
  Ta  Ta106  1  0.71088070  0.90349958  0.89734071  1
  Ta  Ta107  1  0.48295154  0.48995130  0.12824443  1
  Ta  Ta108  1  0.38689569  0.58955696  0.24290155  1
  Ta  Ta109  1  -0.00664087  0.20453037  0.75689873  1
  Ta  Ta110  1  0.70452315  0.10294100  0.36769489  1
  Ta  Ta111  1  0.59214581  0.40198640  0.24426751  1
  Ta  Ta112  1  0.70525644  0.31771403  0.12488533  1
  Ta  Ta113  1  0.10562436  0.70530216  0.85897339  1
  Ta  Ta114  1  0.91219893  0.89159594  0.10794624  1
  Ta  Ta115  1  0.39000229  0.19368029  0.74449952  1
  Ta  Ta116  1  0.90804057  0.89840063  0.88748015  1
  Ta  Ta117  1  0.40403969  0.59933127  0.76616317  1
  Ta  Ta118  1  0.30465947  0.70171954  0.87526189  1
  Ta  Ta119  1  0.40045627  0.19703846  0.01703894  1
  Ti  Ti120  1  0.08449534  0.51402141  0.87097178  1
  Ti  Ti121  1  0.40557764  0.20560206  0.23466766  1
  Ti  Ti122  1  0.79202057  0.19336360  0.01492091  1
  Ti  Ti123  1  0.80242893  0.58848564  0.49186052  1
  Ti  Ti124  1  0.40114487  0.39470142  -0.00908624  1
  Ti  Ti125  1  0.89343985  0.30024018  0.37364793  1
  Ti  Ti126  1  0.28830253  0.29460841  0.62801503  1
  Ti  Ti127  1  0.80477610  0.79846620  0.75899356  1
  Ti  Ti128  1  0.18339659  0.18824277  0.74592594  1
  Ti  Ti129  1  0.80803738  0.01049041  0.24309786  1
  Ti  Ti130  1  0.08845936  0.51256225  0.11799943  1
  Ti  Ti131  1  0.88395767  0.28428590  0.87938080  1
  Ti  Ti132  1  0.30530892  0.69827725  0.63295177  1
  Ti  Ti133  1  0.50869256  0.48505235  0.87264520  1
  Ti  Ti134  1  0.29671821  0.09182708  0.87487935  1
  Ti  Ti135  1  0.70393550  0.10441740  0.87689374  1
  Ti  Ti136  1  0.00847161  0.00034126  0.00331274  1
  Ti  Ti137  1  0.30003826  0.70443267  0.12187571  1
  Ti  Ti138  1  0.69975977  0.49732051  0.36645006  1
  Ti  Ti139  1  0.19610387  0.19212145  0.01642747  1
  Ti  Ti140  1  0.80307899  0.39454107  0.50242993  1
  Ti  Ti141  1  0.00585993  0.01275474  0.75601740  1
  Ti  Ti142  1  0.39803902  0.60156756  0.50061444  1
  Ti  Ti143  1  0.80330131  0.58756872  0.25269629  1
  Ti  Ti144  1  0.09837006  0.88724991  0.36269618  1
  Ti  Ti145  1  0.02670417  0.78751944  0.23819222  1
  Ti  Ti146  1  0.68710390  0.50594169  0.13466970  1
  Ti  Ti147  1  0.69336758  0.07415581  0.63638136  1
  Ti  Ti148  1  0.79863523  0.01573294  0.49496862  1
  Ti  Ti149  1  0.89073131  0.49391062  0.63145569  1
  Ti  Ti150  1  0.50835618  0.90592911  0.88923052  1
  Ti  Ti151  1  0.89793881  0.10381052  0.37283189  1
  Ti  Ti152  1  0.29613959  0.50541088  0.37571284  1
  Ti  Ti153  1  0.59266465  0.18759090  0.74621305  1
  Ti  Ti154  1  0.19257457  -0.00486272  0.49257281  1
  Ti  Ti155  1  0.39751794  0.40198861  0.50626526  1
  Ti  Ti156  1  -0.00729793  0.59927094  0.74464965  1
  Ti  Ti157  1  0.88140295  0.50191107  0.11608992  1
  Ti  Ti158  1  0.29254201  0.51334912  0.11576309  1
  Ti  Ti159  1  0.50017479  0.50120355  0.63247994  1
  Mo  Mo160  1  0.81446233  0.59303636  0.00320106  1
  Mo  Mo161  1  0.88984887  0.30726032  0.11222111  1
  Mo  Mo162  1  0.29447193  0.09905149  0.12274458  1
  Mo  Mo163  1  0.91588193  0.69305231  0.12017221  1
  Mo  Mo164  1  0.90013649  0.30836236  0.63093482  1
  Mo  Mo165  1  0.49922921  0.30868200  0.12567710  1
  Mo  Mo166  1  0.11201535  0.70111907  0.12217925  1
  Mo  Mo167  1  0.81427519  0.00959487  -0.00938974  1
  Mo  Mo168  1  0.09549470  0.08681989  0.12244344  1
  Mo  Mo169  1  -0.01422680  0.19659584  0.48931959  1
  Mo  Mo170  1  0.08743859  0.10453304  0.63266731  1
  Mo  Mo171  1  0.48906286  0.29277971  0.88023645  1
  Mo  Mo172  1  0.88046559  0.49709884  0.37856964  1
  Mo  Mo173  1  0.60317128  0.58768387  0.24518335  1
  Mo  Mo174  1  0.49853910  0.90790127  0.36625271  1
  Mo  Mo175  1  0.00077740  0.59451141  0.00534268  1
  Mo  Mo176  1  0.49719388  0.89615611  0.10962047  1
  Mo  Mo177  1  0.60044207  -0.00152843  0.76608387  1
  Mo  Mo178  1  0.40726059  0.79832662  0.00241341  1
  Mo  Mo179  1  0.08610924  0.28466533  0.88364377  1
  Mo  Mo180  1  0.20491091  0.00761725  0.76402806  1
  Mo  Mo181  1  0.19215499  -0.00524499  0.24808040  1
  Mo  Mo182  1  0.80561964  0.60408211  0.74935662  1
  Mo  Mo183  1  0.71230166  0.89881901  0.63117769  1
  Mo  Mo184  1  0.81030559  0.20345333  0.48717785  1
  Mo  Mo185  1  0.39538512  0.40508622  0.25210259  1
  Mo  Mo186  1  0.81402074  0.80233777  -0.00186385  1
  Mo  Mo187  1  0.59089100  0.39870727  0.74602834  1
  Mo  Mo188  1  0.89112597  0.07879507  0.11445685  1
  Mo  Mo189  1  0.69263391  0.50278372  0.87310952  1
  Mo  Mo190  1  0.60251694  0.79973385  0.48910774  1
  Mo  Mo191  1  0.20548462  0.80249652  0.24612939  1
  Mo  Mo192  1  0.80065656  0.19507645  0.76368290  1
  Mo  Mo193  1  0.08585553  0.27917246  0.62913498  1
  Mo  Mo194  1  0.89060235  0.51248974  0.86768855  1
  Mo  Mo195  1  0.49321880  0.10291530  0.12294501  1
  Mo  Mo196  1  0.90955152  0.92254310  0.37161537  1
  Mo  Mo197  1  0.78888383  0.40973237  0.24558050  1
  Mo  Mo198  1  0.70564627  0.10515231  0.12273560  1
  Mo  Mo199  1  0.10442269  0.70206087  0.37501571  1
