# generated using pymatgen
data_HfZrTaTiMo
_symmetry_space_group_name_H-M   'P 1'
_cell_length_a   15.21395324
_cell_length_b   15.20997209
_cell_length_c   16.83923901
_cell_angle_alpha   90.03469482
_cell_angle_beta   89.97354568
_cell_angle_gamma   90.11197111
_symmetry_Int_Tables_number   1
_chemical_formula_structural   HfZrTaTiMo
_chemical_formula_sum   'Hf40 Zr40 Ta40 Ti40 Mo40'
_cell_volume   3896.65540014
_cell_formula_units_Z   40
loop_
 _symmetry_equiv_pos_site_id
 _symmetry_equiv_pos_as_xyz
  1  'x, y, z'
loop_
 _atom_site_type_symbol
 _atom_site_label
 _atom_site_symmetry_multiplicity
 _atom_site_fract_x
 _atom_site_fract_y
 _atom_site_fract_z
 _atom_site_occupancy
  Hf  Hf0  1  0.70104051  0.69226284  0.11102855  1
  Hf  Hf1  1  0.71787023  0.90107920  0.11541651  1
  Hf  Hf2  1  0.59079712  -0.00797822  0.50525255  1
  Hf  Hf3  1  0.41792160  0.81399789  0.49832750  1
  Hf  Hf4  1  0.39073233  0.19948066  0.76005276  1
  Hf  Hf5  1  0.60200512  0.01135559  -0.00224502  1
  Hf  Hf6  1  0.28032840  0.30501601  0.11426896  1
  Hf  Hf7  1  0.09926134  0.69531780  0.11868031  1
  Hf  Hf8  1  0.11010183  0.91205202  0.37970696  1
  Hf  Hf9  1  0.50259138  0.89672970  0.64497738  1
  Hf  Hf10  1  0.19446171  0.60284107  0.27067324  1
  Hf  Hf11  1  0.09021894  0.10227817  0.88994198  1
  Hf  Hf12  1  0.29669220  0.71202985  0.39604631  1
  Hf  Hf13  1  0.92079876  0.29492007  0.38548539  1
  Hf  Hf14  1  0.39655094  0.40977980  0.00033166  1
  Hf  Hf15  1  0.18477927  0.38206065  0.50114586  1
  Hf  Hf16  1  -0.00292204  0.59307346  0.25709595  1
  Hf  Hf17  1  0.71007836  0.49679051  0.11833145  1
  Hf  Hf18  1  0.67337436  0.10448254  0.62495854  1
  Hf  Hf19  1  0.39700883  0.00561024  0.75412852  1
  Hf  Hf20  1  0.79838787  -0.00105025  0.73675043  1
  Hf  Hf21  1  0.18920154  0.00816027  0.75320561  1
  Hf  Hf22  1  0.78217706  0.59581817  0.48839670  1
  Hf  Hf23  1  0.51802038  0.69362612  0.61650103  1
  Hf  Hf24  1  0.02571559  0.37953010  -0.00468693  1
  Hf  Hf25  1  0.39859846  0.01222473  0.51269828  1
  Hf  Hf26  1  0.30144609  0.49275690  0.39242418  1
  Hf  Hf27  1  0.89568898  0.69799879  0.38269019  1
  Hf  Hf28  1  0.20290660  0.80966604  0.25306364  1
  Hf  Hf29  1  -0.01730390  -0.01856285  -0.00070290  1
  Hf  Hf30  1  0.79906658  0.40205278  0.75764532  1
  Hf  Hf31  1  0.90315221  0.30295228  0.61885800  1
  Hf  Hf32  1  0.90019520  0.69997526  0.10965934  1
  Hf  Hf33  1  -0.00546277  0.61255006  0.75066728  1
  Hf  Hf34  1  0.39594709  0.79126778  -0.00760600  1
  Hf  Hf35  1  0.71211299  0.30822681  0.35767754  1
  Hf  Hf36  1  0.41579961  0.59656370  0.74804156  1
  Hf  Hf37  1  0.90137818  0.89944342  0.38579755  1
  Hf  Hf38  1  0.22111475  0.60254205  -0.00820210  1
  Hf  Hf39  1  0.89153503  0.51142406  0.62205570  1
  Zr  Zr40  1  0.00272147  0.79831746  0.25667766  1
  Zr  Zr41  1  0.67961238  0.08267952  0.36512501  1
  Zr  Zr42  1  0.79337615  -0.01763819  0.25570245  1
  Zr  Zr43  1  0.10931764  0.50413113  0.86654167  1
  Zr  Zr44  1  0.51586156  0.91294622  0.36205708  1
  Zr  Zr45  1  0.79332277  0.59699395  0.76112810  1
  Zr  Zr46  1  0.29102037  0.89782724  0.87535574  1
  Zr  Zr47  1  0.50356170  0.29727904  0.62724983  1
  Zr  Zr48  1  0.11636754  0.29939855  0.85333517  1
  Zr  Zr49  1  0.50212730  0.51166100  0.12331979  1
  Zr  Zr50  1  0.41052307  0.79936940  0.25696919  1
  Zr  Zr51  1  0.59753063  0.80350509  -0.00265989  1
  Zr  Zr52  1  0.78323653  0.20233587  0.49813311  1
  Zr  Zr53  1  0.71264881  0.69485588  0.89548143  1
  Zr  Zr54  1  0.10984943  0.70661263  0.62243009  1
  Zr  Zr55  1  0.71281385  0.91259286  0.87606781  1
  Zr  Zr56  1  0.09431859  0.11684646  0.10189770  1
  Zr  Zr57  1  0.69095823  0.29195686  0.87542812  1
  Zr  Zr58  1  0.30605917  0.69708370  0.13154181  1
  Zr  Zr59  1  0.30345593  0.91478011  0.11222903  1
  Zr  Zr60  1  0.91269533  0.49867010  0.11095609  1
  Zr  Zr61  1  0.11893232  0.49187055  0.12256091  1
  Zr  Zr62  1  -0.00486393  0.19066055  0.74916758  1
  Zr  Zr63  1  0.39414633  0.40134651  0.75326270  1
  Zr  Zr64  1  0.40727710  0.59695561  0.27008705  1
  Zr  Zr65  1  0.80228888  0.37796183  -0.00487289  1
  Zr  Zr66  1  0.31176521  0.69794042  0.60836458  1
  Zr  Zr67  1  0.38033946  0.18908358  0.23617454  1
  Zr  Zr68  1  0.60298196  0.40810373  0.48069488  1
  Zr  Zr69  1  0.59715817  0.40740907  0.25502031  1
  Zr  Zr70  1  0.90341981  0.09735029  0.38802172  1
  Zr  Zr71  1  0.89931887  0.09817151  0.61108440  1
  Zr  Zr72  1  0.57893443  0.20319229  0.48260531  1
  Zr  Zr73  1  0.90290028  0.28354239  0.12121720  1
  Zr  Zr74  1  0.29104688  0.27951190  0.37601976  1
  Zr  Zr75  1  0.20473623  0.02462134  0.24228518  1
  Zr  Zr76  1  0.82331271  0.79656987  0.75639224  1
  Zr  Zr77  1  0.80339629  0.19318646  0.25051679  1
  Zr  Zr78  1  0.78913089  0.19873181  0.74841560  1
  Zr  Zr79  1  0.71303966  0.69849908  0.62405070  1
  Ta  Ta80  1  0.00531582  0.38786255  0.24833953  1
  Ta  Ta81  1  0.69815646  0.89079317  0.62744724  1
  Ta  Ta82  1  0.50512925  0.90360983  0.12682650  1
  Ta  Ta83  1  0.68275044  0.50139938  0.62621933  1
  Ta  Ta84  1  0.79133829  -0.01184585  0.50808080  1
  Ta  Ta85  1  0.49942759  0.89853466  0.86641938  1
  Ta  Ta86  1  0.90261639  0.50441178  0.88989684  1
  Ta  Ta87  1  0.18438162  0.59853160  0.49347787  1
  Ta  Ta88  1  0.69195973  0.49972603  0.89243430  1
  Ta  Ta89  1  0.21665565  0.60553357  0.74682469  1
  Ta  Ta90  1  0.79548405  0.59300389  0.25520398  1
  Ta  Ta91  1  0.60384461  0.78816447  0.76192654  1
  Ta  Ta92  1  0.59552479  0.41419480  0.75472364  1
  Ta  Ta93  1  0.60589962  0.61311194  0.26179542  1
  Ta  Ta94  1  -0.00878468  -0.00708381  0.74780161  1
  Ta  Ta95  1  0.50304160  0.68986355  0.87666708  1
  Ta  Ta96  1  0.30729286  0.91749130  0.37810581  1
  Ta  Ta97  1  0.29146731  0.30003263  0.62624084  1
  Ta  Ta98  1  0.59408982  0.20768850  0.00928540  1
  Ta  Ta99  1  0.39711017  0.39293571  0.25625494  1
  Ta  Ta100  1  -0.00543026  0.40774332  0.74949468  1
  Ta  Ta101  1  0.10348926  0.49790997  0.63295662  1
  Ta  Ta102  1  0.11521983  0.70970081  0.86884205  1
  Ta  Ta103  1  0.01421849  0.79660441  0.49763088  1
  Ta  Ta104  1  0.61434266  0.80403246  0.24453531  1
  Ta  Ta105  1  0.29979411  0.49847116  0.60804614  1
  Ta  Ta106  1  0.19302674  0.80359920  0.00017538  1
  Ta  Ta107  1  0.00861076  0.00239797  0.50753991  1
  Ta  Ta108  1  0.09437128  0.90243640  0.12041892  1
  Ta  Ta109  1  0.49681141  0.50227492  0.61121864  1
  Ta  Ta110  1  0.89087868  0.48508773  0.37290701  1
  Ta  Ta111  1  0.29157505  0.10565914  0.63099212  1
  Ta  Ta112  1  0.87937936  0.08751633  0.88071282  1
  Ta  Ta113  1  0.01456793  0.80839157  0.74842534  1
  Ta  Ta114  1  0.88843221  0.07960777  0.11988744  1
  Ta  Ta115  1  0.29134327  0.10692198  0.89877050  1
  Ta  Ta116  1  0.00092773  0.00448843  0.24425923  1
  Ta  Ta117  1  0.29037117  0.89519387  0.63082873  1
  Ta  Ta118  1  0.38536403  0.19906722  0.50481793  1
  Ta  Ta119  1  0.10409864  0.11897083  0.38611737  1
  Ti  Ti120  1  0.69654156  0.29568752  0.13625216  1
  Ti  Ti121  1  0.51918800  0.70207891  0.39076026  1
  Ti  Ti122  1  0.69474750  0.31098249  0.62863642  1
  Ti  Ti123  1  0.09422797  0.90015612  0.87718716  1
  Ti  Ti124  1  0.47244316  0.10751446  0.36697781  1
  Ti  Ti125  1  0.50354867  0.70136605  0.12304586  1
  Ti  Ti126  1  0.18112562  0.21360511  0.24567435  1
  Ti  Ti127  1  -0.00306295  0.59655538  0.49874022  1
  Ti  Ti128  1  0.79594678  0.40180627  0.50126948  1
  Ti  Ti129  1  0.90532765  0.88467240  0.61317089  1
  Ti  Ti130  1  -0.00069110  0.40556676  0.50827102  1
  Ti  Ti131  1  0.30719351  0.50307444  0.13309873  1
  Ti  Ti132  1  0.90807251  0.29006401  0.87526892  1
  Ti  Ti133  1  0.59786714  0.39498411  0.00787730  1
  Ti  Ti134  1  0.20372143  0.00593608  0.50630915  1
  Ti  Ti135  1  0.80248836  0.78694618  0.24806272  1
  Ti  Ti136  1  0.49152446  0.29871283  0.12441739  1
  Ti  Ti137  1  0.49624296  0.30387158  0.88314412  1
  Ti  Ti138  1  0.78585474  0.17737523  0.00063071  1
  Ti  Ti139  1  0.08730013  0.49015488  0.37935812  1
  Ti  Ti140  1  0.10445989  0.90628651  0.62135867  1
  Ti  Ti141  1  0.39088830  0.79036047  0.75682513  1
  Ti  Ti142  1  0.59718162  0.00803286  0.76010113  1
  Ti  Ti143  1  0.30608837  0.50207180  0.87144059  1
  Ti  Ti144  1  0.00289476  0.19115776  0.24898448  1
  Ti  Ti145  1  0.68882232  0.10244166  0.13364909  1
  Ti  Ti146  1  0.39917333  0.00248533  0.24404203  1
  Ti  Ti147  1  0.40777170  0.38892844  0.49325311  1
  Ti  Ti148  1  0.19801659  0.40110571  0.25995730  1
  Ti  Ti149  1  0.57979008  0.19820340  0.24922617  1
  Ti  Ti150  1  0.83237072  0.81732026  -0.00993238  1
  Ti  Ti151  1  0.50760162  0.50278568  0.88497806  1
  Ti  Ti152  1  0.48517894  0.09809765  0.11312869  1
  Ti  Ti153  1  0.10106862  0.10807657  0.62320764  1
  Ti  Ti154  1  0.58586037  0.19923921  0.75835842  1
  Ti  Ti155  1  0.49259078  0.10603767  0.88902008  1
  Ti  Ti156  1  0.29762229  0.10625714  0.08344026  1
  Ti  Ti157  1  0.70540710  0.87564158  0.38822715  1
  Ti  Ti158  1  0.10635549  0.29863110  0.64388604  1
  Ti  Ti159  1  0.29738715  0.30085106  0.88807931  1
  Mo  Mo160  1  0.49760608  0.50315972  0.37929719  1
  Mo  Mo161  1  0.92246562  0.69951033  0.88848967  1
  Mo  Mo162  1  0.68684118  0.10360950  0.87280733  1
  Mo  Mo163  1  0.20639024  0.41050001  0.73553097  1
  Mo  Mo164  1  0.70161405  0.70614208  0.37043999  1
  Mo  Mo165  1  0.19610993  0.19157863  0.51014425  1
  Mo  Mo166  1  0.09442746  0.30260845  0.12946091  1
  Mo  Mo167  1  0.91022556  0.70335407  0.61146455  1
  Mo  Mo168  1  0.20978912  0.40582123  -0.00488864  1
  Mo  Mo169  1  0.48822316  0.29820140  0.36390125  1
  Mo  Mo170  1  0.20774756  0.19866167  0.75032970  1
  Mo  Mo171  1  0.01109123  0.60270426  -0.01273471  1
  Mo  Mo172  1  0.40379604  0.20613965  -0.00207590  1
  Mo  Mo173  1  0.81469776  0.40475186  0.24576700  1
  Mo  Mo174  1  0.30328404  0.69607202  0.86605837  1
  Mo  Mo175  1  0.90941234  0.89207437  0.13273039  1
  Mo  Mo176  1  0.19377540  -0.00376761  -0.00386665  1
  Mo  Mo177  1  -0.02481136  0.19601921  -0.00960825  1
  Mo  Mo178  1  0.09819807  0.69866305  0.38938141  1
  Mo  Mo179  1  0.40795749  -0.00225698  -0.01076365  1
  Mo  Mo180  1  0.70408419  0.50517710  0.36432339  1
  Mo  Mo181  1  0.40465712  0.59162879  0.49068876  1
  Mo  Mo182  1  0.59444236  0.59265665  0.00258428  1
  Mo  Mo183  1  0.60025958  0.59455605  0.75574792  1
  Mo  Mo184  1  0.80732233  0.59467823  -0.00615620  1
  Mo  Mo185  1  0.59623464  0.59965952  0.48879892  1
  Mo  Mo186  1  0.01189029  0.79401854  -0.00642397  1
  Mo  Mo187  1  0.20530240  0.81757287  0.49823342  1
  Mo  Mo188  1  0.61395977  0.80155057  0.50366231  1
  Mo  Mo189  1  0.18676180  0.21661155  -0.00393672  1
  Mo  Mo190  1  0.80903457  0.79977257  0.50772601  1
  Mo  Mo191  1  0.40836169  0.60243111  -0.00693004  1
  Mo  Mo192  1  0.02264552  0.21136941  0.51226151  1
  Mo  Mo193  1  0.91017727  0.90073692  0.86649299  1
  Mo  Mo194  1  0.20128154  0.80301628  0.74692833  1
  Mo  Mo195  1  0.49149337  0.10391864  0.63477878  1
  Mo  Mo196  1  0.79511740  0.00187998  0.00530508  1
  Mo  Mo197  1  0.28954759  0.08851211  0.37781118  1
  Mo  Mo198  1  0.09646038  0.30257855  0.37237896  1
  Mo  Mo199  1  0.58788468  0.00770996  0.22735210  1
