# generated using pymatgen
data_HfZrTaTiMo
_symmetry_space_group_name_H-M   'P 1'
_cell_length_a   15.22702131
_cell_length_b   15.21568745
_cell_length_c   16.85268911
_cell_angle_alpha   89.98810896
_cell_angle_beta   90.01945633
_cell_angle_gamma   90.01832257
_symmetry_Int_Tables_number   1
_chemical_formula_structural   HfZrTaTiMo
_chemical_formula_sum   'Hf40 Zr40 Ta40 Ti40 Mo40'
_cell_volume   3904.59223926
_cell_formula_units_Z   40
loop_
 _symmetry_equiv_pos_site_id
 _symmetry_equiv_pos_as_xyz
  1  'x, y, z'
loop_
 _atom_site_type_symbol
 _atom_site_label
 _atom_site_symmetry_multiplicity
 _atom_site_fract_x
 _atom_site_fract_y
 _atom_site_fract_z
 _atom_site_occupancy
  Hf  Hf0  1  0.68574547  0.91093055  0.37108137  1
  Hf  Hf1  1  0.09285118  0.69868980  0.11347366  1
  Hf  Hf2  1  0.78155964  0.59395471  0.74696956  1
  Hf  Hf3  1  0.90332123  0.11414496  0.62872903  1
  Hf  Hf4  1  0.21571382  0.80081238  -0.01223368  1
  Hf  Hf5  1  0.50278244  0.51560338  0.89028666  1
  Hf  Hf6  1  0.59937025  0.20795869  0.76796842  1
  Hf  Hf7  1  0.58386646  0.19071311  0.24102697  1
  Hf  Hf8  1  0.79824763  0.38520755  0.50420322  1
  Hf  Hf9  1  0.30085472  0.09835663  0.12238637  1
  Hf  Hf10  1  0.38573137  0.80578756  0.24178446  1
  Hf  Hf11  1  0.39570318  0.20091826  0.75521374  1
  Hf  Hf12  1  0.58291296  0.79137215  0.25289162  1
  Hf  Hf13  1  0.61193218  0.39099456  -0.02274923  1
  Hf  Hf14  1  0.90767027  0.69588710  0.61879799  1
  Hf  Hf15  1  0.01827878  0.19673400  0.75347466  1
  Hf  Hf16  1  0.20324414  0.19713743  0.48136228  1
  Hf  Hf17  1  0.31498466  0.89646770  0.85843404  1
  Hf  Hf18  1  0.39205009  -0.01693522  0.00029824  1
  Hf  Hf19  1  0.47827245  0.90170007  0.37883778  1
  Hf  Hf20  1  0.68902541  0.29937430  0.12348748  1
  Hf  Hf21  1  0.50189178  0.88333505  0.63643956  1
  Hf  Hf22  1  0.70304614  0.08956735  0.11411216  1
  Hf  Hf23  1  0.47928638  0.70937571  0.88251015  1
  Hf  Hf24  1  0.09764533  0.29947210  0.62238307  1
  Hf  Hf25  1  0.19046245  0.78823909  0.76214279  1
  Hf  Hf26  1  0.78578973  0.19127489  0.49040511  1
  Hf  Hf27  1  0.80744860  0.41021000  -0.01361637  1
  Hf  Hf28  1  0.78570810  0.80618197  0.50384433  1
  Hf  Hf29  1  0.89326610  0.48776544  0.63641431  1
  Hf  Hf30  1  0.89281687  0.90056927  0.11942413  1
  Hf  Hf31  1  0.57548256  0.78186378  0.49655998  1
  Hf  Hf32  1  0.52945744  0.10367439  0.38649106  1
  Hf  Hf33  1  0.20813354  -0.02434842  0.48596124  1
  Hf  Hf34  1  -0.00211765  0.41133909  0.50379779  1
  Hf  Hf35  1  0.29569843  0.90378366  0.64016716  1
  Hf  Hf36  1  0.89905607  0.30611462  0.12080547  1
  Hf  Hf37  1  0.19303891  0.61293793  0.51034349  1
  Hf  Hf38  1  0.49941827  0.49770521  0.09671465  1
  Hf  Hf39  1  0.71490302  0.29748870  0.64294787  1
  Zr  Zr40  1  0.81113769  -0.00151334  0.76301859  1
  Zr  Zr41  1  -0.00159828  0.19719520  0.25117660  1
  Zr  Zr42  1  -0.01344026  0.20188647  0.48795202  1
  Zr  Zr43  1  0.40125807  0.61626217  0.50477445  1
  Zr  Zr44  1  0.00266931  -0.00426552  -0.00137278  1
  Zr  Zr45  1  0.22433732  0.40176086  0.26107219  1
  Zr  Zr46  1  0.41113664  0.21165309  0.50668909  1
  Zr  Zr47  1  0.10032632  0.51813701  0.37302692  1
  Zr  Zr48  1  0.51476628  0.89793205  0.86243715  1
  Zr  Zr49  1  0.32414197  0.09317570  0.37472235  1
  Zr  Zr50  1  0.40837776  0.40316430  0.76711337  1
  Zr  Zr51  1  0.48765992  0.69268566  0.10082118  1
  Zr  Zr52  1  0.19733842  0.02270191  0.75831211  1
  Zr  Zr53  1  0.30360578  0.30393736  0.62724111  1
  Zr  Zr54  1  0.11063190  0.09020614  0.61467130  1
  Zr  Zr55  1  0.10919117  0.30023496  0.88391869  1
  Zr  Zr56  1  0.78419346  0.58405560  0.51074751  1
  Zr  Zr57  1  0.69378869  0.47433376  0.36219659  1
  Zr  Zr58  1  0.00567342  -0.00010173  0.24451798  1
  Zr  Zr59  1  0.50507959  0.10254454  0.10255788  1
  Zr  Zr60  1  -0.00343246  0.80061024  0.24893946  1
  Zr  Zr61  1  0.89284294  0.69687558  0.11315671  1
  Zr  Zr62  1  0.61308619  -0.00326183  0.74184921  1
  Zr  Zr63  1  0.79704726  0.19359338  0.25009585  1
  Zr  Zr64  1  0.21674488  0.40603381  0.49366929  1
  Zr  Zr65  1  0.28845402  0.69385867  0.11918743  1
  Zr  Zr66  1  0.90401172  0.90747850  0.61839100  1
  Zr  Zr67  1  0.61333012  -0.00098445  0.51956818  1
  Zr  Zr68  1  0.78464434  0.80364509  0.74969942  1
  Zr  Zr69  1  0.09399725  0.31002092  0.36991155  1
  Zr  Zr70  1  0.90896885  0.69234038  0.39546742  1
  Zr  Zr71  1  -0.00699366  0.80659940  0.76462412  1
  Zr  Zr72  1  0.11009299  0.31178692  0.12662679  1
  Zr  Zr73  1  0.79542909  0.79870563  0.26001699  1
  Zr  Zr74  1  0.91292722  0.10674587  0.88597721  1
  Zr  Zr75  1  0.20546375  0.19332745  0.25631374  1
  Zr  Zr76  1  0.69172514  0.69746920  0.12137642  1
  Zr  Zr77  1  0.67966536  0.68203592  0.38033343  1
  Zr  Zr78  1  0.80360480  0.59492942  0.25265106  1
  Zr  Zr79  1  0.49799519  0.31757183  0.37680284  1
  Ta  Ta80  1  0.21081041  -0.01256579  0.25478150  1
  Ta  Ta81  1  0.79378252  0.20751431  -0.01012322  1
  Ta  Ta82  1  0.20043648  0.39943067  0.75177286  1
  Ta  Ta83  1  0.41549947  0.00701064  0.24133320  1
  Ta  Ta84  1  0.90084315  0.49587469  0.37385329  1
  Ta  Ta85  1  0.67598729  0.69782656  0.62725797  1
  Ta  Ta86  1  0.42389359  0.40995126  0.24308345  1
  Ta  Ta87  1  0.79630536  -0.00876982  -0.01182551  1
  Ta  Ta88  1  0.88942868  0.69301473  0.87670867  1
  Ta  Ta89  1  -0.00329644  0.79781189  -0.01470530  1
  Ta  Ta90  1  0.67866505  0.69565497  0.87363194  1
  Ta  Ta91  1  0.30418016  0.49065878  0.12364067  1
  Ta  Ta92  1  0.00310639  0.60349698  0.75402666  1
  Ta  Ta93  1  0.48452623  0.30155930  0.10172882  1
  Ta  Ta94  1  0.12058005  0.90416327  0.11226900  1
  Ta  Ta95  1  0.90477465  0.90473961  0.38232942  1
  Ta  Ta96  1  0.00466280  0.40261717  0.75116430  1
  Ta  Ta97  1  0.89938311  0.10477462  0.10805036  1
  Ta  Ta98  1  0.10306400  0.10306735  0.11055401  1
  Ta  Ta99  1  0.61215625  0.41437233  0.76747543  1
  Ta  Ta100  1  0.38457502  0.60514559  0.75974884  1
  Ta  Ta101  1  0.90433329  0.50150208  0.12382528  1
  Ta  Ta102  1  0.39661531  0.59895400  0.25077798  1
  Ta  Ta103  1  0.41921175  0.42136707  0.51039455  1
  Ta  Ta104  1  0.21695083  0.21299879  0.00863379  1
  Ta  Ta105  1  0.10733879  0.71359666  0.37669271  1
  Ta  Ta106  1  0.58120653  0.58046814  0.24504209  1
  Ta  Ta107  1  0.79186570  0.80214508  -0.01509274  1
  Ta  Ta108  1  0.80065598  0.00246310  0.25623291  1
  Ta  Ta109  1  0.88441597  0.31054280  0.36213661  1
  Ta  Ta110  1  0.00357917  -0.00310441  0.49181482  1
  Ta  Ta111  1  0.69505992  0.09663035  0.88360277  1
  Ta  Ta112  1  0.91298120  0.30526191  0.88063217  1
  Ta  Ta113  1  0.29665820  0.70764629  0.37253114  1
  Ta  Ta114  1  0.21639969  0.41262177  -0.00391953  1
  Ta  Ta115  1  0.49528532  0.10046116  0.88634724  1
  Ta  Ta116  1  0.51651778  0.31740036  0.63153729  1
  Ta  Ta117  1  0.68611131  0.28433570  0.36739263  1
  Ta  Ta118  1  0.70288150  0.49437775  0.12687497  1
  Ta  Ta119  1  0.19126527  0.80371022  0.24640589  1
  Ti  Ti120  1  0.10515060  0.50656053  0.12699000  1
  Ti  Ti121  1  0.80457793  0.39546065  0.76764860  1
  Ti  Ti122  1  0.40643541  -0.00021221  0.51349085  1
  Ti  Ti123  1  0.69486878  0.89929916  0.13071661  1
  Ti  Ti124  1  0.00591240  -0.00200913  0.75881885  1
  Ti  Ti125  1  0.10302286  0.50118031  0.87440506  1
  Ti  Ti126  1  0.19309152  0.59406124  0.74858192  1
  Ti  Ti127  1  0.50894901  0.11609883  0.62376064  1
  Ti  Ti128  1  0.01115774  0.40731655  0.00217635  1
  Ti  Ti129  1  0.32489301  0.50314016  0.37675935  1
  Ti  Ti130  1  0.90806499  0.50491633  0.86725936  1
  Ti  Ti131  1  0.50118878  0.89904484  0.12230456  1
  Ti  Ti132  1  0.70848268  0.10039301  0.63244686  1
  Ti  Ti133  1  0.09800944  0.68716746  0.88683409  1
  Ti  Ti134  1  0.80844715  0.20123824  0.76729019  1
  Ti  Ti135  1  0.20219909  0.60470176  0.25176517  1
  Ti  Ti136  1  -0.00762066  0.59272624  -0.00512773  1
  Ti  Ti137  1  -0.00495250  0.41314555  0.24723277  1
  Ti  Ti138  1  0.10136469  0.88841040  0.62770585  1
  Ti  Ti139  1  0.09755484  0.51013314  0.62842932  1
  Ti  Ti140  1  0.09554086  0.08522205  0.37421172  1
  Ti  Ti141  1  0.29825386  0.10894031  0.88311337  1
  Ti  Ti142  1  0.59990777  0.80354902  0.00044948  1
  Ti  Ti143  1  0.80682646  0.00491187  0.49206346  1
  Ti  Ti144  1  0.30276020  0.10432194  0.62208073  1
  Ti  Ti145  1  0.11191209  0.10933449  0.89984846  1
  Ti  Ti146  1  0.37412318  0.80789848  0.50246381  1
  Ti  Ti147  1  0.39345893  0.21670297  0.24850232  1
  Ti  Ti148  1  0.48667510  0.68988330  0.64476254  1
  Ti  Ti149  1  0.00363543  0.60479822  0.24863701  1
  Ti  Ti150  1  0.10594095  0.91012699  0.88264501  1
  Ti  Ti151  1  0.02007610  0.79811611  0.50207699  1
  Ti  Ti152  1  0.79236046  0.59924474  -0.00802777  1
  Ti  Ti153  1  0.28964168  0.70701196  0.63484764  1
  Ti  Ti154  1  0.35477041  0.59081970  -0.01872333  1
  Ti  Ti155  1  0.60696993  0.39347633  0.50787363  1
  Ti  Ti156  1  0.60577264  -0.01046278  -0.00623026  1
  Ti  Ti157  1  0.30644190  0.50537292  0.63231673  1
  Ti  Ti158  1  0.40946963  0.01141508  0.74469554  1
  Ti  Ti159  1  0.58404127  0.57703248  0.51119276  1
  Mo  Mo160  1  0.67981617  0.48717125  0.63097304  1
  Mo  Mo161  1  0.89899458  0.09389017  0.37473556  1
  Mo  Mo162  1  0.69906538  0.89435009  0.87985971  1
  Mo  Mo163  1  0.49922185  0.50344124  0.63864583  1
  Mo  Mo164  1  0.71223130  0.51030921  0.87271821  1
  Mo  Mo165  1  0.31246781  0.31114042  0.37755994  1
  Mo  Mo166  1  0.60984536  0.21169701  0.51480100  1
  Mo  Mo167  1  0.09709140  0.89373014  0.37364449  1
  Mo  Mo168  1  0.60365029  0.19723132  -0.01641183  1
  Mo  Mo169  1  0.29756312  0.29712788  0.87241474  1
  Mo  Mo170  1  0.90389225  0.30029714  0.64486442  1
  Mo  Mo171  1  0.48404124  0.68969015  0.36989647  1
  Mo  Mo172  1  -0.00190575  0.60196685  0.50553036  1
  Mo  Mo173  1  0.90466917  0.89321530  0.87983708  1
  Mo  Mo174  1  0.28514106  0.49908054  0.86424620  1
  Mo  Mo175  1  0.20163261  0.79489848  0.50671282  1
  Mo  Mo176  1  0.31170469  0.30562198  0.12438911  1
  Mo  Mo177  1  0.20837218  0.20612788  0.75400105  1
  Mo  Mo178  1  0.00329313  0.21129902  0.00970408  1
  Mo  Mo179  1  0.59677815  0.39353604  0.23434481  1
  Mo  Mo180  1  0.49855552  0.29559888  0.88800506  1
  Mo  Mo181  1  0.59779475  -0.00668122  0.24261821  1
  Mo  Mo182  1  0.50616007  0.51021299  0.37531742  1
  Mo  Mo183  1  0.39233457  0.79516651  0.74502230  1
  Mo  Mo184  1  0.09774983  0.69920897  0.63228994  1
  Mo  Mo185  1  0.28690585  0.69159767  0.87031232  1
  Mo  Mo186  1  0.39698119  0.20050725  -0.01143535  1
  Mo  Mo187  1  0.40240682  0.79944983  0.00296412  1
  Mo  Mo188  1  0.29483439  0.89391498  0.36951591  1
  Mo  Mo189  1  0.17958671  0.58955152  -0.00102313  1
  Mo  Mo190  1  0.58616881  0.59802919  0.74980335  1
  Mo  Mo191  1  0.80400214  0.39822838  0.24324614  1
  Mo  Mo192  1  0.70273932  0.89237323  0.61763121  1
  Mo  Mo193  1  0.59927872  0.78378653  0.74694993  1
  Mo  Mo194  1  0.39096046  0.39391773  -0.01828723  1
  Mo  Mo195  1  0.20367786  0.00495720  -0.00664177  1
  Mo  Mo196  1  0.61830980  0.60017907  -0.00057046  1
  Mo  Mo197  1  0.30245858  0.90263192  0.12705961  1
  Mo  Mo198  1  0.71342952  0.29661515  0.86409609  1
  Mo  Mo199  1  0.70159418  0.09598736  0.36992678  1
