# generated using pymatgen
data_HfZrTaTiMo
_symmetry_space_group_name_H-M   'P 1'
_cell_length_a   15.19918137
_cell_length_b   15.18904081
_cell_length_c   16.80706573
_cell_angle_alpha   89.95223413
_cell_angle_beta   89.98686117
_cell_angle_gamma   90.06160409
_symmetry_Int_Tables_number   1
_chemical_formula_structural   HfZrTaTiMo
_chemical_formula_sum   'Hf40 Zr40 Ta40 Ti40 Mo40'
_cell_volume   3880.09207319
_cell_formula_units_Z   40
loop_
 _symmetry_equiv_pos_site_id
 _symmetry_equiv_pos_as_xyz
  1  'x, y, z'
loop_
 _atom_site_type_symbol
 _atom_site_label
 _atom_site_symmetry_multiplicity
 _atom_site_fract_x
 _atom_site_fract_y
 _atom_site_fract_z
 _atom_site_occupancy
  Hf  Hf0  1  0.30322722  0.50894426  0.62740346  1
  Hf  Hf1  1  0.80620612  0.80039467  0.23275219  1
  Hf  Hf2  1  0.50772302  0.30691162  0.87198895  1
  Hf  Hf3  1  0.38391711  0.60761837  -0.00106619  1
  Hf  Hf4  1  0.80707433  0.19680125  0.01060774  1
  Hf  Hf5  1  0.19078438  0.00398503  0.50083469  1
  Hf  Hf6  1  0.69171445  0.10009432  0.62343292  1
  Hf  Hf7  1  0.29611668  0.30433555  0.11964194  1
  Hf  Hf8  1  0.09172140  0.29091513  0.11726946  1
  Hf  Hf9  1  0.58739507  0.79415105  0.75521778  1
  Hf  Hf10  1  0.19564428  0.61758943  0.73767260  1
  Hf  Hf11  1  0.71656664  0.29104886  0.61930909  1
  Hf  Hf12  1  0.92210918  0.30314644  0.61483125  1
  Hf  Hf13  1  0.59152610  0.60587829  0.23617198  1
  Hf  Hf14  1  0.39415416  0.20836018  0.50958829  1
  Hf  Hf15  1  0.90024697  0.89926866  0.37365348  1
  Hf  Hf16  1  0.81930636  0.41473353  0.50883767  1
  Hf  Hf17  1  0.49227396  0.88538121  0.61473883  1
  Hf  Hf18  1  0.21395408  0.38788094  0.51403629  1
  Hf  Hf19  1  0.40212355  0.41618285  0.24380038  1
  Hf  Hf20  1  0.58377289  0.61281381  0.48855983  1
  Hf  Hf21  1  0.70237860  0.51486190  0.36803477  1
  Hf  Hf22  1  0.90949836  0.08826534  0.12933205  1
  Hf  Hf23  1  0.40475908  0.20186808  -0.00478383  1
  Hf  Hf24  1  0.30435158  0.08527537  0.87210863  1
  Hf  Hf25  1  -0.01305592  0.58760833  0.50189115  1
  Hf  Hf26  1  0.58470131  0.58143912  0.01690074  1
  Hf  Hf27  1  0.70576959  0.29674200  0.88055534  1
  Hf  Hf28  1  0.82708218  0.81269369  0.01996625  1
  Hf  Hf29  1  0.80005442  0.59435663  0.22543458  1
  Hf  Hf30  1  0.60989718  0.40481850  0.74522039  1
  Hf  Hf31  1  0.89733774  0.29986015  0.88148156  1
  Hf  Hf32  1  0.38292532  0.81061555  0.00308857  1
  Hf  Hf33  1  0.29515774  0.51543440  0.86724866  1
  Hf  Hf34  1  0.09620467  0.48339626  0.38776645  1
  Hf  Hf35  1  0.69516334  0.09558451  0.87485622  1
  Hf  Hf36  1  0.59955769  0.19412260  0.26547559  1
  Hf  Hf37  1  0.79011330  0.80327756  0.49869882  1
  Hf  Hf38  1  0.50282683  0.29956614  0.12510955  1
  Hf  Hf39  1  0.49007293  0.91712619  0.88342061  1
  Zr  Zr40  1  0.39982170  0.81274851  0.25584696  1
  Zr  Zr41  1  0.69316524  0.09550504  0.13122551  1
  Zr  Zr42  1  0.89743848  0.50430610  0.89443952  1
  Zr  Zr43  1  0.50063090  0.31038278  0.37818175  1
  Zr  Zr44  1  0.30592125  0.09560491  0.12099972  1
  Zr  Zr45  1  0.30218139  0.30314960  0.87114154  1
  Zr  Zr46  1  -0.00533858  0.19544448  0.76053668  1
  Zr  Zr47  1  0.70216836  0.89533637  0.87793653  1
  Zr  Zr48  1  0.20217726  -0.00863599  0.26103084  1
  Zr  Zr49  1  0.81462259  0.21024325  0.24814593  1
  Zr  Zr50  1  0.18819382  0.41881408  -0.00974028  1
  Zr  Zr51  1  0.27936887  0.71467699  0.13476239  1
  Zr  Zr52  1  0.80364485  0.00361533  0.75300894  1
  Zr  Zr53  1  0.69358057  0.48938018  0.89680401  1
  Zr  Zr54  1  0.19379532  0.19333910  -0.01327200  1
  Zr  Zr55  1  0.71287417  0.69706986  0.90239403  1
  Zr  Zr56  1  0.28533870  0.51444045  0.12605951  1
  Zr  Zr57  1  0.60765388  0.40835460  0.50267697  1
  Zr  Zr58  1  0.72222303  0.30944920  0.37813965  1
  Zr  Zr59  1  0.27430022  0.89000204  0.86619050  1
  Zr  Zr60  1  0.69829317  0.90096561  0.62502724  1
  Zr  Zr61  1  -0.00764985  0.38677253  0.24410276  1
  Zr  Zr62  1  0.49978196  0.91491747  0.12137892  1
  Zr  Zr63  1  0.91897983  0.70908433  0.87916671  1
  Zr  Zr64  1  0.50729019  0.29658838  0.62544779  1
  Zr  Zr65  1  0.50471055  0.52507356  0.62844637  1
  Zr  Zr66  1  0.50047210  0.70569145  0.88968793  1
  Zr  Zr67  1  0.19442070  0.39923289  0.74901239  1
  Zr  Zr68  1  0.30302310  0.89800321  0.38846794  1
  Zr  Zr69  1  0.02359838  0.79940340  0.72914632  1
  Zr  Zr70  1  0.88962024  0.68967182  0.36971575  1
  Zr  Zr71  1  0.10510200  0.08108003  0.12071525  1
  Zr  Zr72  1  0.00440514  0.79383929  0.50476526  1
  Zr  Zr73  1  0.88811976  0.69488075  0.62847332  1
  Zr  Zr74  1  0.88912843  0.11072506  0.61729208  1
  Zr  Zr75  1  0.59842789  -0.00347247  0.47933335  1
  Zr  Zr76  1  0.29985607  0.31339636  0.37420437  1
  Zr  Zr77  1  0.19099165  0.40126187  0.25114574  1
  Zr  Zr78  1  0.61061701  0.40742310  0.23797419  1
  Zr  Zr79  1  0.79427060  0.60334027  0.75884545  1
  Ta  Ta80  1  0.49335290  0.70741439  0.12329759  1
  Ta  Ta81  1  0.70972495  0.51117352  0.62836254  1
  Ta  Ta82  1  0.60789513  0.19089263  0.48423266  1
  Ta  Ta83  1  0.19761493  0.19596815  0.25134657  1
  Ta  Ta84  1  0.39250203  -0.00486132  0.73754276  1
  Ta  Ta85  1  0.09154885  0.09287157  0.62751725  1
  Ta  Ta86  1  0.89275911  0.48567738  0.36807180  1
  Ta  Ta87  1  0.78427657  0.60658054  0.49965799  1
  Ta  Ta88  1  0.29239231  0.10412829  0.62930468  1
  Ta  Ta89  1  0.09934737  0.87933275  0.13207527  1
  Ta  Ta90  1  0.00383170  0.59160989  0.74677902  1
  Ta  Ta91  1  0.92175114  0.29134457  0.39393336  1
  Ta  Ta92  1  0.19692521  0.18642796  0.75615257  1
  Ta  Ta93  1  0.59482045  -0.00384045  0.26916399  1
  Ta  Ta94  1  0.81118194  0.39761955  0.74461484  1
  Ta  Ta95  1  0.80041575  0.00402611  0.25956454  1
  Ta  Ta96  1  0.09863651  0.07051292  0.87557574  1
  Ta  Ta97  1  0.08352843  0.51775368  0.12398883  1
  Ta  Ta98  1  0.40513325  0.62353420  0.75765924  1
  Ta  Ta99  1  0.41324498  0.41657182  -0.00079391  1
  Ta  Ta100  1  0.11281956  0.28167992  0.62371041  1
  Ta  Ta101  1  0.59754214  0.79559048  0.47847793  1
  Ta  Ta102  1  0.40595431  0.41002811  0.74851731  1
  Ta  Ta103  1  0.49923214  0.09837754  0.12610812  1
  Ta  Ta104  1  -0.00609698  0.00692696  0.49016909  1
  Ta  Ta105  1  0.39623264  0.20014496  0.25306341  1
  Ta  Ta106  1  0.20121128  0.78824982  0.50682718  1
  Ta  Ta107  1  0.29331498  0.11355642  0.38082301  1
  Ta  Ta108  1  0.39970616  0.00685542  0.49707603  1
  Ta  Ta109  1  0.80254181  -0.00317074  0.00234775  1
  Ta  Ta110  1  0.08779413  0.48948008  0.61745344  1
  Ta  Ta111  1  0.69814002  0.70472262  0.11081771  1
  Ta  Ta112  1  0.00124406  0.40447841  0.75459398  1
  Ta  Ta113  1  -0.00023303  -0.02449778  -0.00106486  1
  Ta  Ta114  1  0.40146658  0.19706956  0.74431335  1
  Ta  Ta115  1  0.92866250  0.68883292  0.12020509  1
  Ta  Ta116  1  0.67732259  0.69947329  0.62581149  1
  Ta  Ta117  1  0.01063057  0.78640981  0.25583707  1
  Ta  Ta118  1  0.90379755  0.91181201  0.61508633  1
  Ta  Ta119  1  0.59936907  0.19256734  0.00088377  1
  Ti  Ti120  1  0.00276802  -0.00853919  0.25988019  1
  Ti  Ti121  1  0.18764228  -0.01498483  0.73532505  1
  Ti  Ti122  1  0.02566549  0.78820169  0.00347584  1
  Ti  Ti123  1  0.09403917  0.30132242  0.87745188  1
  Ti  Ti124  1  0.18712522  0.60434040  0.26838631  1
  Ti  Ti125  1  0.29805019  0.89979034  0.61608760  1
  Ti  Ti126  1  0.58726967  -0.00078030  0.74722465  1
  Ti  Ti127  1  0.49753693  0.09414449  0.62279922  1
  Ti  Ti128  1  0.31938483  0.70755950  0.61875735  1
  Ti  Ti129  1  0.59867369  0.59951844  0.76374027  1
  Ti  Ti130  1  0.18412953  0.62244998  -0.00749697  1
  Ti  Ti131  1  0.19384123  0.78895592  0.27235260  1
  Ti  Ti132  1  0.40837528  0.77983637  0.48324903  1
  Ti  Ti133  1  0.91101855  0.90051298  0.87033934  1
  Ti  Ti134  1  -0.00630391  0.39935402  0.00598780  1
  Ti  Ti135  1  0.40648930  0.01397994  0.26789695  1
  Ti  Ti136  1  0.80857409  0.40274177  0.22388653  1
  Ti  Ti137  1  0.19805677  0.60334591  0.50252850  1
  Ti  Ti138  1  0.59948047  0.79998379  0.25307099  1
  Ti  Ti139  1  0.70307832  0.89278905  0.36413547  1
  Ti  Ti140  1  0.29038470  0.91205379  0.12057668  1
  Ti  Ti141  1  0.60300265  0.19537535  0.74962438  1
  Ti  Ti142  1  0.30137951  0.51200895  0.38427578  1
  Ti  Ti143  1  0.79560715  0.01597811  0.48011437  1
  Ti  Ti144  1  0.40814718  0.41624875  0.50745887  1
  Ti  Ti145  1  0.49991661  0.10151198  0.87264755  1
  Ti  Ti146  1  0.39182092  0.61394076  0.25505336  1
  Ti  Ti147  1  0.00017858  0.18536556  -0.00772328  1
  Ti  Ti148  1  0.89828373  0.09237924  0.87854967  1
  Ti  Ti149  1  0.70096805  0.90830767  0.12927006  1
  Ti  Ti150  1  0.00054737  0.59132418  0.25850544  1
  Ti  Ti151  1  0.09756579  0.89084360  0.38251131  1
  Ti  Ti152  1  0.80177424  0.80369293  0.74541126  1
  Ti  Ti153  1  0.70170104  0.30259459  0.11558686  1
  Ti  Ti154  1  0.49008440  0.51112589  0.37306508  1
  Ti  Ti155  1  0.11025779  0.27466012  0.39248529  1
  Ti  Ti156  1  0.00018487  -0.00644602  0.74484544  1
  Ti  Ti157  1  0.11958420  0.71388784  0.86648430  1
  Ti  Ti158  1  0.60212466  0.81226422  0.00862322  1
  Ti  Ti159  1  0.00938774  0.18747568  0.25943654  1
  Mo  Mo160  1  0.10136042  0.69203780  0.38191149  1
  Mo  Mo161  1  0.59212423  0.38680739  0.00974777  1
  Mo  Mo162  1  0.09948445  0.90454358  0.61138217  1
  Mo  Mo163  1  0.01339786  0.39401120  0.50023552  1
  Mo  Mo164  1  0.21357045  0.80463794  0.72258673  1
  Mo  Mo165  1  0.80059966  0.39671501  0.02035573  1
  Mo  Mo166  1  0.19343415  -0.01860306  0.00118924  1
  Mo  Mo167  1  0.49625244  0.70547833  0.62391493  1
  Mo  Mo168  1  0.69823896  0.49583973  0.11204943  1
  Mo  Mo169  1  0.70596405  0.09886080  0.36782349  1
  Mo  Mo170  1  0.38886343  0.60365283  0.49226313  1
  Mo  Mo171  1  0.29677409  0.70627271  0.87062774  1
  Mo  Mo172  1  0.48844457  0.10463195  0.37831668  1
  Mo  Mo173  1  0.90287025  0.49766675  0.10965417  1
  Mo  Mo174  1  0.60438714  0.00456016  0.00205328  1
  Mo  Mo175  1  0.49964777  0.89891626  0.37656850  1
  Mo  Mo176  1  0.49338868  0.49807810  0.86790045  1
  Mo  Mo177  1  0.90605052  0.29057154  0.11562828  1
  Mo  Mo178  1  0.39740793  0.00637820  -0.00129889  1
  Mo  Mo179  1  0.69754906  0.70600623  0.36334071  1
  Mo  Mo180  1  0.89986009  0.49917898  0.63363054  1
  Mo  Mo181  1  0.30432278  0.29628210  0.64390005  1
  Mo  Mo182  1  0.10544561  0.69180563  0.13678361  1
  Mo  Mo183  1  0.08520474  0.89206955  0.86878067  1
  Mo  Mo184  1  0.79533259  0.20879009  0.75343026  1
  Mo  Mo185  1  0.48349091  0.50592374  0.13106036  1
  Mo  Mo186  1  0.19115692  0.80557335  0.00192236  1
  Mo  Mo187  1  0.09066096  0.51271272  0.87219249  1
  Mo  Mo188  1  0.80348719  0.19782825  0.48859016  1
  Mo  Mo189  1  0.20547369  0.19251456  0.50871493  1
  Mo  Mo190  1  0.01397654  0.59976865  -0.00778924  1
  Mo  Mo191  1  0.39199949  0.80500505  0.74662419  1
  Mo  Mo192  1  0.10972409  0.68751135  0.61399871  1
  Mo  Mo193  1  0.49664194  0.69967305  0.35911680  1
  Mo  Mo194  1  0.80492579  0.60445939  0.02216188  1
  Mo  Mo195  1  0.09933128  0.09555244  0.37081357  1
  Mo  Mo196  1  0.91460583  0.90122633  0.13625470  1
  Mo  Mo197  1  0.01521881  0.18714684  0.49882193  1
  Mo  Mo198  1  0.90556232  0.10186924  0.37000098  1
  Mo  Mo199  1  0.29486161  0.69115054  0.37980823  1
