# generated using pymatgen
data_HfZrTaTiMo
_symmetry_space_group_name_H-M   'P 1'
_cell_length_a   15.19643144
_cell_length_b   15.21352487
_cell_length_c   16.85507272
_cell_angle_alpha   90.05973515
_cell_angle_beta   90.00828724
_cell_angle_gamma   89.98715838
_symmetry_Int_Tables_number   1
_chemical_formula_structural   HfZrTaTiMo
_chemical_formula_sum   'Hf40 Zr40 Ta40 Ti40 Mo40'
_cell_volume   3896.74370917
_cell_formula_units_Z   40
loop_
 _symmetry_equiv_pos_site_id
 _symmetry_equiv_pos_as_xyz
  1  'x, y, z'
loop_
 _atom_site_type_symbol
 _atom_site_label
 _atom_site_symmetry_multiplicity
 _atom_site_fract_x
 _atom_site_fract_y
 _atom_site_fract_z
 _atom_site_occupancy
  Hf  Hf0  1  0.07584713  0.49773587  0.12904283  1
  Hf  Hf1  1  0.30362004  0.69259511  0.63295807  1
  Hf  Hf2  1  0.69915452  0.29341073  0.87925601  1
  Hf  Hf3  1  0.71322640  0.51133550  0.12672400  1
  Hf  Hf4  1  0.48880982  0.51936969  0.62253311  1
  Hf  Hf5  1  0.80716499  0.00607741  0.01454144  1
  Hf  Hf6  1  0.59964379  0.39977028  0.24577523  1
  Hf  Hf7  1  0.41529113  0.80849015  0.75802370  1
  Hf  Hf8  1  0.10003099  0.69321366  0.87521499  1
  Hf  Hf9  1  0.20519045  0.18764901  0.76020240  1
  Hf  Hf10  1  0.20766714  0.19690731  0.50070882  1
  Hf  Hf11  1  0.10689809  0.29915438  0.37128563  1
  Hf  Hf12  1  0.89877721  0.89212469  0.62131555  1
  Hf  Hf13  1  0.20019186  0.58492711  0.74789074  1
  Hf  Hf14  1  0.50560649  0.90891147  0.13035607  1
  Hf  Hf15  1  0.00381314  -0.00897810  0.75349393  1
  Hf  Hf16  1  0.38897389  0.61552408  0.01096021  1
  Hf  Hf17  1  0.20204673  0.79709444  0.00563156  1
  Hf  Hf18  1  0.39920964  0.39748395  0.24970384  1
  Hf  Hf19  1  0.88524330  0.51526833  0.61485117  1
  Hf  Hf20  1  0.89553241  0.29254391  0.87046791  1
  Hf  Hf21  1  0.20037005  0.38733504  0.00126167  1
  Hf  Hf22  1  0.70396854  0.89958142  0.12305385  1
  Hf  Hf23  1  0.90681776  0.09785290  0.36251311  1
  Hf  Hf24  1  0.59514368  0.20110579  0.75038509  1
  Hf  Hf25  1  0.00490282  0.39443838  -0.00783111  1
  Hf  Hf26  1  0.41332892  0.79397373  0.25817585  1
  Hf  Hf27  1  0.90556213  0.30202548  0.36635933  1
  Hf  Hf28  1  0.38657637  0.41867692  0.74912892  1
  Hf  Hf29  1  0.60518018  0.61759465  0.74739151  1
  Hf  Hf30  1  0.80854204  -0.00865171  0.24775604  1
  Hf  Hf31  1  0.79147966  0.40712792  0.49650515  1
  Hf  Hf32  1  0.08092479  0.51104116  0.38801005  1
  Hf  Hf33  1  0.69526952  0.28921966  0.36506150  1
  Hf  Hf34  1  -0.00186287  0.79368716  0.75158970  1
  Hf  Hf35  1  0.20387236  0.18747766  0.00981370  1
  Hf  Hf36  1  -0.00911607  0.59044927  0.75287547  1
  Hf  Hf37  1  0.80953332  0.40424054  0.00495506  1
  Hf  Hf38  1  0.80734619  0.77988622  0.25463143  1
  Hf  Hf39  1  0.20395122  -0.00846100  0.49451553  1
  Zr  Zr40  1  0.39686629  0.00903024  0.49141545  1
  Zr  Zr41  1  0.50178981  0.50484362  0.12151151  1
  Zr  Zr42  1  0.69147447  0.70813305  0.11513570  1
  Zr  Zr43  1  0.19837750  0.79315179  0.25091294  1
  Zr  Zr44  1  0.00262053  0.19241891  0.01492458  1
  Zr  Zr45  1  0.79711863  0.19785970  0.49553450  1
  Zr  Zr46  1  0.10749877  0.08922823  0.62523443  1
  Zr  Zr47  1  0.49400140  0.30560613  0.63009931  1
  Zr  Zr48  1  0.38519804  0.60662840  0.48475207  1
  Zr  Zr49  1  0.70444483  0.29804558  0.63069420  1
  Zr  Zr50  1  0.39507357  0.80747263  -0.00720868  1
  Zr  Zr51  1  0.59374596  0.39895641  0.50016379  1
  Zr  Zr52  1  0.38605950  0.60650318  0.25523616  1
  Zr  Zr53  1  0.59145465  0.62414163  0.25494574  1
  Zr  Zr54  1  0.69219879  0.71537186  0.88575602  1
  Zr  Zr55  1  0.17897890  0.60265892  0.25526999  1
  Zr  Zr56  1  0.51446404  0.10836064  0.37502181  1
  Zr  Zr57  1  0.49338822  0.52130046  0.87721557  1
  Zr  Zr58  1  0.79700681  0.41616269  0.74934628  1
  Zr  Zr59  1  0.70400575  0.51019480  0.88568620  1
  Zr  Zr60  1  0.40775733  0.81234944  0.48670579  1
  Zr  Zr61  1  0.51678937  0.72765408  0.61656439  1
  Zr  Zr62  1  0.18482668  0.59587984  0.00011707  1
  Zr  Zr63  1  0.61104989  -0.00156169  0.74036884  1
  Zr  Zr64  1  0.49042962  0.09869298  0.62752523  1
  Zr  Zr65  1  0.28837894  0.50058674  0.12701136  1
  Zr  Zr66  1  0.10007274  0.09818296  0.36962409  1
  Zr  Zr67  1  0.49821788  0.31162838  0.87231937  1
  Zr  Zr68  1  0.00092218  0.19625118  0.74932775  1
  Zr  Zr69  1  0.00722470  0.40052692  0.74496397  1
  Zr  Zr70  1  0.29873802  0.29720613  0.63359370  1
  Zr  Zr71  1  0.89591419  0.08817127  0.88188437  1
  Zr  Zr72  1  0.20450944  0.78603376  0.48822674  1
  Zr  Zr73  1  0.88432649  0.68951531  0.88259162  1
  Zr  Zr74  1  0.89188564  0.09282325  0.62380000  1
  Zr  Zr75  1  0.40737888  0.20025849  -0.00127133  1
  Zr  Zr76  1  0.18365708  0.00098290  0.23391092  1
  Zr  Zr77  1  0.70822752  0.92175562  0.88006425  1
  Zr  Zr78  1  0.79632108  -0.00327564  0.48836836  1
  Zr  Zr79  1  -0.00303153  0.39385539  0.50916188  1
  Ta  Ta80  1  0.10975308  0.08479053  0.88269548  1
  Ta  Ta81  1  0.30911427  0.69367803  0.86192295  1
  Ta  Ta82  1  0.40634978  0.00416321  0.00363413  1
  Ta  Ta83  1  0.49523529  0.30256398  0.37735270  1
  Ta  Ta84  1  0.69601607  0.09983162  0.13189094  1
  Ta  Ta85  1  0.49854930  0.50136285  0.37723646  1
  Ta  Ta86  1  0.20881766  -0.00834227  0.01384069  1
  Ta  Ta87  1  0.60446920  0.19261539  0.00966704  1
  Ta  Ta88  1  0.30348419  0.10969048  0.35806937  1
  Ta  Ta89  1  0.28631934  0.49378033  0.37509430  1
  Ta  Ta90  1  0.40050880  0.20915327  0.49485660  1
  Ta  Ta91  1  0.00087493  0.19505399  0.50383622  1
  Ta  Ta92  1  0.20777760  0.20446062  0.23456026  1
  Ta  Ta93  1  0.80240144  0.20299864  0.23534069  1
  Ta  Ta94  1  0.31519865  0.09400244  0.13243893  1
  Ta  Ta95  1  -0.02985066  0.60480376  0.25675022  1
  Ta  Ta96  1  0.90370992  0.88978899  0.88457387  1
  Ta  Ta97  1  0.78686139  0.16796665  0.75124730  1
  Ta  Ta98  1  0.80127255  0.20314854  0.02150832  1
  Ta  Ta99  1  0.29189760  0.49718642  0.88146887  1
  Ta  Ta100  1  0.60712509  0.60561257  0.49208761  1
  Ta  Ta101  1  0.70216579  0.50482130  0.36658201  1
  Ta  Ta102  1  0.80253401  0.78972712  0.49066577  1
  Ta  Ta103  1  0.08012486  0.70171492  0.12170572  1
  Ta  Ta104  1  0.10772976  0.89923464  0.87993024  1
  Ta  Ta105  1  0.69979617  0.89902617  0.37003530  1
  Ta  Ta106  1  0.58884618  0.81642727  -0.00396251  1
  Ta  Ta107  1  0.29964877  0.90864055  0.35892515  1
  Ta  Ta108  1  0.30891726  0.90630095  0.63505825  1
  Ta  Ta109  1  0.69280702  0.88274943  0.62128848  1
  Ta  Ta110  1  0.60372331  0.00465518  0.25378935  1
  Ta  Ta111  1  0.30583646  0.89555052  0.13507980  1
  Ta  Ta112  1  0.20631762  0.40447365  0.50230484  1
  Ta  Ta113  1  0.30320612  0.29997630  0.37068784  1
  Ta  Ta114  1  0.20233582  0.80260458  0.75259303  1
  Ta  Ta115  1  0.10840151  0.88835234  0.62502724  1
  Ta  Ta116  1  0.30977336  0.29893939  0.12647230  1
  Ta  Ta117  1  0.49916515  0.91527933  0.87560247  1
  Ta  Ta118  1  0.60140054  -0.00838574  0.50538786  1
  Ta  Ta119  1  0.89049944  0.68125600  0.11186858  1
  Ti  Ti120  1  0.90914877  0.31066828  0.13532806  1
  Ti  Ti121  1  0.81025871  0.41198925  0.24993551  1
  Ti  Ti122  1  0.00316062  -0.00551444  0.50043065  1
  Ti  Ti123  1  0.71516605  0.68803033  0.61605800  1
  Ti  Ti124  1  0.10331565  0.50752579  0.61006578  1
  Ti  Ti125  1  0.19298058  0.39605327  0.75595151  1
  Ti  Ti126  1  0.10334107  0.29624763  0.62361288  1
  Ti  Ti127  1  0.70141394  0.30374435  0.12714416  1
  Ti  Ti128  1  0.59682378  0.39355073  0.01022275  1
  Ti  Ti129  1  0.19465603  0.39629229  0.24662831  1
  Ti  Ti130  1  0.30423046  0.09521424  0.64015974  1
  Ti  Ti131  1  0.59652987  0.20216661  0.23539232  1
  Ti  Ti132  1  0.09365660  0.89929753  0.37189141  1
  Ti  Ti133  1  0.01353789  0.19690913  0.23322417  1
  Ti  Ti134  1  0.39260747  0.40306654  0.49811339  1
  Ti  Ti135  1  0.89910835  0.29430215  0.63045388  1
  Ti  Ti136  1  0.78973699  0.79792210  0.74745988  1
  Ti  Ti137  1  0.09724495  0.69604442  0.62080304  1
  Ti  Ti138  1  0.01484977  -0.01211033  0.01081458  1
  Ti  Ti139  1  -0.00073018  0.79228729  -0.00165518  1
  Ti  Ti140  1  0.00234214  0.79711933  0.24983592  1
  Ti  Ti141  1  0.90883888  0.88910509  0.37375227  1
  Ti  Ti142  1  -0.00098724  0.40624142  0.25458772  1
  Ti  Ti143  1  0.50989496  0.10059445  0.87312936  1
  Ti  Ti144  1  0.40584814  0.00626561  0.25368179  1
  Ti  Ti145  1  0.10455191  0.29019614  0.87435699  1
  Ti  Ti146  1  0.60321977  0.19161527  0.50544727  1
  Ti  Ti147  1  0.41114899  0.20409504  0.24275645  1
  Ti  Ti148  1  0.91332077  0.08875513  0.13691724  1
  Ti  Ti149  1  0.40089176  0.40273450  0.00253662  1
  Ti  Ti150  1  0.90146683  0.70111610  0.61802475  1
  Ti  Ti151  1  0.58609996  0.61523476  0.00327246  1
  Ti  Ti152  1  0.69967440  0.70330663  0.37783421  1
  Ti  Ti153  1  0.30837448  0.07877508  0.87188797  1
  Ti  Ti154  1  0.51304275  0.89713981  0.36887822  1
  Ti  Ti155  1  0.00435515  0.79762945  0.49490526  1
  Ti  Ti156  1  -0.01701753  0.58188113  -0.01138366  1
  Ti  Ti157  1  0.30272846  0.29532101  0.87224774  1
  Ti  Ti158  1  0.91209812  0.87989201  0.12159505  1
  Ti  Ti159  1  0.59937247  0.41423659  0.74408160  1
  Mo  Mo160  1  0.50268374  0.10250997  0.13176429  1
  Mo  Mo161  1  0.70135150  0.10898409  0.88604707  1
  Mo  Mo162  1  0.79925234  0.61263440  0.74189955  1
  Mo  Mo163  1  0.51090237  0.70252929  0.38420016  1
  Mo  Mo164  1  0.79540525  0.59824079  0.26004651  1
  Mo  Mo165  1  -0.00459516  -0.01626651  0.24423301  1
  Mo  Mo166  1  0.80801283  0.80715682  0.00539824  1
  Mo  Mo167  1  0.19062499  0.59556982  0.50015698  1
  Mo  Mo168  1  0.50161014  0.71047864  0.87561294  1
  Mo  Mo169  1  0.29466873  0.70888939  0.12736519  1
  Mo  Mo170  1  0.49934974  0.90494776  0.62285450  1
  Mo  Mo171  1  0.89989261  0.49492529  0.87261078  1
  Mo  Mo172  1  0.10417207  0.30170530  0.13742297  1
  Mo  Mo173  1  0.39685347  0.19823970  0.76856274  1
  Mo  Mo174  1  0.39673155  0.60773597  0.75063815  1
  Mo  Mo175  1  0.90081470  0.49914383  0.12821712  1
  Mo  Mo176  1  0.29261014  0.90667567  0.87203356  1
  Mo  Mo177  1  0.39949348  0.00648222  0.75658136  1
  Mo  Mo178  1  0.49546035  0.71584310  0.12040340  1
  Mo  Mo179  1  0.89037367  0.50042764  0.38134734  1
  Mo  Mo180  1  0.10297944  0.09479669  0.12310139  1
  Mo  Mo181  1  0.10184424  0.48775862  0.87445432  1
  Mo  Mo182  1  0.69808042  0.08966740  0.62066382  1
  Mo  Mo183  1  0.60987048  0.80857122  0.75323233  1
  Mo  Mo184  1  0.29434087  0.69852726  0.37534566  1
  Mo  Mo185  1  0.20351167  -0.01302769  0.75346146  1
  Mo  Mo186  1  0.59297505  0.01185781  -0.00004118  1
  Mo  Mo187  1  -0.00437469  0.61469058  0.50456125  1
  Mo  Mo188  1  0.09223255  0.89013023  0.11755347  1
  Mo  Mo189  1  0.61451593  0.80671711  0.49085838  1
  Mo  Mo190  1  0.80570600  -0.01658891  0.74962430  1
  Mo  Mo191  1  0.08375436  0.70907521  0.37652351  1
  Mo  Mo192  1  0.29108600  0.49792359  0.61776275  1
  Mo  Mo193  1  0.50480039  0.30143567  0.11886974  1
  Mo  Mo194  1  0.69033267  0.51438447  0.62212503  1
  Mo  Mo195  1  0.79650532  0.60325472  0.48691746  1
  Mo  Mo196  1  0.90689789  0.69701208  0.38374552  1
  Mo  Mo197  1  0.70378117  0.10028071  0.35389001  1
  Mo  Mo198  1  0.79541548  0.59806119  0.00059644  1
  Mo  Mo199  1  0.60756667  0.81122681  0.25626867  1
