# generated using pymatgen
data_HfZrTaTiMo
_symmetry_space_group_name_H-M   'P 1'
_cell_length_a   15.19975028
_cell_length_b   15.20349874
_cell_length_c   16.83474235
_cell_angle_alpha   89.96426785
_cell_angle_beta   89.96223577
_cell_angle_gamma   90.01162538
_symmetry_Int_Tables_number   1
_chemical_formula_structural   HfZrTaTiMo
_chemical_formula_sum   'Hf40 Zr40 Ta40 Ti40 Mo40'
_cell_volume   3890.32856083
_cell_formula_units_Z   40
loop_
 _symmetry_equiv_pos_site_id
 _symmetry_equiv_pos_as_xyz
  1  'x, y, z'
loop_
 _atom_site_type_symbol
 _atom_site_label
 _atom_site_symmetry_multiplicity
 _atom_site_fract_x
 _atom_site_fract_y
 _atom_site_fract_z
 _atom_site_occupancy
  Hf  Hf0  1  0.30457580  0.29962201  0.35606626  1
  Hf  Hf1  1  0.40619931  0.39290563  0.50271535  1
  Hf  Hf2  1  0.50657267  0.29521060  0.88694890  1
  Hf  Hf3  1  0.59854840  0.38978527  0.74094562  1
  Hf  Hf4  1  0.51100932  0.30313630  0.11250529  1
  Hf  Hf5  1  0.09859288  0.51495954  0.13578394  1
  Hf  Hf6  1  0.39640612  0.79106411  0.74703967  1
  Hf  Hf7  1  0.29326706  0.89678697  0.87515567  1
  Hf  Hf8  1  0.39144006  0.58808529  0.00279763  1
  Hf  Hf9  1  0.88938510  0.90822541  0.38168591  1
  Hf  Hf10  1  0.20355064  0.19545433  0.23910070  1
  Hf  Hf11  1  0.49412854  0.09329316  0.36983154  1
  Hf  Hf12  1  0.90563675  0.49251467  0.86725999  1
  Hf  Hf13  1  0.70099786  0.30186356  0.38118962  1
  Hf  Hf14  1  0.20887473  0.18655186  0.01147673  1
  Hf  Hf15  1  0.10023982  0.69436639  0.61106424  1
  Hf  Hf16  1  0.90097783  0.29068568  0.88092139  1
  Hf  Hf17  1  0.80760544  0.59920106  0.26938431  1
  Hf  Hf18  1  0.90522798  0.30964770  0.11218346  1
  Hf  Hf19  1  0.38895109  -0.00381929  0.00734905  1
  Hf  Hf20  1  0.28285027  0.10957487  0.61893035  1
  Hf  Hf21  1  0.70005313  0.09174533  0.12796257  1
  Hf  Hf22  1  0.59651482  0.20106909  0.51249628  1
  Hf  Hf23  1  -0.00328075  0.80139021  0.25795332  1
  Hf  Hf24  1  0.20398783  0.01771941  0.75289221  1
  Hf  Hf25  1  0.79301349  0.79979742  -0.02300720  1
  Hf  Hf26  1  0.07961108  0.11180430  0.60911048  1
  Hf  Hf27  1  0.59736386  0.00391633  0.50658822  1
  Hf  Hf28  1  0.70862382  0.29482611  0.11701722  1
  Hf  Hf29  1  0.70102862  0.71230079  0.12168516  1
  Hf  Hf30  1  0.69468987  0.49442128  0.86781798  1
  Hf  Hf31  1  0.21096792  0.60407405  0.75426238  1
  Hf  Hf32  1  0.79875214  0.80880773  0.51719080  1
  Hf  Hf33  1  0.69952438  0.91813821  0.63705143  1
  Hf  Hf34  1  0.60193663  0.60039848  -0.00865307  1
  Hf  Hf35  1  0.09935529  0.30869558  0.88996215  1
  Hf  Hf36  1  0.69737424  0.70124836  0.38430000  1
  Hf  Hf37  1  0.91545787  0.28967761  0.61672694  1
  Hf  Hf38  1  0.70182700  0.29193094  0.88301392  1
  Hf  Hf39  1  0.58862978  -0.02761616  0.23581368  1
  Zr  Zr40  1  0.89089272  0.90314874  0.11958303  1
  Zr  Zr41  1  0.20639253  0.59833184  0.48782258  1
  Zr  Zr42  1  0.91358864  0.89167734  0.86741961  1
  Zr  Zr43  1  0.21797766  0.81873022  0.50476204  1
  Zr  Zr44  1  -0.00397482  0.21606579  0.25304025  1
  Zr  Zr45  1  0.81362397  0.40107958  0.26257788  1
  Zr  Zr46  1  0.50434994  0.29903812  0.37210388  1
  Zr  Zr47  1  0.60396568  0.79579487  0.75856851  1
  Zr  Zr48  1  0.00531342  0.60147987  -0.02042691  1
  Zr  Zr49  1  0.02513073  0.80571921  0.00127102  1
  Zr  Zr50  1  0.90456855  0.49940037  0.62365841  1
  Zr  Zr51  1  0.29837605  0.49693451  0.14681763  1
  Zr  Zr52  1  0.48493086  0.89051026  0.38283279  1
  Zr  Zr53  1  0.90586157  0.69694324  0.12497662  1
  Zr  Zr54  1  0.20046423  0.39858177  0.49200420  1
  Zr  Zr55  1  0.70335273  0.50058402  0.63137927  1
  Zr  Zr56  1  0.19357540  0.81316567  0.72878991  1
  Zr  Zr57  1  0.68498578  0.89700097  0.38174231  1
  Zr  Zr58  1  0.79601246  0.01734415  -0.02431820  1
  Zr  Zr59  1  0.80640756  0.17999419  0.49338733  1
  Zr  Zr60  1  0.90594499  0.50411355  0.11985542  1
  Zr  Zr61  1  -0.00023175  -0.00178676  0.74696488  1
  Zr  Zr62  1  0.31454040  0.71064942  0.37444154  1
  Zr  Zr63  1  0.30767705  0.30505954  0.89202592  1
  Zr  Zr64  1  0.89322160  0.10732562  0.12795660  1
  Zr  Zr65  1  0.48774377  0.08853413  0.63877706  1
  Zr  Zr66  1  0.60552544  0.59837073  0.25240782  1
  Zr  Zr67  1  0.10460411  0.31784859  0.11474731  1
  Zr  Zr68  1  0.21015924  0.39212746  0.75455042  1
  Zr  Zr69  1  0.59404002  -0.01323500  -0.00219274  1
  Zr  Zr70  1  0.09641194  0.08357031  0.12842397  1
  Zr  Zr71  1  0.27778025  0.88952049  0.12752689  1
  Zr  Zr72  1  0.31241541  0.49782238  0.35640131  1
  Zr  Zr73  1  0.09677636  0.49759598  0.62130425  1
  Zr  Zr74  1  0.70446187  0.49966547  0.11683798  1
  Zr  Zr75  1  0.37794353  0.19909157  0.75868944  1
  Zr  Zr76  1  0.09074720  0.10631338  0.38233241  1
  Zr  Zr77  1  0.40682198  0.19668358  0.23301851  1
  Zr  Zr78  1  0.31044690  0.49795799  0.62442248  1
  Zr  Zr79  1  0.19877938  0.62474979  -0.00763865  1
  Ta  Ta80  1  0.50103223  0.49376775  0.12147667  1
  Ta  Ta81  1  0.10233880  0.10380233  0.87698756  1
  Ta  Ta82  1  0.38189089  -0.00975670  0.50527822  1
  Ta  Ta83  1  -0.00812287  -0.00051805  0.26013536  1
  Ta  Ta84  1  0.78636726  0.80533285  0.25113527  1
  Ta  Ta85  1  0.20429641  0.20712939  0.48969066  1
  Ta  Ta86  1  0.11437920  0.71620225  0.13800250  1
  Ta  Ta87  1  0.19675591  0.80511562  0.26747944  1
  Ta  Ta88  1  0.00842153  0.39421036  0.75111284  1
  Ta  Ta89  1  0.59620498  0.79710545  -0.01575876  1
  Ta  Ta90  1  0.79409662  -0.00082903  0.25335984  1
  Ta  Ta91  1  0.11363036  0.29482002  0.62314294  1
  Ta  Ta92  1  0.00605052  0.60624436  0.75850950  1
  Ta  Ta93  1  0.40445308  0.18780987  0.00809431  1
  Ta  Ta94  1  0.20713251  0.42966313  -0.00845321  1
  Ta  Ta95  1  0.80639431  0.38774356  0.74641671  1
  Ta  Ta96  1  0.70259583  0.69363091  0.62950890  1
  Ta  Ta97  1  0.39905750  0.79127840  0.00288619  1
  Ta  Ta98  1  0.18586744  -0.01388307  -0.00582943  1
  Ta  Ta99  1  0.80259193  0.59814728  0.49458267  1
  Ta  Ta100  1  0.87707578  0.08507348  0.63281579  1
  Ta  Ta101  1  0.80568040  0.79792339  0.74998872  1
  Ta  Ta102  1  0.50645811  0.69987740  0.38069052  1
  Ta  Ta103  1  0.09509944  0.90562902  0.39244858  1
  Ta  Ta104  1  0.80210150  0.40651180  -0.00710302  1
  Ta  Ta105  1  0.31579615  0.70050323  0.61693096  1
  Ta  Ta106  1  0.00002459  0.00280136  -0.01206112  1
  Ta  Ta107  1  0.89943336  0.69370470  0.62574010  1
  Ta  Ta108  1  0.60298181  0.19025706  0.74694546  1
  Ta  Ta109  1  -0.00532420  0.19002084  -0.00365940  1
  Ta  Ta110  1  0.49978010  0.69980498  0.12084743  1
  Ta  Ta111  1  0.79964288  0.19484385  0.75018517  1
  Ta  Ta112  1  -0.00434367  0.80816509  0.51243297  1
  Ta  Ta113  1  0.41214417  0.80374864  0.24053296  1
  Ta  Ta114  1  0.48781113  0.49047504  0.87710998  1
  Ta  Ta115  1  0.59323445  0.79198087  0.51888654  1
  Ta  Ta116  1  0.09469121  0.70736251  0.38976277  1
  Ta  Ta117  1  0.78462756  0.00305813  0.77039827  1
  Ta  Ta118  1  0.60530062  0.39866571  0.25017546  1
  Ta  Ta119  1  0.48887708  0.89333077  0.62998407  1
  Ti  Ti120  1  0.29803904  0.09545818  0.37735061  1
  Ti  Ti121  1  0.60495575  0.59351257  0.50248893  1
  Ti  Ti122  1  0.60494963  0.40118405  0.51121609  1
  Ti  Ti123  1  0.80409386  0.40134675  0.49762638  1
  Ti  Ti124  1  0.48878270  0.09185011  0.86898476  1
  Ti  Ti125  1  0.00020839  0.59794776  0.27093519  1
  Ti  Ti126  1  0.60622064  0.18257438  -0.00222042  1
  Ti  Ti127  1  0.18794539  -0.00549260  0.25663166  1
  Ti  Ti128  1  0.50140102  0.50235520  0.62699027  1
  Ti  Ti129  1  0.91336934  0.30550127  0.38723430  1
  Ti  Ti130  1  0.30857365  0.31084587  0.12167610  1
  Ti  Ti131  1  0.40290745  0.40605374  0.74942646  1
  Ti  Ti132  1  0.59138175  0.59715879  0.75512158  1
  Ti  Ti133  1  0.39647948  0.19534477  0.49999589  1
  Ti  Ti134  1  0.10182216  0.92094908  0.60340862  1
  Ti  Ti135  1  0.19132036  0.60868964  0.26659675  1
  Ti  Ti136  1  0.41541451  0.60288165  0.25048427  1
  Ti  Ti137  1  0.29725055  0.91071116  0.36886323  1
  Ti  Ti138  1  0.30689744  0.69879949  0.87168352  1
  Ti  Ti139  1  0.09987010  0.31692038  0.36919285  1
  Ti  Ti140  1  0.50336670  0.68760188  0.62724524  1
  Ti  Ti141  1  0.41511357  0.60174546  0.49585563  1
  Ti  Ti142  1  0.49176675  0.89738195  0.86857039  1
  Ti  Ti143  1  0.71044565  0.29165342  0.62317240  1
  Ti  Ti144  1  -0.02915665  0.01146214  0.50085961  1
  Ti  Ti145  1  0.49815303  0.09209330  0.12437110  1
  Ti  Ti146  1  0.38388423  -0.00110631  0.23470692  1
  Ti  Ti147  1  0.00397625  0.19934318  0.75441631  1
  Ti  Ti148  1  0.51739287  0.49752351  0.37675122  1
  Ti  Ti149  1  -0.00087082  0.80027246  0.72848749  1
  Ti  Ti150  1  0.80280055  0.60824245  -0.02004858  1
  Ti  Ti151  1  0.90283019  0.70505305  0.38968417  1
  Ti  Ti152  1  0.69945066  0.09115786  0.36909505  1
  Ti  Ti153  1  0.80177778  0.19734349  0.26426276  1
  Ti  Ti154  1  0.30012437  0.69613173  0.13890405  1
  Ti  Ti155  1  0.10382187  0.72677251  0.86239477  1
  Ti  Ti156  1  0.49461840  0.69032227  0.87392231  1
  Ti  Ti157  1  0.60757975  0.19415523  0.24808895  1
  Ti  Ti158  1  0.80198329  0.60642863  0.75805244  1
  Ti  Ti159  1  0.48667921  0.29536715  0.62948667  1
  Mo  Mo160  1  0.30701128  0.91246551  0.63069007  1
  Mo  Mo161  1  0.19270274  0.39928884  0.25246219  1
  Mo  Mo162  1  0.40956645  0.79412963  0.51262466  1
  Mo  Mo163  1  0.30303660  0.29427994  0.62062963  1
  Mo  Mo164  1  0.30754833  0.50621178  0.87060759  1
  Mo  Mo165  1  0.10431218  0.90377446  0.86837819  1
  Mo  Mo166  1  0.00450926  0.41387791  0.25900449  1
  Mo  Mo167  1  0.69852487  0.49344960  0.39058239  1
  Mo  Mo168  1  0.90423588  0.69934493  0.85635145  1
  Mo  Mo169  1  0.09643496  0.50250971  0.36679727  1
  Mo  Mo170  1  0.00741427  0.40546855  -0.00667298  1
  Mo  Mo171  1  0.00059367  0.39943717  0.49349972  1
  Mo  Mo172  1  0.58897496  -0.00092052  0.76317834  1
  Mo  Mo173  1  0.68208991  0.10665590  0.87050711  1
  Mo  Mo174  1  0.49630615  0.88270275  0.11629794  1
  Mo  Mo175  1  0.19840655  0.00913891  0.49338588  1
  Mo  Mo176  1  0.79931047  0.19829883  -0.00230087  1
  Mo  Mo177  1  0.70107830  0.89249810  0.12186577  1
  Mo  Mo178  1  0.69480734  0.10484934  0.63578438  1
  Mo  Mo179  1  0.39829476  0.39902854  0.00480326  1
  Mo  Mo180  1  0.09023794  0.89863056  0.13661765  1
  Mo  Mo181  1  0.18090980  0.20598676  0.75462105  1
  Mo  Mo182  1  0.30061747  0.09526013  0.12608331  1
  Mo  Mo183  1  0.69940510  0.69304107  0.86509080  1
  Mo  Mo184  1  0.89225860  0.10362779  0.36725788  1
  Mo  Mo185  1  0.59970564  0.40362122  -0.00248156  1
  Mo  Mo186  1  0.90008072  0.10499293  0.86533667  1
  Mo  Mo187  1  0.59397211  0.78848848  0.24658197  1
  Mo  Mo188  1  0.79134161  0.00143655  0.50211145  1
  Mo  Mo189  1  0.90665120  0.49957484  0.39280407  1
  Mo  Mo190  1  0.30000732  0.09898388  0.88285521  1
  Mo  Mo191  1  0.42131159  0.40743986  0.24655349  1
  Mo  Mo192  1  0.90104440  0.90044007  0.63148702  1
  Mo  Mo193  1  0.20958638  0.79985947  0.00044342  1
  Mo  Mo194  1  0.00529561  0.21204210  0.49074043  1
  Mo  Mo195  1  0.68999611  0.89847744  0.86436193  1
  Mo  Mo196  1  0.41051861  0.59706862  0.74986294  1
  Mo  Mo197  1  0.10530437  0.50447359  0.86445031  1
  Mo  Mo198  1  -0.00568864  0.60510908  0.49010917  1
  Mo  Mo199  1  0.39606330  -0.00629953  0.75449494  1
