# generated using pymatgen
data_HfZrTaTiMo
_symmetry_space_group_name_H-M   'P 1'
_cell_length_a   15.21409988
_cell_length_b   15.21162112
_cell_length_c   16.83185185
_cell_angle_alpha   89.97509079
_cell_angle_beta   90.00267231
_cell_angle_gamma   90.02240437
_symmetry_Int_Tables_number   1
_chemical_formula_structural   HfZrTaTiMo
_chemical_formula_sum   'Hf40 Zr40 Ta40 Ti40 Mo40'
_cell_volume   3895.41370613
_cell_formula_units_Z   40
loop_
 _symmetry_equiv_pos_site_id
 _symmetry_equiv_pos_as_xyz
  1  'x, y, z'
loop_
 _atom_site_type_symbol
 _atom_site_label
 _atom_site_symmetry_multiplicity
 _atom_site_fract_x
 _atom_site_fract_y
 _atom_site_fract_z
 _atom_site_occupancy
  Hf  Hf0  1  0.49601076  0.31410799  0.62482602  1
  Hf  Hf1  1  0.90802364  0.51154092  0.89436956  1
  Hf  Hf2  1  0.08673649  0.91127021  0.12654992  1
  Hf  Hf3  1  0.20945038  0.38633187  -0.01627516  1
  Hf  Hf4  1  0.50980135  0.30783279  0.11220752  1
  Hf  Hf5  1  0.78582004  0.80443822  0.27783414  1
  Hf  Hf6  1  0.11141121  0.30411652  0.64917223  1
  Hf  Hf7  1  0.19314736  0.80067292  0.00161979  1
  Hf  Hf8  1  0.69608244  0.90270710  0.62544140  1
  Hf  Hf9  1  0.30168874  0.48957680  0.11653821  1
  Hf  Hf10  1  0.12445125  0.29743072  0.36125888  1
  Hf  Hf11  1  0.70186852  0.31278895  0.37652149  1
  Hf  Hf12  1  0.30667700  0.28631282  0.11476895  1
  Hf  Hf13  1  0.08871585  0.68347233  0.37858677  1
  Hf  Hf14  1  0.09756628  0.08674816  0.37215588  1
  Hf  Hf15  1  0.71607307  0.50985908  0.61914805  1
  Hf  Hf16  1  0.90253372  0.29447504  0.12898739  1
  Hf  Hf17  1  -0.00973360  0.78435810  0.75824170  1
  Hf  Hf18  1  0.79028037  0.38660834  -0.00486254  1
  Hf  Hf19  1  0.19040237  0.58597231  0.24701920  1
  Hf  Hf20  1  0.60033321  0.41366940  0.75369989  1
  Hf  Hf21  1  0.48677548  0.11062552  0.62619527  1
  Hf  Hf22  1  0.80952609  0.60757033  0.75699283  1
  Hf  Hf23  1  -0.00476427  0.00138070  0.50046212  1
  Hf  Hf24  1  0.69554999  0.51073558  0.89084423  1
  Hf  Hf25  1  0.60010647  0.20636932  0.24610215  1
  Hf  Hf26  1  0.39228613  0.38627740  0.25304964  1
  Hf  Hf27  1  0.19987049  -0.01477176  0.50348490  1
  Hf  Hf28  1  0.89145704  0.89466020  0.63023033  1
  Hf  Hf29  1  0.48935781  0.72175270  0.60691454  1
  Hf  Hf30  1  0.88577962  0.91104320  0.85741004  1
  Hf  Hf31  1  0.71570008  0.10329146  0.87584393  1
  Hf  Hf32  1  0.41105654  0.39665671  -0.02070201  1
  Hf  Hf33  1  0.40123968  0.79154285  0.24832939  1
  Hf  Hf34  1  0.29272477  0.09771687  0.86314586  1
  Hf  Hf35  1  0.49065559  0.69987597  0.87202321  1
  Hf  Hf36  1  0.79697486  0.60582391  0.24982029  1
  Hf  Hf37  1  0.49487594  0.30636858  0.39235064  1
  Hf  Hf38  1  0.41089813  -0.01313297  0.75302348  1
  Hf  Hf39  1  0.18677384  0.57935776  0.51021390  1
  Zr  Zr40  1  0.59192424  0.00284103  0.50523678  1
  Zr  Zr41  1  0.30227579  0.47605050  0.63858561  1
  Zr  Zr42  1  0.68839079  0.71615338  0.88131171  1
  Zr  Zr43  1  0.20126274  0.60550374  0.74177510  1
  Zr  Zr44  1  0.68877057  0.50689041  0.11531789  1
  Zr  Zr45  1  0.90426857  0.29154816  0.87286977  1
  Zr  Zr46  1  0.40602860  0.18445605  0.24467029  1
  Zr  Zr47  1  -0.01851358  0.79283634  -0.00524569  1
  Zr  Zr48  1  0.11186289  0.28302158  0.85515475  1
  Zr  Zr49  1  0.29737789  0.48201625  0.38053002  1
  Zr  Zr50  1  0.59484028  0.41877708  0.25443175  1
  Zr  Zr51  1  0.40234277  0.78450796  0.00650987  1
  Zr  Zr52  1  0.90089484  0.50309899  0.11451721  1
  Zr  Zr53  1  0.81032682  0.19782107  0.49849723  1
  Zr  Zr54  1  0.90410900  0.31063233  0.63181664  1
  Zr  Zr55  1  0.39816866  -0.00135393  -0.00911464  1
  Zr  Zr56  1  0.91607071  0.30819381  0.36255209  1
  Zr  Zr57  1  0.29301169  0.89789100  0.12641006  1
  Zr  Zr58  1  0.48913761  0.10400236  0.38646669  1
  Zr  Zr59  1  0.69319402  0.11230193  0.38410472  1
  Zr  Zr60  1  0.78586569  0.83084817  -0.00425581  1
  Zr  Zr61  1  0.40176158  0.59033967  0.25478980  1
  Zr  Zr62  1  0.51165105  0.89745431  0.12382967  1
  Zr  Zr63  1  0.81496150  0.00922867  0.27301576  1
  Zr  Zr64  1  0.00879311  0.18085911  0.24208229  1
  Zr  Zr65  1  0.09487266  0.69253268  0.88350321  1
  Zr  Zr66  1  0.21455830  0.37336459  0.50694427  1
  Zr  Zr67  1  0.90552002  0.07831071  0.12173493  1
  Zr  Zr68  1  0.20354958  0.17764220  0.51871869  1
  Zr  Zr69  1  0.09399073  0.88518141  0.62988592  1
  Zr  Zr70  1  0.49411786  0.69996671  0.39252002  1
  Zr  Zr71  1  0.68831262  0.72622578  0.12524638  1
  Zr  Zr72  1  0.01774415  0.18418156  0.00286709  1
  Zr  Zr73  1  0.59858791  0.20952355  0.75909761  1
  Zr  Zr74  1  0.81892545  0.41482757  0.49296728  1
  Zr  Zr75  1  0.10674508  0.49994589  0.88770378  1
  Zr  Zr76  1  0.00758976  0.20761596  0.50382161  1
  Zr  Zr77  1  0.60376145  0.61746311  0.73748248  1
  Zr  Zr78  1  0.30856293  0.87782173  0.62107950  1
  Zr  Zr79  1  0.08756214  0.69106497  0.61591010  1
  Ta  Ta80  1  0.79624902  0.20599928  0.74429535  1
  Ta  Ta81  1  0.09846994  0.90198931  0.86570889  1
  Ta  Ta82  1  0.00016175  0.41262772  0.75453668  1
  Ta  Ta83  1  0.29756416  0.09181581  0.11518731  1
  Ta  Ta84  1  0.59871935  0.00359235  0.25280760  1
  Ta  Ta85  1  0.70116231  0.10920847  0.12138156  1
  Ta  Ta86  1  0.29255228  0.68652514  0.12403429  1
  Ta  Ta87  1  0.70622353  0.92333899  0.13553856  1
  Ta  Ta88  1  0.69668360  0.51607711  0.37793067  1
  Ta  Ta89  1  0.10623332  0.50036384  0.10670361  1
  Ta  Ta90  1  0.20308700  0.78605464  0.48830971  1
  Ta  Ta91  1  0.89188848  0.88636093  0.13671740  1
  Ta  Ta92  1  0.68365909  0.91618385  0.86178409  1
  Ta  Ta93  1  0.70121214  0.10893969  0.61931831  1
  Ta  Ta94  1  0.40558132  0.59668865  0.73778371  1
  Ta  Ta95  1  0.69995618  0.30659835  0.62033760  1
  Ta  Ta96  1  0.89647129  0.09369875  0.63995230  1
  Ta  Ta97  1  0.57910901  0.81764811  0.74225489  1
  Ta  Ta98  1  0.31387458  0.27777347  0.66254266  1
  Ta  Ta99  1  0.79989779  0.40606799  0.75866141  1
  Ta  Ta100  1  0.38459554  0.78617586  0.75211336  1
  Ta  Ta101  1  0.80236241  -0.01072999  0.48696750  1
  Ta  Ta102  1  0.59419671  0.62287566  0.25295507  1
  Ta  Ta103  1  0.61184650  0.21775287  -0.01058833  1
  Ta  Ta104  1  0.09389089  0.09246813  0.64722934  1
  Ta  Ta105  1  0.70575081  0.30187897  0.12924817  1
  Ta  Ta106  1  0.20473044  -0.01816354  0.74526240  1
  Ta  Ta107  1  0.19017868  0.79674030  0.25635731  1
  Ta  Ta108  1  0.88910623  0.70203749  0.61741305  1
  Ta  Ta109  1  -0.00658499  0.80116067  0.26368057  1
  Ta  Ta110  1  0.49599236  0.90296511  0.37096336  1
  Ta  Ta111  1  0.50134629  0.50818855  0.61361410  1
  Ta  Ta112  1  0.60620352  0.40869116  0.50298986  1
  Ta  Ta113  1  -0.01779379  0.79365453  0.48323724  1
  Ta  Ta114  1  0.19950214  -0.00122691  0.25219310  1
  Ta  Ta115  1  0.80758047  0.62084953  0.48500999  1
  Ta  Ta116  1  0.38559263  0.20930775  0.50744211  1
  Ta  Ta117  1  0.01561664  0.40882714  0.23558789  1
  Ta  Ta118  1  0.81067423  0.62828643  0.00659149  1
  Ta  Ta119  1  0.09211229  0.48746537  0.37043691  1
  Ti  Ti120  1  0.78204808  0.79832560  0.75230506  1
  Ti  Ti121  1  0.51174921  0.09419421  0.87844875  1
  Ti  Ti122  1  0.20775920  0.19093650  -0.00576200  1
  Ti  Ti123  1  0.49589759  0.51190573  0.11403109  1
  Ti  Ti124  1  0.58258675  0.62191812  0.00805502  1
  Ti  Ti125  1  0.11423782  0.29717529  0.12753857  1
  Ti  Ti126  1  0.50472106  0.10232432  0.11023025  1
  Ti  Ti127  1  0.09082696  0.70066957  0.12354971  1
  Ti  Ti128  1  -0.00927212  -0.00676881  -0.01115988  1
  Ti  Ti129  1  0.29863488  0.10051911  0.37447864  1
  Ti  Ti130  1  0.80366568  0.40612593  0.24906633  1
  Ti  Ti131  1  0.40598063  0.19885862  -0.02099044  1
  Ti  Ti132  1  0.18491561  0.00515784  -0.00829955  1
  Ti  Ti133  1  0.39756828  -0.00179414  0.24669674  1
  Ti  Ti134  1  0.60773870  0.60727953  0.50389228  1
  Ti  Ti135  1  0.70443320  0.71301712  0.61534079  1
  Ti  Ti136  1  0.80800382  0.19220359  0.00146228  1
  Ti  Ti137  1  0.01828739  0.41323904  0.50575052  1
  Ti  Ti138  1  0.00551074  0.38702984  0.00451590  1
  Ti  Ti139  1  0.80277478  0.20214567  0.25411645  1
  Ti  Ti140  1  0.91543675  0.51263137  0.62212756  1
  Ti  Ti141  1  0.29406960  0.88596373  0.87298226  1
  Ti  Ti142  1  0.09108406  0.08830895  0.85002735  1
  Ti  Ti143  1  0.29890157  0.89787797  0.37249640  1
  Ti  Ti144  1  0.90999434  0.51027453  0.36645519  1
  Ti  Ti145  1  0.50285975  0.89436505  0.88348070  1
  Ti  Ti146  1  0.49935795  0.50450519  0.39684398  1
  Ti  Ti147  1  0.30824447  0.50415957  0.86664883  1
  Ti  Ti148  1  0.60954976  0.80913536  0.48896028  1
  Ti  Ti149  1  0.61584043  0.00198237  0.00055392  1
  Ti  Ti150  1  0.90628871  0.09785561  0.85489677  1
  Ti  Ti151  1  0.38183144  0.60266459  0.51127299  1
  Ti  Ti152  1  0.60110689  0.00970944  0.74127947  1
  Ti  Ti153  1  0.29497802  0.69465023  0.37515199  1
  Ti  Ti154  1  -0.00566083  0.60460654  0.23669401  1
  Ti  Ti155  1  0.29505611  0.68900973  0.88136471  1
  Ti  Ti156  1  0.50187722  0.51109386  0.87804450  1
  Ti  Ti157  1  0.21263250  0.19421482  0.24306399  1
  Ti  Ti158  1  -0.00230560  0.59549913  0.75180581  1
  Ti  Ti159  1  0.39026120  -0.00101159  0.50606326  1
  Mo  Mo160  1  0.59390965  0.81177071  0.26144747  1
  Mo  Mo161  1  -0.01131983  0.58566901  0.49683232  1
  Mo  Mo162  1  0.90903982  0.90054538  0.37951505  1
  Mo  Mo163  1  0.41201635  0.19337577  0.77029445  1
  Mo  Mo164  1  0.29815998  0.69258597  0.61815853  1
  Mo  Mo165  1  0.09146254  0.48894233  0.63563973  1
  Mo  Mo166  1  0.31146444  0.29575428  0.85715568  1
  Mo  Mo167  1  0.30094338  0.08811178  0.64035428  1
  Mo  Mo168  1  -0.00319498  -0.00743181  0.75007651  1
  Mo  Mo169  1  0.10887539  0.88693287  0.37666727  1
  Mo  Mo170  1  0.39341740  0.59448541  -0.00292319  1
  Mo  Mo171  1  0.30638106  0.27717977  0.37453802  1
  Mo  Mo172  1  0.88915984  0.69980086  0.87399247  1
  Mo  Mo173  1  0.51265502  0.30360899  0.88089703  1
  Mo  Mo174  1  0.68929909  0.69940043  0.37937104  1
  Mo  Mo175  1  0.20525786  0.18160221  0.74469342  1
  Mo  Mo176  1  0.19790936  0.39054104  0.23878547  1
  Mo  Mo177  1  0.79409646  0.80536110  0.48789900  1
  Mo  Mo178  1  0.59967109  0.21361356  0.51265676  1
  Mo  Mo179  1  0.59286533  0.81727593  -0.00170592  1
  Mo  Mo180  1  -0.00621434  0.19815378  0.74575299  1
  Mo  Mo181  1  0.49953555  0.90359892  0.62247138  1
  Mo  Mo182  1  0.70818131  0.30562324  0.87163254  1
  Mo  Mo183  1  0.49622883  0.69268855  0.12862428  1
  Mo  Mo184  1  0.89761316  0.71109335  0.13585423  1
  Mo  Mo185  1  0.20963568  0.39760590  0.76731118  1
  Mo  Mo186  1  0.60174935  0.41005830  -0.00203248  1
  Mo  Mo187  1  0.40224378  0.40206509  0.50615270  1
  Mo  Mo188  1  0.39006153  0.81037051  0.48333610  1
  Mo  Mo189  1  0.78765790  0.00704002  0.74189866  1
  Mo  Mo190  1  0.00016181  0.60368645  0.01825130  1
  Mo  Mo191  1  0.20729589  0.60267583  0.00657889  1
  Mo  Mo192  1  0.90515085  0.10332362  0.37773264  1
  Mo  Mo193  1  0.89839467  0.69259938  0.36915129  1
  Mo  Mo194  1  0.12009189  0.09645718  0.12206210  1
  Mo  Mo195  1  0.41135163  0.40299745  0.76943695  1
  Mo  Mo196  1  0.68765290  0.90647058  0.37660686  1
  Mo  Mo197  1  0.80247774  0.00892340  0.00123108  1
  Mo  Mo198  1  0.20350630  0.79516803  0.76109040  1
  Mo  Mo199  1  0.01266237  -0.01746521  0.25565352  1
