# generated using pymatgen
data_HfZrTaTiMo
_symmetry_space_group_name_H-M   'P 1'
_cell_length_a   15.21325301
_cell_length_b   15.20019545
_cell_length_c   16.83992563
_cell_angle_alpha   89.94160938
_cell_angle_beta   90.00336710
_cell_angle_gamma   90.10555295
_symmetry_Int_Tables_number   1
_chemical_formula_structural   HfZrTaTiMo
_chemical_formula_sum   'Hf40 Zr40 Ta40 Ti40 Mo40'
_cell_volume   3894.13018452
_cell_formula_units_Z   40
loop_
 _symmetry_equiv_pos_site_id
 _symmetry_equiv_pos_as_xyz
  1  'x, y, z'
loop_
 _atom_site_type_symbol
 _atom_site_label
 _atom_site_symmetry_multiplicity
 _atom_site_fract_x
 _atom_site_fract_y
 _atom_site_fract_z
 _atom_site_occupancy
  Hf  Hf0  1  0.88922213  0.09299447  0.12038621  1
  Hf  Hf1  1  0.10125173  0.48216197  0.88260132  1
  Hf  Hf2  1  0.00236589  0.39651767  0.24868561  1
  Hf  Hf3  1  0.41339894  0.38800231  -0.00282290  1
  Hf  Hf4  1  0.30309588  0.91304484  0.12373664  1
  Hf  Hf5  1  0.40677950  0.81273518  -0.01149621  1
  Hf  Hf6  1  0.70760183  0.70730246  0.62096682  1
  Hf  Hf7  1  0.57491989  0.21521216  -0.00776125  1
  Hf  Hf8  1  0.78625265  0.20959811  0.00164778  1
  Hf  Hf9  1  0.00802667  0.19010413  -0.00390542  1
  Hf  Hf10  1  -0.00494892  0.59395068  0.24863656  1
  Hf  Hf11  1  0.50109514  0.50181615  0.63876494  1
  Hf  Hf12  1  0.68856997  0.30644667  0.86141910  1
  Hf  Hf13  1  0.91430654  0.29797795  0.38536686  1
  Hf  Hf14  1  0.29344630  0.10466983  0.38119308  1
  Hf  Hf15  1  0.42134020  0.81270423  0.76260686  1
  Hf  Hf16  1  0.67374026  0.09316466  0.61012477  1
  Hf  Hf17  1  0.79298140  0.19559380  0.50046932  1
  Hf  Hf18  1  0.70133028  0.70667973  0.37731780  1
  Hf  Hf19  1  0.21073276  0.80290173  0.24877007  1
  Hf  Hf20  1  0.70578444  0.90657440  0.11220022  1
  Hf  Hf21  1  0.39779372  0.61237338  0.75795665  1
  Hf  Hf22  1  0.30687999  0.49721018  0.11839998  1
  Hf  Hf23  1  0.51085398  0.71306072  0.63019393  1
  Hf  Hf24  1  0.79142094  0.20126046  0.25939440  1
  Hf  Hf25  1  0.81184984  0.60618287  0.74573500  1
  Hf  Hf26  1  0.70790711  0.50050071  0.86767924  1
  Hf  Hf27  1  0.09597961  0.89864644  0.85881481  1
  Hf  Hf28  1  0.72419033  0.90729731  0.89064791  1
  Hf  Hf29  1  0.10717222  0.91055231  0.38068796  1
  Hf  Hf30  1  0.31206559  0.91016396  0.63870780  1
  Hf  Hf31  1  0.57783590  0.18504498  0.75174595  1
  Hf  Hf32  1  0.51042663  0.49309662  0.86246405  1
  Hf  Hf33  1  0.18875783  0.38949117  0.50614605  1
  Hf  Hf34  1  0.51576229  0.90994288  0.36315899  1
  Hf  Hf35  1  0.39552757  0.00478384  0.49802289  1
  Hf  Hf36  1  0.00213203  0.77794173  0.75048795  1
  Hf  Hf37  1  0.20379864  0.01318360  -0.01177868  1
  Hf  Hf38  1  0.80516251  0.78854472  0.24254658  1
  Hf  Hf39  1  0.00967461  0.79722402  0.50105026  1
  Zr  Zr40  1  0.10456356  0.90127920  0.63978648  1
  Zr  Zr41  1  0.29995006  0.50403182  0.88538760  1
  Zr  Zr42  1  0.70889849  0.70414674  0.88246918  1
  Zr  Zr43  1  0.00330147  0.19030185  0.25000408  1
  Zr  Zr44  1  0.70562728  0.49985493  0.63140731  1
  Zr  Zr45  1  0.42364435  0.80216916  0.49826205  1
  Zr  Zr46  1  0.29934045  0.49271378  0.37780085  1
  Zr  Zr47  1  0.59254007  0.40929663  0.49300546  1
  Zr  Zr48  1  0.10357681  0.70490913  0.12184710  1
  Zr  Zr49  1  0.12043455  0.28173733  0.13080519  1
  Zr  Zr50  1  -0.00440447  -0.02120550  0.00001306  1
  Zr  Zr51  1  0.47629014  0.10567857  0.11082738  1
  Zr  Zr52  1  0.21587599  0.81216594  0.49980535  1
  Zr  Zr53  1  0.87915527  0.07792975  0.88064072  1
  Zr  Zr54  1  0.09654917  0.11691097  0.39333580  1
  Zr  Zr55  1  0.11179547  0.69119380  0.61749435  1
  Zr  Zr56  1  0.31484081  0.70090037  0.37504515  1
  Zr  Zr57  1  0.48584453  0.30308872  0.62027555  1
  Zr  Zr58  1  0.10103838  0.09135299  0.63179323  1
  Zr  Zr59  1  0.68564276  0.29631069  0.37599427  1
  Zr  Zr60  1  0.78301615  0.18234582  0.74300804  1
  Zr  Zr61  1  0.71170316  0.50932070  0.12882187  1
  Zr  Zr62  1  0.39910993  0.01052697  0.25302851  1
  Zr  Zr63  1  0.89864267  0.30047206  0.87055479  1
  Zr  Zr64  1  0.20644939  0.80409315  -0.00897811  1
  Zr  Zr65  1  0.67521422  0.10745306  0.12910065  1
  Zr  Zr66  1  -0.00027116  0.38350406  0.00696628  1
  Zr  Zr67  1  0.22129455  0.78906306  0.76698444  1
  Zr  Zr68  1  0.10963072  0.49614192  0.11731037  1
  Zr  Zr69  1  -0.01450797  0.59269009  0.00348474  1
  Zr  Zr70  1  0.90568083  0.69288277  0.37815891  1
  Zr  Zr71  1  -0.02401573  0.20038528  0.73083304  1
  Zr  Zr72  1  0.80944960  0.80429421  0.50084647  1
  Zr  Zr73  1  0.49918944  0.70483481  0.12463423  1
  Zr  Zr74  1  0.00123877  0.58085738  0.74971080  1
  Zr  Zr75  1  0.79353334  -0.00780916  0.25570745  1
  Zr  Zr76  1  0.20147011  0.59474992  0.75114528  1
  Zr  Zr77  1  0.09308258  0.09511587  0.84559233  1
  Zr  Zr78  1  0.60134160  0.61125481  0.49071937  1
  Zr  Zr79  1  0.60700125  0.60214812  0.25829818  1
  Ta  Ta80  1  0.59940427  0.59445186  -0.00046622  1
  Ta  Ta81  1  0.50715511  0.90935647  0.12738997  1
  Ta  Ta82  1  0.88629799  0.30409827  0.13103907  1
  Ta  Ta83  1  0.00957356  0.80080761  0.25312219  1
  Ta  Ta84  1  0.10981070  0.69018870  0.37446252  1
  Ta  Ta85  1  0.79886860  0.41102179  0.26030661  1
  Ta  Ta86  1  0.71242399  0.90949753  0.62899803  1
  Ta  Ta87  1  0.52263398  0.91744849  0.87966381  1
  Ta  Ta88  1  0.62054226  0.81559068  0.75595141  1
  Ta  Ta89  1  0.50673076  0.49569354  0.12840650  1
  Ta  Ta90  1  0.00727007  0.58412214  0.49733012  1
  Ta  Ta91  1  0.47595979  0.09892145  0.88625280  1
  Ta  Ta92  1  0.10687903  0.29285504  0.85202270  1
  Ta  Ta93  1  0.60648163  0.40185115  0.00366728  1
  Ta  Ta94  1  0.82156106  0.79489081  0.01081711  1
  Ta  Ta95  1  0.68766726  0.30946038  0.13818279  1
  Ta  Ta96  1  0.28465770  0.12496468  0.12164414  1
  Ta  Ta97  1  0.52053560  0.92046913  0.63075763  1
  Ta  Ta98  1  0.47704322  0.30379830  0.38664274  1
  Ta  Ta99  1  0.28752515  0.29440974  0.38210371  1
  Ta  Ta100  1  0.40051560  0.60334836  0.24678760  1
  Ta  Ta101  1  0.09948530  0.08291272  0.12284197  1
  Ta  Ta102  1  0.21335111  0.37170690  -0.00318798  1
  Ta  Ta103  1  0.81650659  0.81074265  0.74637104  1
  Ta  Ta104  1  0.19229709  0.01169130  0.24788442  1
  Ta  Ta105  1  0.49703119  0.30215590  0.13518212  1
  Ta  Ta106  1  0.67800490  0.08875552  0.37574744  1
  Ta  Ta107  1  0.69033928  0.30014177  0.62481698  1
  Ta  Ta108  1  0.89235581  0.49818674  0.38663243  1
  Ta  Ta109  1  0.00051123  -0.00776139  0.25018077  1
  Ta  Ta110  1  0.29283833  0.11795802  0.85445190  1
  Ta  Ta111  1  0.20174009  0.59382301  0.25210907  1
  Ta  Ta112  1  0.31265401  0.69543914  0.61816884  1
  Ta  Ta113  1  -0.01107550  -0.00322664  0.50635970  1
  Ta  Ta114  1  0.67485233  0.09083934  0.88898810  1
  Ta  Ta115  1  0.40703377  0.59321779  0.50200301  1
  Ta  Ta116  1  0.89601669  0.09116626  0.38473447  1
  Ta  Ta117  1  0.29391734  0.30681655  0.84753463  1
  Ta  Ta118  1  0.79945564  0.40938581  0.00482680  1
  Ta  Ta119  1  0.30336158  0.49443443  0.62315155  1
  Ti  Ti120  1  0.00549286  0.79239674  -0.00324678  1
  Ti  Ti121  1  0.10052000  0.49239961  0.62305544  1
  Ti  Ti122  1  0.48279482  0.30122521  0.85521452  1
  Ti  Ti123  1  0.60578604  0.61358885  0.75334618  1
  Ti  Ti124  1  0.09618055  0.48837982  0.37734128  1
  Ti  Ti125  1  0.89790920  0.49355733  0.87410986  1
  Ti  Ti126  1  0.20654644  0.38898981  0.25268189  1
  Ti  Ti127  1  0.30288366  0.69736972  0.12314522  1
  Ti  Ti128  1  0.29551370  0.30346185  0.64068645  1
  Ti  Ti129  1  0.81387012  0.39217219  0.73709839  1
  Ti  Ti130  1  0.87831429  0.07650621  0.61665494  1
  Ti  Ti131  1  0.39002502  0.21299483  0.25267453  1
  Ti  Ti132  1  0.51014222  0.70296755  0.87952538  1
  Ti  Ti133  1  0.40003606  0.40289798  0.25039778  1
  Ti  Ti134  1  0.60317125  0.81122571  0.24551821  1
  Ti  Ti135  1  0.30256960  0.10414968  0.64235319  1
  Ti  Ti136  1  0.49753375  0.11891166  0.38295072  1
  Ti  Ti137  1  0.61235268  0.82493916  0.49572831  1
  Ti  Ti138  1  0.20438554  0.19510273  0.52152548  1
  Ti  Ti139  1  0.90846625  0.48409980  0.61245961  1
  Ti  Ti140  1  0.90250760  0.69617618  0.88124954  1
  Ti  Ti141  1  0.78743882  -0.00958799  0.48635195  1
  Ti  Ti142  1  0.89201152  0.68082198  0.12638186  1
  Ti  Ti143  1  0.90541301  0.68748300  0.61320490  1
  Ti  Ti144  1  0.32034902  0.92802620  0.86622960  1
  Ti  Ti145  1  0.20572197  0.59608397  0.49876691  1
  Ti  Ti146  1  0.30583882  0.90512809  0.36854237  1
  Ti  Ti147  1  0.91580352  0.88810766  0.12939889  1
  Ti  Ti148  1  0.59300929  0.39942245  0.26235100  1
  Ti  Ti149  1  0.48497203  0.10765579  0.61305436  1
  Ti  Ti150  1  0.49587078  0.50816246  0.37163316  1
  Ti  Ti151  1  0.79945780  0.40172678  0.49996006  1
  Ti  Ti152  1  0.90203158  0.89811554  0.37151331  1
  Ti  Ti153  1  0.11443979  0.68154525  0.89013410  1
  Ti  Ti154  1  0.08710804  0.30926434  0.63968357  1
  Ti  Ti155  1  0.70120523  0.70079140  0.11637994  1
  Ti  Ti156  1  0.60384953  0.80132779  0.00146334  1
  Ti  Ti157  1  -0.00336853  0.20785814  0.51844370  1
  Ti  Ti158  1  -0.04169343  -0.02064549  0.74367464  1
  Ti  Ti159  1  0.40375420  0.60560007  -0.00340816  1
  Mo  Mo160  1  0.19583796  0.20094814  -0.01373973  1
  Mo  Mo161  1  0.80871764  0.59163740  0.50674357  1
  Mo  Mo162  1  0.20159738  0.00329836  0.50508068  1
  Mo  Mo163  1  0.20397267  0.19845245  0.25338080  1
  Mo  Mo164  1  0.59422090  -0.00039411  0.49555880  1
  Mo  Mo165  1  0.10200323  0.90181715  0.13204714  1
  Mo  Mo166  1  0.31260971  0.70506718  0.88612483  1
  Mo  Mo167  1  0.90107324  0.89477830  0.61928092  1
  Mo  Mo168  1  0.37008934  0.21386035  -0.01022254  1
  Mo  Mo169  1  0.70614718  0.49914197  0.37585379  1
  Mo  Mo170  1  0.89628827  0.48988861  0.12962871  1
  Mo  Mo171  1  0.40920023  0.79738537  0.24549787  1
  Mo  Mo172  1  0.38478738  0.20836712  0.50380192  1
  Mo  Mo173  1  0.80091952  0.00107114  0.01163809  1
  Mo  Mo174  1  0.58613761  0.19862305  0.49703534  1
  Mo  Mo175  1  0.57791259  0.20806457  0.25495850  1
  Mo  Mo176  1  0.58986896  -0.00077335  0.00210197  1
  Mo  Mo177  1  0.21710956  -0.00226392  0.75924404  1
  Mo  Mo178  1  0.59660410  0.01058038  0.24665314  1
  Mo  Mo179  1  0.88595547  0.30053007  0.61267113  1
  Mo  Mo180  1  0.38703270  0.40649244  0.50134715  1
  Mo  Mo181  1  0.10757627  0.30303687  0.37641647  1
  Mo  Mo182  1  0.78431989  -0.00643405  0.74877278  1
  Mo  Mo183  1  0.31144864  0.30209590  0.12971790  1
  Mo  Mo184  1  0.90260073  0.87962733  0.87808751  1
  Mo  Mo185  1  0.70652750  0.90198779  0.36808582  1
  Mo  Mo186  1  -0.00106862  0.39607225  0.50240281  1
  Mo  Mo187  1  0.49978412  0.70630580  0.36074419  1
  Mo  Mo188  1  0.39190200  0.00688809  -0.00245689  1
  Mo  Mo189  1  0.60369223  0.00162508  0.75587562  1
  Mo  Mo190  1  -0.00651949  0.40040508  0.74652270  1
  Mo  Mo191  1  0.60508247  0.39278897  0.74473009  1
  Mo  Mo192  1  0.19407330  0.20334874  0.72975447  1
  Mo  Mo193  1  0.39474456  0.40743571  0.75022339  1
  Mo  Mo194  1  0.20876937  0.59662598  -0.00069381  1
  Mo  Mo195  1  0.80439830  0.59692527  0.25447691  1
  Mo  Mo196  1  0.79762868  0.60056387  -0.00332512  1
  Mo  Mo197  1  0.39484561  0.20138645  0.74443607  1
  Mo  Mo198  1  0.42076737  0.01605499  0.74864829  1
  Mo  Mo199  1  0.19166928  0.40490845  0.73788752  1
