# generated using pymatgen
data_HfZrTaTiMo
_symmetry_space_group_name_H-M   'P 1'
_cell_length_a   15.20505478
_cell_length_b   15.20176143
_cell_length_c   16.84784852
_cell_angle_alpha   89.96645220
_cell_angle_beta   89.99581507
_cell_angle_gamma   89.92501390
_symmetry_Int_Tables_number   1
_chemical_formula_structural   HfZrTaTiMo
_chemical_formula_sum   'Hf40 Zr40 Ta40 Ti40 Mo40'
_cell_volume   3894.26860518
_cell_formula_units_Z   40
loop_
 _symmetry_equiv_pos_site_id
 _symmetry_equiv_pos_as_xyz
  1  'x, y, z'
loop_
 _atom_site_type_symbol
 _atom_site_label
 _atom_site_symmetry_multiplicity
 _atom_site_fract_x
 _atom_site_fract_y
 _atom_site_fract_z
 _atom_site_occupancy
  Hf  Hf0  1  0.20685433  0.79381677  0.50763874  1
  Hf  Hf1  1  0.59915057  0.60546744  0.25127804  1
  Hf  Hf2  1  0.61269722  0.00235523  -0.00238073  1
  Hf  Hf3  1  0.50597930  0.29950304  0.37235551  1
  Hf  Hf4  1  0.59768380  0.61897337  0.74047727  1
  Hf  Hf5  1  0.49324848  0.30379510  0.12931369  1
  Hf  Hf6  1  0.30805868  0.29758556  0.63869437  1
  Hf  Hf7  1  0.08737951  0.89487105  0.12154459  1
  Hf  Hf8  1  0.38941175  0.19590669  0.24955587  1
  Hf  Hf9  1  0.88074905  0.89050884  0.62320207  1
  Hf  Hf10  1  0.19593462  0.01357589  0.23948083  1
  Hf  Hf11  1  0.20098490  0.79498256  0.00298369  1
  Hf  Hf12  1  0.70535015  0.30510256  0.86892353  1
  Hf  Hf13  1  0.08151084  0.88260377  0.62501283  1
  Hf  Hf14  1  0.40209467  0.59676671  -0.00078643  1
  Hf  Hf15  1  0.09843700  0.90358337  0.87754537  1
  Hf  Hf16  1  0.07650314  0.11063275  0.10867296  1
  Hf  Hf17  1  0.69286232  0.71281831  0.13445422  1
  Hf  Hf18  1  0.67935368  0.88937094  0.36363390  1
  Hf  Hf19  1  0.70870319  0.31020725  0.63131527  1
  Hf  Hf20  1  0.30475697  0.89879604  0.37827251  1
  Hf  Hf21  1  0.39088982  0.40212879  -0.00222290  1
  Hf  Hf22  1  0.81096411  0.20167666  0.02063673  1
  Hf  Hf23  1  0.09685042  0.28428296  0.86567609  1
  Hf  Hf24  1  0.61148559  0.62557885  0.50540237  1
  Hf  Hf25  1  0.71389079  0.31602388  0.36302164  1
  Hf  Hf26  1  -0.01281285  -0.00601990  0.24520325  1
  Hf  Hf27  1  0.00237190  0.38264082  0.24737097  1
  Hf  Hf28  1  0.79853165  0.60239970  0.02196519  1
  Hf  Hf29  1  0.60551449  0.18908004  0.24990156  1
  Hf  Hf30  1  0.10162634  0.49784121  0.88369499  1
  Hf  Hf31  1  0.40316916  -0.00383922  0.51271358  1
  Hf  Hf32  1  0.30300830  0.30342890  0.37537888  1
  Hf  Hf33  1  0.60817823  0.41900995  0.50378793  1
  Hf  Hf34  1  0.20780219  0.59591208  0.00387700  1
  Hf  Hf35  1  0.79190142  -0.00477660  0.49009137  1
  Hf  Hf36  1  0.89481550  0.28801100  0.62830527  1
  Hf  Hf37  1  0.00612764  0.17743894  0.49352952  1
  Hf  Hf38  1  0.09661759  0.91289828  0.38049602  1
  Hf  Hf39  1  0.78826491  0.78144388  0.48902714  1
  Zr  Zr40  1  0.18841367  0.60094452  0.49363986  1
  Zr  Zr41  1  0.00482003  0.37604037  0.01394509  1
  Zr  Zr42  1  0.50088543  0.71137979  0.87550589  1
  Zr  Zr43  1  0.82154711  -0.00239750  0.01544705  1
  Zr  Zr44  1  0.19724081  0.40079552  0.49752947  1
  Zr  Zr45  1  0.09290692  0.29997378  0.63367903  1
  Zr  Zr46  1  0.40172800  0.60711274  0.49670510  1
  Zr  Zr47  1  0.80914121  0.40533564  0.02059834  1
  Zr  Zr48  1  0.49341814  0.89725622  0.10972268  1
  Zr  Zr49  1  0.00300500  0.60764498  0.75434652  1
  Zr  Zr50  1  0.50413532  0.50526701  0.37308497  1
  Zr  Zr51  1  -0.00582923  0.38881771  0.48463557  1
  Zr  Zr52  1  0.50105838  0.30630104  0.86822808  1
  Zr  Zr53  1  -0.02024464  0.40974594  0.75561371  1
  Zr  Zr54  1  0.00208107  -0.00125672  0.75060544  1
  Zr  Zr55  1  0.40505022  0.80938202  0.24946225  1
  Zr  Zr56  1  0.89008314  0.68885911  0.87573524  1
  Zr  Zr57  1  0.29917868  0.69202798  0.85962472  1
  Zr  Zr58  1  0.50121258  0.30845992  0.62893702  1
  Zr  Zr59  1  0.08954174  0.70219114  0.36260350  1
  Zr  Zr60  1  0.20633191  0.00070162  0.74068735  1
  Zr  Zr61  1  0.49342383  0.10099235  0.11003930  1
  Zr  Zr62  1  0.70511021  0.50897138  0.87947427  1
  Zr  Zr63  1  -0.00574565  0.59576122  0.01296411  1
  Zr  Zr64  1  0.59818097  0.41056467  0.00329423  1
  Zr  Zr65  1  0.20399011  0.19773139  0.51484891  1
  Zr  Zr66  1  0.80026472  0.57390430  0.73590330  1
  Zr  Zr67  1  0.41348218  -0.00909692  0.75872050  1
  Zr  Zr68  1  0.28432644  0.10025392  0.37621857  1
  Zr  Zr69  1  0.91363851  0.69144095  0.61971763  1
  Zr  Zr70  1  0.71565200  0.10215212  0.62266069  1
  Zr  Zr71  1  0.20207569  0.21553793  0.00110481  1
  Zr  Zr72  1  0.30040305  0.49605155  0.62590559  1
  Zr  Zr73  1  0.18933042  0.00379350  0.52388990  1
  Zr  Zr74  1  0.60782384  0.00081173  0.75625073  1
  Zr  Zr75  1  0.60674945  0.20042695  0.49592534  1
  Zr  Zr76  1  0.10973210  0.49726117  0.13277256  1
  Zr  Zr77  1  0.71987268  0.10812890  0.87623162  1
  Zr  Zr78  1  0.78784711  0.01130809  0.24921472  1
  Zr  Zr79  1  0.20644929  0.00253634  -0.00075235  1
  Ta  Ta80  1  0.89651642  0.88497190  0.36935605  1
  Ta  Ta81  1  0.50298516  0.10077444  0.62444422  1
  Ta  Ta82  1  0.29589579  0.10873631  0.87094598  1
  Ta  Ta83  1  0.49831564  0.51349707  0.63137017  1
  Ta  Ta84  1  0.09528049  0.70653601  0.87800375  1
  Ta  Ta85  1  0.80688504  -0.00040390  0.75409556  1
  Ta  Ta86  1  0.69907645  0.70745439  0.87711722  1
  Ta  Ta87  1  0.31591945  0.88479360  0.63620028  1
  Ta  Ta88  1  0.89661756  0.89183449  0.87272491  1
  Ta  Ta89  1  0.58103981  -0.00497367  0.24699779  1
  Ta  Ta90  1  0.20494276  0.60159458  0.25256841  1
  Ta  Ta91  1  0.89678657  0.49275316  0.35947231  1
  Ta  Ta92  1  0.50424107  0.10676915  0.88383650  1
  Ta  Ta93  1  0.31210319  0.50035203  0.13995899  1
  Ta  Ta94  1  0.70360286  0.71778892  0.62978332  1
  Ta  Ta95  1  0.10687444  0.27867017  0.36649548  1
  Ta  Ta96  1  0.51424997  0.72785402  0.37579609  1
  Ta  Ta97  1  0.69574128  0.30023785  0.13668201  1
  Ta  Ta98  1  0.29905890  0.50187297  0.36454764  1
  Ta  Ta99  1  0.50374154  0.50434102  0.13512562  1
  Ta  Ta100  1  0.49220276  0.69833355  0.12086578  1
  Ta  Ta101  1  0.89284444  0.29137866  0.87081809  1
  Ta  Ta102  1  -0.01338379  0.80309685  0.00245030  1
  Ta  Ta103  1  0.69856341  0.90337184  0.13502490  1
  Ta  Ta104  1  0.60431249  0.20044118  0.74834658  1
  Ta  Ta105  1  0.29880878  0.30939351  0.85664497  1
  Ta  Ta106  1  0.29915394  0.70101131  0.13345222  1
  Ta  Ta107  1  0.71502899  0.51927540  0.37008454  1
  Ta  Ta108  1  0.80245423  0.40539113  0.23303771  1
  Ta  Ta109  1  0.19334204  0.40713161  0.74898630  1
  Ta  Ta110  1  0.60749542  0.41762354  0.74396126  1
  Ta  Ta111  1  0.88309507  0.68604742  0.36095332  1
  Ta  Ta112  1  0.79572974  0.80195862  0.00630247  1
  Ta  Ta113  1  0.70361071  0.89337939  0.87708640  1
  Ta  Ta114  1  0.19484059  0.59629002  0.74673441  1
  Ta  Ta115  1  0.30403593  0.70068883  0.36919009  1
  Ta  Ta116  1  0.40272718  0.19020659  0.75224272  1
  Ta  Ta117  1  0.40265256  0.19679882  0.50425754  1
  Ta  Ta118  1  0.08173843  0.50991678  0.62120277  1
  Ta  Ta119  1  0.30600170  0.69585329  0.63895590  1
  Ti  Ti120  1  0.40593443  0.40474400  0.25205251  1
  Ti  Ti121  1  0.39310953  0.80080240  -0.00178799  1
  Ti  Ti122  1  0.48452330  0.50646843  0.85579267  1
  Ti  Ti123  1  0.29907665  0.90361090  0.12414241  1
  Ti  Ti124  1  0.19830893  0.80424019  0.24782626  1
  Ti  Ti125  1  0.81541237  0.20331207  0.24365025  1
  Ti  Ti126  1  0.40361616  0.40110664  0.49689155  1
  Ti  Ti127  1  0.90571379  0.71714966  0.14278965  1
  Ti  Ti128  1  0.59601276  0.82904822  0.51446555  1
  Ti  Ti129  1  0.59975300  0.80072234  -0.00151826  1
  Ti  Ti130  1  0.19639304  0.18984206  0.74329025  1
  Ti  Ti131  1  0.40086405  0.60808338  0.25553402  1
  Ti  Ti132  1  0.20850349  0.38874361  0.24610404  1
  Ti  Ti133  1  0.60026132  0.60441178  0.00662071  1
  Ti  Ti134  1  0.81129167  0.21200448  0.48338726  1
  Ti  Ti135  1  -0.00390747  0.79144864  0.49044326  1
  Ti  Ti136  1  0.79473988  0.79758580  0.75294686  1
  Ti  Ti137  1  0.80141005  0.59884603  0.23329620  1
  Ti  Ti138  1  0.10027454  0.70232161  0.13535234  1
  Ti  Ti139  1  0.00428194  0.18873684  0.25607204  1
  Ti  Ti140  1  0.80508754  0.41441051  0.49840337  1
  Ti  Ti141  1  0.39469130  0.20476771  -0.00826659  1
  Ti  Ti142  1  -0.00430888  0.18584470  0.74854636  1
  Ti  Ti143  1  0.10161366  0.49293140  0.36367263  1
  Ti  Ti144  1  0.69426833  0.10091223  0.37876179  1
  Ti  Ti145  1  0.92154851  0.09684637  0.88229941  1
  Ti  Ti146  1  0.90512466  0.09243480  0.37674679  1
  Ti  Ti147  1  0.91048260  0.08748152  0.61810839  1
  Ti  Ti148  1  0.18642599  0.79134159  0.74379232  1
  Ti  Ti149  1  0.20751406  0.40025436  0.00696967  1
  Ti  Ti150  1  0.29774296  0.11246559  0.11998942  1
  Ti  Ti151  1  0.39876418  -0.00218828  -0.01977029  1
  Ti  Ti152  1  -0.01716292  0.59013826  0.48855402  1
  Ti  Ti153  1  0.41033181  0.79767962  0.50576927  1
  Ti  Ti154  1  0.49837643  0.08533123  0.38215311  1
  Ti  Ti155  1  0.39607456  0.00294456  0.24888422  1
  Ti  Ti156  1  0.30778505  0.88779901  0.86427704  1
  Ti  Ti157  1  0.59343150  0.81542813  0.74564352  1
  Ti  Ti158  1  -0.00187830  0.59500083  0.24434623  1
  Ti  Ti159  1  0.60436050  0.20560825  0.00586812  1
  Mo  Mo160  1  0.50786599  0.90201814  0.62693599  1
  Mo  Mo161  1  0.90460364  0.50345936  0.14369843  1
  Mo  Mo162  1  0.59427021  0.80611243  0.24280420  1
  Mo  Mo163  1  0.69788342  0.50658107  0.61987986  1
  Mo  Mo164  1  -0.00544955  0.19549131  -0.00774548  1
  Mo  Mo165  1  0.79543660  0.39064052  0.75129821  1
  Mo  Mo166  1  0.91182930  0.28460612  0.13793418  1
  Mo  Mo167  1  0.89898960  0.29028952  0.36718381  1
  Mo  Mo168  1  0.89352613  0.88995767  0.13128158  1
  Mo  Mo169  1  -0.00299629  0.79860060  0.75951470  1
  Mo  Mo170  1  0.70197701  0.69970904  0.36015148  1
  Mo  Mo171  1  0.29684858  0.49224395  0.86519979  1
  Mo  Mo172  1  0.60487568  0.40305863  0.24558083  1
  Mo  Mo173  1  0.49491419  0.71875086  0.62730931  1
  Mo  Mo174  1  0.70361393  0.90042443  0.63040044  1
  Mo  Mo175  1  0.49422643  0.90939220  0.37952344  1
  Mo  Mo176  1  0.30350596  0.30708641  0.12990144  1
  Mo  Mo177  1  0.40621351  0.79682763  0.74710664  1
  Mo  Mo178  1  0.30950597  0.10041850  0.63570291  1
  Mo  Mo179  1  0.40096682  0.59755407  0.74518244  1
  Mo  Mo180  1  0.10451120  0.10342200  0.87890558  1
  Mo  Mo181  1  0.89751453  0.48750713  0.61183313  1
  Mo  Mo182  1  0.81256744  0.18884926  0.75143109  1
  Mo  Mo183  1  0.09441205  0.09440967  0.37023622  1
  Mo  Mo184  1  0.80121556  0.59255592  0.49941999  1
  Mo  Mo185  1  0.11169660  0.29478526  0.13239670  1
  Mo  Mo186  1  0.69243177  0.50199239  0.13158306  1
  Mo  Mo187  1  0.19181783  0.20542627  0.23874923  1
  Mo  Mo188  1  0.09433203  0.09722633  0.62790584  1
  Mo  Mo189  1  0.50282151  0.90049062  0.89020224  1
  Mo  Mo190  1  0.89865094  0.09924291  0.13265692  1
  Mo  Mo191  1  0.40296021  0.40398263  0.75243470  1
  Mo  Mo192  1  0.89374787  0.48236545  0.88329375  1
  Mo  Mo193  1  0.00085110  0.79523498  0.25447842  1
  Mo  Mo194  1  -0.00133538  -0.00670733  -0.00544191  1
  Mo  Mo195  1  -0.01477224  -0.01480765  0.49654070  1
  Mo  Mo196  1  0.59857559  0.00554859  0.50054313  1
  Mo  Mo197  1  0.10508253  0.69402179  0.62238872  1
  Mo  Mo198  1  0.69141282  0.10573124  0.12850251  1
  Mo  Mo199  1  0.80270914  0.80229787  0.25110877  1
