# generated using pymatgen
data_HfZrTaTiMo
_symmetry_space_group_name_H-M   'P 1'
_cell_length_a   15.21462039
_cell_length_b   15.22206018
_cell_length_c   16.84702707
_cell_angle_alpha   90.08467877
_cell_angle_beta   89.97025833
_cell_angle_gamma   90.07244108
_symmetry_Int_Tables_number   1
_chemical_formula_structural   HfZrTaTiMo
_chemical_formula_sum   'Hf40 Zr40 Ta40 Ti40 Mo40'
_cell_volume   3901.72763584
_cell_formula_units_Z   40
loop_
 _symmetry_equiv_pos_site_id
 _symmetry_equiv_pos_as_xyz
  1  'x, y, z'
loop_
 _atom_site_type_symbol
 _atom_site_label
 _atom_site_symmetry_multiplicity
 _atom_site_fract_x
 _atom_site_fract_y
 _atom_site_fract_z
 _atom_site_occupancy
  Hf  Hf0  1  0.68531930  0.69685337  0.89169517  1
  Hf  Hf1  1  0.09797649  0.90749165  0.59650171  1
  Hf  Hf2  1  0.21427788  0.60373889  0.50198959  1
  Hf  Hf3  1  0.29601720  0.89420839  0.61112115  1
  Hf  Hf4  1  0.78469438  0.59690063  0.75416552  1
  Hf  Hf5  1  -0.00801198  0.21494829  0.48510167  1
  Hf  Hf6  1  0.89868810  0.29840550  0.62328826  1
  Hf  Hf7  1  0.39215986  0.00054774  0.24571505  1
  Hf  Hf8  1  0.80368630  -0.01815397  0.49424583  1
  Hf  Hf9  1  0.30122606  0.10204033  0.86242250  1
  Hf  Hf10  1  0.69158514  0.49818008  0.62817486  1
  Hf  Hf11  1  0.89343911  0.09956935  0.86871778  1
  Hf  Hf12  1  0.50267062  0.50558819  0.12231685  1
  Hf  Hf13  1  0.60358087  0.40496484  0.48575598  1
  Hf  Hf14  1  0.59438991  -0.01083610  0.23631402  1
  Hf  Hf15  1  0.19208778  0.60390546  -0.00790295  1
  Hf  Hf16  1  0.19988025  0.20194553  -0.00633317  1
  Hf  Hf17  1  0.30068559  0.10070679  0.38423892  1
  Hf  Hf18  1  0.20694377  0.80281064  0.26527077  1
  Hf  Hf19  1  0.80136019  -0.00162692  0.23923502  1
  Hf  Hf20  1  0.79214190  0.60915793  0.49595267  1
  Hf  Hf21  1  0.09999745  0.10286193  0.13149976  1
  Hf  Hf22  1  0.60095050  0.18199179  0.73950929  1
  Hf  Hf23  1  0.10244126  0.69243058  0.12953426  1
  Hf  Hf24  1  0.50382112  0.89113777  0.88815009  1
  Hf  Hf25  1  0.51437776  0.88426418  0.62500358  1
  Hf  Hf26  1  0.19598309  0.82090978  0.74660396  1
  Hf  Hf27  1  0.87864418  0.70945805  0.62905505  1
  Hf  Hf28  1  0.51581843  0.31485856  0.86085360  1
  Hf  Hf29  1  0.40045936  0.01315853  0.01201256  1
  Hf  Hf30  1  0.30525418  0.71789611  0.11240868  1
  Hf  Hf31  1  0.79979370  0.18322848  0.00879560  1
  Hf  Hf32  1  0.81100403  0.80124807  -0.00177305  1
  Hf  Hf33  1  0.00115284  -0.00333287  0.26029505  1
  Hf  Hf34  1  0.60039557  -0.01884326  0.49439389  1
  Hf  Hf35  1  0.09466835  0.51461684  0.86115979  1
  Hf  Hf36  1  0.41142949  -0.00184845  0.73685536  1
  Hf  Hf37  1  0.19057109  0.19681851  0.73939029  1
  Hf  Hf38  1  0.89003463  0.49039875  0.37079352  1
  Hf  Hf39  1  -0.00368275  0.79065510  0.26009291  1
  Zr  Zr40  1  0.32013972  0.50189781  0.63712824  1
  Zr  Zr41  1  0.40654787  0.78127162  0.49412168  1
  Zr  Zr42  1  0.09789666  0.31241938  0.12052822  1
  Zr  Zr43  1  0.57192357  0.58610164  0.76020409  1
  Zr  Zr44  1  0.69687692  0.07946961  0.62070707  1
  Zr  Zr45  1  0.39809054  0.20627415  0.73800254  1
  Zr  Zr46  1  0.49526268  0.30006071  0.13925472  1
  Zr  Zr47  1  0.29869348  0.71597835  0.88618204  1
  Zr  Zr48  1  0.49480303  0.50847651  0.36430204  1
  Zr  Zr49  1  0.79672550  0.38539057  -0.01219761  1
  Zr  Zr50  1  0.90981103  0.49360401  0.13230943  1
  Zr  Zr51  1  0.61072357  0.62282813  0.25034275  1
  Zr  Zr52  1  0.29751087  0.91278652  0.88017320  1
  Zr  Zr53  1  0.40215793  0.20494881  -0.00782953  1
  Zr  Zr54  1  0.20144723  0.40316598  0.75225320  1
  Zr  Zr55  1  0.49795936  0.10250320  0.37410373  1
  Zr  Zr56  1  0.72359102  0.29470050  0.38196557  1
  Zr  Zr57  1  0.60208309  0.20839553  0.00499186  1
  Zr  Zr58  1  0.62048300  0.40749050  0.26238323  1
  Zr  Zr59  1  0.69995444  0.09039441  0.37557423  1
  Zr  Zr60  1  0.91242059  0.90274064  0.87185019  1
  Zr  Zr61  1  0.09720541  0.08764463  0.87136710  1
  Zr  Zr62  1  0.70908331  0.50147654  0.12108235  1
  Zr  Zr63  1  0.60565549  0.19150544  0.23886826  1
  Zr  Zr64  1  0.28522149  0.50999844  0.12607636  1
  Zr  Zr65  1  0.40373631  0.40691194  -0.00665621  1
  Zr  Zr66  1  0.61165729  0.01011867  0.01818171  1
  Zr  Zr67  1  0.70616351  0.29113351  0.61910348  1
  Zr  Zr68  1  -0.00245263  0.40342191  -0.01321236  1
  Zr  Zr69  1  0.90567240  0.69611073  0.86395279  1
  Zr  Zr70  1  0.01299029  0.59052033  0.25856439  1
  Zr  Zr71  1  0.50448139  0.33171607  0.63682711  1
  Zr  Zr72  1  0.59373904  0.61235538  0.49364607  1
  Zr  Zr73  1  0.40812501  0.20673709  0.51622215  1
  Zr  Zr74  1  0.29578256  0.30558453  0.13022264  1
  Zr  Zr75  1  0.09980084  0.71123731  0.61616064  1
  Zr  Zr76  1  -0.00438063  0.58423257  0.51350018  1
  Zr  Zr77  1  0.08687871  0.10322633  0.61214136  1
  Zr  Zr78  1  0.00180965  0.20119145  0.26622648  1
  Zr  Zr79  1  0.18570504  0.41133261  0.25755126  1
  Ta  Ta80  1  0.39745186  0.41233815  0.49473617  1
  Ta  Ta81  1  0.19936430  0.40535582  -0.01865513  1
  Ta  Ta82  1  -0.00594451  0.19615182  -0.00257836  1
  Ta  Ta83  1  0.40581407  0.79043207  0.75143085  1
  Ta  Ta84  1  0.40504604  -0.00170695  0.50748655  1
  Ta  Ta85  1  0.30736748  0.70155779  0.63024023  1
  Ta  Ta86  1  0.70176834  0.90620024  0.87921558  1
  Ta  Ta87  1  0.09493876  0.31488491  0.61929592  1
  Ta  Ta88  1  0.49357308  0.29812545  0.36905161  1
  Ta  Ta89  1  0.09213293  0.29595941  0.87071330  1
  Ta  Ta90  1  0.78873066  0.80482081  0.75747144  1
  Ta  Ta91  1  0.49918476  0.89543325  0.37184248  1
  Ta  Ta92  1  0.90120332  0.29067536  0.12667280  1
  Ta  Ta93  1  0.20354868  0.20442982  0.26522183  1
  Ta  Ta94  1  0.28998482  0.09174282  0.61748186  1
  Ta  Ta95  1  -0.01106172  0.20542176  0.74853784  1
  Ta  Ta96  1  0.89253983  0.69663090  0.12551009  1
  Ta  Ta97  1  0.49398317  0.88889447  0.11588412  1
  Ta  Ta98  1  0.79856484  -0.00456062  0.74472733  1
  Ta  Ta99  1  -0.00406081  -0.00186733  0.01322736  1
  Ta  Ta100  1  0.50958080  0.09161560  0.86882674  1
  Ta  Ta101  1  0.50558200  0.70294699  0.10513011  1
  Ta  Ta102  1  0.01021703  0.79880255  0.00702901  1
  Ta  Ta103  1  0.80602952  0.59248378  -0.00719716  1
  Ta  Ta104  1  0.39543929  0.61253527  0.24669525  1
  Ta  Ta105  1  -0.00616509  0.40407467  0.74832536  1
  Ta  Ta106  1  -0.00518965  0.60549926  -0.00033109  1
  Ta  Ta107  1  0.29975331  0.11012604  0.13678198  1
  Ta  Ta108  1  0.19885123  0.21054430  0.50019631  1
  Ta  Ta109  1  0.29914328  0.30777315  0.38094283  1
  Ta  Ta110  1  0.31616154  0.51445022  0.86577863  1
  Ta  Ta111  1  0.70144509  0.87957070  0.12783246  1
  Ta  Ta112  1  0.40869519  0.80032742  0.25038174  1
  Ta  Ta113  1  0.09472349  0.71481647  0.86964828  1
  Ta  Ta114  1  0.29817885  0.50723341  0.37663872  1
  Ta  Ta115  1  0.10391061  0.89677901  0.13005974  1
  Ta  Ta116  1  0.80074159  0.39145875  0.75704101  1
  Ta  Ta117  1  0.10004138  0.90027152  0.39236226  1
  Ta  Ta118  1  0.20054900  0.61454848  0.74733980  1
  Ta  Ta119  1  0.59940867  0.79162159  0.75832809  1
  Ti  Ti120  1  0.19397795  0.40619026  0.50603474  1
  Ti  Ti121  1  0.30083597  0.89554194  0.38845112  1
  Ti  Ti122  1  0.01030471  -0.00205974  0.74035995  1
  Ti  Ti123  1  0.19377476  0.00105967  0.00916191  1
  Ti  Ti124  1  0.89410559  0.49782332  0.86739008  1
  Ti  Ti125  1  0.59914922  0.19346947  0.50634025  1
  Ti  Ti126  1  0.68393724  0.48437187  0.88284864  1
  Ti  Ti127  1  0.90579506  0.89080379  0.13198209  1
  Ti  Ti128  1  0.80768627  0.20071548  0.24015274  1
  Ti  Ti129  1  0.20352013  0.60881870  0.26582363  1
  Ti  Ti130  1  -0.02507535  0.79661243  0.49027788  1
  Ti  Ti131  1  0.81653165  0.40372269  0.50493938  1
  Ti  Ti132  1  0.70839403  0.87526922  0.62477444  1
  Ti  Ti133  1  0.90070543  0.90429802  0.62471447  1
  Ti  Ti134  1  0.88439423  0.88020641  0.36706786  1
  Ti  Ti135  1  0.30197481  0.30856077  0.86486580  1
  Ti  Ti136  1  0.10270892  0.90102269  0.88157082  1
  Ti  Ti137  1  0.69805319  0.09093193  0.86665024  1
  Ti  Ti138  1  0.50811956  0.71210228  0.36931935  1
  Ti  Ti139  1  0.69324104  0.87359105  0.35986934  1
  Ti  Ti140  1  -0.01034606  0.00391951  0.48510499  1
  Ti  Ti141  1  -0.00391661  0.38816711  0.25947675  1
  Ti  Ti142  1  0.19614140  0.00088094  0.25974111  1
  Ti  Ti143  1  0.89189733  0.09986987  0.62255495  1
  Ti  Ti144  1  0.50037929  0.68652164  0.62645231  1
  Ti  Ti145  1  0.80737655  -0.00346756  0.01733730  1
  Ti  Ti146  1  -0.00332463  0.80513184  0.74144144  1
  Ti  Ti147  1  0.48793951  0.69109668  0.90278284  1
  Ti  Ti148  1  0.71079737  0.28258151  0.86286236  1
  Ti  Ti149  1  0.70670353  0.30413410  0.12891218  1
  Ti  Ti150  1  0.80521252  0.60650899  0.26007363  1
  Ti  Ti151  1  0.10049876  0.70258599  0.39152377  1
  Ti  Ti152  1  0.88707219  0.10772607  0.37721053  1
  Ti  Ti153  1  -0.00206467  0.59748732  0.72973765  1
  Ti  Ti154  1  0.29233723  0.90622393  0.12296062  1
  Ti  Ti155  1  0.69913569  0.69700362  0.10883517  1
  Ti  Ti156  1  0.39152277  0.40350406  0.25572377  1
  Ti  Ti157  1  0.29557037  0.30609401  0.62237965  1
  Ti  Ti158  1  0.10569579  0.09990329  0.38571432  1
  Ti  Ti159  1  0.09755739  0.49132334  0.38831892  1
  Mo  Mo160  1  0.60589842  0.80135940  0.00058678  1
  Mo  Mo161  1  0.79479750  0.78751394  0.23890766  1
  Mo  Mo162  1  0.70631277  0.50381960  0.37292824  1
  Mo  Mo163  1  0.60762468  0.39380626  0.00334618  1
  Mo  Mo164  1  0.10883700  0.30718693  0.38495276  1
  Mo  Mo165  1  0.41355877  0.41821314  0.76591752  1
  Mo  Mo166  1  0.78948781  0.79955661  0.49704325  1
  Mo  Mo167  1  0.81094133  0.38832161  0.24634530  1
  Mo  Mo168  1  0.68547867  0.70638675  0.63514170  1
  Mo  Mo169  1  0.90137029  0.70214507  0.37798966  1
  Mo  Mo170  1  0.39546146  0.60140590  0.00576594  1
  Mo  Mo171  1  0.60962344  -0.02139527  0.75530823  1
  Mo  Mo172  1  0.10355704  0.50011690  0.63646007  1
  Mo  Mo173  1  0.00301613  0.40618419  0.50407860  1
  Mo  Mo174  1  0.90070651  0.29303777  0.86659757  1
  Mo  Mo175  1  0.61302906  0.79445570  0.49558395  1
  Mo  Mo176  1  0.90728698  0.09760926  0.12627014  1
  Mo  Mo177  1  0.61570902  0.40093960  0.75584609  1
  Mo  Mo178  1  0.31062208  0.69863591  0.36863286  1
  Mo  Mo179  1  0.80074588  0.18894548  0.50009700  1
  Mo  Mo180  1  0.40135723  0.59507480  0.49764814  1
  Mo  Mo181  1  0.59391409  0.79834518  0.23900821  1
  Mo  Mo182  1  0.39728969  0.61427072  0.75764753  1
  Mo  Mo183  1  0.80144164  0.19004902  0.74917581  1
  Mo  Mo184  1  0.18765681  0.81460435  0.00394926  1
  Mo  Mo185  1  0.09978375  0.50037105  0.11683055  1
  Mo  Mo186  1  0.39128959  0.20776134  0.25887645  1
  Mo  Mo187  1  0.20281228  0.00703120  0.48920198  1
  Mo  Mo188  1  0.71077472  0.70581967  0.36826508  1
  Mo  Mo189  1  0.20019374  0.79729418  0.48529295  1
  Mo  Mo190  1  0.60204853  0.59132645  0.00046889  1
  Mo  Mo191  1  0.90108360  0.30035895  0.37606042  1
  Mo  Mo192  1  0.19481648  0.00077482  0.74027006  1
  Mo  Mo193  1  0.49890441  0.50564327  0.61989697  1
  Mo  Mo194  1  0.48856252  0.09860035  0.13188931  1
  Mo  Mo195  1  0.39840196  0.80966305  0.00666162  1
  Mo  Mo196  1  0.50515284  0.50753805  0.89410067  1
  Mo  Mo197  1  0.49903149  0.08701551  0.61944396  1
  Mo  Mo198  1  0.89481778  0.49498189  0.63702382  1
  Mo  Mo199  1  0.70716531  0.09597464  0.13062782  1
