# generated using pymatgen
data_HfZrTaTiMo
_symmetry_space_group_name_H-M   'P 1'
_cell_length_a   15.21030401
_cell_length_b   15.20684593
_cell_length_c   16.85155788
_cell_angle_alpha   89.96630403
_cell_angle_beta   89.92875730
_cell_angle_gamma   90.03572740
_symmetry_Int_Tables_number   1
_chemical_formula_structural   HfZrTaTiMo
_chemical_formula_sum   'Hf40 Zr40 Ta40 Ti40 Mo40'
_cell_volume   3897.77352534
_cell_formula_units_Z   40
loop_
 _symmetry_equiv_pos_site_id
 _symmetry_equiv_pos_as_xyz
  1  'x, y, z'
loop_
 _atom_site_type_symbol
 _atom_site_label
 _atom_site_symmetry_multiplicity
 _atom_site_fract_x
 _atom_site_fract_y
 _atom_site_fract_z
 _atom_site_occupancy
  Hf  Hf0  1  0.51787329  0.49501074  0.87116392  1
  Hf  Hf1  1  0.60091040  0.80634510  0.25354579  1
  Hf  Hf2  1  0.40892347  0.60692464  -0.00815600  1
  Hf  Hf3  1  0.61539488  0.39823537  0.01996652  1
  Hf  Hf4  1  0.60250528  -0.01938707  0.00308259  1
  Hf  Hf5  1  0.39362902  0.79799546  0.50761117  1
  Hf  Hf6  1  0.80760998  0.19479544  0.48982704  1
  Hf  Hf7  1  0.23129016  0.40375901  0.76510867  1
  Hf  Hf8  1  0.09567855  0.30388284  0.86658722  1
  Hf  Hf9  1  0.71001400  0.51057854  0.38540891  1
  Hf  Hf10  1  0.50114248  0.48917779  0.62940450  1
  Hf  Hf11  1  0.21136611  0.20982467  0.50700800  1
  Hf  Hf12  1  0.79260030  0.20124171  0.75574745  1
  Hf  Hf13  1  0.90580215  0.29566427  0.62680273  1
  Hf  Hf14  1  0.51310624  0.28777145  0.88106593  1
  Hf  Hf15  1  0.10219990  0.31558759  0.64219811  1
  Hf  Hf16  1  0.58802562  0.20054188  0.50427786  1
  Hf  Hf17  1  0.08968100  0.09864964  0.86988031  1
  Hf  Hf18  1  0.68693643  0.11117943  0.88199434  1
  Hf  Hf19  1  0.88310186  0.88800240  0.12828907  1
  Hf  Hf20  1  0.19898944  0.20441028  0.24415472  1
  Hf  Hf21  1  0.18447327  0.79098167  0.50853211  1
  Hf  Hf22  1  0.79671718  0.78525303  0.26020728  1
  Hf  Hf23  1  0.30115117  0.49749629  0.13455118  1
  Hf  Hf24  1  0.81594736  0.60503230  -0.00213853  1
  Hf  Hf25  1  0.29785737  0.09245331  0.12361931  1
  Hf  Hf26  1  0.61789195  0.60540578  0.24645851  1
  Hf  Hf27  1  0.09370308  0.70251608  0.13476193  1
  Hf  Hf28  1  0.19884200  0.60427390  0.25975688  1
  Hf  Hf29  1  0.48356337  0.88544736  0.11292325  1
  Hf  Hf30  1  0.50555342  0.90631320  0.38221016  1
  Hf  Hf31  1  0.59297346  0.78995584  0.75125255  1
  Hf  Hf32  1  0.69170989  0.09188214  0.37423053  1
  Hf  Hf33  1  -0.00352004  0.20745378  0.23906828  1
  Hf  Hf34  1  0.70644051  0.71036157  0.11533928  1
  Hf  Hf35  1  0.09142238  0.90418905  0.37479572  1
  Hf  Hf36  1  0.39763033  0.79784377  0.26111134  1
  Hf  Hf37  1  0.61982111  0.59050949  0.74500741  1
  Hf  Hf38  1  -0.00716736  0.00078372  0.00768804  1
  Hf  Hf39  1  0.21233008  0.40048271  -0.01627287  1
  Zr  Zr40  1  0.39461849  0.19585444  0.00157006  1
  Zr  Zr41  1  0.20029397  0.60082747  -0.00058266  1
  Zr  Zr42  1  0.09418859  0.50556199  0.85677178  1
  Zr  Zr43  1  0.30601853  0.10948841  0.37668786  1
  Zr  Zr44  1  0.39507934  0.58862711  0.49418278  1
  Zr  Zr45  1  0.49906956  0.10119675  0.36211758  1
  Zr  Zr46  1  0.91644210  0.09721448  0.37287757  1
  Zr  Zr47  1  0.09412734  0.11303883  0.62613170  1
  Zr  Zr48  1  0.87884126  0.11386507  0.12474511  1
  Zr  Zr49  1  0.08926528  0.70214661  0.87777490  1
  Zr  Zr50  1  0.49415434  0.29524454  0.36156830  1
  Zr  Zr51  1  0.21456724  0.80954148  0.01241512  1
  Zr  Zr52  1  0.50609595  0.49208825  0.36691934  1
  Zr  Zr53  1  0.10073342  0.30896993  0.11536562  1
  Zr  Zr54  1  0.81362452  0.40443702  0.26513555  1
  Zr  Zr55  1  -0.01615717  0.20803926  -0.00179697  1
  Zr  Zr56  1  0.30688372  0.71605844  0.86898979  1
  Zr  Zr57  1  0.78475783  -0.00367835  0.24995730  1
  Zr  Zr58  1  0.79586675  0.41522104  0.74830378  1
  Zr  Zr59  1  0.80994736  0.39597474  0.48883900  1
  Zr  Zr60  1  0.49481631  0.90648188  0.62365380  1
  Zr  Zr61  1  0.10008444  0.89637560  0.87249664  1
  Zr  Zr62  1  0.70182980  0.89831821  0.62864799  1
  Zr  Zr63  1  -0.01800912  0.78744707  0.00405014  1
  Zr  Zr64  1  0.20535843  -0.00262962  0.74202988  1
  Zr  Zr65  1  -0.01408747  0.63276573  0.74101369  1
  Zr  Zr66  1  0.11921360  0.52349010  0.63540518  1
  Zr  Zr67  1  0.80621040  0.78714512  0.76014798  1
  Zr  Zr68  1  0.08859619  0.50634325  0.12964949  1
  Zr  Zr69  1  0.19207365  0.00601515  0.24767785  1
  Zr  Zr70  1  0.39707690  0.19725003  0.76733608  1
  Zr  Zr71  1  0.70010238  0.09649711  0.62596643  1
  Zr  Zr72  1  0.29746298  0.90587048  0.38362803  1
  Zr  Zr73  1  0.90628043  0.50947189  0.62081800  1
  Zr  Zr74  1  0.20705932  0.41659190  0.50008577  1
  Zr  Zr75  1  0.60972755  0.39191315  0.22891649  1
  Zr  Zr76  1  0.18898291  0.79265387  0.73117740  1
  Zr  Zr77  1  0.40667800  0.39900022  0.00363451  1
  Zr  Zr78  1  0.09304694  0.29741872  0.38206966  1
  Zr  Zr79  1  0.20063197  0.00497596  0.00228790  1
  Ta  Ta80  1  0.39153153  0.79959691  0.73400505  1
  Ta  Ta81  1  0.20133873  0.39759429  0.25452478  1
  Ta  Ta82  1  0.49972679  0.09137474  0.11770771  1
  Ta  Ta83  1  0.59988318  0.79401625  0.50493371  1
  Ta  Ta84  1  0.89471830  0.89558791  0.62577596  1
  Ta  Ta85  1  0.89722644  0.09222880  0.62250033  1
  Ta  Ta86  1  0.49688734  0.10155868  0.63133617  1
  Ta  Ta87  1  0.40326787  0.21021782  0.22561406  1
  Ta  Ta88  1  0.89271043  0.49576602  0.12872953  1
  Ta  Ta89  1  0.58902102  0.00160394  0.76105845  1
  Ta  Ta90  1  0.30487199  0.49251456  0.36462175  1
  Ta  Ta91  1  0.50016235  0.69109320  0.62368425  1
  Ta  Ta92  1  0.48321940  0.87937530  0.88034013  1
  Ta  Ta93  1  0.40701455  0.60212173  0.25567998  1
  Ta  Ta94  1  0.61013099  0.19238510  0.22479714  1
  Ta  Ta95  1  0.79763267  0.20755038  0.26071927  1
  Ta  Ta96  1  0.20009101  0.20136282  -0.00718737  1
  Ta  Ta97  1  0.78021196  0.81420822  -0.01602191  1
  Ta  Ta98  1  0.20196349  -0.00251672  0.51577666  1
  Ta  Ta99  1  0.30981223  0.10281733  0.62491522  1
  Ta  Ta100  1  0.71552061  0.69383767  0.61138795  1
  Ta  Ta101  1  0.50277209  0.50681974  0.13206293  1
  Ta  Ta102  1  0.31192172  0.70382020  0.13125358  1
  Ta  Ta103  1  0.80724299  -0.01272643  0.49444050  1
  Ta  Ta104  1  0.60548260  0.38600063  0.74519010  1
  Ta  Ta105  1  0.29076711  0.68027500  0.62342350  1
  Ta  Ta106  1  0.70301313  0.49966640  0.60799823  1
  Ta  Ta107  1  -0.01268158  0.19840309  0.75699030  1
  Ta  Ta108  1  0.40199422  0.59791590  0.75619236  1
  Ta  Ta109  1  0.19834827  0.80383469  0.24888897  1
  Ta  Ta110  1  -0.00089516  -0.00151056  0.50608269  1
  Ta  Ta111  1  0.89831362  0.31263582  0.86825831  1
  Ta  Ta112  1  0.40168775  0.38093591  0.50113843  1
  Ta  Ta113  1  -0.01379656  -0.00096807  0.74766608  1
  Ta  Ta114  1  0.09279864  0.90261067  0.13397626  1
  Ta  Ta115  1  0.59785558  0.39559573  0.50140636  1
  Ta  Ta116  1  0.60975123  0.59451304  0.00378727  1
  Ta  Ta117  1  0.90177803  0.88928621  0.37103373  1
  Ta  Ta118  1  0.79692718  0.01092181  -0.00968595  1
  Ta  Ta119  1  0.69124398  0.29624532  0.37323660  1
  Ti  Ti120  1  -0.01688897  0.79857115  0.50117569  1
  Ti  Ti121  1  0.70250789  0.31318561  0.88227509  1
  Ti  Ti122  1  0.31341374  0.49383486  0.63261518  1
  Ti  Ti123  1  0.10539096  0.10137380  0.39152163  1
  Ti  Ti124  1  0.60106777  -0.00094210  0.50503664  1
  Ti  Ti125  1  0.31027238  0.29991726  0.63379985  1
  Ti  Ti126  1  -0.00561851  0.41925536  -0.00619630  1
  Ti  Ti127  1  0.01052334  0.60805126  0.50156545  1
  Ti  Ti128  1  0.59756403  0.19569065  0.74663537  1
  Ti  Ti129  1  0.69669977  0.30158791  0.61949675  1
  Ti  Ti130  1  0.59940577  0.59835773  0.50373315  1
  Ti  Ti131  1  0.20603120  0.19702446  0.75992556  1
  Ti  Ti132  1  0.00476091  0.39847390  0.49715190  1
  Ti  Ti133  1  0.40034786  0.01319890  0.50613696  1
  Ti  Ti134  1  0.70337462  0.70169977  0.39416568  1
  Ti  Ti135  1  0.30587778  0.30305499  0.36880032  1
  Ti  Ti136  1  0.39503812  -0.00540826  0.75411201  1
  Ti  Ti137  1  -0.00532875  0.00021708  0.23964574  1
  Ti  Ti138  1  0.80885108  0.40414958  -0.00338069  1
  Ti  Ti139  1  0.89727954  0.68516736  0.37605408  1
  Ti  Ti140  1  0.39921955  -0.00264484  0.24522557  1
  Ti  Ti141  1  0.90623656  0.68367446  0.14407000  1
  Ti  Ti142  1  0.89911849  0.90399059  0.87334374  1
  Ti  Ti143  1  0.70112994  0.89316085  0.38729720  1
  Ti  Ti144  1  0.48541732  0.07682801  0.89056890  1
  Ti  Ti145  1  0.08467214  0.70562483  0.36611165  1
  Ti  Ti146  1  0.73726651  0.29302327  0.12003123  1
  Ti  Ti147  1  0.89559650  0.51716555  0.86446721  1
  Ti  Ti148  1  0.59738546  -0.00379142  0.22874395  1
  Ti  Ti149  1  0.50333419  0.69640630  0.12275015  1
  Ti  Ti150  1  0.09830177  0.50846233  0.37593275  1
  Ti  Ti151  1  0.68789964  0.89977440  0.86786438  1
  Ti  Ti152  1  0.50543123  0.69730607  0.38173276  1
  Ti  Ti153  1  0.79805855  0.00427130  0.76221692  1
  Ti  Ti154  1  0.69769611  0.68455201  0.87975153  1
  Ti  Ti155  1  0.08537603  0.89863071  0.62400605  1
  Ti  Ti156  1  0.49490126  0.29504023  0.63092097  1
  Ti  Ti157  1  0.29289052  0.69631351  0.37998382  1
  Ti  Ti158  1  0.60916694  0.19778521  0.02311171  1
  Ti  Ti159  1  0.00122160  0.40552460  0.26002654  1
  Mo  Mo160  1  0.40006986  0.20304653  0.50921927  1
  Mo  Mo161  1  0.29559702  0.89271018  0.13626750  1
  Mo  Mo162  1  0.59290808  0.78063638  -0.01450949  1
  Mo  Mo163  1  0.09252993  0.09755039  0.12152977  1
  Mo  Mo164  1  0.90501024  0.31782212  0.12268349  1
  Mo  Mo165  1  0.92001395  0.50503870  0.38578413  1
  Mo  Mo166  1  0.89029753  0.09843556  0.87340571  1
  Mo  Mo167  1  0.39152409  -0.01224442  -0.00567642  1
  Mo  Mo168  1  0.90520245  0.29831400  0.37701608  1
  Mo  Mo169  1  0.39505775  0.39994788  0.23851977  1
  Mo  Mo170  1  0.21332770  0.60576719  0.74943903  1
  Mo  Mo171  1  0.79258957  0.21517754  -0.01306691  1
  Mo  Mo172  1  0.69879505  0.09709364  0.11612562  1
  Mo  Mo173  1  0.00216901  0.19921766  0.50678060  1
  Mo  Mo174  1  0.80333342  0.59749078  0.25270745  1
  Mo  Mo175  1  0.31433389  0.50559847  0.86870123  1
  Mo  Mo176  1  0.30363716  0.29386165  0.87587121  1
  Mo  Mo177  1  -0.00704232  0.59231061  -0.00011570  1
  Mo  Mo178  1  -0.01140078  0.59550945  0.26261940  1
  Mo  Mo179  1  0.71200521  0.50543297  0.12349717  1
  Mo  Mo180  1  0.40120430  0.79265605  0.00267206  1
  Mo  Mo181  1  0.81047404  0.60521511  0.49927846  1
  Mo  Mo182  1  0.29714281  0.30316458  0.12638028  1
  Mo  Mo183  1  0.89738236  0.70925824  0.60985471  1
  Mo  Mo184  1  0.30866556  0.90972861  0.87082099  1
  Mo  Mo185  1  0.50321374  0.29702168  0.12350136  1
  Mo  Mo186  1  0.79319777  0.60487601  0.74800514  1
  Mo  Mo187  1  0.29819909  0.90221527  0.61585311  1
  Mo  Mo188  1  0.69458192  0.89727647  0.11768973  1
  Mo  Mo189  1  0.79997997  0.80093025  0.48898261  1
  Mo  Mo190  1  0.08908004  0.70423810  0.61489405  1
  Mo  Mo191  1  0.50793930  0.69641959  0.86800336  1
  Mo  Mo192  1  0.29524200  0.09281217  0.87655331  1
  Mo  Mo193  1  -0.00150803  0.80183709  0.25359651  1
  Mo  Mo194  1  -0.00572577  0.81840029  0.74450187  1
  Mo  Mo195  1  0.70859216  0.49399665  0.88035604  1
  Mo  Mo196  1  0.41783195  0.39639136  0.75360636  1
  Mo  Mo197  1  0.19771805  0.60539346  0.47954042  1
  Mo  Mo198  1  -0.00352405  0.40167051  0.75279671  1
  Mo  Mo199  1  0.89232034  0.70971255  0.87891021  1
