# generated using pymatgen
data_HfZrTaTiMo
_symmetry_space_group_name_H-M   'P 1'
_cell_length_a   15.20966101
_cell_length_b   15.21862558
_cell_length_c   16.83804950
_cell_angle_alpha   90.12080102
_cell_angle_beta   90.09412492
_cell_angle_gamma   90.00535287
_symmetry_Int_Tables_number   1
_chemical_formula_structural   HfZrTaTiMo
_chemical_formula_sum   'Hf40 Zr40 Ta40 Ti40 Mo40'
_cell_volume   3897.49167141
_cell_formula_units_Z   40
loop_
 _symmetry_equiv_pos_site_id
 _symmetry_equiv_pos_as_xyz
  1  'x, y, z'
loop_
 _atom_site_type_symbol
 _atom_site_label
 _atom_site_symmetry_multiplicity
 _atom_site_fract_x
 _atom_site_fract_y
 _atom_site_fract_z
 _atom_site_occupancy
  Hf  Hf0  1  0.61620377  0.01106788  0.00697411  1
  Hf  Hf1  1  0.92220479  0.51842214  0.38508968  1
  Hf  Hf2  1  0.29362548  0.10748478  0.13077964  1
  Hf  Hf3  1  -0.00026250  0.80967772  0.75263935  1
  Hf  Hf4  1  0.28319105  0.89972908  0.62947814  1
  Hf  Hf5  1  0.20671081  0.39474707  0.49255395  1
  Hf  Hf6  1  0.00093535  0.80684512  0.50204463  1
  Hf  Hf7  1  0.87666265  0.89962799  0.88806157  1
  Hf  Hf8  1  0.39765532  0.59890047  0.76019878  1
  Hf  Hf9  1  0.78484354  -0.00439040  0.74366557  1
  Hf  Hf10  1  0.20038204  0.79856841  0.76700654  1
  Hf  Hf11  1  -0.00097408  0.19803397  0.75792102  1
  Hf  Hf12  1  0.40354554  0.60251866  0.00516794  1
  Hf  Hf13  1  0.89025830  0.10081332  0.62148336  1
  Hf  Hf14  1  0.50523135  0.70775891  0.12147794  1
  Hf  Hf15  1  0.19521947  0.01710076  -0.00652257  1
  Hf  Hf16  1  0.61780482  0.39102656  0.24911691  1
  Hf  Hf17  1  0.19532432  0.38633247  0.24822420  1
  Hf  Hf18  1  0.09209788  0.69671991  0.88800444  1
  Hf  Hf19  1  0.61390059  0.80609758  0.74994668  1
  Hf  Hf20  1  0.40339440  0.80262754  0.75848941  1
  Hf  Hf21  1  0.89143062  0.31741796  0.12563246  1
  Hf  Hf22  1  0.29993634  0.09540009  0.62569481  1
  Hf  Hf23  1  0.39463284  0.19350422  0.49804910  1
  Hf  Hf24  1  0.61200150  0.59550890  0.00231676  1
  Hf  Hf25  1  0.50496959  0.71706439  0.37086731  1
  Hf  Hf26  1  0.30716192  0.69359137  0.62815389  1
  Hf  Hf27  1  0.61274306  0.80831736  0.24807746  1
  Hf  Hf28  1  0.80034292  0.18773010  -0.01156365  1
  Hf  Hf29  1  0.59734257  0.20259297  0.25908409  1
  Hf  Hf30  1  0.11215481  0.30600756  0.88645839  1
  Hf  Hf31  1  0.39771701  0.39735146  0.75468966  1
  Hf  Hf32  1  0.09394527  0.07859738  0.62471427  1
  Hf  Hf33  1  -0.01809340  0.01303826  -0.00088213  1
  Hf  Hf34  1  0.80964854  0.59130633  0.52217796  1
  Hf  Hf35  1  0.38719427  0.59318616  0.48978736  1
  Hf  Hf36  1  0.28933212  0.09158205  0.36145156  1
  Hf  Hf37  1  0.40627659  0.39715139  0.01205711  1
  Hf  Hf38  1  0.10618788  0.90538317  0.36543322  1
  Hf  Hf39  1  0.90145518  0.11536447  0.13537600  1
  Zr  Zr40  1  0.41349825  0.80206236  0.50317515  1
  Zr  Zr41  1  0.10869180  0.70417803  0.62744850  1
  Zr  Zr42  1  0.41892930  0.19743140  0.74790960  1
  Zr  Zr43  1  0.29115680  0.49247331  0.89025722  1
  Zr  Zr44  1  0.70244800  0.28984494  0.39968367  1
  Zr  Zr45  1  0.40825690  0.38506042  0.24008475  1
  Zr  Zr46  1  0.09271017  0.48556299  0.11077896  1
  Zr  Zr47  1  -0.01981514  0.60194996  0.22865803  1
  Zr  Zr48  1  0.18932752  -0.00043368  0.77587495  1
  Zr  Zr49  1  0.08965044  0.30025374  0.38055970  1
  Zr  Zr50  1  0.00192683  0.39884765  0.75003157  1
  Zr  Zr51  1  0.60121510  -0.00380326  0.25104100  1
  Zr  Zr52  1  0.71975179  0.49325135  0.37917480  1
  Zr  Zr53  1  0.89512479  0.31736460  0.39441288  1
  Zr  Zr54  1  0.79848248  -0.01156905  0.25687941  1
  Zr  Zr55  1  0.50253794  0.49743997  0.37438099  1
  Zr  Zr56  1  0.39194605  0.61076547  0.24218517  1
  Zr  Zr57  1  0.79298428  0.40002687  -0.01922626  1
  Zr  Zr58  1  0.89809238  0.11111356  0.37113508  1
  Zr  Zr59  1  0.51009405  0.30107239  0.88299961  1
  Zr  Zr60  1  0.89713647  0.51147844  0.86307220  1
  Zr  Zr61  1  0.30853882  0.30565747  0.62056321  1
  Zr  Zr62  1  0.60142370  0.60885140  0.50564583  1
  Zr  Zr63  1  0.17732637  0.58895522  0.48721022  1
  Zr  Zr64  1  0.48695355  0.49498776  0.61757668  1
  Zr  Zr65  1  0.29139117  0.50689996  0.12330545  1
  Zr  Zr66  1  -0.00380708  0.81030774  0.23499206  1
  Zr  Zr67  1  0.49102533  0.09288601  0.36866031  1
  Zr  Zr68  1  0.49389953  0.10658775  0.13228227  1
  Zr  Zr69  1  0.20788549  0.80135809  0.49105896  1
  Zr  Zr70  1  0.79089077  0.39790046  0.74106624  1
  Zr  Zr71  1  0.51573348  0.91015950  0.88261121  1
  Zr  Zr72  1  0.07937089  0.69269380  0.36892007  1
  Zr  Zr73  1  0.09488613  0.27567001  0.10941729  1
  Zr  Zr74  1  0.20749049  0.78582000  0.23133823  1
  Zr  Zr75  1  0.72246525  0.70459724  0.12906548  1
  Zr  Zr76  1  0.39947857  0.00229144  0.76279430  1
  Zr  Zr77  1  0.61216425  0.59957665  0.25124100  1
  Zr  Zr78  1  0.20854020  0.20101925  0.76020528  1
  Zr  Zr79  1  0.51722741  0.69778641  0.87876732  1
  Ta  Ta80  1  0.29751929  0.69955650  0.36693002  1
  Ta  Ta81  1  0.49713767  0.30259271  0.39135145  1
  Ta  Ta82  1  -0.01191949  0.39788809  -0.01272915  1
  Ta  Ta83  1  0.72456193  0.49329780  0.13171874  1
  Ta  Ta84  1  0.68988253  0.89066422  0.39667554  1
  Ta  Ta85  1  0.60438770  0.59394486  0.74126317  1
  Ta  Ta86  1  0.79564251  0.60836857  0.73778854  1
  Ta  Ta87  1  0.79968140  0.60673472  -0.00663535  1
  Ta  Ta88  1  0.90110665  0.70836159  0.63046856  1
  Ta  Ta89  1  -0.01252384  0.60399527  0.00727910  1
  Ta  Ta90  1  0.09517826  0.90458588  0.10760291  1
  Ta  Ta91  1  0.70007603  0.90060788  0.60614870  1
  Ta  Ta92  1  0.28534673  0.50150467  0.62656638  1
  Ta  Ta93  1  0.68428998  0.09877080  0.60632038  1
  Ta  Ta94  1  0.80575782  -0.00549316  0.49522692  1
  Ta  Ta95  1  0.40621017  0.80648737  -0.00185716  1
  Ta  Ta96  1  -0.01120432  0.00124924  0.76768103  1
  Ta  Ta97  1  0.10342803  0.29635122  0.62017659  1
  Ta  Ta98  1  0.29686881  0.69951513  0.89150839  1
  Ta  Ta99  1  0.19740376  -0.01147822  0.23506621  1
  Ta  Ta100  1  0.00274711  0.19570189  0.50754062  1
  Ta  Ta101  1  0.00981670  0.01333069  0.23822259  1
  Ta  Ta102  1  0.60697832  0.40118676  0.00751789  1
  Ta  Ta103  1  0.39545287  -0.00704671  0.49952619  1
  Ta  Ta104  1  0.90803477  0.90746711  0.62113255  1
  Ta  Ta105  1  0.29468757  0.49199032  0.36251661  1
  Ta  Ta106  1  0.19701033  0.40491093  0.74921673  1
  Ta  Ta107  1  0.59791035  0.39218466  0.73639715  1
  Ta  Ta108  1  0.17526124  0.18592499  0.25063197  1
  Ta  Ta109  1  0.08640116  0.89552097  0.89911518  1
  Ta  Ta110  1  0.00375828  0.60128713  0.74044796  1
  Ta  Ta111  1  0.30828579  0.90433721  0.11463550  1
  Ta  Ta112  1  0.40039400  0.01028824  -0.00483882  1
  Ta  Ta113  1  0.19468003  0.19028725  0.49837486  1
  Ta  Ta114  1  0.50672999  0.90377140  0.11313501  1
  Ta  Ta115  1  0.31482479  0.89875777  0.36237718  1
  Ta  Ta116  1  0.90154717  0.30030308  0.61443219  1
  Ta  Ta117  1  0.51373127  0.28755349  0.60645786  1
  Ta  Ta118  1  0.79691498  0.19807087  0.75235719  1
  Ta  Ta119  1  0.10002352  0.50459956  0.88930187  1
  Ti  Ti120  1  0.50585683  0.29001044  0.11721453  1
  Ti  Ti121  1  0.29902835  0.89914615  0.89062723  1
  Ti  Ti122  1  0.50579278  0.90956940  0.62240013  1
  Ti  Ti123  1  -0.00752831  0.39854363  0.24970089  1
  Ti  Ti124  1  0.50716231  0.49441946  0.87488515  1
  Ti  Ti125  1  0.19333845  -0.00431068  0.49542209  1
  Ti  Ti126  1  0.69969453  0.29319589  0.11915226  1
  Ti  Ti127  1  0.18487193  0.59085048  0.25487871  1
  Ti  Ti128  1  0.09054521  0.09668654  0.37785484  1
  Ti  Ti129  1  0.60970821  0.19725106  0.73988588  1
  Ti  Ti130  1  0.69882240  0.70562171  0.62324827  1
  Ti  Ti131  1  0.62809941  0.80525504  -0.00322168  1
  Ti  Ti132  1  0.60702342  0.40552700  0.51110358  1
  Ti  Ti133  1  0.89493083  0.70523352  0.87316218  1
  Ti  Ti134  1  0.50473275  0.70629062  0.62988333  1
  Ti  Ti135  1  0.29841693  0.29165491  0.11674277  1
  Ti  Ti136  1  0.90303885  0.90010073  0.37791204  1
  Ti  Ti137  1  0.30798432  0.29189589  0.89277359  1
  Ti  Ti138  1  0.69680759  0.09289054  0.39484165  1
  Ti  Ti139  1  0.69901378  0.08908526  0.87193107  1
  Ti  Ti140  1  0.51480258  0.49682846  0.13103499  1
  Ti  Ti141  1  0.70645097  0.29059161  0.60963490  1
  Ti  Ti142  1  0.80052084  0.80273604  0.74644735  1
  Ti  Ti143  1  0.30221870  0.28961184  0.36915559  1
  Ti  Ti144  1  0.69059715  0.50573827  0.86374219  1
  Ti  Ti145  1  0.71494951  0.69599586  0.38016492  1
  Ti  Ti146  1  -0.00303676  0.19722200  -0.02388335  1
  Ti  Ti147  1  0.69479613  0.29154396  0.87134273  1
  Ti  Ti148  1  0.88176678  0.89584457  0.11378790  1
  Ti  Ti149  1  0.10519451  0.69611090  0.10903776  1
  Ti  Ti150  1  0.40593001  0.81489684  0.24007487  1
  Ti  Ti151  1  0.19687688  0.59466218  0.75743195  1
  Ti  Ti152  1  0.59402186  0.01006343  0.74290732  1
  Ti  Ti153  1  0.80287941  0.79432331  0.49993779  1
  Ti  Ti154  1  0.20345108  0.79922168  0.00594207  1
  Ti  Ti155  1  0.50741519  0.11496015  0.88796844  1
  Ti  Ti156  1  0.70633357  0.10342616  0.13095523  1
  Ti  Ti157  1  0.00607509  0.42435244  0.52027160  1
  Ti  Ti158  1  0.79799927  0.22071348  0.25418922  1
  Ti  Ti159  1  0.81022110  0.78944247  0.26181598  1
  Mo  Mo160  1  0.39810220  0.39871374  0.48950658  1
  Mo  Mo161  1  -0.00505680  0.20572812  0.25309070  1
  Mo  Mo162  1  0.79046250  -0.00282793  0.01092301  1
  Mo  Mo163  1  0.49732987  0.90020147  0.37429178  1
  Mo  Mo164  1  0.60966248  0.20812348  0.00549364  1
  Mo  Mo165  1  0.38564234  0.20934393  0.25425031  1
  Mo  Mo166  1  0.50179762  0.09278290  0.61972883  1
  Mo  Mo167  1  0.80266687  0.19245575  0.50730870  1
  Mo  Mo168  1  0.69380561  0.49721956  0.63200662  1
  Mo  Mo169  1  -0.00315633  0.60798590  0.52126213  1
  Mo  Mo170  1  0.09469341  0.09635628  0.12189786  1
  Mo  Mo171  1  0.90486999  0.50355168  0.63798611  1
  Mo  Mo172  1  -0.00452338  0.80003638  0.00995021  1
  Mo  Mo173  1  0.59584501  0.19411227  0.49656601  1
  Mo  Mo174  1  0.88671811  0.10064197  0.86696806  1
  Mo  Mo175  1  0.89512571  0.29564246  0.87017648  1
  Mo  Mo176  1  0.90191869  0.70701086  0.11489272  1
  Mo  Mo177  1  0.79930119  0.79519750  -0.00428943  1
  Mo  Mo178  1  0.09198011  0.90422377  0.62904802  1
  Mo  Mo179  1  0.30177811  0.71228668  0.10781897  1
  Mo  Mo180  1  0.80303540  0.40170054  0.52493961  1
  Mo  Mo181  1  0.31151645  0.10838204  0.88467294  1
  Mo  Mo182  1  0.09845217  0.49248005  0.36419088  1
  Mo  Mo183  1  0.39393779  -0.00886244  0.24035996  1
  Mo  Mo184  1  0.71602688  0.69762928  0.86713954  1
  Mo  Mo185  1  0.69627539  0.89803847  0.87006696  1
  Mo  Mo186  1  0.80505525  0.60257420  0.25514178  1
  Mo  Mo187  1  0.19399359  0.60578540  0.00193464  1
  Mo  Mo188  1  0.40270509  0.19766927  0.00134891  1
  Mo  Mo189  1  0.58878772  -0.00708295  0.49822805  1
  Mo  Mo190  1  0.09411323  0.09971721  0.87519236  1
  Mo  Mo191  1  0.60652467  0.79820321  0.50810029  1
  Mo  Mo192  1  0.80988212  0.40806559  0.25325300  1
  Mo  Mo193  1  0.19890697  0.39584078  0.00467878  1
  Mo  Mo194  1  0.20723163  0.19825738  -0.00913005  1
  Mo  Mo195  1  0.70454732  0.90304448  0.12514228  1
  Mo  Mo196  1  0.00006418  -0.00075723  0.49285901  1
  Mo  Mo197  1  0.88856086  0.70875176  0.38220899  1
  Mo  Mo198  1  0.10578249  0.49555862  0.63162899  1
  Mo  Mo199  1  0.89344622  0.50289841  0.11314329  1
