# generated using pymatgen
data_HfZrTaTiMo
_symmetry_space_group_name_H-M   'P 1'
_cell_length_a   15.22934441
_cell_length_b   15.21728934
_cell_length_c   16.86004101
_cell_angle_alpha   89.98276377
_cell_angle_beta   90.00020882
_cell_angle_gamma   89.90988410
_symmetry_Int_Tables_number   1
_chemical_formula_structural   HfZrTaTiMo
_chemical_formula_sum   'Hf40 Zr40 Ta40 Ti40 Mo40'
_cell_volume   3907.29837354
_cell_formula_units_Z   40
loop_
 _symmetry_equiv_pos_site_id
 _symmetry_equiv_pos_as_xyz
  1  'x, y, z'
loop_
 _atom_site_type_symbol
 _atom_site_label
 _atom_site_symmetry_multiplicity
 _atom_site_fract_x
 _atom_site_fract_y
 _atom_site_fract_z
 _atom_site_occupancy
  Hf  Hf0  1  0.50602154  0.29603922  0.11505086  1
  Hf  Hf1  1  0.00333257  -0.01066514  0.00933768  1
  Hf  Hf2  1  0.09397221  0.71247853  0.62044201  1
  Hf  Hf3  1  0.21173248  0.59479963  0.48941399  1
  Hf  Hf4  1  0.59725547  0.19707552  0.24668856  1
  Hf  Hf5  1  0.60441597  0.41932089  0.01018423  1
  Hf  Hf6  1  0.89449809  0.10864116  0.10893209  1
  Hf  Hf7  1  0.09714070  0.70435572  0.87687980  1
  Hf  Hf8  1  0.30795629  0.50195632  0.63120117  1
  Hf  Hf9  1  0.20501667  0.00579573  0.01254873  1
  Hf  Hf10  1  0.89302633  0.90980636  0.37006122  1
  Hf  Hf11  1  0.20359688  -0.02211019  0.74113679  1
  Hf  Hf12  1  0.51468947  0.09182872  0.39043155  1
  Hf  Hf13  1  0.59834196  0.60098909  0.27155256  1
  Hf  Hf14  1  0.69848944  0.50224636  0.61820543  1
  Hf  Hf15  1  0.79575998  0.79653058  0.48577096  1
  Hf  Hf16  1  0.40103860  0.60309725  0.00729437  1
  Hf  Hf17  1  0.71060742  0.70234859  0.61874514  1
  Hf  Hf18  1  0.60605952  0.60157261  0.48099829  1
  Hf  Hf19  1  0.49418686  0.10453477  0.88990855  1
  Hf  Hf20  1  0.09018889  0.30089222  0.37475428  1
  Hf  Hf21  1  0.11026040  0.10787386  0.13296986  1
  Hf  Hf22  1  0.50234673  0.70041066  0.61167804  1
  Hf  Hf23  1  0.49421709  0.31024653  0.88653799  1
  Hf  Hf24  1  0.81640522  0.20235397  0.75064215  1
  Hf  Hf25  1  0.89545901  0.50903559  0.88095363  1
  Hf  Hf26  1  0.59776188  -0.01980439  0.01115408  1
  Hf  Hf27  1  0.21022246  0.38287833  -0.00458112  1
  Hf  Hf28  1  0.39333187  0.40855123  0.50124020  1
  Hf  Hf29  1  0.79405348  0.60735067  0.27267851  1
  Hf  Hf30  1  0.39314020  0.19994055  0.74175292  1
  Hf  Hf31  1  0.00608295  0.01183989  0.74633715  1
  Hf  Hf32  1  0.19976685  0.59303652  -0.00007549  1
  Hf  Hf33  1  0.11858797  0.48971510  0.36340365  1
  Hf  Hf34  1  0.40225720  0.01411607  0.26044346  1
  Hf  Hf35  1  -0.00704958  0.21487511  0.24462773  1
  Hf  Hf36  1  0.79800155  0.39418710  0.23829604  1
  Hf  Hf37  1  0.10170360  0.88823091  0.14097934  1
  Hf  Hf38  1  0.10537642  0.09886639  0.37319242  1
  Hf  Hf39  1  0.79289812  0.19424594  0.24700417  1
  Zr  Zr40  1  0.10639534  0.49423235  0.14401803  1
  Zr  Zr41  1  0.70432876  0.09715811  0.88796466  1
  Zr  Zr42  1  0.00197668  0.80621343  0.74883839  1
  Zr  Zr43  1  0.40126803  0.39758475  0.24711017  1
  Zr  Zr44  1  0.00190305  0.60541239  0.26250011  1
  Zr  Zr45  1  0.38724751  0.80239574  0.74369382  1
  Zr  Zr46  1  0.69380684  0.70159548  0.86618162  1
  Zr  Zr47  1  0.79413311  0.79464598  0.00140233  1
  Zr  Zr48  1  0.91330883  0.11383985  0.60785950  1
  Zr  Zr49  1  0.40026947  -0.03061966  0.49770384  1
  Zr  Zr50  1  0.70735627  0.09569094  0.62687102  1
  Zr  Zr51  1  0.40555820  -0.00092389  0.74108823  1
  Zr  Zr52  1  0.88369751  0.29985771  0.38052727  1
  Zr  Zr53  1  0.51189345  0.09219098  0.61284616  1
  Zr  Zr54  1  0.10738243  0.49530199  0.63097152  1
  Zr  Zr55  1  0.20380391  0.61353089  0.75232182  1
  Zr  Zr56  1  0.30838857  0.49393691  0.86575257  1
  Zr  Zr57  1  0.78899053  0.40277633  0.75118860  1
  Zr  Zr58  1  0.50451333  0.89660938  0.87398828  1
  Zr  Zr59  1  -0.01313573  0.39166399  0.74482557  1
  Zr  Zr60  1  0.50234882  0.72020572  0.13569455  1
  Zr  Zr61  1  -0.01113758  0.00718584  0.24599200  1
  Zr  Zr62  1  0.69079989  0.10791427  0.10651213  1
  Zr  Zr63  1  0.08708475  0.27456709  0.63252579  1
  Zr  Zr64  1  0.50763992  0.29612363  0.37946775  1
  Zr  Zr65  1  0.29207926  0.30912491  0.38178529  1
  Zr  Zr66  1  0.00282464  0.60435680  0.48581580  1
  Zr  Zr67  1  -0.00149976  0.61075683  0.00542036  1
  Zr  Zr68  1  0.36909394  0.20368290  0.00970789  1
  Zr  Zr69  1  0.90007446  0.29854424  0.89250174  1
  Zr  Zr70  1  0.89000716  0.50679712  0.12432954  1
  Zr  Zr71  1  0.39209536  0.60540144  0.26507609  1
  Zr  Zr72  1  0.89924357  0.89253975  0.61596047  1
  Zr  Zr73  1  0.59945822  0.20491638  0.75872157  1
  Zr  Zr74  1  0.01524141  0.40329292  -0.00218577  1
  Zr  Zr75  1  0.89395099  0.72100739  0.13762039  1
  Zr  Zr76  1  0.30161793  0.71125856  0.60991680  1
  Zr  Zr77  1  -0.00588234  0.39232663  0.51299231  1
  Zr  Zr78  1  0.49776244  0.70035460  0.87337499  1
  Zr  Zr79  1  0.90944280  0.09299056  0.88522308  1
  Ta  Ta80  1  0.10836549  0.89485551  0.35842095  1
  Ta  Ta81  1  0.21550255  0.20108972  0.25298289  1
  Ta  Ta82  1  0.10036546  0.49134585  0.86230740  1
  Ta  Ta83  1  0.29437766  0.70539340  0.13526808  1
  Ta  Ta84  1  0.29394243  0.09276954  0.61041008  1
  Ta  Ta85  1  0.21292583  0.00212173  0.25076520  1
  Ta  Ta86  1  0.80226847  -0.01986659  0.01121904  1
  Ta  Ta87  1  0.89483392  0.70503498  0.87411320  1
  Ta  Ta88  1  0.50434721  0.50125894  0.61842982  1
  Ta  Ta89  1  0.29595840  0.89718873  0.88307468  1
  Ta  Ta90  1  0.40251857  0.81208085  0.26987192  1
  Ta  Ta91  1  0.78593002  0.21855703  0.50076287  1
  Ta  Ta92  1  0.80432853  0.60682578  0.74789755  1
  Ta  Ta93  1  0.69588324  0.29987083  0.62648192  1
  Ta  Ta94  1  0.89348159  0.51592364  0.62040320  1
  Ta  Ta95  1  0.31248480  0.89811519  0.13567558  1
  Ta  Ta96  1  0.10587881  0.27685408  0.86197861  1
  Ta  Ta97  1  0.58701259  0.81434003  0.48803434  1
  Ta  Ta98  1  0.60912714  0.38786170  0.49968219  1
  Ta  Ta99  1  0.39574799  0.19533809  0.50392324  1
  Ta  Ta100  1  0.48865265  0.09386389  0.11687648  1
  Ta  Ta101  1  0.39414558  -0.00639874  0.00583136  1
  Ta  Ta102  1  0.50595381  0.50387143  0.87284001  1
  Ta  Ta103  1  0.01528613  -0.01372690  0.49244445  1
  Ta  Ta104  1  0.28371064  0.09592582  0.87387642  1
  Ta  Ta105  1  0.50017007  0.30310033  0.61821124  1
  Ta  Ta106  1  0.69010859  0.91364638  0.36770769  1
  Ta  Ta107  1  0.10543731  0.90346523  0.88175364  1
  Ta  Ta108  1  0.29172578  0.29812221  0.62133853  1
  Ta  Ta109  1  0.80635510  0.59695171  0.47840427  1
  Ta  Ta110  1  0.19588976  0.20005931  0.50060023  1
  Ta  Ta111  1  0.59728171  -0.00597278  0.23858321  1
  Ta  Ta112  1  0.19927554  0.82277386  0.49135362  1
  Ta  Ta113  1  0.69457269  0.50158858  0.87405648  1
  Ta  Ta114  1  0.50652671  0.51132422  0.13398458  1
  Ta  Ta115  1  0.90711792  0.48727668  0.36996863  1
  Ta  Ta116  1  0.69882104  0.30323366  0.89711924  1
  Ta  Ta117  1  0.29713635  0.71023807  0.88182002  1
  Ta  Ta118  1  0.00260179  0.79611049  0.48011199  1
  Ta  Ta119  1  0.10822902  0.69871985  0.13821694  1
  Ti  Ti120  1  0.71384808  0.30230201  0.09987272  1
  Ti  Ti121  1  0.39890501  0.41173772  0.01297989  1
  Ti  Ti122  1  0.80045180  0.80072136  0.74518723  1
  Ti  Ti123  1  0.79702151  0.00276890  0.49862247  1
  Ti  Ti124  1  0.69524753  0.68628253  0.13731387  1
  Ti  Ti125  1  0.02280082  0.19743698  0.00044622  1
  Ti  Ti126  1  0.29653359  0.50042999  0.13457432  1
  Ti  Ti127  1  0.40981746  0.59930601  0.74978446  1
  Ti  Ti128  1  0.60541470  -0.00466503  0.75190000  1
  Ti  Ti129  1  0.90037507  0.89544124  0.87358851  1
  Ti  Ti130  1  0.60154709  0.59666722  0.74510478  1
  Ti  Ti131  1  0.59871093  0.60715746  0.00536981  1
  Ti  Ti132  1  0.29687743  0.28921099  0.86447853  1
  Ti  Ti133  1  0.39961836  0.80599434  0.00688354  1
  Ti  Ti134  1  0.11150241  0.30298099  0.13229084  1
  Ti  Ti135  1  0.39694331  0.20087523  0.24508887  1
  Ti  Ti136  1  0.79204979  -0.00228820  0.23735580  1
  Ti  Ti137  1  0.80332809  -0.00896998  0.74790188  1
  Ti  Ti138  1  -0.00736393  0.60356146  0.74800652  1
  Ti  Ti139  1  0.19321953  0.17759833  0.74234619  1
  Ti  Ti140  1  0.90714799  0.30586002  0.10731633  1
  Ti  Ti141  1  0.60055595  0.79422887  0.00550388  1
  Ti  Ti142  1  0.29191894  0.71083743  0.37768134  1
  Ti  Ti143  1  0.68542872  0.90289655  0.61821028  1
  Ti  Ti144  1  0.59937132  0.80703766  0.73907998  1
  Ti  Ti145  1  0.59375839  0.40321501  0.75028337  1
  Ti  Ti146  1  0.20100987  0.79991305  0.00886907  1
  Ti  Ti147  1  0.60679659  0.39866086  0.24245597  1
  Ti  Ti148  1  0.70551979  0.10617879  0.38224484  1
  Ti  Ti149  1  0.20304496  0.38674671  0.75146276  1
  Ti  Ti150  1  0.70584281  0.47047903  0.37973340  1
  Ti  Ti151  1  0.78362273  0.59486128  0.00346207  1
  Ti  Ti152  1  0.49511378  0.49522519  0.38104379  1
  Ti  Ti153  1  0.40716502  0.39768989  0.74291881  1
  Ti  Ti154  1  -0.00639965  0.79918421  0.26341983  1
  Ti  Ti155  1  0.10626103  0.08181924  0.60754429  1
  Ti  Ti156  1  0.70810023  0.89914643  0.87060856  1
  Ti  Ti157  1  -0.00187823  0.80311672  0.00555934  1
  Ti  Ti158  1  0.69837228  0.87688515  0.14140080  1
  Ti  Ti159  1  0.89989831  0.10606183  0.38863998  1
  Mo  Mo160  1  0.40513531  0.60265021  0.48398807  1
  Mo  Mo161  1  0.10875762  0.09246504  0.87511435  1
  Mo  Mo162  1  0.90035708  0.70367359  0.36933242  1
  Mo  Mo163  1  0.69703168  0.71363131  0.37742761  1
  Mo  Mo164  1  0.00312357  0.19312370  0.75129830  1
  Mo  Mo165  1  0.20692806  0.79657038  0.25264336  1
  Mo  Mo166  1  -0.00322412  0.18981260  0.49189834  1
  Mo  Mo167  1  0.30418014  0.50199898  0.37509833  1
  Mo  Mo168  1  0.50441921  0.90162082  0.36582179  1
  Mo  Mo169  1  0.30256769  0.10778725  0.38825111  1
  Mo  Mo170  1  -0.00670554  0.39435183  0.24388017  1
  Mo  Mo171  1  0.19744885  0.80142002  0.75782837  1
  Mo  Mo172  1  0.30217145  0.10142537  0.13148730  1
  Mo  Mo173  1  0.80711792  0.19997600  -0.00182839  1
  Mo  Mo174  1  0.79542183  0.40985463  0.50324860  1
  Mo  Mo175  1  0.49505037  0.70368537  0.38419574  1
  Mo  Mo176  1  0.20831249  0.60386905  0.25734294  1
  Mo  Mo177  1  0.20422461  0.39263016  0.24493697  1
  Mo  Mo178  1  0.59369367  0.20316805  -0.00326073  1
  Mo  Mo179  1  0.29474811  0.90711339  0.36390955  1
  Mo  Mo180  1  0.79792830  0.40909892  0.00354683  1
  Mo  Mo181  1  0.49814438  0.90008792  0.13219861  1
  Mo  Mo182  1  0.19997873  0.39486450  0.51078576  1
  Mo  Mo183  1  0.19220171  0.20205483  -0.00165987  1
  Mo  Mo184  1  0.79033502  0.80875483  0.26159780  1
  Mo  Mo185  1  0.89751382  0.69326218  0.62067962  1
  Mo  Mo186  1  0.29416727  0.30611145  0.13379765  1
  Mo  Mo187  1  0.29309423  0.89870750  0.61691750  1
  Mo  Mo188  1  0.61488497  -0.00627968  0.49787613  1
  Mo  Mo189  1  0.50746620  0.88900778  0.62604068  1
  Mo  Mo190  1  0.69179579  0.29425490  0.37136271  1
  Mo  Mo191  1  0.88624182  0.30462782  0.61828821  1
  Mo  Mo192  1  0.89284783  0.90066898  0.13433332  1
  Mo  Mo193  1  0.69130668  0.50985715  0.13353382  1
  Mo  Mo194  1  0.10427099  0.89917888  0.61218466  1
  Mo  Mo195  1  0.20381400  0.00408323  0.48896861  1
  Mo  Mo196  1  0.39597347  0.79171318  0.48084094  1
  Mo  Mo197  1  0.10687631  0.70705275  0.36882950  1
  Mo  Mo198  1  0.60060856  0.19920105  0.50592286  1
  Mo  Mo199  1  0.60052888  0.80121312  0.26512423  1
