# generated using pymatgen
data_HfZrTaTiMo
_symmetry_space_group_name_H-M   'P 1'
_cell_length_a   15.20637624
_cell_length_b   15.20676022
_cell_length_c   16.83591445
_cell_angle_alpha   90.04158604
_cell_angle_beta   89.96226602
_cell_angle_gamma   89.92254199
_symmetry_Int_Tables_number   1
_chemical_formula_structural   HfZrTaTiMo
_chemical_formula_sum   'Hf40 Zr40 Ta40 Ti40 Mo40'
_cell_volume   3893.12666617
_cell_formula_units_Z   40
loop_
 _symmetry_equiv_pos_site_id
 _symmetry_equiv_pos_as_xyz
  1  'x, y, z'
loop_
 _atom_site_type_symbol
 _atom_site_label
 _atom_site_symmetry_multiplicity
 _atom_site_fract_x
 _atom_site_fract_y
 _atom_site_fract_z
 _atom_site_occupancy
  Hf  Hf0  1  0.50386790  0.51532560  0.38567085  1
  Hf  Hf1  1  0.08821987  0.89763527  0.11350837  1
  Hf  Hf2  1  0.59792526  0.81324842  0.25520625  1
  Hf  Hf3  1  0.09849565  0.11432634  0.36717350  1
  Hf  Hf4  1  0.50022192  0.10158931  0.37718257  1
  Hf  Hf5  1  0.90327146  0.49776169  0.12611240  1
  Hf  Hf6  1  0.31362750  0.09752807  0.86774347  1
  Hf  Hf7  1  0.29301072  0.51145324  0.12439783  1
  Hf  Hf8  1  0.70148273  0.90643680  0.39500635  1
  Hf  Hf9  1  0.20158698  0.40472476  -0.00583925  1
  Hf  Hf10  1  0.19517883  0.60306779  0.25903523  1
  Hf  Hf11  1  -0.00059650  0.60230025  0.75310761  1
  Hf  Hf12  1  0.71297546  0.28702747  0.63116249  1
  Hf  Hf13  1  0.18206037  0.20217722  0.51650817  1
  Hf  Hf14  1  0.19249360  -0.00123656  -0.00413033  1
  Hf  Hf15  1  0.82164603  0.78787840  0.50036017  1
  Hf  Hf16  1  0.87496507  0.90102328  0.87331159  1
  Hf  Hf17  1  0.58923486  0.81423142  0.00499828  1
  Hf  Hf18  1  0.49835263  0.49812430  0.87788035  1
  Hf  Hf19  1  0.41923648  -0.00065227  0.01466999  1
  Hf  Hf20  1  0.19385261  0.00129617  0.24036293  1
  Hf  Hf21  1  0.79924378  0.38974589  0.24410747  1
  Hf  Hf22  1  0.71077882  0.10697924  0.11748823  1
  Hf  Hf23  1  0.79731091  0.61032995  0.73047889  1
  Hf  Hf24  1  0.69604077  0.69276281  0.38848674  1
  Hf  Hf25  1  -0.00488325  0.79515885  0.76527739  1
  Hf  Hf26  1  0.90562925  0.50104259  0.38139145  1
  Hf  Hf27  1  0.79405120  0.39276227  0.00386707  1
  Hf  Hf28  1  0.19229912  0.80181350  0.26167194  1
  Hf  Hf29  1  0.61388021  0.20967638  0.24318043  1
  Hf  Hf30  1  0.70986039  0.51309300  0.87840288  1
  Hf  Hf31  1  0.37607910  0.61884400  -0.00807080  1
  Hf  Hf32  1  0.29335347  0.89915417  0.62054508  1
  Hf  Hf33  1  0.49598955  0.51291171  0.11381239  1
  Hf  Hf34  1  0.28403762  0.69119157  0.61463825  1
  Hf  Hf35  1  0.39973540  0.20392501  0.00817190  1
  Hf  Hf36  1  0.10369238  0.30464276  0.85943502  1
  Hf  Hf37  1  0.80420922  0.59931239  0.24636040  1
  Hf  Hf38  1  0.69978256  0.10753263  0.38934910  1
  Hf  Hf39  1  0.00362115  0.38787563  0.51224846  1
  Zr  Zr40  1  0.19238238  0.80252740  0.75814585  1
  Zr  Zr41  1  0.40058124  0.20335349  0.22557806  1
  Zr  Zr42  1  0.89524133  0.89607519  0.11940573  1
  Zr  Zr43  1  0.29376750  0.28850539  0.37280099  1
  Zr  Zr44  1  0.20398868  0.20450002  -0.01398913  1
  Zr  Zr45  1  0.60694853  0.80687199  0.73086297  1
  Zr  Zr46  1  0.40741153  0.41129332  0.24498760  1
  Zr  Zr47  1  0.19396426  0.38583234  0.23791330  1
  Zr  Zr48  1  0.60086863  0.18408559  0.74987841  1
  Zr  Zr49  1  0.19317680  -0.00070845  0.49898668  1
  Zr  Zr50  1  0.51150822  0.90923890  0.86718986  1
  Zr  Zr51  1  0.80597928  0.40763046  0.74497608  1
  Zr  Zr52  1  0.29648703  0.49592962  0.37646264  1
  Zr  Zr53  1  0.90223989  0.10209997  0.36510399  1
  Zr  Zr54  1  0.70366040  0.49601301  0.38766627  1
  Zr  Zr55  1  0.30183357  0.87072755  0.11133498  1
  Zr  Zr56  1  0.92063276  0.09529344  0.13161404  1
  Zr  Zr57  1  0.10642607  0.51745313  0.62584412  1
  Zr  Zr58  1  0.60153341  0.61123715  0.00171098  1
  Zr  Zr59  1  0.39132438  0.19081041  0.51283127  1
  Zr  Zr60  1  0.58676448  0.60875120  0.24930439  1
  Zr  Zr61  1  0.52171687  0.31517680  0.11013565  1
  Zr  Zr62  1  0.40661685  -0.01105596  0.23626357  1
  Zr  Zr63  1  0.40503428  0.39185578  0.51469658  1
  Zr  Zr64  1  -0.00978790  0.01592337  0.50082894  1
  Zr  Zr65  1  0.39785005  0.78259745  0.26943319  1
  Zr  Zr66  1  0.79222476  -0.00218113  0.25402926  1
  Zr  Zr67  1  0.79293020  0.79957655  0.00365501  1
  Zr  Zr68  1  0.59646012  0.40130651  0.73462620  1
  Zr  Zr69  1  0.11584786  0.69521515  0.10934305  1
  Zr  Zr70  1  0.00681689  0.19393342  -0.01349700  1
  Zr  Zr71  1  0.50603709  0.30379758  0.37531429  1
  Zr  Zr72  1  0.20342398  0.40157108  0.51391068  1
  Zr  Zr73  1  0.30104417  0.09645198  0.36487805  1
  Zr  Zr74  1  0.80788073  0.79882525  0.26138054  1
  Zr  Zr75  1  0.89545213  0.10005621  0.64570426  1
  Zr  Zr76  1  0.59616486  0.60613360  0.73688480  1
  Zr  Zr77  1  0.69260723  0.30102961  0.86872719  1
  Zr  Zr78  1  0.60555559  0.19365502  -0.00697373  1
  Zr  Zr79  1  0.39919478  0.79056055  0.74297522  1
  Ta  Ta80  1  0.49663369  0.09655431  0.62712849  1
  Ta  Ta81  1  0.90634660  0.29833979  0.37751202  1
  Ta  Ta82  1  0.00028110  0.39774848  -0.00413412  1
  Ta  Ta83  1  0.28567037  0.10692076  0.12306590  1
  Ta  Ta84  1  -0.00879393  0.61694514  0.50299849  1
  Ta  Ta85  1  0.10400109  0.08833040  0.85422265  1
  Ta  Ta86  1  0.89875389  0.30809280  0.87058549  1
  Ta  Ta87  1  0.59873904  0.20703697  0.51255625  1
  Ta  Ta88  1  0.80366187  0.39368607  0.51100772  1
  Ta  Ta89  1  0.91488750  0.69638485  0.12334949  1
  Ta  Ta90  1  0.81334551  0.18673350  -0.01771592  1
  Ta  Ta91  1  0.09939014  0.09796897  0.65246807  1
  Ta  Ta92  1  0.70084023  0.09146430  0.61325978  1
  Ta  Ta93  1  0.09454067  0.90680841  0.63040784  1
  Ta  Ta94  1  0.30108361  0.29604635  0.64531143  1
  Ta  Ta95  1  0.09324296  0.30718970  0.37504637  1
  Ta  Ta96  1  0.90501261  0.89808306  0.62834536  1
  Ta  Ta97  1  0.70700245  0.90343975  0.60459232  1
  Ta  Ta98  1  0.01218734  0.81558482  0.48811857  1
  Ta  Ta99  1  0.29754768  0.69453669  0.39676675  1
  Ta  Ta100  1  0.30360147  0.89133296  0.88307357  1
  Ta  Ta101  1  0.80313627  0.60268455  0.01002618  1
  Ta  Ta102  1  0.00235224  0.79657521  -0.01861510  1
  Ta  Ta103  1  0.40339945  -0.00097220  0.74478003  1
  Ta  Ta104  1  0.48069282  0.71512181  0.12432527  1
  Ta  Ta105  1  0.39948728  0.39823814  0.75149658  1
  Ta  Ta106  1  0.61018258  0.40541298  0.25028391  1
  Ta  Ta107  1  0.69990883  0.70433264  0.12999863  1
  Ta  Ta108  1  0.49442020  0.70310199  0.87024810  1
  Ta  Ta109  1  0.69894153  0.71625172  0.87051173  1
  Ta  Ta110  1  0.79977516  0.79866921  0.73501848  1
  Ta  Ta111  1  0.81991403  0.19728235  0.50342727  1
  Ta  Ta112  1  -0.01106411  0.00132062  -0.02105890  1
  Ta  Ta113  1  -0.00366911  0.59262357  -0.01005664  1
  Ta  Ta114  1  0.09840701  0.29456609  0.65080919  1
  Ta  Ta115  1  0.90004284  0.50607477  0.61453876  1
  Ta  Ta116  1  0.20221380  0.41065325  0.75100227  1
  Ta  Ta117  1  0.60352954  0.39923200  0.51998953  1
  Ta  Ta118  1  0.70902932  0.30013197  0.38853448  1
  Ta  Ta119  1  0.11533192  0.69035236  0.88568752  1
  Ti  Ti120  1  0.49515121  0.90057118  0.38481729  1
  Ti  Ti121  1  -0.00060292  0.78159187  0.26627069  1
  Ti  Ti122  1  0.09865376  0.69697610  0.38786873  1
  Ti  Ti123  1  0.00070287  0.40388241  0.24891147  1
  Ti  Ti124  1  0.39950701  0.79991653  0.49755967  1
  Ti  Ti125  1  0.09141000  0.50128128  0.12174471  1
  Ti  Ti126  1  0.39391741  0.39889421  -0.00869033  1
  Ti  Ti127  1  0.59002893  0.00322324  0.50551831  1
  Ti  Ti128  1  0.90426861  0.29317692  0.11777997  1
  Ti  Ti129  1  0.29390389  0.09507728  0.64238639  1
  Ti  Ti130  1  -0.00095505  -0.01237150  0.76308210  1
  Ti  Ti131  1  0.59158243  0.79688677  0.50542322  1
  Ti  Ti132  1  0.09393436  0.71628340  0.61631687  1
  Ti  Ti133  1  0.09423067  0.50134479  0.87177396  1
  Ti  Ti134  1  -0.00354118  0.40805080  0.74779576  1
  Ti  Ti135  1  0.70324521  0.07298482  0.87716148  1
  Ti  Ti136  1  0.01030351  0.21310917  0.24195790  1
  Ti  Ti137  1  -0.01035665  0.19858363  0.76620418  1
  Ti  Ti138  1  0.09519922  0.50346072  0.38127665  1
  Ti  Ti139  1  0.39738233  -0.00264861  0.50339374  1
  Ti  Ti140  1  0.69047157  0.49290638  0.11839118  1
  Ti  Ti141  1  0.60413320  0.60084027  0.51960813  1
  Ti  Ti142  1  0.29192263  0.51441618  0.86245116  1
  Ti  Ti143  1  0.49863233  0.90433442  0.61974521  1
  Ti  Ti144  1  0.77919510  -0.00572476  0.74582103  1
  Ti  Ti145  1  0.00054306  -0.02474238  0.26208072  1
  Ti  Ti146  1  0.48994266  0.69780301  0.61742731  1
  Ti  Ti147  1  0.50664392  0.09699846  0.86921116  1
  Ti  Ti148  1  0.88892637  0.68533400  0.87872527  1
  Ti  Ti149  1  0.90802535  0.29344993  0.63772261  1
  Ti  Ti150  1  0.30310138  0.50638427  0.63829220  1
  Ti  Ti151  1  0.39752826  0.59691367  0.50560907  1
  Ti  Ti152  1  0.29192414  0.89650493  0.38616894  1
  Ti  Ti153  1  0.10693316  0.28625669  0.11740783  1
  Ti  Ti154  1  0.48744750  0.29403805  0.87343069  1
  Ti  Ti155  1  0.49150796  0.50270643  0.62691189  1
  Ti  Ti156  1  0.80691744  0.20555313  0.24930078  1
  Ti  Ti157  1  0.69141768  0.91097955  0.12294097  1
  Ti  Ti158  1  0.21263295  0.20004428  0.75819262  1
  Ti  Ti159  1  0.59653384  0.01021683  0.24709946  1
  Mo  Mo160  1  0.09574589  0.09530345  0.12332456  1
  Mo  Mo161  1  0.70208193  0.50040625  0.61293441  1
  Mo  Mo162  1  0.19017859  0.20078021  0.23768946  1
  Mo  Mo163  1  0.91449636  0.70793189  0.62649453  1
  Mo  Mo164  1  0.20324920  -0.00357033  0.75463366  1
  Mo  Mo165  1  0.19461900  0.80149769  0.49611770  1
  Mo  Mo166  1  0.00210868  0.20845139  0.51120016  1
  Mo  Mo167  1  0.50006277  0.70486130  0.40114582  1
  Mo  Mo168  1  0.30417233  0.69814980  0.86488671  1
  Mo  Mo169  1  0.90817301  0.89534196  0.37584301  1
  Mo  Mo170  1  0.39782484  0.59314642  0.74729505  1
  Mo  Mo171  1  0.00414050  0.59731168  0.25185417  1
  Mo  Mo172  1  0.69542303  0.89793204  0.86899018  1
  Mo  Mo173  1  0.40369109  0.19832206  0.74627505  1
  Mo  Mo174  1  0.30051371  0.30383048  0.11671989  1
  Mo  Mo175  1  0.09616332  0.89781319  0.88378616  1
  Mo  Mo176  1  0.59974708  -0.00432599  0.73113812  1
  Mo  Mo177  1  0.49839058  0.29518721  0.62983887  1
  Mo  Mo178  1  0.19291858  0.60147620  0.49356826  1
  Mo  Mo179  1  0.40348060  0.80064181  -0.00863749  1
  Mo  Mo180  1  0.90321558  0.49915439  0.88027001  1
  Mo  Mo181  1  0.61095092  0.00313437  0.00298973  1
  Mo  Mo182  1  0.89380166  0.09747527  0.85813135  1
  Mo  Mo183  1  0.79990582  0.19210624  0.76655553  1
  Mo  Mo184  1  0.80049755  -0.00078350  0.50288910  1
  Mo  Mo185  1  0.80061524  0.59704685  0.51396541  1
  Mo  Mo186  1  0.90935879  0.69023478  0.37326827  1
  Mo  Mo187  1  0.30070860  0.69362250  0.13106850  1
  Mo  Mo188  1  0.21045830  0.78892099  -0.01565149  1
  Mo  Mo189  1  0.19984816  0.60313267  0.75324705  1
  Mo  Mo190  1  0.59450057  0.40520040  -0.00852021  1
  Mo  Mo191  1  0.79656274  0.00548205  -0.00119188  1
  Mo  Mo192  1  0.19072028  0.58840830  -0.00564188  1
  Mo  Mo193  1  0.10086999  0.90270580  0.37135728  1
  Mo  Mo194  1  0.70228617  0.70477319  0.60680571  1
  Mo  Mo195  1  0.50684619  0.09637474  0.12768293  1
  Mo  Mo196  1  0.50717143  0.89947358  0.13289305  1
  Mo  Mo197  1  0.30925172  0.31088183  0.86002579  1
  Mo  Mo198  1  0.71651766  0.30239318  0.11954347  1
  Mo  Mo199  1  0.39676592  0.60743291  0.25601331  1
