# generated using pymatgen
data_HfZrTaTiMo
_symmetry_space_group_name_H-M   'P 1'
_cell_length_a   15.20693296
_cell_length_b   15.19743554
_cell_length_c   16.85954338
_cell_angle_alpha   90.01909533
_cell_angle_beta   90.04435919
_cell_angle_gamma   89.98461063
_symmetry_Int_Tables_number   1
_chemical_formula_structural   HfZrTaTiMo
_chemical_formula_sum   'Hf40 Zr40 Ta40 Ti40 Mo40'
_cell_volume   3896.34657317
_cell_formula_units_Z   40
loop_
 _symmetry_equiv_pos_site_id
 _symmetry_equiv_pos_as_xyz
  1  'x, y, z'
loop_
 _atom_site_type_symbol
 _atom_site_label
 _atom_site_symmetry_multiplicity
 _atom_site_fract_x
 _atom_site_fract_y
 _atom_site_fract_z
 _atom_site_occupancy
  Hf  Hf0  1  0.41230885  0.21141785  0.00227404  1
  Hf  Hf1  1  0.28910877  0.09640391  0.88308141  1
  Hf  Hf2  1  0.40768560  0.79633704  0.00314835  1
  Hf  Hf3  1  0.21786155  0.59254597  0.49953080  1
  Hf  Hf4  1  0.27713605  0.49603022  0.85383555  1
  Hf  Hf5  1  0.40066096  -0.00606057  0.00417799  1
  Hf  Hf6  1  0.18484631  0.39928931  0.25043978  1
  Hf  Hf7  1  0.50501371  0.11010770  0.87114541  1
  Hf  Hf8  1  0.19806611  0.81784801  0.00268564  1
  Hf  Hf9  1  0.30452130  0.10575712  0.11887879  1
  Hf  Hf10  1  0.40697374  0.20699176  0.25423615  1
  Hf  Hf11  1  0.78920245  0.58792243  0.51095183  1
  Hf  Hf12  1  0.29851820  0.30038126  0.38531030  1
  Hf  Hf13  1  0.89686080  0.49406493  0.12266562  1
  Hf  Hf14  1  0.68657658  0.50308254  0.86132953  1
  Hf  Hf15  1  0.70076831  0.11431217  0.38873026  1
  Hf  Hf16  1  0.10521143  0.70083377  0.38387598  1
  Hf  Hf17  1  0.90169697  0.29924236  0.62866737  1
  Hf  Hf18  1  0.01272172  0.58685469  0.24647288  1
  Hf  Hf19  1  0.90561044  0.90350143  0.62062537  1
  Hf  Hf20  1  0.90778810  0.10487513  0.10844304  1
  Hf  Hf21  1  0.57724696  0.39649477  -0.00823420  1
  Hf  Hf22  1  0.80306871  0.18929284  0.74881313  1
  Hf  Hf23  1  0.60702365  0.00035148  0.74512385  1
  Hf  Hf24  1  0.30156380  0.29847159  0.63055766  1
  Hf  Hf25  1  0.59025593  -0.00468557  0.49463349  1
  Hf  Hf26  1  0.37971575  0.81706910  0.74252775  1
  Hf  Hf27  1  0.70212253  0.68266807  0.36740252  1
  Hf  Hf28  1  0.90224512  0.89509780  0.14479579  1
  Hf  Hf29  1  0.50142527  0.70911859  0.63218360  1
  Hf  Hf30  1  0.60839283  0.80348733  0.00836685  1
  Hf  Hf31  1  0.00862077  0.79873137  0.74695551  1
  Hf  Hf32  1  0.10942753  0.30744665  0.86608535  1
  Hf  Hf33  1  0.68792460  0.28911631  0.61706427  1
  Hf  Hf34  1  0.90087836  0.69750229  0.36239036  1
  Hf  Hf35  1  -0.00372368  0.42122780  0.75354899  1
  Hf  Hf36  1  0.49837671  0.89992664  0.86705552  1
  Hf  Hf37  1  0.59417277  0.60112363  0.00631113  1
  Hf  Hf38  1  0.68472005  0.48038271  0.12661200  1
  Hf  Hf39  1  0.49265136  0.89992754  0.36770619  1
  Zr  Zr40  1  0.29834957  0.89727057  0.13828693  1
  Zr  Zr41  1  0.81163672  0.59171951  0.73468853  1
  Zr  Zr42  1  0.78239859  0.38774497  -0.00969020  1
  Zr  Zr43  1  0.10014018  0.70842490  0.60403903  1
  Zr  Zr44  1  0.61948537  0.20495755  0.00279566  1
  Zr  Zr45  1  0.00374479  -0.02929945  -0.00485319  1
  Zr  Zr46  1  0.90112157  0.70560892  0.88124572  1
  Zr  Zr47  1  0.11245858  0.11533161  0.38379438  1
  Zr  Zr48  1  -0.00015027  0.01058283  0.49951199  1
  Zr  Zr49  1  0.69355161  0.88679455  0.61206937  1
  Zr  Zr50  1  0.39362802  0.58875157  -0.00562385  1
  Zr  Zr51  1  0.69866818  0.70207874  0.87093402  1
  Zr  Zr52  1  0.08867670  0.29746405  0.11163874  1
  Zr  Zr53  1  0.80062911  0.80060788  0.74132722  1
  Zr  Zr54  1  0.48875679  0.51256059  0.37922334  1
  Zr  Zr55  1  0.60293971  -0.00246137  0.00229696  1
  Zr  Zr56  1  0.89970772  0.89320413  0.36543336  1
  Zr  Zr57  1  0.90179310  0.29154018  0.38889033  1
  Zr  Zr58  1  0.38747236  0.41426295  0.25328704  1
  Zr  Zr59  1  0.59520396  0.41542851  0.50629640  1
  Zr  Zr60  1  0.71444142  0.08721510  0.61448835  1
  Zr  Zr61  1  0.22298608  0.58978865  0.26324167  1
  Zr  Zr62  1  0.88439408  0.50014193  0.37042677  1
  Zr  Zr63  1  0.10707167  0.90198701  0.36578230  1
  Zr  Zr64  1  0.88465300  0.29632141  0.11049059  1
  Zr  Zr65  1  0.10349738  0.69926749  0.12322104  1
  Zr  Zr66  1  0.81817197  0.20063774  0.25803677  1
  Zr  Zr67  1  0.50117471  0.69008628  0.85504073  1
  Zr  Zr68  1  0.00002448  0.03186718  0.25639846  1
  Zr  Zr69  1  0.29142145  0.71079042  0.86966203  1
  Zr  Zr70  1  0.80999450  0.80833862  0.00891851  1
  Zr  Zr71  1  0.89965365  0.50161644  0.88814298  1
  Zr  Zr72  1  0.48178744  0.48295802  0.85213015  1
  Zr  Zr73  1  0.78846708  0.00209421  0.26031181  1
  Zr  Zr74  1  0.00534952  0.17687894  0.75327520  1
  Zr  Zr75  1  0.17304665  0.60946466  0.74405288  1
  Zr  Zr76  1  0.31587595  0.30479964  0.86171652  1
  Zr  Zr77  1  0.50619877  0.70223492  0.14105683  1
  Zr  Zr78  1  0.11261543  0.09882159  0.10523193  1
  Zr  Zr79  1  0.18900763  0.38862958  0.50945642  1
  Ta  Ta80  1  0.40052673  0.00865578  0.25466653  1
  Ta  Ta81  1  0.10316206  0.30056029  0.64432441  1
  Ta  Ta82  1  0.90090514  0.69900359  0.14082008  1
  Ta  Ta83  1  0.38550903  0.59959017  0.72968434  1
  Ta  Ta84  1  0.08073890  0.50729273  0.61571573  1
  Ta  Ta85  1  0.60421588  0.58016549  0.25111859  1
  Ta  Ta86  1  0.79191703  0.60413845  0.01546667  1
  Ta  Ta87  1  0.79077637  0.39321239  0.74498193  1
  Ta  Ta88  1  0.77191444  0.39401098  0.25786088  1
  Ta  Ta89  1  0.70770984  0.10769915  0.12859932  1
  Ta  Ta90  1  0.69649839  0.88636575  0.38012831  1
  Ta  Ta91  1  0.79692874  0.00334804  -0.00072603  1
  Ta  Ta92  1  0.68905093  0.29507488  0.85953197  1
  Ta  Ta93  1  0.09509453  0.30190354  0.37703766  1
  Ta  Ta94  1  0.30586218  0.68591356  0.12652484  1
  Ta  Ta95  1  0.51223299  0.10685588  0.13666880  1
  Ta  Ta96  1  0.20677971  0.18628905  0.74646377  1
  Ta  Ta97  1  0.59353572  0.78435168  0.49300266  1
  Ta  Ta98  1  0.30721256  0.09746310  0.38305182  1
  Ta  Ta99  1  0.20020043  0.20214322  0.24956787  1
  Ta  Ta100  1  -0.00141260  0.80263304  0.49778390  1
  Ta  Ta101  1  -0.01345180  0.38624677  0.25215465  1
  Ta  Ta102  1  0.50371746  0.10899677  0.61829448  1
  Ta  Ta103  1  0.11584185  0.90485018  0.62421285  1
  Ta  Ta104  1  0.41207187  0.20387940  0.74060735  1
  Ta  Ta105  1  0.09771333  0.89897900  0.14446181  1
  Ta  Ta106  1  0.39057369  0.41591886  0.51470595  1
  Ta  Ta107  1  0.39443283  0.01375238  0.74287639  1
  Ta  Ta108  1  0.40540979  0.20487929  0.50355886  1
  Ta  Ta109  1  0.79196441  0.39590148  0.50713884  1
  Ta  Ta110  1  0.29486277  0.30535742  0.12185948  1
  Ta  Ta111  1  0.39557752  0.80672722  0.50229269  1
  Ta  Ta112  1  0.50406893  0.90930201  0.14457106  1
  Ta  Ta113  1  0.11037911  0.90645180  0.86540189  1
  Ta  Ta114  1  0.09301353  0.70055522  0.88765464  1
  Ta  Ta115  1  0.02008385  0.20559132  0.52051251  1
  Ta  Ta116  1  0.71252342  0.09700007  0.87158679  1
  Ta  Ta117  1  0.09081286  0.49487908  0.38733730  1
  Ta  Ta118  1  0.50846911  0.31002170  0.13580034  1
  Ta  Ta119  1  0.19815424  0.40278981  -0.00228961  1
  Ti  Ti120  1  0.20004123  0.59661357  -0.00192195  1
  Ti  Ti121  1  0.20935308  0.00862463  0.25415061  1
  Ti  Ti122  1  0.70865014  0.69742141  0.14268791  1
  Ti  Ti123  1  0.10158043  0.49209789  0.11263597  1
  Ti  Ti124  1  0.29831558  0.09513625  0.61919932  1
  Ti  Ti125  1  0.41151056  0.60825290  0.51520226  1
  Ti  Ti126  1  0.00739891  0.20059478  -0.02314822  1
  Ti  Ti127  1  0.39516631  0.79574580  0.25222688  1
  Ti  Ti128  1  0.49839049  0.11003004  0.37874561  1
  Ti  Ti129  1  0.91157423  0.08261674  0.88047449  1
  Ti  Ti130  1  0.61674714  0.21797601  0.25551038  1
  Ti  Ti131  1  0.58629853  0.38923532  0.73604706  1
  Ti  Ti132  1  0.31638042  0.69928383  0.38244296  1
  Ti  Ti133  1  0.91303997  0.68564683  0.61406988  1
  Ti  Ti134  1  0.29817810  0.89778920  0.37420703  1
  Ti  Ti135  1  0.29005304  0.71937013  0.62048807  1
  Ti  Ti136  1  0.47949254  0.50453766  0.13425865  1
  Ti  Ti137  1  0.68859010  0.68518834  0.62487634  1
  Ti  Ti138  1  0.39543475  0.00119953  0.50154228  1
  Ti  Ti139  1  0.60843676  0.80468929  0.25499530  1
  Ti  Ti140  1  0.79944753  0.79052762  0.50154764  1
  Ti  Ti141  1  0.49134520  0.90743311  0.62434478  1
  Ti  Ti142  1  0.51201008  0.30264183  0.38415102  1
  Ti  Ti143  1  -0.01144795  0.40576192  0.50746277  1
  Ti  Ti144  1  0.80589672  -0.00832653  0.48812490  1
  Ti  Ti145  1  0.59729379  0.01238021  0.25927327  1
  Ti  Ti146  1  -0.00153215  0.60089986  0.00914527  1
  Ti  Ti147  1  0.71359204  0.90250814  0.87146551  1
  Ti  Ti148  1  0.69749751  0.90594099  0.13683674  1
  Ti  Ti149  1  0.82422163  -0.00325226  0.75399191  1
  Ti  Ti150  1  0.20187904  -0.00546209  0.74620904  1
  Ti  Ti151  1  0.60217262  0.80259565  0.74642736  1
  Ti  Ti152  1  0.50280644  0.50673449  0.63274599  1
  Ti  Ti153  1  0.81805535  0.18858570  0.50722646  1
  Ti  Ti154  1  0.50322357  0.70228341  0.36910600  1
  Ti  Ti155  1  0.38909704  0.40215520  0.00680539  1
  Ti  Ti156  1  0.60042375  0.19769572  0.74527161  1
  Ti  Ti157  1  0.20330852  0.79112808  0.25208984  1
  Ti  Ti158  1  0.20625069  -0.00344495  0.50355107  1
  Ti  Ti159  1  0.89358578  0.29524743  0.87446250  1
  Mo  Mo160  1  0.69244306  0.28889137  0.12852330  1
  Mo  Mo161  1  -0.00313357  0.59666895  0.49194657  1
  Mo  Mo162  1  0.89754455  0.49466296  0.61886340  1
  Mo  Mo163  1  0.80674290  0.19024057  -0.01973338  1
  Mo  Mo164  1  0.00193804  0.40271587  -0.01473172  1
  Mo  Mo165  1  0.30085288  0.90830693  0.87337583  1
  Mo  Mo166  1  0.40130838  0.60991772  0.25301255  1
  Mo  Mo167  1  0.79259536  0.79518883  0.24671603  1
  Mo  Mo168  1  0.79630182  0.58985827  0.23403602  1
  Mo  Mo169  1  0.59423519  0.60796933  0.50463677  1
  Mo  Mo170  1  0.59694268  0.59567151  0.74126917  1
  Mo  Mo171  1  0.09348199  0.50899988  0.88971674  1
  Mo  Mo172  1  0.21088019  0.80795577  0.49012906  1
  Mo  Mo173  1  0.20838983  0.21201350  -0.00453802  1
  Mo  Mo174  1  0.19525038  0.81024093  0.75024339  1
  Mo  Mo175  1  0.29961923  0.90932229  0.61649763  1
  Mo  Mo176  1  0.11478439  0.09719424  0.62437926  1
  Mo  Mo177  1  0.49647260  0.29914539  0.61662973  1
  Mo  Mo178  1  0.59651308  0.20015735  0.49603971  1
  Mo  Mo179  1  -0.00324430  0.60712473  0.74895480  1
  Mo  Mo180  1  0.90902808  0.09482368  0.62569883  1
  Mo  Mo181  1  0.10532053  0.09894971  0.88579647  1
  Mo  Mo182  1  0.69305114  0.49230549  0.37300074  1
  Mo  Mo183  1  0.00462366  0.79345772  0.00292105  1
  Mo  Mo184  1  0.20146546  -0.00200836  -0.00038830  1
  Mo  Mo185  1  0.29039311  0.49826265  0.11779213  1
  Mo  Mo186  1  0.69938261  0.30532519  0.39257067  1
  Mo  Mo187  1  0.90067580  0.90287906  0.86796732  1
  Mo  Mo188  1  0.00939673  0.79424282  0.25122720  1
  Mo  Mo189  1  0.20606716  0.19193952  0.51030547  1
  Mo  Mo190  1  0.01368634  0.21343026  0.24885254  1
  Mo  Mo191  1  0.39788149  0.40375199  0.72649071  1
  Mo  Mo192  1  0.50417047  0.29847110  0.86408341  1
  Mo  Mo193  1  0.29796623  0.50012931  0.38774268  1
  Mo  Mo194  1  0.58681090  0.39045354  0.26019212  1
  Mo  Mo195  1  0.01178166  -0.00483124  0.75178024  1
  Mo  Mo196  1  0.29197266  0.50626777  0.63313670  1
  Mo  Mo197  1  0.69317478  0.49487710  0.63888389  1
  Mo  Mo198  1  0.90609191  0.10510226  0.38807923  1
  Mo  Mo199  1  0.19251124  0.40408678  0.73687834  1
