# generated using pymatgen
data_HfZrTaTiMo
_symmetry_space_group_name_H-M   'P 1'
_cell_length_a   15.16965805
_cell_length_b   15.17306044
_cell_length_c   16.80358045
_cell_angle_alpha   89.99399676
_cell_angle_beta   90.02323768
_cell_angle_gamma   90.07373223
_symmetry_Int_Tables_number   1
_chemical_formula_structural   HfZrTaTiMo
_chemical_formula_sum   'Hf40 Zr40 Ta40 Ti40 Mo40'
_cell_volume   3867.67889646
_cell_formula_units_Z   40
loop_
 _symmetry_equiv_pos_site_id
 _symmetry_equiv_pos_as_xyz
  1  'x, y, z'
loop_
 _atom_site_type_symbol
 _atom_site_label
 _atom_site_symmetry_multiplicity
 _atom_site_fract_x
 _atom_site_fract_y
 _atom_site_fract_z
 _atom_site_occupancy
  Hf  Hf0  1  0.79209868  -0.00773352  0.50907151  1
  Hf  Hf1  1  0.80205291  0.79391213  0.25272362  1
  Hf  Hf2  1  0.79947125  -0.00621110  0.73222116  1
  Hf  Hf3  1  0.68886476  0.29228936  0.63454055  1
  Hf  Hf4  1  0.48932413  0.51617129  0.37545171  1
  Hf  Hf5  1  0.31981100  0.69318543  0.62203185  1
  Hf  Hf6  1  0.89822374  0.28509313  0.37346466  1
  Hf  Hf7  1  0.69843982  0.30280479  0.10204314  1
  Hf  Hf8  1  0.09155043  0.50048605  0.87981262  1
  Hf  Hf9  1  0.89674303  0.49165392  0.37301705  1
  Hf  Hf10  1  0.09520106  0.50248645  0.63061061  1
  Hf  Hf11  1  0.60330834  0.21541690  0.24584811  1
  Hf  Hf12  1  0.91507775  0.89442104  0.61557240  1
  Hf  Hf13  1  0.59355268  -0.00099713  0.24693235  1
  Hf  Hf14  1  0.91304351  0.67926696  0.11708398  1
  Hf  Hf15  1  0.49044870  0.31612156  0.63871067  1
  Hf  Hf16  1  0.79222485  -0.00896616  0.24838286  1
  Hf  Hf17  1  0.79710284  0.19542423  0.75196461  1
  Hf  Hf18  1  0.69561891  0.10316155  0.37611513  1
  Hf  Hf19  1  0.59214147  0.40705566  0.51048003  1
  Hf  Hf20  1  0.59166693  0.61646682  0.52100342  1
  Hf  Hf21  1  0.28629675  0.10768371  0.61868017  1
  Hf  Hf22  1  0.01158155  0.79080224  0.75056078  1
  Hf  Hf23  1  0.50545998  0.31019050  0.37365738  1
  Hf  Hf24  1  0.90367945  0.89484908  0.12938861  1
  Hf  Hf25  1  0.21394217  0.80259634  0.75248364  1
  Hf  Hf26  1  0.50529388  0.12029101  0.62990226  1
  Hf  Hf27  1  0.39873081  0.59891345  -0.00680141  1
  Hf  Hf28  1  0.47989901  0.10170894  0.12836361  1
  Hf  Hf29  1  0.11375748  0.09579669  0.86146976  1
  Hf  Hf30  1  0.59908581  0.60368211  -0.01561521  1
  Hf  Hf31  1  0.10112573  0.28521163  0.62890613  1
  Hf  Hf32  1  0.31085437  0.92155623  0.13585029  1
  Hf  Hf33  1  0.91426730  0.68433862  0.61812718  1
  Hf  Hf34  1  0.39644523  -0.00325340  0.74114790  1
  Hf  Hf35  1  0.00100490  0.59791822  0.48350316  1
  Hf  Hf36  1  0.41527683  0.81673607  0.24670688  1
  Hf  Hf37  1  0.57753975  0.19879514  -0.01785234  1
  Hf  Hf38  1  0.20519524  0.01254101  0.00309792  1
  Hf  Hf39  1  0.01987668  0.58160089  0.25727423  1
  Zr  Zr40  1  0.81428564  0.19921907  0.00407700  1
  Zr  Zr41  1  0.68610444  0.49961689  0.11436991  1
  Zr  Zr42  1  0.01465130  0.79326501  0.00842756  1
  Zr  Zr43  1  0.20623695  0.80381173  0.00953106  1
  Zr  Zr44  1  0.68342520  0.49847055  0.37394264  1
  Zr  Zr45  1  0.51028571  0.70978440  0.37555534  1
  Zr  Zr46  1  0.20881042  0.38915951  -0.00496563  1
  Zr  Zr47  1  0.80362923  0.59800739  0.24951234  1
  Zr  Zr48  1  0.20665979  0.59004418  0.50464719  1
  Zr  Zr49  1  0.02242043  0.79918494  0.47713634  1
  Zr  Zr50  1  0.78246523  0.38730061  0.24942428  1
  Zr  Zr51  1  0.19219708  0.39818123  0.75390912  1
  Zr  Zr52  1  0.38702157  0.42460913  0.50870004  1
  Zr  Zr53  1  0.80340889  0.78594246  0.73715112  1
  Zr  Zr54  1  0.28797923  0.11761631  0.36844804  1
  Zr  Zr55  1  0.27397737  0.12036874  0.14736801  1
  Zr  Zr56  1  0.60875613  0.81716632  0.00216827  1
  Zr  Zr57  1  0.01635745  0.18115609  0.00234490  1
  Zr  Zr58  1  0.40051031  0.01288708  0.50140836  1
  Zr  Zr59  1  0.17991788  0.00342307  0.48522079  1
  Zr  Zr60  1  0.39681355  0.41171368  0.24430966  1
  Zr  Zr61  1  0.70631320  0.90132382  0.87076806  1
  Zr  Zr62  1  0.49963607  0.89779669  0.62146341  1
  Zr  Zr63  1  0.79249193  0.39359384  0.50248048  1
  Zr  Zr64  1  0.80561288  0.18911796  0.23260813  1
  Zr  Zr65  1  0.39566377  0.61395558  0.23789788  1
  Zr  Zr66  1  0.79655448  0.39985181  0.75474608  1
  Zr  Zr67  1  0.71901195  0.69776736  0.88093885  1
  Zr  Zr68  1  0.11167003  0.28531174  0.12839181  1
  Zr  Zr69  1  0.00191558  0.78402609  0.26745800  1
  Zr  Zr70  1  0.90175095  0.08518339  0.87515171  1
  Zr  Zr71  1  0.61217135  0.80235658  0.24084745  1
  Zr  Zr72  1  0.30633303  0.90052728  0.37619246  1
  Zr  Zr73  1  -0.01153328  0.38116474  0.00064680  1
  Zr  Zr74  1  0.20472014  0.78356185  0.25029805  1
  Zr  Zr75  1  0.69020667  0.09084606  0.88246701  1
  Zr  Zr76  1  0.00488328  0.38990404  0.50240206  1
  Zr  Zr77  1  0.49237240  0.31932660  0.11635671  1
  Zr  Zr78  1  0.60249914  0.61704745  0.75296771  1
  Zr  Zr79  1  0.37093093  0.20743031  -0.00387984  1
  Ta  Ta80  1  -0.01510868  0.39444836  0.75569879  1
  Ta  Ta81  1  -0.00483008  0.19412895  0.74846069  1
  Ta  Ta82  1  0.10651785  0.70068283  0.87823821  1
  Ta  Ta83  1  0.88579434  0.49845846  0.88955143  1
  Ta  Ta84  1  0.90753570  0.88812146  0.87639791  1
  Ta  Ta85  1  -0.00166321  -0.00475932  0.26851406  1
  Ta  Ta86  1  0.10470934  0.90168712  0.87363751  1
  Ta  Ta87  1  0.60492995  0.01043811  0.50797314  1
  Ta  Ta88  1  0.28716446  0.50360077  0.11845294  1
  Ta  Ta89  1  0.00637111  -0.01367856  0.00259719  1
  Ta  Ta90  1  0.31110050  0.49441894  0.86630589  1
  Ta  Ta91  1  0.89609898  0.09391787  0.37912984  1
  Ta  Ta92  1  0.29416133  0.30138458  0.62622255  1
  Ta  Ta93  1  0.89774225  0.48197885  0.11547512  1
  Ta  Ta94  1  0.58267323  0.40958178  -0.02698089  1
  Ta  Ta95  1  0.00477505  0.18392648  0.49907535  1
  Ta  Ta96  1  0.30842365  0.89933158  0.87897288  1
  Ta  Ta97  1  -0.00221626  0.59311071  0.75548444  1
  Ta  Ta98  1  0.50663285  0.70070687  0.11574003  1
  Ta  Ta99  1  0.59436964  0.40890504  0.76999439  1
  Ta  Ta100  1  0.40439070  0.81068507  0.00087824  1
  Ta  Ta101  1  0.49272537  0.72154403  0.87402955  1
  Ta  Ta102  1  0.00410809  -0.00910143  0.74657710  1
  Ta  Ta103  1  0.79652926  0.19258763  0.50738822  1
  Ta  Ta104  1  0.91415407  0.68688911  0.88564703  1
  Ta  Ta105  1  0.49374718  0.10661098  0.37128520  1
  Ta  Ta106  1  0.09187273  0.28913683  0.86635432  1
  Ta  Ta107  1  0.70842126  0.70427025  0.38366254  1
  Ta  Ta108  1  0.28847063  0.31937097  0.37997863  1
  Ta  Ta109  1  0.80176457  0.78908672  0.50632559  1
  Ta  Ta110  1  0.51636901  0.91091938  0.38648372  1
  Ta  Ta111  1  0.50156781  0.92429677  0.87650955  1
  Ta  Ta112  1  0.20262587  0.60927580  0.75903168  1
  Ta  Ta113  1  0.30539594  0.69544802  0.38652241  1
  Ta  Ta114  1  0.10549480  0.91057631  0.14501952  1
  Ta  Ta115  1  0.29310134  0.89237703  0.60877865  1
  Ta  Ta116  1  0.10740241  0.89805775  0.62043413  1
  Ta  Ta117  1  0.19051457  0.40924521  0.24245328  1
  Ta  Ta118  1  0.70858741  0.70138182  0.11320835  1
  Ta  Ta119  1  0.69465795  0.50330877  0.63329078  1
  Ti  Ti120  1  -0.00407396  0.38531058  0.23946841  1
  Ti  Ti121  1  0.80608378  0.59208034  0.74807041  1
  Ti  Ti122  1  0.60034942  0.20493422  0.49650930  1
  Ti  Ti123  1  0.91697296  0.09029380  0.12660614  1
  Ti  Ti124  1  0.60312753  0.81286412  0.74294074  1
  Ti  Ti125  1  0.48565981  0.52061005  0.64820353  1
  Ti  Ti126  1  0.39052419  0.20329730  0.75187468  1
  Ti  Ti127  1  0.00844333  0.18971407  0.25045211  1
  Ti  Ti128  1  0.30034208  0.49923505  0.64581140  1
  Ti  Ti129  1  0.39694766  0.21703005  0.49680853  1
  Ti  Ti130  1  0.11420988  0.70441250  0.62220903  1
  Ti  Ti131  1  0.41343525  0.79254473  0.50041403  1
  Ti  Ti132  1  0.10398518  0.29304904  0.37623599  1
  Ti  Ti133  1  0.88504540  0.89039755  0.38133744  1
  Ti  Ti134  1  0.29187684  0.50988302  0.36936909  1
  Ti  Ti135  1  0.30871175  0.09398429  0.86837276  1
  Ti  Ti136  1  0.50635211  0.91238635  0.11325601  1
  Ti  Ti137  1  0.11477517  0.67232499  0.12360902  1
  Ti  Ti138  1  0.09427757  0.09015871  0.62885119  1
  Ti  Ti139  1  0.90594653  0.10051461  0.62074664  1
  Ti  Ti140  1  0.60248730  0.01072868  0.74048407  1
  Ti  Ti141  1  0.90047772  0.29321511  0.62328019  1
  Ti  Ti142  1  0.46902234  0.31736695  0.86870479  1
  Ti  Ti143  1  0.61787523  0.81131847  0.51232325  1
  Ti  Ti144  1  -0.00446736  -0.00451508  0.48303544  1
  Ti  Ti145  1  0.81151002  0.79772522  0.00438926  1
  Ti  Ti146  1  0.30577188  0.70396314  0.11821010  1
  Ti  Ti147  1  0.70956545  0.30812902  0.88632053  1
  Ti  Ti148  1  0.59255653  0.20876119  0.77175040  1
  Ti  Ti149  1  0.28363165  0.28883743  0.86092820  1
  Ti  Ti150  1  0.39170012  0.21557110  0.25349667  1
  Ti  Ti151  1  0.40617771  0.79832101  0.75208285  1
  Ti  Ti152  1  0.68697992  0.08849412  0.11012405  1
  Ti  Ti153  1  0.79309287  0.59606126  0.50503955  1
  Ti  Ti154  1  0.59903914  0.59746498  0.23890575  1
  Ti  Ti155  1  0.89602398  0.49169389  0.62374744  1
  Ti  Ti156  1  0.11329510  0.48248921  0.37892859  1
  Ti  Ti157  1  0.20159587  0.60032623  -0.01082488  1
  Ti  Ti158  1  0.20328622  -0.00573721  0.74330829  1
  Ti  Ti159  1  0.79937431  -0.01065692  0.00935786  1
  Mo  Mo160  1  0.49721875  0.51271586  0.11771647  1
  Mo  Mo161  1  0.19866221  0.39429758  0.50506612  1
  Mo  Mo162  1  0.20678989  0.58992311  0.25014846  1
  Mo  Mo163  1  0.69846460  0.29284432  0.38205380  1
  Mo  Mo164  1  0.70611542  0.90164191  0.11611899  1
  Mo  Mo165  1  0.48944903  0.10768926  0.85805252  1
  Mo  Mo166  1  0.19042296  0.00249366  0.26703748  1
  Mo  Mo167  1  0.49388808  0.50983238  0.86056607  1
  Mo  Mo168  1  0.39684636  0.40893512  -0.00316579  1
  Mo  Mo169  1  0.69844572  0.90045687  0.62877814  1
  Mo  Mo170  1  0.50356305  0.70952523  0.63339721  1
  Mo  Mo171  1  0.01121003  0.58917790  0.00001243  1
  Mo  Mo172  1  0.40428749  0.60282359  0.50391035  1
  Mo  Mo173  1  0.10311303  0.89971044  0.36065321  1
  Mo  Mo174  1  0.79327888  0.39729016  -0.00432609  1
  Mo  Mo175  1  0.80782935  0.59720377  0.00511875  1
  Mo  Mo176  1  0.59256180  0.00988967  0.00364729  1
  Mo  Mo177  1  0.59626289  0.40744115  0.24581373  1
  Mo  Mo178  1  0.90369472  0.29101140  0.13564733  1
  Mo  Mo179  1  0.20977189  0.79670610  0.49713616  1
  Mo  Mo180  1  0.30226241  0.70562038  0.87884786  1
  Mo  Mo181  1  0.70092709  0.49953114  0.87688690  1
  Mo  Mo182  1  0.90151796  0.29421134  0.86886638  1
  Mo  Mo183  1  0.09313306  0.50040970  0.11502161  1
  Mo  Mo184  1  0.89458873  0.68962302  0.38565808  1
  Mo  Mo185  1  0.69525409  0.89463162  0.38459119  1
  Mo  Mo186  1  0.20027206  0.18835117  0.74712487  1
  Mo  Mo187  1  0.11928108  0.68375319  0.37373576  1
  Mo  Mo188  1  0.19591821  0.19800233  -0.00816959  1
  Mo  Mo189  1  0.40560651  0.00445036  -0.00704307  1
  Mo  Mo190  1  0.19730391  0.21272650  0.49734083  1
  Mo  Mo191  1  0.40496227  0.01018353  0.26188060  1
  Mo  Mo192  1  0.69558189  0.10581197  0.62461215  1
  Mo  Mo193  1  0.29889278  0.31139322  0.13161728  1
  Mo  Mo194  1  0.19292810  0.21895175  0.26248683  1
  Mo  Mo195  1  0.09459822  0.08446931  0.13699840  1
  Mo  Mo196  1  0.08457083  0.11067596  0.37307101  1
  Mo  Mo197  1  0.39443677  0.61101951  0.76538592  1
  Mo  Mo198  1  0.70793759  0.69859072  0.62472020  1
  Mo  Mo199  1  0.39468086  0.40055337  0.74662326  1
