# generated using pymatgen
data_HfZrTaTiMo
_symmetry_space_group_name_H-M   'P 1'
_cell_length_a   15.20038301
_cell_length_b   15.18687456
_cell_length_c   16.81649191
_cell_angle_alpha   89.99215129
_cell_angle_beta   90.09509892
_cell_angle_gamma   90.06543359
_symmetry_Int_Tables_number   1
_chemical_formula_structural   HfZrTaTiMo
_chemical_formula_sum   'Hf40 Zr40 Ta40 Ti40 Mo40'
_cell_volume   3882.01719062
_cell_formula_units_Z   40
loop_
 _symmetry_equiv_pos_site_id
 _symmetry_equiv_pos_as_xyz
  1  'x, y, z'
loop_
 _atom_site_type_symbol
 _atom_site_label
 _atom_site_symmetry_multiplicity
 _atom_site_fract_x
 _atom_site_fract_y
 _atom_site_fract_z
 _atom_site_occupancy
  Hf  Hf0  1  0.09187933  0.69594570  0.37171416  1
  Hf  Hf1  1  0.89558679  0.49747289  0.10853472  1
  Hf  Hf2  1  0.89430227  0.10527441  0.86725528  1
  Hf  Hf3  1  0.29925882  0.89341143  0.63793151  1
  Hf  Hf4  1  0.01207253  -0.00226323  -0.00844726  1
  Hf  Hf5  1  0.78115873  0.59528125  0.24099963  1
  Hf  Hf6  1  0.10532855  0.11081555  0.86194803  1
  Hf  Hf7  1  0.28469820  0.48974703  0.86705712  1
  Hf  Hf8  1  0.10288711  0.70246980  0.13481578  1
  Hf  Hf9  1  0.20708477  0.19608376  0.25967022  1
  Hf  Hf10  1  0.80389092  0.39690036  0.23687549  1
  Hf  Hf11  1  0.50289159  0.88660943  0.11824443  1
  Hf  Hf12  1  0.21001317  0.01521778  0.74439403  1
  Hf  Hf13  1  0.89817196  0.10160048  0.62111481  1
  Hf  Hf14  1  0.67262605  0.10036948  0.62528708  1
  Hf  Hf15  1  0.10777559  0.09199419  0.12583627  1
  Hf  Hf16  1  0.41473523  0.79251805  0.75542681  1
  Hf  Hf17  1  0.31248103  0.11436012  0.88044013  1
  Hf  Hf18  1  0.40150379  0.59042031  0.74907533  1
  Hf  Hf19  1  0.52508277  0.28412294  0.61861044  1
  Hf  Hf20  1  -0.00510839  0.00545079  0.74156479  1
  Hf  Hf21  1  0.88597223  0.70508252  0.11967316  1
  Hf  Hf22  1  0.00409265  0.80045243  -0.00732913  1
  Hf  Hf23  1  0.10100826  0.30617980  0.13266242  1
  Hf  Hf24  1  0.19872995  0.79276791  0.49810988  1
  Hf  Hf25  1  0.39859619  0.37680163  0.76377172  1
  Hf  Hf26  1  0.90515632  0.30543126  0.38213531  1
  Hf  Hf27  1  0.01121950  0.40096904  -0.00953408  1
  Hf  Hf28  1  0.19766338  0.60622567  -0.00627755  1
  Hf  Hf29  1  0.80540282  -0.01091157  -0.00236722  1
  Hf  Hf30  1  0.69475102  0.90045212  0.38544605  1
  Hf  Hf31  1  0.00036411  -0.00052384  0.25381366  1
  Hf  Hf32  1  0.00567405  0.20219582  -0.00616172  1
  Hf  Hf33  1  -0.02011612  0.61786032  0.77224477  1
  Hf  Hf34  1  -0.00795289  0.80021794  0.25588324  1
  Hf  Hf35  1  0.60530764  0.41080093  0.23213915  1
  Hf  Hf36  1  0.90030405  0.89831826  0.39335257  1
  Hf  Hf37  1  0.20772469  0.40819763  0.26395347  1
  Hf  Hf38  1  0.60868904  -0.00602587  0.24517791  1
  Hf  Hf39  1  0.70161587  0.88057793  0.87866307  1
  Zr  Zr40  1  0.41419345  0.17772134  0.74830474  1
  Zr  Zr41  1  0.58525021  0.40853535  0.00778221  1
  Zr  Zr42  1  0.31505264  0.09350502  0.61221432  1
  Zr  Zr43  1  0.31244908  0.31849002  0.12802379  1
  Zr  Zr44  1  0.60089440  0.19657872  0.47492825  1
  Zr  Zr45  1  0.33828950  0.50343836  0.38265831  1
  Zr  Zr46  1  0.89041426  0.10484873  0.39336420  1
  Zr  Zr47  1  0.40003286  0.00223672  0.00146725  1
  Zr  Zr48  1  0.68910243  0.68595397  0.37833676  1
  Zr  Zr49  1  0.50104076  0.92213491  0.63227641  1
  Zr  Zr50  1  0.79099183  0.22459893  0.51825987  1
  Zr  Zr51  1  0.60400279  0.40013320  0.76324707  1
  Zr  Zr52  1  0.30352373  0.90245257  0.86445947  1
  Zr  Zr53  1  0.80222273  -0.00318297  0.24837175  1
  Zr  Zr54  1  0.49882315  0.09115654  0.35872811  1
  Zr  Zr55  1  0.09679757  0.90083502  0.62814817  1
  Zr  Zr56  1  0.77826463  -0.00489597  0.74647440  1
  Zr  Zr57  1  0.29368446  0.89684324  0.12508658  1
  Zr  Zr58  1  0.09760288  0.30124652  0.37462822  1
  Zr  Zr59  1  0.80054244  0.40966859  0.76218163  1
  Zr  Zr60  1  0.00004610  0.60861611  -0.01144371  1
  Zr  Zr61  1  0.79043460  0.20625049  0.75229807  1
  Zr  Zr62  1  0.31870934  0.30781163  0.60765890  1
  Zr  Zr63  1  0.49540075  0.48470330  0.62694278  1
  Zr  Zr64  1  0.21067763  0.60100624  0.26048743  1
  Zr  Zr65  1  0.09160762  0.69317240  0.63169030  1
  Zr  Zr66  1  0.88953459  0.69990351  0.61582362  1
  Zr  Zr67  1  0.40292786  0.78347678  -0.01470410  1
  Zr  Zr68  1  0.39592872  0.80365271  0.50614227  1
  Zr  Zr69  1  0.20374452  0.41476344  0.48905094  1
  Zr  Zr70  1  0.71091438  0.31223582  0.36841248  1
  Zr  Zr71  1  0.60111617  0.78806676  0.24562096  1
  Zr  Zr72  1  0.19274448  0.19860216  0.49931272  1
  Zr  Zr73  1  0.60976801  0.20616425  0.24755232  1
  Zr  Zr74  1  -0.00633679  0.19955933  0.24718371  1
  Zr  Zr75  1  0.90482335  0.88891557  0.86309183  1
  Zr  Zr76  1  0.39941337  0.60029378  0.51801382  1
  Zr  Zr77  1  0.91522761  0.30570532  0.63852636  1
  Zr  Zr78  1  0.49914962  0.10221054  0.12563549  1
  Zr  Zr79  1  0.20894145  0.20851789  0.00400621  1
  Ta  Ta80  1  -0.00507471  0.59043309  0.49117257  1
  Ta  Ta81  1  0.19655856  0.80115118  -0.00731106  1
  Ta  Ta82  1  0.70184732  0.09762781  0.10690246  1
  Ta  Ta83  1  0.80313647  0.20036184  -0.00492703  1
  Ta  Ta84  1  0.29136392  0.69365172  0.64051952  1
  Ta  Ta85  1  0.40156391  0.21238631  0.25753676  1
  Ta  Ta86  1  0.79960741  0.19289825  0.23883859  1
  Ta  Ta87  1  0.69177040  0.52148047  0.89341515  1
  Ta  Ta88  1  0.10714092  0.89339083  0.85487994  1
  Ta  Ta89  1  0.79775511  0.78667256  0.74016492  1
  Ta  Ta90  1  0.90678843  0.89946156  0.12139387  1
  Ta  Ta91  1  0.89985217  0.09900951  0.11603209  1
  Ta  Ta92  1  0.20150523  -0.00419431  0.26249328  1
  Ta  Ta93  1  0.89750392  0.29650805  0.11412571  1
  Ta  Ta94  1  0.48847102  0.88735576  0.37359927  1
  Ta  Ta95  1  0.00149416  0.40436720  0.50347827  1
  Ta  Ta96  1  0.21087673  -0.00875583  0.49175478  1
  Ta  Ta97  1  0.19227222  0.59907993  0.49699818  1
  Ta  Ta98  1  0.30532228  0.10621470  0.13268491  1
  Ta  Ta99  1  0.09601456  0.09397469  0.38360104  1
  Ta  Ta100  1  0.10190101  0.89672452  0.12773623  1
  Ta  Ta101  1  0.69959658  0.89144878  0.61608542  1
  Ta  Ta102  1  0.57800468  0.59418695  0.22759592  1
  Ta  Ta103  1  0.62241358  0.40770938  0.49883107  1
  Ta  Ta104  1  0.10841832  0.32146228  0.63419398  1
  Ta  Ta105  1  0.10215340  0.90069608  0.38157289  1
  Ta  Ta106  1  0.68126989  0.08973242  0.89380121  1
  Ta  Ta107  1  0.39827586  0.78589115  0.25065136  1
  Ta  Ta108  1  0.69695124  0.30120804  0.89459143  1
  Ta  Ta109  1  0.90968866  0.50554480  0.62892968  1
  Ta  Ta110  1  0.30956496  0.68935172  0.12349493  1
  Ta  Ta111  1  0.10534439  0.50318811  0.12952993  1
  Ta  Ta112  1  0.39977250  0.58310470  -0.00691995  1
  Ta  Ta113  1  0.51708525  0.90930254  0.87738315  1
  Ta  Ta114  1  0.60021237  0.19371705  0.76845805  1
  Ta  Ta115  1  0.88411173  0.50183858  0.89198501  1
  Ta  Ta116  1  0.12031238  0.31439575  0.86176503  1
  Ta  Ta117  1  0.60071571  0.60145273  0.51590995  1
  Ta  Ta118  1  0.58983772  0.79196502  0.51040698  1
  Ta  Ta119  1  0.01269088  0.42144739  0.76319821  1
  Ti  Ti120  1  0.90694618  0.30345836  0.87094788  1
  Ti  Ti121  1  0.71150312  0.88678528  0.11618021  1
  Ti  Ti122  1  0.89622687  0.89642701  0.61647296  1
  Ti  Ti123  1  0.41321120  0.42260958  0.24653571  1
  Ti  Ti124  1  0.50031503  0.32410909  0.37225910  1
  Ti  Ti125  1  0.49666349  0.29905490  0.12077386  1
  Ti  Ti126  1  0.88901035  0.69520809  0.37928653  1
  Ti  Ti127  1  0.30623431  0.70588886  0.37655706  1
  Ti  Ti128  1  0.88827282  0.49949425  0.37589699  1
  Ti  Ti129  1  0.20628869  0.40954413  0.00355228  1
  Ti  Ti130  1  0.60933057  0.79763050  0.74052741  1
  Ti  Ti131  1  0.39334705  -0.00872297  0.24760802  1
  Ti  Ti132  1  0.61344317  0.78229217  0.00387812  1
  Ti  Ti133  1  0.70582326  0.29920491  0.10623758  1
  Ti  Ti134  1  0.17864564  0.59061043  0.75574904  1
  Ti  Ti135  1  0.01085566  0.00702111  0.50914705  1
  Ti  Ti136  1  0.78782320  0.79009594  0.50259448  1
  Ti  Ti137  1  0.49463061  0.68377515  0.37804901  1
  Ti  Ti138  1  0.40989271  0.19102609  0.48610310  1
  Ti  Ti139  1  0.20022978  -0.00339087  -0.00555623  1
  Ti  Ti140  1  0.86146326  0.70072374  0.88823315  1
  Ti  Ti141  1  0.78387451  0.60073799  0.75119320  1
  Ti  Ti142  1  0.28985311  0.69753808  0.86017037  1
  Ti  Ti143  1  -0.00161235  0.79436947  0.49785043  1
  Ti  Ti144  1  0.58643279  -0.00263558  0.49156793  1
  Ti  Ti145  1  -0.01000854  0.59144052  0.25431535  1
  Ti  Ti146  1  0.51946089  0.69146253  0.87412969  1
  Ti  Ti147  1  0.27914245  0.49818999  0.63162241  1
  Ti  Ti148  1  -0.00075166  0.40808937  0.24934893  1
  Ti  Ti149  1  0.30462276  0.08995367  0.37655697  1
  Ti  Ti150  1  0.78601192  0.00341708  0.50602885  1
  Ti  Ti151  1  0.60062377  0.60850481  0.73618635  1
  Ti  Ti152  1  0.09396603  0.12478159  0.63125450  1
  Ti  Ti153  1  0.79255331  0.58592468  0.50101366  1
  Ti  Ti154  1  0.20336768  0.80548191  0.25791109  1
  Ti  Ti155  1  0.79704209  0.80018423  0.25337415  1
  Ti  Ti156  1  0.21371550  0.22044249  0.74240672  1
  Ti  Ti157  1  0.70791324  0.49324416  0.62695487  1
  Ti  Ti158  1  0.49828613  0.49794442  0.87630706  1
  Ti  Ti159  1  0.31431928  0.29907778  0.38192874  1
  Mo  Mo160  1  0.09055843  0.50708454  0.62571291  1
  Mo  Mo161  1  0.79997208  0.39641650  -0.00791178  1
  Mo  Mo162  1  0.58335859  0.60787043  0.01147336  1
  Mo  Mo163  1  0.47249447  0.49714051  0.11768659  1
  Mo  Mo164  1  0.00875885  0.20053108  0.50894794  1
  Mo  Mo165  1  0.59189783  0.00312698  0.75707752  1
  Mo  Mo166  1  0.80067955  0.79636885  0.00509067  1
  Mo  Mo167  1  0.69147474  0.70273260  0.12801781  1
  Mo  Mo168  1  0.49961803  0.70299521  0.63382409  1
  Mo  Mo169  1  0.49115790  0.69709535  0.11509136  1
  Mo  Mo170  1  0.00990955  0.21504294  0.75608458  1
  Mo  Mo171  1  -0.01185463  0.80353397  0.74681890  1
  Mo  Mo172  1  0.68859616  0.69626302  0.86857312  1
  Mo  Mo173  1  0.49952692  0.10020302  0.61487687  1
  Mo  Mo174  1  0.20434691  0.40576017  0.74203516  1
  Mo  Mo175  1  0.81262064  0.41887118  0.50802501  1
  Mo  Mo176  1  0.30101524  0.89665285  0.36628750  1
  Mo  Mo177  1  0.69526673  0.50432069  0.10714878  1
  Mo  Mo178  1  0.40554135  0.60640867  0.25051223  1
  Mo  Mo179  1  0.10423333  0.71145067  0.86356747  1
  Mo  Mo180  1  0.19876395  0.79086737  0.75188469  1
  Mo  Mo181  1  0.09527362  0.50449966  0.87737978  1
  Mo  Mo182  1  0.41352085  -0.00164364  0.76327938  1
  Mo  Mo183  1  0.50785455  0.09864155  0.89252793  1
  Mo  Mo184  1  0.39086025  0.39455739  -0.01558459  1
  Mo  Mo185  1  0.29602895  0.50760889  0.12200559  1
  Mo  Mo186  1  0.40855907  0.21254831  0.00458987  1
  Mo  Mo187  1  0.69920413  0.30914391  0.62972139  1
  Mo  Mo188  1  0.69549085  0.69301849  0.62103674  1
  Mo  Mo189  1  0.49978796  0.28472217  0.88880729  1
  Mo  Mo190  1  0.40066907  -0.00167307  0.48753534  1
  Mo  Mo191  1  0.70759120  0.09412951  0.37560658  1
  Mo  Mo192  1  0.07879704  0.50153105  0.36938570  1
  Mo  Mo193  1  0.52950257  0.50972256  0.37920413  1
  Mo  Mo194  1  0.77835484  0.60389249  0.00868651  1
  Mo  Mo195  1  0.42289687  0.38818242  0.49494350  1
  Mo  Mo196  1  0.60440529  -0.01389592  0.01187723  1
  Mo  Mo197  1  0.60010552  0.19908711  0.00483221  1
  Mo  Mo198  1  0.30124999  0.29829499  0.87760790  1
  Mo  Mo199  1  0.69837699  0.50365803  0.37407505  1
