# generated using pymatgen
data_HfZrTaTiMo
_symmetry_space_group_name_H-M   'P 1'
_cell_length_a   15.21075533
_cell_length_b   15.21535724
_cell_length_c   16.85191948
_cell_angle_alpha   89.96181507
_cell_angle_beta   90.01686734
_cell_angle_gamma   89.93495151
_symmetry_Int_Tables_number   1
_chemical_formula_structural   HfZrTaTiMo
_chemical_formula_sum   'Hf40 Zr40 Ta40 Ti40 Mo40'
_cell_volume   3900.15542335
_cell_formula_units_Z   40
loop_
 _symmetry_equiv_pos_site_id
 _symmetry_equiv_pos_as_xyz
  1  'x, y, z'
loop_
 _atom_site_type_symbol
 _atom_site_label
 _atom_site_symmetry_multiplicity
 _atom_site_fract_x
 _atom_site_fract_y
 _atom_site_fract_z
 _atom_site_occupancy
  Hf  Hf0  1  0.42370122  0.20692062  0.74405728  1
  Hf  Hf1  1  0.90861452  0.10220392  0.88385247  1
  Hf  Hf2  1  0.91573216  0.71519309  0.61783040  1
  Hf  Hf3  1  0.00910701  -0.01106374  0.50057050  1
  Hf  Hf4  1  0.12713768  0.09942120  0.11552410  1
  Hf  Hf5  1  0.09695370  0.48635107  0.63225575  1
  Hf  Hf6  1  0.39241190  0.59241885  0.50868199  1
  Hf  Hf7  1  0.69001214  0.50166920  0.38370108  1
  Hf  Hf8  1  0.30780041  0.88685559  0.12515765  1
  Hf  Hf9  1  0.37014855  0.60588508  0.23896334  1
  Hf  Hf10  1  0.41401029  -0.00142179  0.00879791  1
  Hf  Hf11  1  0.50151683  0.27643613  0.36320910  1
  Hf  Hf12  1  0.29277589  0.10149178  0.62823425  1
  Hf  Hf13  1  0.49020448  0.47116458  0.63120247  1
  Hf  Hf14  1  0.20218809  0.40361625  0.77343005  1
  Hf  Hf15  1  0.79747819  0.61287722  0.49489936  1
  Hf  Hf16  1  0.01395885  0.79807375  0.23797943  1
  Hf  Hf17  1  0.48267636  0.50423313  0.11848432  1
  Hf  Hf18  1  0.18668384  0.38744915  -0.01546001  1
  Hf  Hf19  1  0.60194240  -0.00685511  0.50284288  1
  Hf  Hf20  1  -0.01349823  0.41340503  -0.00138965  1
  Hf  Hf21  1  0.78567065  0.41530585  0.75144155  1
  Hf  Hf22  1  0.20171194  0.20143341  0.76375173  1
  Hf  Hf23  1  0.69464567  0.90520481  0.86896057  1
  Hf  Hf24  1  0.58595703  0.39033461  0.00203941  1
  Hf  Hf25  1  0.70767221  0.10199770  0.87711569  1
  Hf  Hf26  1  0.38425804  0.58980366  0.75617533  1
  Hf  Hf27  1  0.80718816  0.60304141  0.00618490  1
  Hf  Hf28  1  0.81059505  0.80481753  0.74877631  1
  Hf  Hf29  1  0.39981933  0.80045516  0.50167690  1
  Hf  Hf30  1  0.49497932  0.90322870  0.86052571  1
  Hf  Hf31  1  0.01779704  0.21359409  0.00389219  1
  Hf  Hf32  1  0.28948422  0.28964307  0.11455394  1
  Hf  Hf33  1  0.09599305  0.49622120  0.12834764  1
  Hf  Hf34  1  -0.00394237  0.38999566  0.26301724  1
  Hf  Hf35  1  0.69640643  0.50133910  0.60802961  1
  Hf  Hf36  1  0.88775812  0.30483803  0.87818212  1
  Hf  Hf37  1  0.60013712  0.58071530  0.75344776  1
  Hf  Hf38  1  0.79002328  0.40205537  0.25024913  1
  Hf  Hf39  1  0.21987072  0.18463190  0.25316430  1
  Zr  Zr40  1  0.69506907  0.49559462  0.88679281  1
  Zr  Zr41  1  0.18949156  0.39249742  0.48684542  1
  Zr  Zr42  1  0.10474721  0.90098093  0.11341498  1
  Zr  Zr43  1  0.69756873  0.70133785  0.86457267  1
  Zr  Zr44  1  0.91105872  0.09077490  0.11938263  1
  Zr  Zr45  1  0.69969882  0.10970964  0.37615385  1
  Zr  Zr46  1  -0.00806555  0.39067265  0.48487712  1
  Zr  Zr47  1  0.91185821  0.91231468  0.36055129  1
  Zr  Zr48  1  0.80461171  0.82134428  0.49819475  1
  Zr  Zr49  1  0.49881863  0.69586372  0.63401743  1
  Zr  Zr50  1  0.90987561  0.70619070  0.37031334  1
  Zr  Zr51  1  0.69549696  0.50393489  0.11968566  1
  Zr  Zr52  1  0.01111258  0.19575055  0.24836856  1
  Zr  Zr53  1  0.70477012  0.10271507  0.12539606  1
  Zr  Zr54  1  0.93017582  0.11155021  0.62244997  1
  Zr  Zr55  1  0.18928731  0.60538849  0.76264761  1
  Zr  Zr56  1  0.81207267  -0.00027947  0.73320848  1
  Zr  Zr57  1  0.59406029  0.60270494  0.24802152  1
  Zr  Zr58  1  0.29727127  0.32036446  0.62840669  1
  Zr  Zr59  1  0.58304343  0.62672607  -0.00080540  1
  Zr  Zr60  1  0.19903414  0.59295129  0.50766459  1
  Zr  Zr61  1  0.31689686  0.09161845  0.38325162  1
  Zr  Zr62  1  0.19422889  0.39244332  0.25382130  1
  Zr  Zr63  1  0.69539578  0.71274240  0.62951022  1
  Zr  Zr64  1  0.31995213  0.09067101  0.87075879  1
  Zr  Zr65  1  0.70355396  0.90050382  0.13527069  1
  Zr  Zr66  1  0.90467185  0.31895586  0.62801783  1
  Zr  Zr67  1  0.01197894  0.79764242  0.76547409  1
  Zr  Zr68  1  0.09695222  0.90087504  0.63242262  1
  Zr  Zr69  1  -0.00628562  0.79515763  0.00426050  1
  Zr  Zr70  1  0.80230510  0.20361683  0.74084843  1
  Zr  Zr71  1  0.40539388  -0.00528085  0.51277850  1
  Zr  Zr72  1  0.39201406  0.01070311  0.24006806  1
  Zr  Zr73  1  0.89573104  0.50160392  0.37481218  1
  Zr  Zr74  1  0.80418078  0.01179593  0.50795784  1
  Zr  Zr75  1  0.78982334  0.79887842  -0.00165812  1
  Zr  Zr76  1  0.89339660  0.30163154  0.12043874  1
  Zr  Zr77  1  0.49149852  0.70329450  0.36494697  1
  Zr  Zr78  1  0.48840130  0.49226688  0.37180581  1
  Zr  Zr79  1  0.67652299  0.30532146  0.62896547  1
  Ta  Ta80  1  0.19982904  -0.00429595  0.75954737  1
  Ta  Ta81  1  0.00714661  0.60375873  0.50281064  1
  Ta  Ta82  1  0.79364813  0.61022075  0.25476180  1
  Ta  Ta83  1  0.10640863  0.70212607  0.62711416  1
  Ta  Ta84  1  0.10720154  0.09781613  0.88908042  1
  Ta  Ta85  1  0.39392722  0.39389693  0.49357238  1
  Ta  Ta86  1  0.48657407  0.71991140  0.13541992  1
  Ta  Ta87  1  0.29170812  0.69946270  0.37724023  1
  Ta  Ta88  1  0.68350833  0.29288016  0.87060410  1
  Ta  Ta89  1  0.29398487  0.70404646  0.63377683  1
  Ta  Ta90  1  0.39071864  0.39417507  0.24511734  1
  Ta  Ta91  1  0.38978348  0.39878530  -0.01243414  1
  Ta  Ta92  1  0.80823068  -0.00122961  0.00023931  1
  Ta  Ta93  1  0.10718929  0.90541639  0.88867123  1
  Ta  Ta94  1  0.19704419  0.19174573  0.49456904  1
  Ta  Ta95  1  0.21532654  0.78470780  0.24417373  1
  Ta  Ta96  1  0.40876378  0.20257883  -0.00372942  1
  Ta  Ta97  1  0.49361290  0.29432123  0.13099451  1
  Ta  Ta98  1  0.80564102  0.21954547  0.50029783  1
  Ta  Ta99  1  0.68794845  0.71182038  0.13317687  1
  Ta  Ta100  1  0.59923843  0.00563021  0.26087213  1
  Ta  Ta101  1  0.10710129  0.07896828  0.36699294  1
  Ta  Ta102  1  0.59229914  0.39217026  0.24536783  1
  Ta  Ta103  1  0.29691215  0.89109882  0.63379935  1
  Ta  Ta104  1  0.89200149  0.70221140  0.14008530  1
  Ta  Ta105  1  0.41424161  0.79727814  -0.00626385  1
  Ta  Ta106  1  0.69050399  0.29281825  0.12708080  1
  Ta  Ta107  1  0.19677441  0.80131441  0.49983113  1
  Ta  Ta108  1  0.90575405  0.90479695  0.88089202  1
  Ta  Ta109  1  0.40692335  0.20285508  0.51056774  1
  Ta  Ta110  1  0.60585911  0.80257146  0.48313685  1
  Ta  Ta111  1  0.21886762  0.78574238  -0.01177239  1
  Ta  Ta112  1  0.60099074  0.00808388  0.73321035  1
  Ta  Ta113  1  0.89597613  0.51530303  0.87246183  1
  Ta  Ta114  1  0.80204554  0.20555220  0.25611515  1
  Ta  Ta115  1  0.30563360  0.29576365  0.37546694  1
  Ta  Ta116  1  0.10528994  0.69801240  0.37091804  1
  Ta  Ta117  1  0.29311957  0.50180456  0.36916471  1
  Ta  Ta118  1  0.40239924  -0.00395821  0.73514312  1
  Ta  Ta119  1  0.60427024  -0.00727042  0.00193023  1
  Ti  Ti120  1  0.49209840  0.50145574  0.88316246  1
  Ti  Ti121  1  0.90863232  0.10807944  0.37366078  1
  Ti  Ti122  1  0.49538080  0.90762976  0.36678884  1
  Ti  Ti123  1  0.50552900  0.10837861  0.13025778  1
  Ti  Ti124  1  0.58982231  0.60879034  0.49602338  1
  Ti  Ti125  1  0.09769878  0.69778999  0.88762704  1
  Ti  Ti126  1  0.37802928  0.61141062  -0.00791875  1
  Ti  Ti127  1  0.80749467  0.60603110  0.74435943  1
  Ti  Ti128  1  -0.00205827  0.60560188  0.00572799  1
  Ti  Ti129  1  0.89817985  0.50800877  0.61787826  1
  Ti  Ti130  1  0.29532289  0.89394459  0.36618745  1
  Ti  Ti131  1  0.89989799  0.90186075  0.13276546  1
  Ti  Ti132  1  0.59310770  0.19295195  0.50217950  1
  Ti  Ti133  1  0.21774296  -0.00258552  -0.00777257  1
  Ti  Ti134  1  0.21409306  0.80262183  0.77168849  1
  Ti  Ti135  1  0.09785512  0.27853638  0.62657656  1
  Ti  Ti136  1  0.20181400  -0.00522050  0.50338000  1
  Ti  Ti137  1  0.51051229  0.88774369  0.63392989  1
  Ti  Ti138  1  0.01044945  0.20081936  0.75993235  1
  Ti  Ti139  1  0.89946765  0.51034319  0.13921106  1
  Ti  Ti140  1  -0.00660624  0.59865599  0.74899493  1
  Ti  Ti141  1  0.28575642  0.50501835  0.10897539  1
  Ti  Ti142  1  0.08758587  0.50656577  0.87945829  1
  Ti  Ti143  1  0.60193112  0.19437194  0.00149347  1
  Ti  Ti144  1  0.01121059  0.00458734  0.75577614  1
  Ti  Ti145  1  0.01117654  0.19781454  0.48604581  1
  Ti  Ti146  1  0.70147321  0.30401256  0.37755574  1
  Ti  Ti147  1  0.51869685  0.10287461  0.87131516  1
  Ti  Ti148  1  0.49520671  0.70918651  0.85683332  1
  Ti  Ti149  1  0.10972342  0.89077455  0.36720669  1
  Ti  Ti150  1  0.69632902  0.10752819  0.62108332  1
  Ti  Ti151  1  0.80699204  0.00790154  0.25428587  1
  Ti  Ti152  1  0.51264261  0.89816300  0.13659327  1
  Ti  Ti153  1  0.09644259  0.51475712  0.36320775  1
  Ti  Ti154  1  0.11603051  0.68889715  0.11955918  1
  Ti  Ti155  1  0.39684576  0.39600005  0.77772295  1
  Ti  Ti156  1  0.78549861  0.80310797  0.26304014  1
  Ti  Ti157  1  0.78976319  0.39261010  0.00287685  1
  Ti  Ti158  1  0.58960655  0.38667947  0.49336502  1
  Ti  Ti159  1  -0.00230525  0.40092421  0.76217106  1
  Mo  Mo160  1  0.21380579  0.19581318  -0.01622308  1
  Mo  Mo161  1  0.57764115  0.38702742  0.76625671  1
  Mo  Mo162  1  0.79030648  0.40038758  0.49697832  1
  Mo  Mo163  1  0.30280026  0.29280420  0.88152118  1
  Mo  Mo164  1  0.29646809  0.49743150  0.63120651  1
  Mo  Mo165  1  0.01631549  0.79503011  0.49518249  1
  Mo  Mo166  1  0.29729753  0.50427090  0.89056391  1
  Mo  Mo167  1  0.79344333  0.20648803  -0.00130675  1
  Mo  Mo168  1  0.00476812  -0.00218027  -0.00589001  1
  Mo  Mo169  1  0.69666331  0.70439808  0.37581108  1
  Mo  Mo170  1  0.90636034  0.69122854  0.87295500  1
  Mo  Mo171  1  0.58724805  0.81233854  0.00271421  1
  Mo  Mo172  1  0.60495748  0.19421336  0.74948095  1
  Mo  Mo173  1  0.18952063  0.60009760  0.24888646  1
  Mo  Mo174  1  0.69714527  0.90406810  0.36331171  1
  Mo  Mo175  1  0.31351944  0.09697138  0.11137285  1
  Mo  Mo176  1  0.30375376  0.89893714  0.87394478  1
  Mo  Mo177  1  0.50111180  0.29314168  0.88142119  1
  Mo  Mo178  1  0.60536038  0.20102884  0.24583815  1
  Mo  Mo179  1  0.40477255  0.20491386  0.24247001  1
  Mo  Mo180  1  0.88980064  0.28718688  0.37542523  1
  Mo  Mo181  1  0.00655742  -0.00125371  0.25080965  1
  Mo  Mo182  1  0.10355069  0.27638290  0.37600668  1
  Mo  Mo183  1  0.59859474  0.80963722  0.26472143  1
  Mo  Mo184  1  0.08657433  0.29770968  0.86777843  1
  Mo  Mo185  1  0.49638361  0.29497653  0.61792051  1
  Mo  Mo186  1  0.50487848  0.09458220  0.37512533  1
  Mo  Mo187  1  0.29963709  0.69396511  0.11361586  1
  Mo  Mo188  1  0.60064942  0.80639650  0.74571521  1
  Mo  Mo189  1  0.50705468  0.10040860  0.62459434  1
  Mo  Mo190  1  0.30826714  0.70555420  0.87377127  1
  Mo  Mo191  1  0.19463525  -0.01507652  0.25151583  1
  Mo  Mo192  1  0.10132406  0.29810348  0.12385885  1
  Mo  Mo193  1  0.90652320  0.90316770  0.62870206  1
  Mo  Mo194  1  0.39808038  0.80509288  0.25426076  1
  Mo  Mo195  1  0.39596359  0.80197652  0.74496689  1
  Mo  Mo196  1  0.18986377  0.59716134  -0.01142374  1
  Mo  Mo197  1  0.10931074  0.10483579  0.62738348  1
  Mo  Mo198  1  0.69511926  0.90213913  0.62836389  1
  Mo  Mo199  1  -0.00074641  0.60307302  0.24091397  1
