# generated using pymatgen
data_HfZrTaTiMo
_symmetry_space_group_name_H-M   'P 1'
_cell_length_a   15.20045065
_cell_length_b   15.21689803
_cell_length_c   16.84923213
_cell_angle_alpha   89.95657518
_cell_angle_beta   89.93740920
_cell_angle_gamma   90.08619703
_symmetry_Int_Tables_number   1
_chemical_formula_structural   HfZrTaTiMo
_chemical_formula_sum   'Hf40 Zr40 Ta40 Ti40 Mo40'
_cell_volume   3897.28199997
_cell_formula_units_Z   40
loop_
 _symmetry_equiv_pos_site_id
 _symmetry_equiv_pos_as_xyz
  1  'x, y, z'
loop_
 _atom_site_type_symbol
 _atom_site_label
 _atom_site_symmetry_multiplicity
 _atom_site_fract_x
 _atom_site_fract_y
 _atom_site_fract_z
 _atom_site_occupancy
  Hf  Hf0  1  0.38365135  0.19273411  0.49779153  1
  Hf  Hf1  1  0.80301817  0.79608866  0.75959073  1
  Hf  Hf2  1  0.58338102  0.59239269  0.50215917  1
  Hf  Hf3  1  0.80746238  0.39611325  0.25740241  1
  Hf  Hf4  1  0.47652964  0.08636521  0.36087492  1
  Hf  Hf5  1  0.60449046  0.40448915  0.75771268  1
  Hf  Hf6  1  0.01676813  0.01007299  0.00151475  1
  Hf  Hf7  1  0.68426189  0.68840035  0.62983719  1
  Hf  Hf8  1  0.29660803  0.29140438  0.36311167  1
  Hf  Hf9  1  0.08969216  0.52047353  0.11367880  1
  Hf  Hf10  1  0.09521519  0.68510561  0.38571310  1
  Hf  Hf11  1  0.88806060  0.51933588  0.87391800  1
  Hf  Hf12  1  0.09647845  0.31415575  0.36497585  1
  Hf  Hf13  1  0.90485298  0.68976800  0.13248436  1
  Hf  Hf14  1  0.80588411  0.59667255  0.50679571  1
  Hf  Hf15  1  0.10934368  0.29167768  0.88596659  1
  Hf  Hf16  1  -0.00973165  0.40974755  -0.00200387  1
  Hf  Hf17  1  0.09633364  0.70519409  0.86446536  1
  Hf  Hf18  1  0.89497495  0.31524163  0.12616115  1
  Hf  Hf19  1  0.18633265  0.20932709  0.50326963  1
  Hf  Hf20  1  0.69777930  0.89898565  0.62478975  1
  Hf  Hf21  1  0.80288570  0.59534175  0.25143554  1
  Hf  Hf22  1  0.20891976  0.82041135  -0.00044968  1
  Hf  Hf23  1  0.49530210  0.50167589  0.36358448  1
  Hf  Hf24  1  0.40041728  0.38528499  0.22738629  1
  Hf  Hf25  1  0.90013797  0.11040861  0.64352969  1
  Hf  Hf26  1  0.38709905  0.19692400  0.01209122  1
  Hf  Hf27  1  0.80744320  0.78474767  -0.00904098  1
  Hf  Hf28  1  0.00282025  0.80688877  0.74862581  1
  Hf  Hf29  1  0.40492138  0.80046258  0.49009486  1
  Hf  Hf30  1  0.00871509  0.39723916  0.51123660  1
  Hf  Hf31  1  -0.02209079  0.00999004  0.49272954  1
  Hf  Hf32  1  0.39944107  0.39280837  -0.00226809  1
  Hf  Hf33  1  0.10172986  0.50015646  0.87411827  1
  Hf  Hf34  1  0.30152412  0.70206430  0.85948255  1
  Hf  Hf35  1  0.69563935  0.49026225  0.38585250  1
  Hf  Hf36  1  0.60867951  0.79086962  0.24077516  1
  Hf  Hf37  1  0.00914033  0.00417165  0.75258309  1
  Hf  Hf38  1  0.40107339  0.41010644  0.50278646  1
  Hf  Hf39  1  0.21122219  0.80275436  0.49313775  1
  Zr  Zr40  1  0.59500384  0.79751800  0.49691585  1
  Zr  Zr41  1  0.48130326  0.10142807  0.62824126  1
  Zr  Zr42  1  0.70176323  0.69414880  0.37063046  1
  Zr  Zr43  1  0.49314533  0.51809339  0.64464825  1
  Zr  Zr44  1  0.61084509  0.40308590  0.23353413  1
  Zr  Zr45  1  0.69376004  0.09575076  0.35995027  1
  Zr  Zr46  1  0.79549046  0.20649040  0.01004450  1
  Zr  Zr47  1  0.59463378  0.79298727  0.75670713  1
  Zr  Zr48  1  0.90500797  0.11159440  0.86764718  1
  Zr  Zr49  1  0.40625799  0.59935628  0.00485919  1
  Zr  Zr50  1  0.01113452  0.80704218  -0.00179837  1
  Zr  Zr51  1  -0.01020433  0.59829728  0.73508850  1
  Zr  Zr52  1  0.11062220  0.31246350  0.11736338  1
  Zr  Zr53  1  0.59259899  0.19555385  0.49712683  1
  Zr  Zr54  1  0.70387486  0.28759612  0.62583280  1
  Zr  Zr55  1  0.49266180  0.09095773  0.88669757  1
  Zr  Zr56  1  0.70299050  0.67675989  0.87329049  1
  Zr  Zr57  1  0.50160368  0.30243356  0.37456553  1
  Zr  Zr58  1  0.40135718  0.79485561  -0.00299301  1
  Zr  Zr59  1  -0.00012329  0.80660957  0.25839267  1
  Zr  Zr60  1  0.40739399  0.81412789  0.26113046  1
  Zr  Zr61  1  0.21288084  0.59094704  0.51276996  1
  Zr  Zr62  1  0.20080808  0.61065595  -0.00424181  1
  Zr  Zr63  1  0.58255590  -0.01122286  0.75314015  1
  Zr  Zr64  1  0.40195369  0.59958429  0.23471702  1
  Zr  Zr65  1  0.59697542  0.79154276  -0.00051085  1
  Zr  Zr66  1  0.81092077  0.82108137  0.49100266  1
  Zr  Zr67  1  0.89652894  0.30703029  0.86867014  1
  Zr  Zr68  1  0.90429308  0.71347022  0.61414802  1
  Zr  Zr69  1  0.58374342  0.20492997  0.76038881  1
  Zr  Zr70  1  0.81213395  0.18289884  0.49223444  1
  Zr  Zr71  1  0.70138115  0.09155372  0.63044737  1
  Zr  Zr72  1  0.90698914  0.90063179  0.12861191  1
  Zr  Zr73  1  0.09528605  0.90522793  0.61183308  1
  Zr  Zr74  1  0.30093862  0.28772974  0.63959653  1
  Zr  Zr75  1  0.58644939  0.20349971  0.23296868  1
  Zr  Zr76  1  0.20295367  0.01640823  0.49504313  1
  Zr  Zr77  1  0.80306178  0.00104794  0.00281547  1
  Zr  Zr78  1  0.92149613  0.50893097  0.38284195  1
  Zr  Zr79  1  0.20623473  0.80754504  0.26736255  1
  Ta  Ta80  1  0.89057326  0.91617994  0.62762408  1
  Ta  Ta81  1  0.89962753  0.09816797  0.35026644  1
  Ta  Ta82  1  0.20332118  0.59560837  0.74329862  1
  Ta  Ta83  1  0.90195841  0.10450733  0.14126794  1
  Ta  Ta84  1  0.09170193  0.90831255  0.38525273  1
  Ta  Ta85  1  0.90766592  0.30039222  0.63890280  1
  Ta  Ta86  1  0.79525888  -0.00334409  0.76463227  1
  Ta  Ta87  1  0.19057853  0.59446221  0.24806639  1
  Ta  Ta88  1  0.12169167  0.92162708  0.13108463  1
  Ta  Ta89  1  0.10855915  0.48774740  0.63589736  1
  Ta  Ta90  1  0.09413845  0.11276042  0.36448585  1
  Ta  Ta91  1  0.40589839  0.38480162  0.77299067  1
  Ta  Ta92  1  0.90470571  0.90137107  0.87682154  1
  Ta  Ta93  1  0.28587837  0.49013612  0.11652837  1
  Ta  Ta94  1  0.69567044  0.48482305  0.61457404  1
  Ta  Ta95  1  0.39782163  -0.00800271  0.49668722  1
  Ta  Ta96  1  0.80789389  0.38985247  0.50398957  1
  Ta  Ta97  1  0.29640850  0.70352247  0.13229013  1
  Ta  Ta98  1  0.11258867  0.70216417  0.62309545  1
  Ta  Ta99  1  0.00659682  0.42688536  0.24541166  1
  Ta  Ta100  1  0.10634393  0.71626059  0.13070196  1
  Ta  Ta101  1  0.70490530  0.90224143  0.36571503  1
  Ta  Ta102  1  0.49110315  0.07952351  0.11785943  1
  Ta  Ta103  1  0.20137629  0.38792495  0.75767391  1
  Ta  Ta104  1  0.29183412  0.49449267  0.36776095  1
  Ta  Ta105  1  0.70393233  0.29898899  0.38164631  1
  Ta  Ta106  1  0.30829701  0.90653087  0.62801690  1
  Ta  Ta107  1  0.69974011  0.48529356  0.88827140  1
  Ta  Ta108  1  0.38057264  0.18210336  0.22419702  1
  Ta  Ta109  1  0.59482923  0.19661649  0.01050221  1
  Ta  Ta110  1  0.69367766  0.08875472  0.12941636  1
  Ta  Ta111  1  0.80078911  0.40315571  0.74413707  1
  Ta  Ta112  1  0.59312836  -0.00890402  0.49403821  1
  Ta  Ta113  1  0.69792492  0.10120952  0.87725120  1
  Ta  Ta114  1  0.49933640  0.31220845  0.62455053  1
  Ta  Ta115  1  0.40705057  0.81138932  0.74860338  1
  Ta  Ta116  1  0.38572832  -0.00791411  -0.00096601  1
  Ta  Ta117  1  0.68998827  0.90719786  0.88579255  1
  Ta  Ta118  1  0.00052074  0.19753542  0.01362380  1
  Ta  Ta119  1  0.20493297  0.40000339  0.50469367  1
  Ti  Ti120  1  0.01343566  0.00670488  0.25079889  1
  Ti  Ti121  1  0.70084676  0.68860591  0.12492105  1
  Ti  Ti122  1  0.49800013  0.68819560  0.86507576  1
  Ti  Ti123  1  0.00907579  0.59600469  0.51960736  1
  Ti  Ti124  1  0.28874115  0.10628562  0.87051404  1
  Ti  Ti125  1  0.19386909  0.19430395  0.23504084  1
  Ti  Ti126  1  0.79102175  0.20289241  0.24304874  1
  Ti  Ti127  1  0.30605188  0.49180618  0.64447230  1
  Ti  Ti128  1  0.50300557  0.89475195  0.11855205  1
  Ti  Ti129  1  0.31655884  0.69691508  0.63925739  1
  Ti  Ti130  1  0.79874681  -0.01384634  0.24232409  1
  Ti  Ti131  1  0.10823461  0.11562937  0.64047708  1
  Ti  Ti132  1  0.60395189  0.38772821  0.00979046  1
  Ti  Ti133  1  0.21438518  0.00809160  0.26313909  1
  Ti  Ti134  1  0.38786733  0.00930526  0.75017540  1
  Ti  Ti135  1  0.00255362  0.40100997  0.74796252  1
  Ti  Ti136  1  0.11524920  0.91183052  0.86980953  1
  Ti  Ti137  1  0.72148323  0.49115888  0.11197625  1
  Ti  Ti138  1  0.60572177  0.59203354  0.00899456  1
  Ti  Ti139  1  0.29976132  0.49367610  0.87283516  1
  Ti  Ti140  1  0.30523793  0.68696571  0.36849248  1
  Ti  Ti141  1  0.69801348  0.29496708  0.87813863  1
  Ti  Ti142  1  0.20448841  0.80962493  0.74097207  1
  Ti  Ti143  1  0.50868124  0.50142094  0.12156290  1
  Ti  Ti144  1  0.30769158  0.90711367  0.13000635  1
  Ti  Ti145  1  0.70138270  0.89463856  0.11971459  1
  Ti  Ti146  1  0.19625345  0.18519165  0.01264887  1
  Ti  Ti147  1  0.20120742  0.40306477  0.24389681  1
  Ti  Ti148  1  0.90280896  0.29446386  0.37128789  1
  Ti  Ti149  1  -0.01423678  0.61689771  -0.00703757  1
  Ti  Ti150  1  -0.00035500  0.20409601  0.50080436  1
  Ti  Ti151  1  0.90226691  0.71486893  0.37602055  1
  Ti  Ti152  1  0.39624848  0.60800448  0.50031975  1
  Ti  Ti153  1  0.58870698  -0.01245183  0.24453142  1
  Ti  Ti154  1  0.50531442  0.69334101  0.36396808  1
  Ti  Ti155  1  0.10863276  0.10282169  0.86865115  1
  Ti  Ti156  1  0.30339072  0.91128217  0.86497886  1
  Ti  Ti157  1  0.50651407  0.50085153  0.87722203  1
  Ti  Ti158  1  0.78954686  0.58656754  0.73605050  1
  Ti  Ti159  1  -0.00174884  0.21305849  0.24194558  1
  Mo  Mo160  1  0.09787323  0.29854206  0.63529959  1
  Mo  Mo161  1  0.51233371  0.90236927  0.37026163  1
  Mo  Mo162  1  0.59813398  -0.00256629  0.00835695  1
  Mo  Mo163  1  0.30582505  0.91502521  0.37779433  1
  Mo  Mo164  1  0.00815917  0.60663752  0.25297159  1
  Mo  Mo165  1  0.30222011  0.29233065  0.87327682  1
  Mo  Mo166  1  0.59893361  0.39602892  0.50616297  1
  Mo  Mo167  1  0.29323973  0.09295473  0.63355477  1
  Mo  Mo168  1  0.90055250  0.50659928  0.12343828  1
  Mo  Mo169  1  0.39572581  0.20288261  0.76403602  1
  Mo  Mo170  1  0.89954458  0.91263802  0.36067637  1
  Mo  Mo171  1  0.00590671  0.80609782  0.49151890  1
  Mo  Mo172  1  0.01305221  0.21294824  0.75092926  1
  Mo  Mo173  1  0.39845543  0.59581442  0.76415639  1
  Mo  Mo174  1  0.29258737  0.29691239  0.12603460  1
  Mo  Mo175  1  0.39885658  -0.00342352  0.24035528  1
  Mo  Mo176  1  0.20444775  -0.00228939  0.74637185  1
  Mo  Mo177  1  0.60326919  0.59036333  0.75646427  1
  Mo  Mo178  1  0.48633169  0.70712036  0.63192335  1
  Mo  Mo179  1  0.50668346  0.69356224  0.12750237  1
  Mo  Mo180  1  0.60430889  0.59520457  0.23040152  1
  Mo  Mo181  1  0.79061361  0.00415412  0.49232653  1
  Mo  Mo182  1  0.20531812  0.00751176  -0.00499704  1
  Mo  Mo183  1  0.09287854  0.10128980  0.13742649  1
  Mo  Mo184  1  0.20690263  0.40128377  -0.00739260  1
  Mo  Mo185  1  0.70071957  0.29557814  0.12081948  1
  Mo  Mo186  1  0.89603034  0.49146651  0.62383342  1
  Mo  Mo187  1  0.49050443  0.89886707  0.62127245  1
  Mo  Mo188  1  0.90240019  0.70462981  0.87058055  1
  Mo  Mo189  1  0.28201851  0.08289698  0.12173600  1
  Mo  Mo190  1  0.20162026  0.19342045  0.75620398  1
  Mo  Mo191  1  0.79498411  0.20364655  0.75979548  1
  Mo  Mo192  1  0.79843510  0.80295074  0.25004426  1
  Mo  Mo193  1  0.79895624  0.59421363  0.00653679  1
  Mo  Mo194  1  0.48994394  0.89657358  0.88103502  1
  Mo  Mo195  1  0.49900619  0.29241266  0.11400131  1
  Mo  Mo196  1  0.11341053  0.49772743  0.37833693  1
  Mo  Mo197  1  0.79295051  0.40232691  -0.00283780  1
  Mo  Mo198  1  0.28793146  0.10492422  0.36732997  1
  Mo  Mo199  1  0.51066513  0.30495602  0.89324532  1
