# generated using pymatgen
data_HfZrTaTiMo
_symmetry_space_group_name_H-M   'P 1'
_cell_length_a   15.20443883
_cell_length_b   15.21946664
_cell_length_c   16.84952027
_cell_angle_alpha   89.98696401
_cell_angle_beta   90.04047624
_cell_angle_gamma   89.87679450
_symmetry_Int_Tables_number   1
_chemical_formula_structural   HfZrTaTiMo
_chemical_formula_sum   'Hf40 Zr40 Ta40 Ti40 Mo40'
_cell_volume   3899.02702362
_cell_formula_units_Z   40
loop_
 _symmetry_equiv_pos_site_id
 _symmetry_equiv_pos_as_xyz
  1  'x, y, z'
loop_
 _atom_site_type_symbol
 _atom_site_label
 _atom_site_symmetry_multiplicity
 _atom_site_fract_x
 _atom_site_fract_y
 _atom_site_fract_z
 _atom_site_occupancy
  Hf  Hf0  1  0.51468014  0.29133439  0.62086880  1
  Hf  Hf1  1  0.89962780  0.87950214  0.36965489  1
  Hf  Hf2  1  0.90253598  0.50076103  0.13620546  1
  Hf  Hf3  1  0.79134543  0.78777169  0.50230526  1
  Hf  Hf4  1  0.19143767  -0.00270319  0.00053673  1
  Hf  Hf5  1  0.08680218  0.71020451  0.37461129  1
  Hf  Hf6  1  0.38616394  0.62452265  0.50910809  1
  Hf  Hf7  1  0.70563606  0.69294081  0.88181380  1
  Hf  Hf8  1  0.31050799  0.28610654  0.87653516  1
  Hf  Hf9  1  0.61546056  0.19147609  0.49091355  1
  Hf  Hf10  1  0.79341770  0.40441281  0.00916055  1
  Hf  Hf11  1  0.68726305  0.49352022  0.36194559  1
  Hf  Hf12  1  0.20053459  0.59793748  0.24297942  1
  Hf  Hf13  1  0.51485439  0.89043500  0.35761662  1
  Hf  Hf14  1  0.60010713  -0.00058135  -0.00654414  1
  Hf  Hf15  1  0.67908482  0.71249440  0.36947336  1
  Hf  Hf16  1  0.81008355  0.19045092  0.48530650  1
  Hf  Hf17  1  0.60955720  0.57853614  0.00479376  1
  Hf  Hf18  1  0.21401726  0.19324476  0.74776524  1
  Hf  Hf19  1  0.69680597  0.09497019  0.62871832  1
  Hf  Hf20  1  0.78356426  -0.00646825  0.48480487  1
  Hf  Hf21  1  0.19058017  0.59518495  -0.00296135  1
  Hf  Hf22  1  0.50740096  0.51316521  0.63909060  1
  Hf  Hf23  1  0.40342149  0.38897385  0.75190423  1
  Hf  Hf24  1  0.29876658  0.09480226  0.37969773  1
  Hf  Hf25  1  0.29568258  0.51810416  0.63786030  1
  Hf  Hf26  1  0.39615992  0.00108085  0.01478245  1
  Hf  Hf27  1  0.59287762  0.18325204  0.23918238  1
  Hf  Hf28  1  0.59833257  0.00124473  0.76716251  1
  Hf  Hf29  1  0.89232994  0.30324832  0.88140032  1
  Hf  Hf30  1  0.10238813  0.90585410  0.61765764  1
  Hf  Hf31  1  0.41056616  0.00191753  0.23075818  1
  Hf  Hf32  1  0.30319565  0.08207730  0.61187661  1
  Hf  Hf33  1  0.90324447  0.90176765  0.63324185  1
  Hf  Hf34  1  0.08861201  0.50474967  0.63171088  1
  Hf  Hf35  1  0.81773458  0.17432235  0.26303739  1
  Hf  Hf36  1  0.21637717  0.79543526  0.50255465  1
  Hf  Hf37  1  0.49323941  0.69951617  0.10467251  1
  Hf  Hf38  1  0.39263437  0.80966040  0.76347799  1
  Hf  Hf39  1  -0.00829836  0.00680644  0.26336761  1
  Zr  Zr40  1  0.46992387  0.10684450  0.86975462  1
  Zr  Zr41  1  0.78629518  0.61591110  0.24540641  1
  Zr  Zr42  1  0.79832371  0.20533073  0.74616045  1
  Zr  Zr43  1  0.91294464  0.28958650  0.13276278  1
  Zr  Zr44  1  0.40689901  0.41529008  0.25480618  1
  Zr  Zr45  1  0.20163611  0.40457957  0.50766063  1
  Zr  Zr46  1  0.91719489  0.30924313  0.36999956  1
  Zr  Zr47  1  0.69900525  0.89078532  0.64021099  1
  Zr  Zr48  1  0.41186038  0.41275363  0.50443082  1
  Zr  Zr49  1  0.71304380  0.29303860  0.13809876  1
  Zr  Zr50  1  0.57175114  0.60085994  0.23673968  1
  Zr  Zr51  1  0.88653889  0.91970984  0.12992884  1
  Zr  Zr52  1  0.30313870  0.29385730  0.62368574  1
  Zr  Zr53  1  0.29507732  0.50509171  0.37566264  1
  Zr  Zr54  1  0.09297275  0.70321678  0.11387642  1
  Zr  Zr55  1  0.19688239  0.80443431  0.24881297  1
  Zr  Zr56  1  0.40544598  0.19592710  0.49631275  1
  Zr  Zr57  1  0.89671742  0.69820321  0.63788271  1
  Zr  Zr58  1  0.19508380  -0.00141724  0.24989400  1
  Zr  Zr59  1  0.89160802  0.72125581  0.12082596  1
  Zr  Zr60  1  0.11715884  0.30084386  0.38551821  1
  Zr  Zr61  1  0.78373254  0.59429032  0.49708514  1
  Zr  Zr62  1  0.39556815  0.58802445  -0.01678178  1
  Zr  Zr63  1  0.31513018  0.50449909  0.12355432  1
  Zr  Zr64  1  0.00005427  0.61356416  0.24931900  1
  Zr  Zr65  1  0.10517798  0.29221677  0.87955339  1
  Zr  Zr66  1  0.88909554  0.49824041  0.62327640  1
  Zr  Zr67  1  0.00993071  0.40615214  0.00293847  1
  Zr  Zr68  1  0.49316390  0.71459413  0.63847164  1
  Zr  Zr69  1  0.90949420  0.30201258  0.61161265  1
  Zr  Zr70  1  -0.01049147  0.40369711  0.75881223  1
  Zr  Zr71  1  0.50647704  0.32394715  0.11935798  1
  Zr  Zr72  1  0.50990123  0.30943082  0.37153425  1
  Zr  Zr73  1  0.89528425  0.50303945  0.36480535  1
  Zr  Zr74  1  0.61606025  0.39235721  0.74782018  1
  Zr  Zr75  1  0.20062215  -0.00186135  0.75127187  1
  Zr  Zr76  1  0.50820966  0.08726939  0.36966508  1
  Zr  Zr77  1  0.00941644  0.18863040  0.74164622  1
  Zr  Zr78  1  0.60741772  0.19251374  0.00544870  1
  Zr  Zr79  1  0.29147841  0.10295665  0.12797450  1
  Ta  Ta80  1  0.09089195  0.49770570  0.37705258  1
  Ta  Ta81  1  0.71248847  0.48777184  0.87067290  1
  Ta  Ta82  1  0.21428766  0.39772938  0.00318656  1
  Ta  Ta83  1  0.70800066  0.29799550  0.35726726  1
  Ta  Ta84  1  0.91001050  0.09755214  0.86992416  1
  Ta  Ta85  1  0.80374444  0.01240361  -0.01570079  1
  Ta  Ta86  1  0.58748290  0.81544446  0.50552313  1
  Ta  Ta87  1  -0.00515602  0.18668067  -0.00019574  1
  Ta  Ta88  1  0.19635033  0.39960279  0.74982415  1
  Ta  Ta89  1  0.01965970  0.19936851  0.25603870  1
  Ta  Ta90  1  0.50233493  0.69913136  0.88163511  1
  Ta  Ta91  1  0.19034109  0.39864151  0.24250243  1
  Ta  Ta92  1  0.41436354  -0.02368634  0.49913459  1
  Ta  Ta93  1  0.71629510  0.07963593  0.12815634  1
  Ta  Ta94  1  0.40121131  0.79441362  0.23633890  1
  Ta  Ta95  1  0.19377215  0.79654528  0.75216817  1
  Ta  Ta96  1  0.80710737  -0.00029404  0.76557797  1
  Ta  Ta97  1  0.51152725  0.49707206  0.86570691  1
  Ta  Ta98  1  0.30332315  0.30322068  0.12873727  1
  Ta  Ta99  1  0.39870813  0.20469737  0.01425080  1
  Ta  Ta100  1  0.20558816  0.20277200  0.24908768  1
  Ta  Ta101  1  0.70642578  0.89529058  0.88279156  1
  Ta  Ta102  1  0.10578202  0.90772773  0.39096556  1
  Ta  Ta103  1  -0.00699935  0.60171752  -0.01182272  1
  Ta  Ta104  1  0.09972223  0.70140560  0.63130735  1
  Ta  Ta105  1  0.08731738  0.89872124  0.12315228  1
  Ta  Ta106  1  0.39690452  0.60613289  0.76788356  1
  Ta  Ta107  1  0.08360372  0.10187252  0.12484632  1
  Ta  Ta108  1  0.49626085  0.89729341  0.88154423  1
  Ta  Ta109  1  -0.00776389  0.60511798  0.49546704  1
  Ta  Ta110  1  0.08300117  0.90056851  0.86600345  1
  Ta  Ta111  1  0.59243317  0.61298680  0.50518637  1
  Ta  Ta112  1  0.10234436  0.50160301  0.86974636  1
  Ta  Ta113  1  0.59513568  0.19845089  0.75928454  1
  Ta  Ta114  1  0.38899172  0.80664116  -0.00574375  1
  Ta  Ta115  1  0.18547971  0.60649840  0.50145297  1
  Ta  Ta116  1  0.49873694  0.52060160  0.38392032  1
  Ta  Ta117  1  0.29051283  0.70653594  0.87884954  1
  Ta  Ta118  1  0.69908502  0.29158272  0.88397316  1
  Ta  Ta119  1  0.60201964  0.79667571  0.76864391  1
  Ti  Ti120  1  0.49724860  0.09397505  0.63249245  1
  Ti  Ti121  1  0.81088025  0.60359040  -0.00208336  1
  Ti  Ti122  1  0.19556263  0.60585497  0.76128131  1
  Ti  Ti123  1  0.29530102  0.91431511  0.87521747  1
  Ti  Ti124  1  -0.01615829  0.80569393  -0.01252313  1
  Ti  Ti125  1  0.50455323  0.30584996  0.88732481  1
  Ti  Ti126  1  0.81357723  0.79683641  0.76798827  1
  Ti  Ti127  1  0.10279800  0.09389631  0.87559309  1
  Ti  Ti128  1  0.10418741  0.29927327  0.61721799  1
  Ti  Ti129  1  0.90488147  0.09205299  0.62409949  1
  Ti  Ti130  1  -0.00445456  0.61315448  0.76810962  1
  Ti  Ti131  1  0.48590161  0.70537353  0.37499333  1
  Ti  Ti132  1  0.10453921  0.10033253  0.60625196  1
  Ti  Ti133  1  -0.00266163  0.79505838  0.50440698  1
  Ti  Ti134  1  0.61273424  0.41198367  0.50398571  1
  Ti  Ti135  1  0.79964443  0.39355537  0.49077975  1
  Ti  Ti136  1  0.69952744  0.88890005  0.10514507  1
  Ti  Ti137  1  0.51135586  0.89269056  0.12035181  1
  Ti  Ti138  1  0.19162607  0.80801711  -0.00502429  1
  Ti  Ti139  1  0.30080030  0.70418153  0.36815919  1
  Ti  Ti140  1  0.71157661  0.30448700  0.61848991  1
  Ti  Ti141  1  0.68730287  0.48456750  0.14132631  1
  Ti  Ti142  1  0.31098042  0.89645657  0.37645849  1
  Ti  Ti143  1  0.69396007  0.70949218  0.10895495  1
  Ti  Ti144  1  0.69178674  0.69237862  0.64558679  1
  Ti  Ti145  1  0.30990409  0.88816992  0.62516879  1
  Ti  Ti146  1  0.09377549  0.70803849  0.87622295  1
  Ti  Ti147  1  -0.00718493  0.00195851  0.49213779  1
  Ti  Ti148  1  0.10824205  0.29818328  0.12246030  1
  Ti  Ti149  1  -0.00465281  -0.00288450  -0.00227836  1
  Ti  Ti150  1  0.29717433  0.49057939  0.86872200  1
  Ti  Ti151  1  0.77572885  0.81716572  0.25026746  1
  Ti  Ti152  1  0.30840815  0.29485321  0.36700939  1
  Ti  Ti153  1  0.19827264  0.19697660  0.00327773  1
  Ti  Ti154  1  0.80298560  0.59011294  0.76167093  1
  Ti  Ti155  1  0.10536803  0.10259277  0.38976348  1
  Ti  Ti156  1  0.00759659  0.20119883  0.49827196  1
  Ti  Ti157  1  0.29671301  0.70975962  0.11555367  1
  Ti  Ti158  1  0.49971824  0.90980837  0.63739709  1
  Ti  Ti159  1  0.69960671  0.50404617  0.63450992  1
  Mo  Mo160  1  0.89789967  0.50873704  0.87926239  1
  Mo  Mo161  1  0.78975829  -0.00399046  0.26499475  1
  Mo  Mo162  1  0.00080423  0.00431324  0.74456807  1
  Mo  Mo163  1  0.90271235  0.90234344  0.87189858  1
  Mo  Mo164  1  0.29716877  0.88592243  0.11805487  1
  Mo  Mo165  1  0.79842572  0.39875177  0.75159959  1
  Mo  Mo166  1  0.60251501  0.39897086  0.25481900  1
  Mo  Mo167  1  0.50170600  0.50129796  0.11768621  1
  Mo  Mo168  1  0.39442397  0.20390060  0.23967730  1
  Mo  Mo169  1  0.20435149  -0.00737808  0.49479563  1
  Mo  Mo170  1  0.79807151  0.80616255  -0.00839072  1
  Mo  Mo171  1  0.80750526  0.19071463  -0.00290755  1
  Mo  Mo172  1  0.90237863  0.09753182  0.12249059  1
  Mo  Mo173  1  0.28734244  0.70431268  0.64060386  1
  Mo  Mo174  1  0.60386422  0.40059881  -0.01054114  1
  Mo  Mo175  1  0.80052622  0.39545187  0.24755794  1
  Mo  Mo176  1  0.59328841  -0.00282734  0.50831120  1
  Mo  Mo177  1  0.70510017  0.10273506  0.87107090  1
  Mo  Mo178  1  0.59990281  0.79670217  0.23262299  1
  Mo  Mo179  1  0.28959035  0.10167147  0.88552908  1
  Mo  Mo180  1  0.59557154  0.79744352  -0.01096670  1
  Mo  Mo181  1  0.61721549  -0.01721321  0.23113728  1
  Mo  Mo182  1  0.19884836  0.19196979  0.50392289  1
  Mo  Mo183  1  0.00401732  0.41270061  0.50098867  1
  Mo  Mo184  1  0.00165580  0.81243599  0.24896536  1
  Mo  Mo185  1  0.60584292  0.60375513  0.75931737  1
  Mo  Mo186  1  0.01530456  0.40146222  0.24003498  1
  Mo  Mo187  1  0.10102564  0.49058618  0.12079984  1
  Mo  Mo188  1  0.68936709  0.90086243  0.37582278  1
  Mo  Mo189  1  0.91508911  0.09478351  0.38573519  1
  Mo  Mo190  1  0.89268570  0.70213638  0.37680953  1
  Mo  Mo191  1  0.38919530  0.61755423  0.24998361  1
  Mo  Mo192  1  0.00570184  0.80090776  0.75113807  1
  Mo  Mo193  1  0.50542161  0.10039423  0.12308531  1
  Mo  Mo194  1  0.90297251  0.70354693  0.87371065  1
  Mo  Mo195  1  0.40714027  0.19330678  0.74224804  1
  Mo  Mo196  1  0.40277293  0.39669998  -0.01299313  1
  Mo  Mo197  1  0.69727059  0.09125317  0.36574757  1
  Mo  Mo198  1  0.39525501  -0.00023740  0.74777472  1
  Mo  Mo199  1  0.40591905  0.80242162  0.49910996  1
