# generated using pymatgen
data_HfZrTaTiMo
_symmetry_space_group_name_H-M   'P 1'
_cell_length_a   15.20827390
_cell_length_b   15.20970947
_cell_length_c   16.83733559
_cell_angle_alpha   90.00488474
_cell_angle_beta   89.95024565
_cell_angle_gamma   89.93344434
_symmetry_Int_Tables_number   1
_chemical_formula_structural   HfZrTaTiMo
_chemical_formula_sum   'Hf40 Zr40 Ta40 Ti40 Mo40'
_cell_volume   3894.69769487
_cell_formula_units_Z   40
loop_
 _symmetry_equiv_pos_site_id
 _symmetry_equiv_pos_as_xyz
  1  'x, y, z'
loop_
 _atom_site_type_symbol
 _atom_site_label
 _atom_site_symmetry_multiplicity
 _atom_site_fract_x
 _atom_site_fract_y
 _atom_site_fract_z
 _atom_site_occupancy
  Hf  Hf0  1  -0.00384896  0.39907212  -0.00731025  1
  Hf  Hf1  1  0.69005460  0.91552692  0.61507330  1
  Hf  Hf2  1  0.51175755  0.09771919  0.87445863  1
  Hf  Hf3  1  0.08923243  0.10133693  0.36349063  1
  Hf  Hf4  1  0.09988617  0.10609083  0.13500236  1
  Hf  Hf5  1  0.89690735  0.91037968  0.62582541  1
  Hf  Hf6  1  0.60424007  0.61118513  0.24597338  1
  Hf  Hf7  1  0.78856066  0.02140559  0.76095543  1
  Hf  Hf8  1  0.88983594  0.51622379  0.63761814  1
  Hf  Hf9  1  0.41696094  0.60335845  0.73586364  1
  Hf  Hf10  1  0.58249153  0.80066416  0.73606914  1
  Hf  Hf11  1  -0.01086564  0.78685367  0.01455368  1
  Hf  Hf12  1  0.80364955  0.80516008  0.50173798  1
  Hf  Hf13  1  0.41286083  0.17897018  0.49399703  1
  Hf  Hf14  1  0.20564172  0.40264267  0.48938984  1
  Hf  Hf15  1  -0.00055540  0.60180187  0.50286697  1
  Hf  Hf16  1  0.01105687  0.39706143  0.24959640  1
  Hf  Hf17  1  0.19654453  0.19558675  0.00109590  1
  Hf  Hf18  1  0.09463176  0.09699088  0.87086134  1
  Hf  Hf19  1  -0.00588913  0.79554756  0.23127633  1
  Hf  Hf20  1  0.49964662  0.70562696  0.87929324  1
  Hf  Hf21  1  0.08449296  0.88425850  0.87450540  1
  Hf  Hf22  1  0.01185630  0.80602962  0.50282448  1
  Hf  Hf23  1  0.11965958  0.89102970  0.12487187  1
  Hf  Hf24  1  0.20742674  0.19740419  0.74188109  1
  Hf  Hf25  1  0.60861438  0.59813302  -0.00003068  1
  Hf  Hf26  1  0.50388376  0.29882200  0.87665416  1
  Hf  Hf27  1  0.30467309  0.30065808  0.60844618  1
  Hf  Hf28  1  0.60573069  0.38817745  0.24809514  1
  Hf  Hf29  1  0.00449628  0.60063494  0.23437937  1
  Hf  Hf30  1  0.78652774  0.21031387  0.24964743  1
  Hf  Hf31  1  0.61924757  0.20791995  0.01993556  1
  Hf  Hf32  1  0.71867520  0.69427600  0.63485932  1
  Hf  Hf33  1  0.20783309  0.60478383  -0.00419188  1
  Hf  Hf34  1  0.90805401  0.71343352  0.86523778  1
  Hf  Hf35  1  0.40490070  0.79940845  0.25715202  1
  Hf  Hf36  1  0.79813624  0.81780240  0.75568204  1
  Hf  Hf37  1  0.80142332  0.40688947  0.50148103  1
  Hf  Hf38  1  0.19937874  0.40375919  0.75552066  1
  Hf  Hf39  1  0.40744110  -0.01516996  0.74639818  1
  Zr  Zr40  1  0.50836285  0.29985989  0.38853742  1
  Zr  Zr41  1  0.87160220  0.89981315  0.12677489  1
  Zr  Zr42  1  0.20986606  0.79289733  0.25615650  1
  Zr  Zr43  1  0.79564408  -0.00290546  -0.01288713  1
  Zr  Zr44  1  0.00365652  0.40151271  0.49451291  1
  Zr  Zr45  1  -0.01131587  0.20421430  0.49580835  1
  Zr  Zr46  1  0.40515962  0.60810955  0.50679651  1
  Zr  Zr47  1  -0.00575010  0.00511883  0.49589734  1
  Zr  Zr48  1  0.89800836  0.50169237  0.12116276  1
  Zr  Zr49  1  0.81372386  0.59427990  -0.01926184  1
  Zr  Zr50  1  0.20873858  -0.01502387  -0.00060321  1
  Zr  Zr51  1  0.09272841  0.29277290  0.86960057  1
  Zr  Zr52  1  0.69877574  0.50119676  0.37290654  1
  Zr  Zr53  1  0.10005011  0.69468249  0.37041157  1
  Zr  Zr54  1  0.78035069  0.79957782  0.25598051  1
  Zr  Zr55  1  0.38192615  0.80833980  0.01182983  1
  Zr  Zr56  1  0.58894421  -0.00063344  0.00467861  1
  Zr  Zr57  1  0.20106670  0.40840368  -0.01166609  1
  Zr  Zr58  1  0.29848640  0.30843472  0.12405441  1
  Zr  Zr59  1  0.60642915  0.58479015  0.52024623  1
  Zr  Zr60  1  0.40120988  0.39896600  0.74388118  1
  Zr  Zr61  1  0.09815697  0.49837119  0.63085595  1
  Zr  Zr62  1  0.19984611  -0.01527244  0.75143438  1
  Zr  Zr63  1  0.41709118  0.19438615  0.73296449  1
  Zr  Zr64  1  0.88804046  0.11404882  0.62822026  1
  Zr  Zr65  1  0.58358519  0.01263060  0.48284062  1
  Zr  Zr66  1  0.49519535  0.49837244  0.12960841  1
  Zr  Zr67  1  0.70654229  0.08748586  0.13774473  1
  Zr  Zr68  1  0.30970615  0.09838215  0.87273952  1
  Zr  Zr69  1  0.11722185  0.70440323  0.63866462  1
  Zr  Zr70  1  0.59950290  0.39537185  0.72985601  1
  Zr  Zr71  1  0.40745820  0.20270185  0.00982517  1
  Zr  Zr72  1  0.49827962  0.10117312  0.15149797  1
  Zr  Zr73  1  0.28595918  0.87267062  0.60312604  1
  Zr  Zr74  1  0.50718196  0.71074594  0.12000450  1
  Zr  Zr75  1  0.38512003  0.21908719  0.26685675  1
  Zr  Zr76  1  0.70011880  0.30346572  0.87455320  1
  Zr  Zr77  1  -0.00217467  0.00314778  0.00485635  1
  Zr  Zr78  1  0.89577749  0.70251213  0.37296318  1
  Zr  Zr79  1  0.30761445  0.07870682  0.61276225  1
  Ta  Ta80  1  0.49326170  0.49629753  0.37708489  1
  Ta  Ta81  1  0.89799825  0.10527361  0.12939250  1
  Ta  Ta82  1  0.71686837  0.70367940  0.11206421  1
  Ta  Ta83  1  0.90344815  0.50215144  0.36658156  1
  Ta  Ta84  1  0.09388385  0.29299353  0.63081798  1
  Ta  Ta85  1  0.80597992  0.40260880  0.24949452  1
  Ta  Ta86  1  0.68103175  0.89613188  0.87594431  1
  Ta  Ta87  1  0.01665076  0.59513931  -0.00775899  1
  Ta  Ta88  1  -0.00827068  0.20517056  0.25085827  1
  Ta  Ta89  1  0.30274078  0.50593780  0.13086970  1
  Ta  Ta90  1  0.29684135  0.09436499  0.14151908  1
  Ta  Ta91  1  0.09605786  0.09458581  0.62928981  1
  Ta  Ta92  1  0.09556246  0.89847617  0.36502504  1
  Ta  Ta93  1  0.89804109  0.91016326  0.36698568  1
  Ta  Ta94  1  0.39429947  -0.00215025  0.27786922  1
  Ta  Ta95  1  0.61697412  0.18984616  0.73697914  1
  Ta  Ta96  1  0.61509004  0.58896223  0.74342956  1
  Ta  Ta97  1  0.22226168  0.39553859  0.26709735  1
  Ta  Ta98  1  0.29959403  0.50541621  0.62043283  1
  Ta  Ta99  1  -0.00908469  -0.00131762  0.24365217  1
  Ta  Ta100  1  0.89645782  0.29623507  0.11897268  1
  Ta  Ta101  1  0.51121360  0.50054103  0.87560322  1
  Ta  Ta102  1  0.68946730  0.70282533  0.38419848  1
  Ta  Ta103  1  0.89748031  0.31191718  0.63612017  1
  Ta  Ta104  1  0.19102133  0.19311121  0.50402624  1
  Ta  Ta105  1  0.59156049  0.78879686  0.51102464  1
  Ta  Ta106  1  0.69592124  0.69993180  0.86752167  1
  Ta  Ta107  1  0.20386378  -0.00106003  0.26038251  1
  Ta  Ta108  1  0.79665595  0.41653305  0.75898747  1
  Ta  Ta109  1  0.48235548  0.90430483  0.60253950  1
  Ta  Ta110  1  0.67518032  0.88582446  0.12480988  1
  Ta  Ta111  1  0.79512753  0.02038357  0.47988197  1
  Ta  Ta112  1  0.10925296  0.69726389  0.86275984  1
  Ta  Ta113  1  0.20767447  0.60814768  0.49297292  1
  Ta  Ta114  1  0.39542206  0.00341457  0.00976141  1
  Ta  Ta115  1  0.30293247  0.70308049  0.87211786  1
  Ta  Ta116  1  0.60056541  -0.01528143  0.26730820  1
  Ta  Ta117  1  0.19025708  -0.00796378  0.48796586  1
  Ta  Ta118  1  0.89642936  0.30080097  0.37013952  1
  Ta  Ta119  1  0.30632378  0.29987713  0.87719088  1
  Ti  Ti120  1  0.49599870  0.88694121  0.38662129  1
  Ti  Ti121  1  0.80223592  0.60347679  0.24642013  1
  Ti  Ti122  1  0.69136167  0.11334671  0.36838450  1
  Ti  Ti123  1  -0.01365799  -0.00477722  0.75756776  1
  Ti  Ti124  1  0.11273686  0.29234199  0.36880910  1
  Ti  Ti125  1  0.80396804  0.60413653  0.49784881  1
  Ti  Ti126  1  0.71376478  0.29765462  0.61737964  1
  Ti  Ti127  1  0.00146768  0.59155604  0.76539327  1
  Ti  Ti128  1  0.59596956  -0.00008642  0.74484137  1
  Ti  Ti129  1  0.70425975  0.49683221  0.12707201  1
  Ti  Ti130  1  0.89293109  0.29550195  0.87489475  1
  Ti  Ti131  1  0.51443222  0.28988538  0.60279090  1
  Ti  Ti132  1  0.10502629  0.50009697  0.37015988  1
  Ti  Ti133  1  0.79133513  0.39582230  -0.00450988  1
  Ti  Ti134  1  0.40182213  0.59749713  -0.00003354  1
  Ti  Ti135  1  0.21499116  0.60008839  0.75550234  1
  Ti  Ti136  1  0.39284020  0.59883188  0.25893898  1
  Ti  Ti137  1  0.69481216  0.89462095  0.38431642  1
  Ti  Ti138  1  0.29437656  0.88621018  0.87553002  1
  Ti  Ti139  1  0.40301853  0.40843644  -0.00378226  1
  Ti  Ti140  1  0.69707457  0.10965572  0.61112309  1
  Ti  Ti141  1  0.89977739  0.11363337  0.88012716  1
  Ti  Ti142  1  -0.00988749  0.19903634  0.74712458  1
  Ti  Ti143  1  0.31363761  0.50406448  0.87123710  1
  Ti  Ti144  1  0.29035208  0.70277637  0.12530049  1
  Ti  Ti145  1  0.38673286  0.79436714  0.73955425  1
  Ti  Ti146  1  0.09506604  0.90118864  0.63369153  1
  Ti  Ti147  1  0.50137311  0.30419559  0.13306114  1
  Ti  Ti148  1  0.28779425  0.10763035  0.37816905  1
  Ti  Ti149  1  0.70085883  0.30161453  0.38836512  1
  Ti  Ti150  1  0.09944290  0.29904679  0.12713633  1
  Ti  Ti151  1  0.11516233  0.49475340  0.12681629  1
  Ti  Ti152  1  0.49172968  0.90714575  0.13671403  1
  Ti  Ti153  1  0.48837529  0.89710338  0.88192227  1
  Ti  Ti154  1  0.60026660  0.40361694  0.00694756  1
  Ti  Ti155  1  0.20825161  0.59218522  0.25341845  1
  Ti  Ti156  1  0.91514136  0.70961227  0.64608534  1
  Ti  Ti157  1  0.50376666  0.69487230  0.37700734  1
  Ti  Ti158  1  0.70329010  0.11440313  0.87958498  1
  Ti  Ti159  1  -0.00489891  0.40106298  0.76202418  1
  Mo  Mo160  1  0.69228030  0.49785402  0.87685763  1
  Mo  Mo161  1  0.79252601  0.00053395  0.26785386  1
  Mo  Mo162  1  0.49938967  0.48832837  0.61931235  1
  Mo  Mo163  1  0.81403644  0.20356861  0.00333164  1
  Mo  Mo164  1  0.29867150  0.29793652  0.39520725  1
  Mo  Mo165  1  0.70612425  0.31110334  0.12167997  1
  Mo  Mo166  1  0.61608449  0.19785705  0.50270474  1
  Mo  Mo167  1  0.71172841  0.49406828  0.62755356  1
  Mo  Mo168  1  0.00284994  0.80854289  0.74492989  1
  Mo  Mo169  1  0.79976456  0.21448811  0.74966882  1
  Mo  Mo170  1  0.89513740  0.69387411  0.11787831  1
  Mo  Mo171  1  0.29958667  0.69185670  0.62499725  1
  Mo  Mo172  1  0.89111023  0.90920618  0.87499868  1
  Mo  Mo173  1  0.59816345  0.80292203  -0.00362602  1
  Mo  Mo174  1  0.59523765  0.79998849  0.25876641  1
  Mo  Mo175  1  0.10881930  0.68285799  0.12400911  1
  Mo  Mo176  1  0.90289400  0.49247053  0.87119774  1
  Mo  Mo177  1  0.50194639  0.70736980  0.62717929  1
  Mo  Mo178  1  0.88942235  0.10228214  0.35851826  1
  Mo  Mo179  1  0.40042256  0.41311368  0.25780816  1
  Mo  Mo180  1  0.79778463  0.20543796  0.49017642  1
  Mo  Mo181  1  0.38972897  -0.00622567  0.47609807  1
  Mo  Mo182  1  0.19169826  0.20735116  0.25151861  1
  Mo  Mo183  1  0.78234611  0.79781812  -0.01495470  1
  Mo  Mo184  1  0.30611043  0.50269475  0.37627931  1
  Mo  Mo185  1  0.50245370  0.10072527  0.35781258  1
  Mo  Mo186  1  0.20637499  0.79460021  0.75468076  1
  Mo  Mo187  1  -0.00868014  0.20214966  0.00606342  1
  Mo  Mo188  1  0.10168731  0.50754878  0.86691002  1
  Mo  Mo189  1  0.29430317  0.89497495  0.38724107  1
  Mo  Mo190  1  0.18954347  0.78488539  -0.00467200  1
  Mo  Mo191  1  0.19826719  0.79264866  0.48429914  1
  Mo  Mo192  1  0.40045484  0.79267348  0.48719563  1
  Mo  Mo193  1  0.31149046  0.91370733  0.14055134  1
  Mo  Mo194  1  0.40871662  0.40593470  0.50732916  1
  Mo  Mo195  1  0.60305816  0.39625075  0.51204559  1
  Mo  Mo196  1  0.31004498  0.69103966  0.37207344  1
  Mo  Mo197  1  0.51420376  0.08661916  0.62540490  1
  Mo  Mo198  1  0.80187938  0.60336654  0.76743000  1
  Mo  Mo199  1  0.59780915  0.20098471  0.24699092  1
