# generated using pymatgen
data_HfZrTaTiMo
_symmetry_space_group_name_H-M   'P 1'
_cell_length_a   15.16875859
_cell_length_b   15.18499951
_cell_length_c   16.81486679
_cell_angle_alpha   89.97685259
_cell_angle_beta   89.97860635
_cell_angle_gamma   89.97655491
_symmetry_Int_Tables_number   1
_chemical_formula_structural   HfZrTaTiMo
_chemical_formula_sum   'Hf40 Zr40 Ta40 Ti40 Mo40'
_cell_volume   3873.09501377
_cell_formula_units_Z   40
loop_
 _symmetry_equiv_pos_site_id
 _symmetry_equiv_pos_as_xyz
  1  'x, y, z'
loop_
 _atom_site_type_symbol
 _atom_site_label
 _atom_site_symmetry_multiplicity
 _atom_site_fract_x
 _atom_site_fract_y
 _atom_site_fract_z
 _atom_site_occupancy
  Hf  Hf0  1  0.29073637  0.30918158  0.88028894  1
  Hf  Hf1  1  0.69143647  0.31067853  0.37334268  1
  Hf  Hf2  1  0.69464270  0.70674901  0.60244833  1
  Hf  Hf3  1  0.50705828  0.48672660  0.36635565  1
  Hf  Hf4  1  0.89896600  0.50723120  0.38189081  1
  Hf  Hf5  1  0.49405062  0.29422127  0.09951848  1
  Hf  Hf6  1  0.79822334  0.02692166  0.51567381  1
  Hf  Hf7  1  -0.00813366  0.19179098  0.75026824  1
  Hf  Hf8  1  0.30852677  0.10251701  0.88941375  1
  Hf  Hf9  1  0.29385933  0.90285795  0.87248373  1
  Hf  Hf10  1  0.29511102  0.10420605  0.60252521  1
  Hf  Hf11  1  0.78787177  0.79285510  0.00572497  1
  Hf  Hf12  1  0.30745832  0.69821371  0.87844983  1
  Hf  Hf13  1  0.20257073  0.39230733  0.25049569  1
  Hf  Hf14  1  0.39042451  0.60275636  0.24974692  1
  Hf  Hf15  1  0.38806822  0.79766005  0.74147003  1
  Hf  Hf16  1  0.59750976  0.20100119  0.75522473  1
  Hf  Hf17  1  0.60517434  0.20393952  0.23440767  1
  Hf  Hf18  1  0.09398608  0.49994599  0.36365881  1
  Hf  Hf19  1  0.69916340  0.11663957  0.37348465  1
  Hf  Hf20  1  -0.00698045  0.59364199  0.00806267  1
  Hf  Hf21  1  0.20235968  0.18894362  0.74898116  1
  Hf  Hf22  1  0.79425112  0.60120478  0.74099856  1
  Hf  Hf23  1  0.61169020  0.60238518  0.25057709  1
  Hf  Hf24  1  0.39196419  0.82066988  0.01056378  1
  Hf  Hf25  1  0.30716243  0.09304088  0.38723086  1
  Hf  Hf26  1  0.42594434  0.19827988  0.50243991  1
  Hf  Hf27  1  0.69084120  0.89994155  0.87274287  1
  Hf  Hf28  1  0.90615671  0.70359596  0.61471563  1
  Hf  Hf29  1  0.18142677  -0.01250802  0.49438823  1
  Hf  Hf30  1  0.79240493  0.01656952  0.01457287  1
  Hf  Hf31  1  0.72006133  0.50226861  0.88508640  1
  Hf  Hf32  1  0.89317931  0.89433801  0.12268131  1
  Hf  Hf33  1  0.68115938  0.69583199  0.87322158  1
  Hf  Hf34  1  0.88783093  0.69015850  0.87602606  1
  Hf  Hf35  1  0.91227324  0.70385205  0.39168971  1
  Hf  Hf36  1  0.20703390  -0.01716554  0.01518069  1
  Hf  Hf37  1  0.89475723  0.10354578  0.36575642  1
  Hf  Hf38  1  0.19302382  0.77787862  0.47932156  1
  Hf  Hf39  1  0.39831765  0.40537207  0.49772887  1
  Zr  Zr40  1  0.10718945  0.88944320  0.13471803  1
  Zr  Zr41  1  0.11450880  0.70743040  0.63726585  1
  Zr  Zr42  1  0.22543222  0.60288153  0.74509422  1
  Zr  Zr43  1  0.69135780  0.50854644  0.60835255  1
  Zr  Zr44  1  0.69626115  0.31257778  0.63043044  1
  Zr  Zr45  1  0.61868653  0.19362224  -0.00278713  1
  Zr  Zr46  1  0.49143730  0.31186918  0.64103538  1
  Zr  Zr47  1  0.00355300  0.39375161  0.50142383  1
  Zr  Zr48  1  0.10520890  0.10383952  0.36530126  1
  Zr  Zr49  1  0.89838446  0.30207101  0.36652481  1
  Zr  Zr50  1  -0.00825401  -0.01302530  0.25840333  1
  Zr  Zr51  1  0.49251475  0.69598520  0.60708076  1
  Zr  Zr52  1  0.29109184  0.50161533  0.37205216  1
  Zr  Zr53  1  -0.00349276  0.80267719  0.75787314  1
  Zr  Zr54  1  0.09916759  0.69333710  0.87213166  1
  Zr  Zr55  1  0.09918580  0.29404426  0.63193021  1
  Zr  Zr56  1  0.58601942  0.01686584  0.51687378  1
  Zr  Zr57  1  0.29326952  0.31140683  0.11090761  1
  Zr  Zr58  1  -0.00299687  0.77972401  0.25492254  1
  Zr  Zr59  1  0.31102903  0.09465133  0.12129699  1
  Zr  Zr60  1  0.29347377  0.28687361  0.38649250  1
  Zr  Zr61  1  0.70650247  0.70716066  0.38927020  1
  Zr  Zr62  1  0.90292875  0.49373570  0.62738978  1
  Zr  Zr63  1  0.40747304  0.38403050  0.25069157  1
  Zr  Zr64  1  0.49876480  0.49643856  0.12396008  1
  Zr  Zr65  1  0.60138714  -0.00483941  0.73371599  1
  Zr  Zr66  1  0.40201070  0.61616862  0.00985979  1
  Zr  Zr67  1  0.18428361  0.20468136  0.00412462  1
  Zr  Zr68  1  0.89771404  0.90434513  0.88527636  1
  Zr  Zr69  1  0.80463142  0.00512611  0.73858539  1
  Zr  Zr70  1  0.40110737  0.00732999  0.73028460  1
  Zr  Zr71  1  0.10970165  0.49097100  0.13050316  1
  Zr  Zr72  1  0.82142906  0.61003105  0.23444595  1
  Zr  Zr73  1  0.70928077  0.50509907  0.38652415  1
  Zr  Zr74  1  0.50119687  0.09061041  0.88357625  1
  Zr  Zr75  1  0.50453089  0.71439754  0.14048815  1
  Zr  Zr76  1  0.19699201  -0.01644212  0.73534497  1
  Zr  Zr77  1  0.00327596  0.38900925  0.00556216  1
  Zr  Zr78  1  0.10013113  0.08761249  0.88100630  1
  Zr  Zr79  1  0.50891670  0.09080760  0.11986368  1
  Ta  Ta80  1  0.61379793  0.60882532  0.01481393  1
  Ta  Ta81  1  0.81154477  0.82361230  0.49686285  1
  Ta  Ta82  1  0.79423384  0.81472991  0.25764570  1
  Ta  Ta83  1  0.08798178  0.30294298  0.86564842  1
  Ta  Ta84  1  0.20687453  0.58680754  0.51156502  1
  Ta  Ta85  1  -0.00522794  0.18564115  0.50085978  1
  Ta  Ta86  1  0.19484075  0.39925699  0.50787207  1
  Ta  Ta87  1  0.71742578  0.31375103  0.10878710  1
  Ta  Ta88  1  0.89192042  0.29961522  0.87604803  1
  Ta  Ta89  1  0.00052935  -0.00084315  0.74850488  1
  Ta  Ta90  1  -0.01256483  0.19350032  0.00741128  1
  Ta  Ta91  1  0.79765930  0.19862973  0.75071064  1
  Ta  Ta92  1  0.02141441  0.60443969  0.50538255  1
  Ta  Ta93  1  0.19771966  0.78469539  0.00682913  1
  Ta  Ta94  1  0.51107522  0.52154776  0.88527916  1
  Ta  Ta95  1  0.89294048  0.28472456  0.62291088  1
  Ta  Ta96  1  0.39375037  0.80676662  0.26841063  1
  Ta  Ta97  1  0.49639354  0.30826033  0.88296989  1
  Ta  Ta98  1  0.60408771  0.40891160  -0.00686416  1
  Ta  Ta99  1  0.58944142  0.78845063  0.74287725  1
  Ta  Ta100  1  0.09630169  0.09673061  0.13868003  1
  Ta  Ta101  1  0.78241328  0.00722228  0.24185303  1
  Ta  Ta102  1  0.71070366  0.10040759  0.87367803  1
  Ta  Ta103  1  0.50855689  0.09578444  0.36879230  1
  Ta  Ta104  1  0.59407531  0.81720746  0.27349213  1
  Ta  Ta105  1  0.40466191  0.19521702  0.25563953  1
  Ta  Ta106  1  0.09962952  0.69006817  0.12624368  1
  Ta  Ta107  1  0.38763901  0.42081593  -0.01184183  1
  Ta  Ta108  1  0.42823636  0.60156168  0.75492765  1
  Ta  Ta109  1  0.49332115  0.89024245  0.60558510  1
  Ta  Ta110  1  0.69425084  0.92002041  0.38528343  1
  Ta  Ta111  1  0.78757280  0.80361195  0.74098937  1
  Ta  Ta112  1  0.29588055  0.87584968  0.60345955  1
  Ta  Ta113  1  0.91588066  0.49327812  0.86465854  1
  Ta  Ta114  1  0.89839263  0.10349454  0.88204048  1
  Ta  Ta115  1  0.10125604  0.50058311  0.64335709  1
  Ta  Ta116  1  0.59860977  0.42003282  0.76675123  1
  Ta  Ta117  1  0.49182107  0.90567327  0.13667711  1
  Ta  Ta118  1  0.11126688  0.49233454  0.86184629  1
  Ta  Ta119  1  0.90664878  0.90281228  0.62299089  1
  Ti  Ti120  1  0.80237758  0.21330266  0.23657610  1
  Ti  Ti121  1  0.68197046  0.90612856  0.13402233  1
  Ti  Ti122  1  0.00214673  0.00068854  0.01016047  1
  Ti  Ti123  1  0.08764599  0.09048143  0.61506825  1
  Ti  Ti124  1  0.59663119  -0.01316429  0.00072369  1
  Ti  Ti125  1  0.40686654  0.79425528  0.47339951  1
  Ti  Ti126  1  0.31170461  0.49980946  0.62673818  1
  Ti  Ti127  1  0.39637645  0.20540798  0.74987598  1
  Ti  Ti128  1  0.70562106  0.71270733  0.13329595  1
  Ti  Ti129  1  0.80418369  0.39363674  0.75011413  1
  Ti  Ti130  1  0.20091699  0.78884664  0.26757308  1
  Ti  Ti131  1  0.28806146  0.70434537  0.13401502  1
  Ti  Ti132  1  0.58324937  0.60399250  0.48233256  1
  Ti  Ti133  1  0.10061667  0.89294876  0.88020415  1
  Ti  Ti134  1  0.09650663  0.29247872  0.37194747  1
  Ti  Ti135  1  0.39191690  0.60385100  0.48581139  1
  Ti  Ti136  1  0.09012408  0.28573877  0.13768026  1
  Ti  Ti137  1  0.61748285  0.20403292  0.51288506  1
  Ti  Ti138  1  0.60763976  0.39789097  0.23466980  1
  Ti  Ti139  1  0.49462000  0.88966201  0.87297491  1
  Ti  Ti140  1  0.40152769  0.41335351  0.76440619  1
  Ti  Ti141  1  0.00227348  0.79722291  0.00273937  1
  Ti  Ti142  1  0.09158589  0.89249423  0.61988240  1
  Ti  Ti143  1  0.79873649  0.39272922  0.50323001  1
  Ti  Ti144  1  0.69580395  0.89591828  0.61399514  1
  Ti  Ti145  1  0.29850193  0.30296010  0.62195782  1
  Ti  Ti146  1  0.70657620  0.30265646  0.88078568  1
  Ti  Ti147  1  -0.01417685  0.40072404  0.23894331  1
  Ti  Ti148  1  0.40418753  -0.00466612  0.25878411  1
  Ti  Ti149  1  0.58753546  0.39210898  0.49881468  1
  Ti  Ti150  1  0.79451699  0.41169327  0.23940403  1
  Ti  Ti151  1  -0.01247597  -0.01795863  0.48441361  1
  Ti  Ti152  1  0.58863877  0.80016309  0.00484400  1
  Ti  Ti153  1  0.20798715  0.19322751  0.24495672  1
  Ti  Ti154  1  0.20866234  0.58179590  -0.00123359  1
  Ti  Ti155  1  0.29788760  0.89984034  0.38170319  1
  Ti  Ti156  1  0.90088233  0.11115246  0.13448847  1
  Ti  Ti157  1  0.50249678  0.50317962  0.62424604  1
  Ti  Ti158  1  0.20885051  0.39689489  0.74568311  1
  Ti  Ti159  1  0.20848570  -0.01412971  0.25409828  1
  Mo  Mo160  1  0.70817682  0.10216556  0.12859970  1
  Mo  Mo161  1  0.00285047  0.59270731  0.75317700  1
  Mo  Mo162  1  0.49918542  0.69794367  0.36958237  1
  Mo  Mo163  1  0.59900727  -0.00245420  0.25441495  1
  Mo  Mo164  1  -0.00135955  0.59112554  0.23773439  1
  Mo  Mo165  1  0.80149429  0.59810140  0.01442936  1
  Mo  Mo166  1  0.80520715  0.21204825  0.50056251  1
  Mo  Mo167  1  0.40207839  0.20940561  -0.00985454  1
  Mo  Mo168  1  0.00225024  0.20143140  0.24560618  1
  Mo  Mo169  1  0.69970803  0.50311354  0.11675483  1
  Mo  Mo170  1  0.50340614  0.71454271  0.87857406  1
  Mo  Mo171  1  0.60077460  0.59930691  0.74642557  1
  Mo  Mo172  1  0.70570979  0.11715444  0.63034696  1
  Mo  Mo173  1  -0.00151357  0.39551667  0.75251506  1
  Mo  Mo174  1  0.88422479  0.90435692  0.37461097  1
  Mo  Mo175  1  0.30761503  0.50178552  0.86835180  1
  Mo  Mo176  1  0.91260978  0.09793465  0.62166875  1
  Mo  Mo177  1  0.39324262  -0.00991151  0.50245922  1
  Mo  Mo178  1  0.81259641  0.60518207  0.50823691  1
  Mo  Mo179  1  0.49306583  0.90975532  0.38661814  1
  Mo  Mo180  1  0.20206480  0.80745066  0.74541795  1
  Mo  Mo181  1  0.09584110  0.89155447  0.36663374  1
  Mo  Mo182  1  0.40686280  -0.00644976  0.00162399  1
  Mo  Mo183  1  0.19363076  0.60773909  0.24551333  1
  Mo  Mo184  1  0.88918121  0.48894818  0.11993883  1
  Mo  Mo185  1  0.90348224  0.29941058  0.13479996  1
  Mo  Mo186  1  0.29901326  0.69482314  0.37154750  1
  Mo  Mo187  1  0.18699928  0.20600953  0.50394218  1
  Mo  Mo188  1  0.59913913  0.80966505  0.48205542  1
  Mo  Mo189  1  0.81100336  0.20764532  0.00224094  1
  Mo  Mo190  1  0.49612331  0.10509249  0.63169274  1
  Mo  Mo191  1  0.90239741  0.70463039  0.11742581  1
  Mo  Mo192  1  0.30277356  0.89071173  0.14688981  1
  Mo  Mo193  1  0.00927601  0.81152666  0.49442049  1
  Mo  Mo194  1  0.29760524  0.50946460  0.12491599  1
  Mo  Mo195  1  0.31179332  0.69340687  0.61348004  1
  Mo  Mo196  1  0.19325339  0.40915082  -0.00881771  1
  Mo  Mo197  1  0.10307938  0.68012524  0.37108874  1
  Mo  Mo198  1  0.80780237  0.40284918  -0.00236801  1
  Mo  Mo199  1  0.51339950  0.28271028  0.37426830  1
