# generated using pymatgen
data_HfZrTaTiMo
_symmetry_space_group_name_H-M   'P 1'
_cell_length_a   15.20417131
_cell_length_b   15.18871885
_cell_length_c   16.81395845
_cell_angle_alpha   90.01021380
_cell_angle_beta   90.03980345
_cell_angle_gamma   89.96835587
_symmetry_Int_Tables_number   1
_chemical_formula_structural   HfZrTaTiMo
_chemical_formula_sum   'Hf40 Zr40 Ta40 Ti40 Mo40'
_cell_volume   3882.87749911
_cell_formula_units_Z   40
loop_
 _symmetry_equiv_pos_site_id
 _symmetry_equiv_pos_as_xyz
  1  'x, y, z'
loop_
 _atom_site_type_symbol
 _atom_site_label
 _atom_site_symmetry_multiplicity
 _atom_site_fract_x
 _atom_site_fract_y
 _atom_site_fract_z
 _atom_site_occupancy
  Hf  Hf0  1  0.67757712  0.90694871  0.38093661  1
  Hf  Hf1  1  0.79504596  0.58744388  0.49437029  1
  Hf  Hf2  1  0.79199319  0.00072245  0.24639233  1
  Hf  Hf3  1  0.70234620  0.49395161  0.87584992  1
  Hf  Hf4  1  0.41032508  0.61009557  0.25523336  1
  Hf  Hf5  1  0.09852750  0.09017117  0.62751741  1
  Hf  Hf6  1  0.19070192  -0.01750657  0.76884440  1
  Hf  Hf7  1  0.77689389  0.39636096  0.25345225  1
  Hf  Hf8  1  0.40860988  0.39419024  0.51150182  1
  Hf  Hf9  1  0.50281516  0.50601922  0.85936255  1
  Hf  Hf10  1  0.89249095  0.90118111  0.38825376  1
  Hf  Hf11  1  0.59502659  0.60394590  -0.00450068  1
  Hf  Hf12  1  0.29798464  0.30091154  0.11623073  1
  Hf  Hf13  1  0.50550730  0.89539402  0.88440977  1
  Hf  Hf14  1  0.00604981  0.81591503  0.75322322  1
  Hf  Hf15  1  0.60604513  0.22398489  0.24396713  1
  Hf  Hf16  1  0.39579096  0.62395358  0.75976859  1
  Hf  Hf17  1  0.89312005  0.30460614  0.12575851  1
  Hf  Hf18  1  0.79660257  0.79473783  0.25159496  1
  Hf  Hf19  1  0.40717450  0.60017651  0.49866494  1
  Hf  Hf20  1  0.19470417  0.39451744  0.26255557  1
  Hf  Hf21  1  0.48164351  0.88652518  0.12425990  1
  Hf  Hf22  1  0.51794723  0.29794094  0.64157328  1
  Hf  Hf23  1  0.59254528  0.79199214  0.24043390  1
  Hf  Hf24  1  0.07972700  0.30563894  0.85887149  1
  Hf  Hf25  1  -0.00275011  0.00305645  0.25070034  1
  Hf  Hf26  1  0.79670490  -0.00546825  0.00855634  1
  Hf  Hf27  1  0.39281854  0.21184320  -0.01851271  1
  Hf  Hf28  1  0.11270903  0.49724545  0.63771744  1
  Hf  Hf29  1  -0.00259449  0.20036301  -0.00844858  1
  Hf  Hf30  1  0.90041833  0.49033745  0.37341968  1
  Hf  Hf31  1  0.21145539  0.00003483  0.48464646  1
  Hf  Hf32  1  0.18164321  0.79673262  0.48871645  1
  Hf  Hf33  1  -0.00328940  0.59294384  0.74878948  1
  Hf  Hf34  1  0.90936350  0.10513023  0.12674499  1
  Hf  Hf35  1  0.21172434  0.60069263  0.49613855  1
  Hf  Hf36  1  0.91753087  0.70169590  0.37583256  1
  Hf  Hf37  1  0.40397381  0.38342365  0.25328684  1
  Hf  Hf38  1  0.70306714  0.11512553  0.12212694  1
  Hf  Hf39  1  0.21332761  0.40424922  0.49322162  1
  Zr  Zr40  1  0.52165665  0.49255970  0.37471728  1
  Zr  Zr41  1  0.39148530  0.01015713  0.24008045  1
  Zr  Zr42  1  0.50008359  0.10123001  0.87361167  1
  Zr  Zr43  1  0.69591211  0.49705092  0.63374244  1
  Zr  Zr44  1  0.69662450  0.11692222  0.38800233  1
  Zr  Zr45  1  0.01241262  0.60651760  0.50436975  1
  Zr  Zr46  1  0.20047763  0.78880191  -0.00028061  1
  Zr  Zr47  1  0.90119595  0.70584677  0.87226732  1
  Zr  Zr48  1  0.20264566  0.39138807  -0.02142194  1
  Zr  Zr49  1  0.89158258  0.69769258  0.62751773  1
  Zr  Zr50  1  0.28332408  0.90055042  0.12401435  1
  Zr  Zr51  1  0.01778710  0.39278878  0.49624881  1
  Zr  Zr52  1  0.49975519  0.28835321  0.38498795  1
  Zr  Zr53  1  0.10008268  0.29509173  0.64554073  1
  Zr  Zr54  1  0.77954372  0.78488544  0.49136868  1
  Zr  Zr55  1  0.81540451  0.39094647  0.75024414  1
  Zr  Zr56  1  0.70259099  0.08724262  0.88192365  1
  Zr  Zr57  1  0.89138577  0.09886177  0.60324101  1
  Zr  Zr58  1  0.30753512  0.09211981  0.63192389  1
  Zr  Zr59  1  0.20612983  0.21190749  0.49805681  1
  Zr  Zr60  1  0.90493774  0.89452800  0.60685206  1
  Zr  Zr61  1  0.00538783  0.60242635  0.23622771  1
  Zr  Zr62  1  0.29733188  0.50969178  0.12400936  1
  Zr  Zr63  1  0.49566186  0.50104023  0.11985478  1
  Zr  Zr64  1  0.69721492  0.48784848  0.10816416  1
  Zr  Zr65  1  0.59605940  0.79457109  0.75021250  1
  Zr  Zr66  1  0.47892265  0.90060754  0.62447421  1
  Zr  Zr67  1  0.19178586  0.00343562  0.25881829  1
  Zr  Zr68  1  0.10978543  0.71169627  0.63702074  1
  Zr  Zr69  1  0.28046508  0.89244199  0.62457267  1
  Zr  Zr70  1  0.10284086  0.48595950  0.12406849  1
  Zr  Zr71  1  0.90119492  0.28586218  0.38663115  1
  Zr  Zr72  1  0.50215429  0.09433774  0.36269824  1
  Zr  Zr73  1  0.89741404  0.09325477  0.39637326  1
  Zr  Zr74  1  0.20849418  0.18954247  0.77261481  1
  Zr  Zr75  1  0.01004323  0.60615952  0.00759745  1
  Zr  Zr76  1  0.60544375  0.80045783  0.01012637  1
  Zr  Zr77  1  0.21096994  0.20093137  0.25783603  1
  Zr  Zr78  1  0.80031257  -0.00455410  0.74464511  1
  Zr  Zr79  1  0.59755034  0.00441928  0.74160734  1
  Ta  Ta80  1  0.38927095  0.80211920  0.48622729  1
  Ta  Ta81  1  0.50308966  0.30734281  0.11285798  1
  Ta  Ta82  1  0.21827391  0.78939672  0.76706078  1
  Ta  Ta83  1  0.09054657  0.90199451  0.12027964  1
  Ta  Ta84  1  0.30917196  0.50557318  0.63829336  1
  Ta  Ta85  1  0.69735789  0.29740674  0.87906155  1
  Ta  Ta86  1  0.30855829  0.30590347  0.64473187  1
  Ta  Ta87  1  0.59876790  -0.00050545  0.22802038  1
  Ta  Ta88  1  -0.01020187  0.39989805  -0.00132940  1
  Ta  Ta89  1  0.90072729  0.29447326  0.61300267  1
  Ta  Ta90  1  0.80715400  0.60186211  -0.00461948  1
  Ta  Ta91  1  0.59591723  0.20319647  -0.00219913  1
  Ta  Ta92  1  0.50729254  0.70831697  0.37755441  1
  Ta  Ta93  1  0.59548667  0.00140474  0.02067852  1
  Ta  Ta94  1  0.90678834  0.49242137  0.87689647  1
  Ta  Ta95  1  0.61459005  0.59384090  0.24877581  1
  Ta  Ta96  1  0.10616065  0.51350087  0.36505360  1
  Ta  Ta97  1  0.60443069  0.60898704  0.49992150  1
  Ta  Ta98  1  0.78934120  0.19523860  0.74746877  1
  Ta  Ta99  1  0.39540586  0.00338500  0.00260314  1
  Ta  Ta100  1  0.88978183  0.50205459  0.12218930  1
  Ta  Ta101  1  0.68480529  0.11273686  0.61154446  1
  Ta  Ta102  1  0.69356013  0.90308768  0.60956014  1
  Ta  Ta103  1  0.89598271  0.90942026  0.88244322  1
  Ta  Ta104  1  0.79294834  0.60534919  0.75660189  1
  Ta  Ta105  1  0.10674888  0.69461670  0.86994876  1
  Ta  Ta106  1  0.71109783  0.69111146  0.12336976  1
  Ta  Ta107  1  0.80021311  0.59939570  0.25395492  1
  Ta  Ta108  1  0.08809558  0.88877930  0.36700649  1
  Ta  Ta109  1  0.09146899  0.11140001  0.38553395  1
  Ta  Ta110  1  0.10918062  0.09978849  0.11483317  1
  Ta  Ta111  1  0.89610585  0.89214859  0.12407353  1
  Ta  Ta112  1  0.08295558  0.08719197  0.87634686  1
  Ta  Ta113  1  0.80139827  0.79630864  0.00445017  1
  Ta  Ta114  1  0.19794998  0.19241602  -0.02152277  1
  Ta  Ta115  1  0.21406770  0.40846725  0.76682251  1
  Ta  Ta116  1  0.50895881  0.30828172  0.85671619  1
  Ta  Ta117  1  0.41217019  0.18277669  0.51589587  1
  Ta  Ta118  1  0.57182041  0.01304002  0.50922316  1
  Ta  Ta119  1  0.69564702  0.32499118  0.40428487  1
  Ti  Ti120  1  0.29608811  0.69942821  0.36576839  1
  Ti  Ti121  1  0.40081874  0.41080565  -0.01856032  1
  Ti  Ti122  1  0.69730698  0.30563077  0.10172118  1
  Ti  Ti123  1  0.80554195  0.20404377  -0.01234594  1
  Ti  Ti124  1  0.69459846  0.70481316  0.87386995  1
  Ti  Ti125  1  0.09976968  0.50325252  0.86842467  1
  Ti  Ti126  1  -0.00310716  -0.00253082  0.00210354  1
  Ti  Ti127  1  0.39906696  0.61724263  -0.01065851  1
  Ti  Ti128  1  -0.00839916  0.00360730  0.75110366  1
  Ti  Ti129  1  0.69096000  0.69936884  0.63218381  1
  Ti  Ti130  1  0.29607749  0.10732294  0.11371883  1
  Ti  Ti131  1  0.01257794  0.20430298  0.25081156  1
  Ti  Ti132  1  0.80722196  0.20100425  0.25551944  1
  Ti  Ti133  1  0.38965070  -0.00640344  0.76358561  1
  Ti  Ti134  1  0.40656363  0.19609202  0.75627462  1
  Ti  Ti135  1  0.30786016  0.89134811  0.88874379  1
  Ti  Ti136  1  0.12180398  0.69511787  0.12980427  1
  Ti  Ti137  1  0.48722258  0.90182324  0.36799429  1
  Ti  Ti138  1  -0.02574659  0.19526453  0.75716955  1
  Ti  Ti139  1  0.02053239  -0.01531960  0.50080565  1
  Ti  Ti140  1  0.70733844  0.30267266  0.60986626  1
  Ti  Ti141  1  0.30851723  0.49832620  0.36831927  1
  Ti  Ti142  1  0.09832414  0.29077874  0.11870851  1
  Ti  Ti143  1  0.00196746  0.79716407  0.23546454  1
  Ti  Ti144  1  0.09144744  0.88993485  0.89046477  1
  Ti  Ti145  1  0.30745830  0.70317840  0.62510481  1
  Ti  Ti146  1  0.31536997  0.11495975  0.37702770  1
  Ti  Ti147  1  -0.00530976  0.79714244  0.01006890  1
  Ti  Ti148  1  0.32017291  0.70777371  0.13142720  1
  Ti  Ti149  1  0.90373371  0.49081695  0.62333341  1
  Ti  Ti150  1  0.19610907  0.00244109  -0.00981685  1
  Ti  Ti151  1  -0.00318708  0.39325619  0.25162931  1
  Ti  Ti152  1  0.49115403  0.11449547  0.12310516  1
  Ti  Ti153  1  0.30015385  0.89633199  0.36480838  1
  Ti  Ti154  1  0.79408732  0.80682903  0.75303682  1
  Ti  Ti155  1  0.49723520  0.69946879  0.62362318  1
  Ti  Ti156  1  0.50589822  0.50623829  0.64356097  1
  Ti  Ti157  1  0.19731163  0.79281315  0.25132513  1
  Ti  Ti158  1  0.21131141  0.59293629  -0.01405191  1
  Ti  Ti159  1  0.58369265  0.80154975  0.50238580  1
  Mo  Mo160  1  0.49425547  0.09991256  0.63732911  1
  Mo  Mo161  1  0.09770846  0.30321337  0.37179424  1
  Mo  Mo162  1  0.30204153  0.50662850  0.87400172  1
  Mo  Mo163  1  0.40335185  0.40533944  0.74419836  1
  Mo  Mo164  1  0.40185214  0.79464256  0.00112705  1
  Mo  Mo165  1  0.69814793  0.90045130  0.13112992  1
  Mo  Mo166  1  0.39316955  0.79929668  0.26502476  1
  Mo  Mo167  1  0.60157096  0.40028629  0.24600706  1
  Mo  Mo168  1  0.20334181  0.60019983  0.76061903  1
  Mo  Mo169  1  0.79463426  0.20517931  0.50613699  1
  Mo  Mo170  1  0.49686698  0.69080948  0.12653078  1
  Mo  Mo171  1  0.30610015  0.70354530  0.88347848  1
  Mo  Mo172  1  0.40183857  0.20317271  0.23556201  1
  Mo  Mo173  1  0.01028080  0.19307926  0.50623973  1
  Mo  Mo174  1  0.10265820  0.90421716  0.63043246  1
  Mo  Mo175  1  0.20938575  0.60387540  0.25228269  1
  Mo  Mo176  1  0.69238751  0.69512326  0.37013781  1
  Mo  Mo177  1  0.70995655  0.89063760  0.88011688  1
  Mo  Mo178  1  0.58856417  0.39003071  -0.01280598  1
  Mo  Mo179  1  0.61123370  0.39641835  0.75147214  1
  Mo  Mo180  1  0.59191645  0.21031074  0.50575247  1
  Mo  Mo181  1  0.39417420  -0.00559714  0.48863690  1
  Mo  Mo182  1  0.60563418  0.60792219  0.75267760  1
  Mo  Mo183  1  0.60153803  0.41793744  0.51376944  1
  Mo  Mo184  1  0.29823178  0.08631205  0.88210446  1
  Mo  Mo185  1  0.30860779  0.29873389  0.38265750  1
  Mo  Mo186  1  0.39601410  0.81322792  0.75546274  1
  Mo  Mo187  1  0.70320054  0.50631509  0.37758124  1
  Mo  Mo188  1  0.90031640  0.09940893  0.87300707  1
  Mo  Mo189  1  0.00078544  0.39896532  0.74598266  1
  Mo  Mo190  1  0.00186527  0.80008917  0.49650228  1
  Mo  Mo191  1  0.61441466  0.20145949  0.75113163  1
  Mo  Mo192  1  0.77456904  -0.00442822  0.50295963  1
  Mo  Mo193  1  0.50136778  0.70705614  0.87829779  1
  Mo  Mo194  1  0.88888918  0.29840277  0.87540439  1
  Mo  Mo195  1  0.31157499  0.30100936  0.85888048  1
  Mo  Mo196  1  0.10756159  0.70118903  0.35764731  1
  Mo  Mo197  1  0.89867329  0.69830166  0.12296027  1
  Mo  Mo198  1  0.80594749  0.39640521  -0.00823031  1
  Mo  Mo199  1  0.80820503  0.40368155  0.50892998  1
