# generated using pymatgen
data_HfZrTaTiMo
_symmetry_space_group_name_H-M   'P 1'
_cell_length_a   15.21060288
_cell_length_b   15.20579379
_cell_length_c   16.84549877
_cell_angle_alpha   90.01363748
_cell_angle_beta   89.92689896
_cell_angle_gamma   90.13547847
_symmetry_Int_Tables_number   1
_chemical_formula_structural   HfZrTaTiMo
_chemical_formula_sum   'Hf40 Zr40 Ta40 Ti40 Mo40'
_cell_volume   3896.16929178
_cell_formula_units_Z   40
loop_
 _symmetry_equiv_pos_site_id
 _symmetry_equiv_pos_as_xyz
  1  'x, y, z'
loop_
 _atom_site_type_symbol
 _atom_site_label
 _atom_site_symmetry_multiplicity
 _atom_site_fract_x
 _atom_site_fract_y
 _atom_site_fract_z
 _atom_site_occupancy
  Hf  Hf0  1  0.51338905  0.68339756  0.36047681  1
  Hf  Hf1  1  0.20352851  0.20636879  0.75610162  1
  Hf  Hf2  1  0.18155269  0.61427848  0.74672373  1
  Hf  Hf3  1  0.10826251  0.31451621  0.63495828  1
  Hf  Hf4  1  0.80073023  -0.00596802  0.49830499  1
  Hf  Hf5  1  0.88821113  0.50424136  0.37840417  1
  Hf  Hf6  1  -0.00327685  0.40912818  0.24487890  1
  Hf  Hf7  1  -0.00334653  0.40740499  0.50358513  1
  Hf  Hf8  1  0.50574803  0.89636011  0.89641824  1
  Hf  Hf9  1  0.39591273  0.39431841  0.50473340  1
  Hf  Hf10  1  0.09239061  0.51878544  0.88694451  1
  Hf  Hf11  1  0.80172564  0.39631919  0.24300792  1
  Hf  Hf12  1  0.88703991  0.11735410  0.10775325  1
  Hf  Hf13  1  0.40822646  0.19444600  0.50817702  1
  Hf  Hf14  1  0.28130606  0.69917274  0.15380445  1
  Hf  Hf15  1  0.49738140  0.67934379  0.13773098  1
  Hf  Hf16  1  -0.00139319  -0.00124174  -0.00243580  1
  Hf  Hf17  1  0.19381223  0.79313468  0.48365998  1
  Hf  Hf18  1  0.41142519  0.79251484  0.75274939  1
  Hf  Hf19  1  0.68731470  0.49348551  0.13139433  1
  Hf  Hf20  1  0.41339531  0.80924828  0.25442017  1
  Hf  Hf21  1  0.19360654  0.00653920  0.49501788  1
  Hf  Hf22  1  0.21320831  0.81362133  0.74482606  1
  Hf  Hf23  1  0.60542797  -0.02145697  0.75375083  1
  Hf  Hf24  1  0.09170054  0.90672761  0.36019354  1
  Hf  Hf25  1  0.49984711  0.48464760  0.86403417  1
  Hf  Hf26  1  0.30462107  0.70174498  0.60674429  1
  Hf  Hf27  1  0.70304613  0.29782258  0.37527692  1
  Hf  Hf28  1  0.59706215  -0.01377859  0.50195916  1
  Hf  Hf29  1  0.09062244  0.11217141  0.36845411  1
  Hf  Hf30  1  0.70138917  0.70258373  0.13057862  1
  Hf  Hf31  1  0.31174184  0.90987906  0.37337864  1
  Hf  Hf32  1  0.30109602  0.10767615  0.37575825  1
  Hf  Hf33  1  0.80843165  0.19516761  0.50479428  1
  Hf  Hf34  1  0.58159764  0.38398385  0.26104853  1
  Hf  Hf35  1  0.80044322  0.81827879  0.74345145  1
  Hf  Hf36  1  0.78151305  0.00147484  0.24600360  1
  Hf  Hf37  1  0.91634381  0.69871493  0.62659563  1
  Hf  Hf38  1  0.79515824  0.59688030  0.50833831  1
  Hf  Hf39  1  0.30741237  0.30110426  0.88525074  1
  Zr  Zr40  1  0.60743026  0.19772349  0.50606756  1
  Zr  Zr41  1  0.41212287  0.19885798  0.75219498  1
  Zr  Zr42  1  -0.00829242  0.21075459  0.24175084  1
  Zr  Zr43  1  0.89540815  0.30063089  0.63774804  1
  Zr  Zr44  1  0.79291463  0.60549850  0.00485231  1
  Zr  Zr45  1  0.69539204  0.48886192  0.64245594  1
  Zr  Zr46  1  0.59337199  0.40510655  0.49282326  1
  Zr  Zr47  1  0.49456222  0.68633347  0.88431270  1
  Zr  Zr48  1  0.71230534  0.70056463  0.36900147  1
  Zr  Zr49  1  0.41425492  0.20283023  0.24361276  1
  Zr  Zr50  1  0.30287987  0.50297411  0.12421955  1
  Zr  Zr51  1  0.31112556  0.31362054  0.36650450  1
  Zr  Zr52  1  -0.00613766  0.42004907  0.75280446  1
  Zr  Zr53  1  0.30898988  0.90850328  0.12927631  1
  Zr  Zr54  1  0.19990246  0.21566048  0.50879550  1
  Zr  Zr55  1  0.79610582  0.19514393  0.25177455  1
  Zr  Zr56  1  0.10547222  0.90783017  0.62334157  1
  Zr  Zr57  1  0.29776413  0.89312961  0.89146743  1
  Zr  Zr58  1  0.68777541  0.70085285  0.63808308  1
  Zr  Zr59  1  0.69755694  0.68561030  0.85981379  1
  Zr  Zr60  1  0.09882909  0.89076871  0.14599458  1
  Zr  Zr61  1  0.00247690  0.00137637  0.75878492  1
  Zr  Zr62  1  0.29179239  0.09304150  0.63008363  1
  Zr  Zr63  1  0.71368238  0.08638437  0.64516205  1
  Zr  Zr64  1  0.20252745  0.01008003  0.01383077  1
  Zr  Zr65  1  0.10388029  0.50998337  0.36631141  1
  Zr  Zr66  1  0.89006637  0.50676120  0.88240141  1
  Zr  Zr67  1  0.79627805  0.39183487  -0.00017692  1
  Zr  Zr68  1  0.00463756  0.21218232  -0.01921563  1
  Zr  Zr69  1  0.28647177  0.49541967  0.62220329  1
  Zr  Zr70  1  0.39173288  0.77842443  0.01348903  1
  Zr  Zr71  1  0.49789027  0.50255501  0.63545815  1
  Zr  Zr72  1  0.19570472  0.39992999  -0.00778812  1
  Zr  Zr73  1  0.90844419  0.70239912  0.86792116  1
  Zr  Zr74  1  0.39287416  -0.00969179  0.75427672  1
  Zr  Zr75  1  0.38296297  0.59907586  0.75318064  1
  Zr  Zr76  1  0.51340146  0.87854848  0.62295019  1
  Zr  Zr77  1  0.09904445  0.30885801  0.11935519  1
  Zr  Zr78  1  0.89195992  0.90256892  0.12010034  1
  Zr  Zr79  1  0.71200252  0.90083003  0.89214870  1
  Ta  Ta80  1  0.10182105  0.10632808  0.12621017  1
  Ta  Ta81  1  0.19701000  0.40887182  0.49514779  1
  Ta  Ta82  1  0.30353408  0.09736943  0.88240738  1
  Ta  Ta83  1  0.69726943  0.28938522  0.65451436  1
  Ta  Ta84  1  0.10110310  0.89941224  0.87745798  1
  Ta  Ta85  1  -0.00490946  0.81331676  0.49447736  1
  Ta  Ta86  1  0.31356445  0.89866901  0.60282354  1
  Ta  Ta87  1  0.80918080  0.60093771  0.24281537  1
  Ta  Ta88  1  0.30708910  0.29746743  0.11610254  1
  Ta  Ta89  1  0.50011901  0.09347036  0.10759393  1
  Ta  Ta90  1  -0.01406617  0.01057350  0.24323871  1
  Ta  Ta91  1  0.50948049  0.29483021  0.11193003  1
  Ta  Ta92  1  0.10195118  0.30612161  0.37173491  1
  Ta  Ta93  1  0.08498122  0.52361684  0.61928670  1
  Ta  Ta94  1  0.50317720  0.08854079  0.62790032  1
  Ta  Ta95  1  0.20364205  0.01565942  0.24421256  1
  Ta  Ta96  1  -0.00742008  0.01038513  0.50181126  1
  Ta  Ta97  1  0.69851026  0.28473343  0.12295137  1
  Ta  Ta98  1  0.90853489  0.51296446  0.11777482  1
  Ta  Ta99  1  0.20403688  0.20799943  0.24234709  1
  Ta  Ta100  1  0.90735502  0.70787295  0.37209105  1
  Ta  Ta101  1  0.41300679  0.40039740  -0.00127531  1
  Ta  Ta102  1  0.79377607  0.39438898  0.50628837  1
  Ta  Ta103  1  0.49520789  0.48707122  0.13044045  1
  Ta  Ta104  1  0.90717276  0.29926567  0.38355114  1
  Ta  Ta105  1  0.10820523  0.71182835  0.87977223  1
  Ta  Ta106  1  0.50009011  0.08525671  0.37624743  1
  Ta  Ta107  1  0.00173711  0.79013187  0.00510657  1
  Ta  Ta108  1  0.19975688  0.41121670  0.76607744  1
  Ta  Ta109  1  0.69052996  0.10590734  0.87184395  1
  Ta  Ta110  1  0.60918627  0.81125789  0.24341819  1
  Ta  Ta111  1  0.30019982  0.68941282  0.36035574  1
  Ta  Ta112  1  0.80523895  0.80450042  0.24496202  1
  Ta  Ta113  1  0.41466017  0.79796309  0.48004570  1
  Ta  Ta114  1  0.00909717  0.61935662  0.49140264  1
  Ta  Ta115  1  0.89300959  0.90287001  0.36935905  1
  Ta  Ta116  1  0.18710386  0.79631546  0.01222951  1
  Ta  Ta117  1  0.00039351  0.20874500  0.77159073  1
  Ta  Ta118  1  0.01518826  0.79448985  0.74635737  1
  Ta  Ta119  1  0.10076852  0.51666715  0.12540456  1
  Ti  Ti120  1  0.38842332  0.39014878  0.74670765  1
  Ti  Ti121  1  0.90547212  0.89891045  0.87913316  1
  Ti  Ti122  1  0.50108336  0.09330209  0.89196186  1
  Ti  Ti123  1  0.69018841  0.09757874  0.10184530  1
  Ti  Ti124  1  0.60629706  0.78332295  0.00582145  1
  Ti  Ti125  1  0.39767348  0.19324681  0.00312613  1
  Ti  Ti126  1  0.00401244  0.20200390  0.50462427  1
  Ti  Ti127  1  0.40872216  0.59252387  0.48356345  1
  Ti  Ti128  1  0.78896995  0.20669254  -0.02061256  1
  Ti  Ti129  1  0.60106977  0.18279362  0.24784499  1
  Ti  Ti130  1  0.50651771  0.29743747  0.63575236  1
  Ti  Ti131  1  0.40569945  0.00962322  0.24146236  1
  Ti  Ti132  1  0.80264071  0.80391301  0.50629484  1
  Ti  Ti133  1  0.89944115  0.91070618  0.62672477  1
  Ti  Ti134  1  0.51057328  0.89992775  0.10915178  1
  Ti  Ti135  1  0.69404868  0.09273338  0.37592039  1
  Ti  Ti136  1  0.09321674  0.10617671  0.63654404  1
  Ti  Ti137  1  0.69253663  0.48522720  0.85178554  1
  Ti  Ti138  1  0.20361918  0.61570392  0.00493052  1
  Ti  Ti139  1  0.09853616  0.70756098  0.34838937  1
  Ti  Ti140  1  0.69625483  0.90833360  0.10670134  1
  Ti  Ti141  1  0.11343170  0.10106742  0.87637853  1
  Ti  Ti142  1  0.88697047  0.09577859  0.87505287  1
  Ti  Ti143  1  0.90529303  0.10277528  0.64156911  1
  Ti  Ti144  1  0.60604140  0.38942029  -0.00793191  1
  Ti  Ti145  1  0.08153129  0.69723398  0.14890271  1
  Ti  Ti146  1  0.20834419  0.40532383  0.24667004  1
  Ti  Ti147  1  -0.00728928  0.40519937  -0.00066274  1
  Ti  Ti148  1  0.50158330  0.68794518  0.61613059  1
  Ti  Ti149  1  0.60833065  0.78479925  0.49268047  1
  Ti  Ti150  1  0.58947230  -0.00490855  0.24307290  1
  Ti  Ti151  1  0.89732534  0.10003850  0.37480991  1
  Ti  Ti152  1  0.30139169  0.51592906  0.88751092  1
  Ti  Ti153  1  0.80816278  0.79840966  0.00362028  1
  Ti  Ti154  1  0.58904268  0.58134007  0.00048292  1
  Ti  Ti155  1  0.69325627  0.89715384  0.37178673  1
  Ti  Ti156  1  0.68054690  0.51161899  0.36860565  1
  Ti  Ti157  1  0.20327027  0.59930781  0.48999821  1
  Ti  Ti158  1  0.81609320  0.58630796  0.73860367  1
  Ti  Ti159  1  0.51710700  0.28398085  0.87813656  1
  Mo  Mo160  1  0.80843887  -0.00137779  0.75801351  1
  Mo  Mo161  1  0.20029985  0.00496656  0.75900225  1
  Mo  Mo162  1  0.59966856  0.20574969  -0.00454519  1
  Mo  Mo163  1  0.48640183  0.48930003  0.36801297  1
  Mo  Mo164  1  0.69742155  0.29886431  0.85628855  1
  Mo  Mo165  1  0.40322643  0.00300135  0.00362144  1
  Mo  Mo166  1  0.59945625  0.79073399  0.75669868  1
  Mo  Mo167  1  0.01186276  0.61089318  0.01015436  1
  Mo  Mo168  1  0.59516583  0.18447881  0.75203209  1
  Mo  Mo169  1  0.51221981  0.89814016  0.37110129  1
  Mo  Mo170  1  0.30057348  0.30884235  0.63427682  1
  Mo  Mo171  1  0.20335556  0.80612927  0.26590460  1
  Mo  Mo172  1  0.89380872  0.30076001  0.86582329  1
  Mo  Mo173  1  0.90190558  0.70295535  0.12746968  1
  Mo  Mo174  1  0.39717038  0.58571219  0.00242172  1
  Mo  Mo175  1  0.50404002  0.28022533  0.37553325  1
  Mo  Mo176  1  0.59290659  0.59988217  0.49686351  1
  Mo  Mo177  1  0.20459265  0.20054336  -0.00300697  1
  Mo  Mo178  1  0.28664060  0.69631930  0.88456878  1
  Mo  Mo179  1  0.70954071  0.89080460  0.61886013  1
  Mo  Mo180  1  0.10041189  0.30910631  0.86921080  1
  Mo  Mo181  1  -0.01013741  0.60234916  0.25146901  1
  Mo  Mo182  1  -0.01040265  0.80471395  0.25556471  1
  Mo  Mo183  1  0.79797383  0.39746618  0.75521578  1
  Mo  Mo184  1  0.80191442  0.00828705  -0.00814988  1
  Mo  Mo185  1  0.59395000  0.59884951  0.75499694  1
  Mo  Mo186  1  0.60680540  0.59136370  0.24629029  1
  Mo  Mo187  1  0.30347002  0.50368714  0.37246631  1
  Mo  Mo188  1  0.89646834  0.50471532  0.61354884  1
  Mo  Mo189  1  0.40116287  0.58202516  0.26181182  1
  Mo  Mo190  1  0.60324210  0.00214459  -0.00080818  1
  Mo  Mo191  1  0.80591639  0.19549916  0.76804497  1
  Mo  Mo192  1  0.19357388  0.59480302  0.25126782  1
  Mo  Mo193  1  0.40609061  -0.00378007  0.50277905  1
  Mo  Mo194  1  0.10765856  0.70771444  0.61083571  1
  Mo  Mo195  1  0.58491928  0.38315919  0.75338886  1
  Mo  Mo196  1  0.88947743  0.31083593  0.11399035  1
  Mo  Mo197  1  0.39624172  0.39235180  0.23961468  1
  Mo  Mo198  1  0.00074696  0.61133595  0.74685931  1
  Mo  Mo199  1  0.30145563  0.11203279  0.12679210  1
