# generated using pymatgen
data_HfZrTaTiMo
_symmetry_space_group_name_H-M   'P 1'
_cell_length_a   15.17712720
_cell_length_b   15.17725367
_cell_length_c   16.80514575
_cell_angle_alpha   90.01914620
_cell_angle_beta   90.00812853
_cell_angle_gamma   90.01264722
_symmetry_Int_Tables_number   1
_chemical_formula_structural   HfZrTaTiMo
_chemical_formula_sum   'Hf40 Zr40 Ta40 Ti40 Mo40'
_cell_volume   3871.01640102
_cell_formula_units_Z   40
loop_
 _symmetry_equiv_pos_site_id
 _symmetry_equiv_pos_as_xyz
  1  'x, y, z'
loop_
 _atom_site_type_symbol
 _atom_site_label
 _atom_site_symmetry_multiplicity
 _atom_site_fract_x
 _atom_site_fract_y
 _atom_site_fract_z
 _atom_site_occupancy
  Hf  Hf0  1  0.00896802  0.18993697  0.76793629  1
  Hf  Hf1  1  0.78616929  0.18762518  0.51037772  1
  Hf  Hf2  1  0.00052884  0.60250415  0.24238719  1
  Hf  Hf3  1  0.20581460  0.22512170  0.48578315  1
  Hf  Hf4  1  0.28932128  0.11211482  0.87600322  1
  Hf  Hf5  1  0.29692011  0.90704749  0.86990919  1
  Hf  Hf6  1  0.01586355  0.60257589  0.50735736  1
  Hf  Hf7  1  0.91200379  0.49541224  0.62270537  1
  Hf  Hf8  1  0.29043572  0.31524914  0.62749863  1
  Hf  Hf9  1  0.08914551  0.32309308  0.36804445  1
  Hf  Hf10  1  0.78206263  -0.01440358  0.76538581  1
  Hf  Hf11  1  0.11691511  0.48415817  0.62814522  1
  Hf  Hf12  1  0.30102886  0.91015411  0.62539188  1
  Hf  Hf13  1  0.41701000  0.61213758  0.26111958  1
  Hf  Hf14  1  0.10133121  0.09177050  0.13050453  1
  Hf  Hf15  1  0.40068378  0.00990956  0.75127324  1
  Hf  Hf16  1  0.88819854  0.10498588  0.37021367  1
  Hf  Hf17  1  0.31527302  0.51440489  0.13021025  1
  Hf  Hf18  1  0.89318937  0.29978864  0.88117840  1
  Hf  Hf19  1  0.08961140  0.90894814  0.86488325  1
  Hf  Hf20  1  0.31559890  0.11372035  0.60919590  1
  Hf  Hf21  1  0.39129103  0.00420308  0.23639258  1
  Hf  Hf22  1  0.70354897  0.68114736  0.13049274  1
  Hf  Hf23  1  0.08878075  0.72743914  0.37631665  1
  Hf  Hf24  1  0.40152622  0.59493833  0.50822735  1
  Hf  Hf25  1  0.79326822  0.79472500  0.48149838  1
  Hf  Hf26  1  0.00208648  -0.01367341  0.25744640  1
  Hf  Hf27  1  0.78789249  -0.01167465  0.48665290  1
  Hf  Hf28  1  0.19377885  0.81186410  0.24539318  1
  Hf  Hf29  1  0.10278268  0.11676380  0.61741787  1
  Hf  Hf30  1  0.30935511  0.31007424  0.14059051  1
  Hf  Hf31  1  0.20892111  0.20364750  0.25747235  1
  Hf  Hf32  1  0.51511992  0.49733151  0.86889808  1
  Hf  Hf33  1  0.59042226  0.80150948  0.49700950  1
  Hf  Hf34  1  0.21237486  0.40941189  -0.00477817  1
  Hf  Hf35  1  0.51490474  0.70787581  0.86844144  1
  Hf  Hf36  1  0.81059260  0.39219355  0.24272766  1
  Hf  Hf37  1  0.00099527  0.18312567  -0.01073967  1
  Hf  Hf38  1  -0.01252411  0.21701785  0.49835493  1
  Hf  Hf39  1  0.69171150  0.88341712  0.12313822  1
  Zr  Zr40  1  0.90306839  0.29241416  0.64335967  1
  Zr  Zr41  1  0.20748595  0.40536772  0.76799246  1
  Zr  Zr42  1  0.51366970  0.49637541  0.37350854  1
  Zr  Zr43  1  -0.00361097  0.80836527  0.00901676  1
  Zr  Zr44  1  0.31064377  0.71253707  0.12473673  1
  Zr  Zr45  1  0.68430682  0.30304894  0.87787316  1
  Zr  Zr46  1  0.19224527  0.80458647  0.51576619  1
  Zr  Zr47  1  0.71442997  0.49377422  0.38454088  1
  Zr  Zr48  1  0.79634540  0.78860331  0.26799590  1
  Zr  Zr49  1  -0.01857538  0.00287318  0.73334978  1
  Zr  Zr50  1  0.79650665  0.18727128  0.75797009  1
  Zr  Zr51  1  0.29940445  0.70184979  0.37443392  1
  Zr  Zr52  1  0.92159173  0.48254309  0.38246966  1
  Zr  Zr53  1  -0.01131246  0.79660153  0.73323946  1
  Zr  Zr54  1  0.71481177  0.69390198  0.86380559  1
  Zr  Zr55  1  -0.01356872  0.80377351  0.23224639  1
  Zr  Zr56  1  0.49539217  0.28813736  0.35621432  1
  Zr  Zr57  1  0.41172604  0.38170427  0.50027517  1
  Zr  Zr58  1  -0.00984802  0.20921959  0.24489378  1
  Zr  Zr59  1  0.81333506  0.37774222  0.50125725  1
  Zr  Zr60  1  0.70598939  0.71247709  0.63319482  1
  Zr  Zr61  1  0.00295221  0.40144136  0.76970586  1
  Zr  Zr62  1  0.69506421  0.09696604  0.11742057  1
  Zr  Zr63  1  0.12313252  0.52770618  0.36507638  1
  Zr  Zr64  1  0.58553170  0.21287495  0.51496765  1
  Zr  Zr65  1  0.71441188  0.49683352  0.61462066  1
  Zr  Zr66  1  0.89548461  0.08761490  0.12053884  1
  Zr  Zr67  1  0.57611878  0.78691575  0.25993674  1
  Zr  Zr68  1  0.30792655  0.69982943  0.86495829  1
  Zr  Zr69  1  0.79650642  -0.01491783  0.25599258  1
  Zr  Zr70  1  0.49613080  0.29846558  0.87349161  1
  Zr  Zr71  1  0.41294680  0.81859701  -0.00780120  1
  Zr  Zr72  1  0.58611692  0.00740151  0.50058740  1
  Zr  Zr73  1  0.57409299  -0.01338797  0.01218161  1
  Zr  Zr74  1  0.11284290  0.50235530  0.12232320  1
  Zr  Zr75  1  0.20699978  0.20100578  0.01190939  1
  Zr  Zr76  1  0.51023568  0.69555278  0.11061839  1
  Zr  Zr77  1  -0.01063651  -0.00193486  0.51177536  1
  Zr  Zr78  1  0.59787565  0.60227517  0.51281006  1
  Zr  Zr79  1  0.10062292  0.09970682  0.38141432  1
  Ta  Ta80  1  0.31440823  0.10276628  0.38403913  1
  Ta  Ta81  1  0.68360751  0.10518441  0.36278639  1
  Ta  Ta82  1  0.68407233  0.09525668  0.88735590  1
  Ta  Ta83  1  0.18082554  -0.00115653  -0.00199202  1
  Ta  Ta84  1  0.19777679  0.80522168  -0.00204564  1
  Ta  Ta85  1  0.19981321  0.00110317  0.25763482  1
  Ta  Ta86  1  0.00157175  0.40229966  -0.00523103  1
  Ta  Ta87  1  0.40563089  0.20379823  0.01447708  1
  Ta  Ta88  1  0.21271577  0.60648706  0.51887722  1
  Ta  Ta89  1  0.19380760  0.80326003  0.73863934  1
  Ta  Ta90  1  0.69763282  0.08521001  0.63231760  1
  Ta  Ta91  1  0.79481554  0.40665169  -0.00367288  1
  Ta  Ta92  1  0.78897744  0.20213825  0.24323881  1
  Ta  Ta93  1  0.67734193  0.88892478  0.88725172  1
  Ta  Ta94  1  0.47309580  0.89859673  0.37490695  1
  Ta  Ta95  1  0.80934430  0.59681289  -0.00540971  1
  Ta  Ta96  1  0.11190700  0.29409448  0.88779604  1
  Ta  Ta97  1  0.88729479  0.88119433  0.87279673  1
  Ta  Ta98  1  0.38187290  0.01489028  0.01233717  1
  Ta  Ta99  1  0.69927133  0.29207155  0.37005875  1
  Ta  Ta100  1  0.90114984  0.49896672  0.11278487  1
  Ta  Ta101  1  0.21596396  0.41986401  0.48591638  1
  Ta  Ta102  1  0.01084799  0.60232910  0.74914045  1
  Ta  Ta103  1  0.20460677  0.60476011  0.74445407  1
  Ta  Ta104  1  0.11050898  0.69936422  0.11881868  1
  Ta  Ta105  1  0.00325990  0.40300491  0.23139485  1
  Ta  Ta106  1  0.31045411  0.30459042  0.87822822  1
  Ta  Ta107  1  0.31020946  0.70300477  0.63770691  1
  Ta  Ta108  1  0.49365959  0.09936225  0.88211311  1
  Ta  Ta109  1  0.09931098  0.70427740  0.87219291  1
  Ta  Ta110  1  0.79551794  0.79088690  0.00014588  1
  Ta  Ta111  1  0.78722442  0.41045774  0.75846455  1
  Ta  Ta112  1  0.50088923  0.90137588  0.62652299  1
  Ta  Ta113  1  0.80128327  -0.01117472  -0.01028485  1
  Ta  Ta114  1  -0.00626539  0.80804670  0.52044164  1
  Ta  Ta115  1  0.20889519  0.61052676  -0.00933215  1
  Ta  Ta116  1  0.59122419  0.19341198  0.73953379  1
  Ta  Ta117  1  0.89399467  0.69064434  0.61602581  1
  Ta  Ta118  1  0.60836459  0.58793384  0.73989527  1
  Ta  Ta119  1  0.49787117  0.09283971  0.36635109  1
  Ti  Ti120  1  0.60557854  0.81250479  0.74378221  1
  Ti  Ti121  1  0.18945300  0.01230928  0.74249918  1
  Ti  Ti122  1  0.70422644  0.49469100  0.12501912  1
  Ti  Ti123  1  0.28896672  0.90480173  0.38141771  1
  Ti  Ti124  1  0.40972223  0.59579279  -0.00687344  1
  Ti  Ti125  1  0.68546417  0.68062971  0.37124193  1
  Ti  Ti126  1  0.40827643  0.40182050  0.74411690  1
  Ti  Ti127  1  0.40945710  0.40390969  0.00429760  1
  Ti  Ti128  1  0.59066267  0.00044032  0.75464709  1
  Ti  Ti129  1  0.09844490  0.30442806  0.12064949  1
  Ti  Ti130  1  0.51066398  0.47797122  0.62615777  1
  Ti  Ti131  1  0.51311026  0.49988601  0.13476463  1
  Ti  Ti132  1  0.61587007  0.58985133  -0.00700123  1
  Ti  Ti133  1  0.81798783  0.60352739  0.75324840  1
  Ti  Ti134  1  0.89601285  0.69448629  0.12064883  1
  Ti  Ti135  1  0.60055198  0.40127311  0.00846608  1
  Ti  Ti136  1  0.50308272  0.30523414  0.13642617  1
  Ti  Ti137  1  0.89915162  0.30023650  0.10695314  1
  Ti  Ti138  1  0.61065858  0.39841813  0.24434059  1
  Ti  Ti139  1  0.20006568  0.20779025  0.75048987  1
  Ti  Ti140  1  0.86104273  0.89487189  0.62692424  1
  Ti  Ti141  1  0.28480976  0.91089103  0.11938879  1
  Ti  Ti142  1  0.21761492  0.41703653  0.26038604  1
  Ti  Ti143  1  0.10550637  0.51034016  0.88098436  1
  Ti  Ti144  1  0.40890582  0.80550535  0.74861239  1
  Ti  Ti145  1  0.80568789  0.58880580  0.25132974  1
  Ti  Ti146  1  0.19786209  0.00168477  0.49998237  1
  Ti  Ti147  1  0.41104704  0.59539608  0.73665928  1
  Ti  Ti148  1  0.90075418  0.50993665  0.87883896  1
  Ti  Ti149  1  0.31573744  0.50516761  0.87300191  1
  Ti  Ti150  1  0.59079807  0.19998603  0.01009237  1
  Ti  Ti151  1  0.58536089  -0.00483765  0.23613606  1
  Ti  Ti152  1  0.79433676  0.19391077  -0.00627353  1
  Ti  Ti153  1  0.39950133  0.79561875  0.50938019  1
  Ti  Ti154  1  0.39801546  0.20498976  0.74783403  1
  Ti  Ti155  1  0.00616138  0.60442647  -0.00248790  1
  Ti  Ti156  1  0.70397040  0.30052074  0.11723216  1
  Ti  Ti157  1  0.59517247  0.19208695  0.23597798  1
  Ti  Ti158  1  0.67250942  0.90629637  0.36465500  1
  Ti  Ti159  1  0.89803363  0.68490489  0.38470348  1
  Mo  Mo160  1  0.48001791  0.88992904  0.13057555  1
  Mo  Mo161  1  0.79762818  0.79725251  0.75401154  1
  Mo  Mo162  1  0.60015485  0.39734066  0.74139395  1
  Mo  Mo163  1  0.89026112  0.29715122  0.36748499  1
  Mo  Mo164  1  0.68968619  0.30230543  0.64151216  1
  Mo  Mo165  1  0.40144005  0.19258335  0.49317439  1
  Mo  Mo166  1  0.70692037  0.49922371  0.87230372  1
  Mo  Mo167  1  0.92075001  0.88250749  0.38451967  1
  Mo  Mo168  1  0.10038325  0.90288258  0.11842150  1
  Mo  Mo169  1  0.48832973  0.29065473  0.63758947  1
  Mo  Mo170  1  0.88646933  0.89526274  0.11595408  1
  Mo  Mo171  1  0.49749625  0.09268052  0.63164005  1
  Mo  Mo172  1  0.50037880  0.70372840  0.64412502  1
  Mo  Mo173  1  0.10268698  0.30223862  0.62455909  1
  Mo  Mo174  1  0.89394164  0.08494334  0.88627452  1
  Mo  Mo175  1  0.60973009  0.38713056  0.50488584  1
  Mo  Mo176  1  0.91456652  0.69316529  0.87630958  1
  Mo  Mo177  1  0.81024661  0.60321986  0.49477579  1
  Mo  Mo178  1  0.49794300  0.90782646  0.86705485  1
  Mo  Mo179  1  0.10042820  0.69565214  0.63238922  1
  Mo  Mo180  1  0.88570196  0.09160738  0.62590652  1
  Mo  Mo181  1  0.31188774  0.49996713  0.37081842  1
  Mo  Mo182  1  0.10353023  0.09675759  0.87001297  1
  Mo  Mo183  1  0.49224456  0.10796953  0.12721996  1
  Mo  Mo184  1  0.20440419  0.61190987  0.24497817  1
  Mo  Mo185  1  0.31306790  0.50594426  0.63205144  1
  Mo  Mo186  1  0.41086778  0.40583265  0.24621326  1
  Mo  Mo187  1  0.29141584  0.10261416  0.12532581  1
  Mo  Mo188  1  0.10452313  0.90786200  0.63178420  1
  Mo  Mo189  1  0.02626482  0.39194302  0.50428494  1
  Mo  Mo190  1  0.68954838  0.90531241  0.62480624  1
  Mo  Mo191  1  0.49748369  0.70661345  0.38389037  1
  Mo  Mo192  1  0.61458774  0.58860921  0.25161892  1
  Mo  Mo193  1  0.39487639  -0.00958273  0.49555773  1
  Mo  Mo194  1  0.30308498  0.30772536  0.35946238  1
  Mo  Mo195  1  -0.00844321  -0.00529426  -0.00775938  1
  Mo  Mo196  1  0.38936089  0.81494522  0.25097098  1
  Mo  Mo197  1  0.09874339  0.90426493  0.38267833  1
  Mo  Mo198  1  0.60576527  0.78827439  -0.00146946  1
  Mo  Mo199  1  0.40533885  0.19616471  0.24024095  1
