# generated using pymatgen
data_HfZrTaTiMo
_symmetry_space_group_name_H-M   'P 1'
_cell_length_a   15.21270662
_cell_length_b   15.21705896
_cell_length_c   16.80980080
_cell_angle_alpha   90.05082223
_cell_angle_beta   89.94802664
_cell_angle_gamma   89.94844007
_symmetry_Int_Tables_number   1
_chemical_formula_structural   HfZrTaTiMo
_chemical_formula_sum   'Hf40 Zr40 Ta40 Ti40 Mo40'
_cell_volume   3891.34068305
_cell_formula_units_Z   40
loop_
 _symmetry_equiv_pos_site_id
 _symmetry_equiv_pos_as_xyz
  1  'x, y, z'
loop_
 _atom_site_type_symbol
 _atom_site_label
 _atom_site_symmetry_multiplicity
 _atom_site_fract_x
 _atom_site_fract_y
 _atom_site_fract_z
 _atom_site_occupancy
  Hf  Hf0  1  0.41608551  0.18435446  0.25624170  1
  Hf  Hf1  1  -0.01101482  0.00622474  0.00806174  1
  Hf  Hf2  1  0.30610412  0.10680189  0.88928742  1
  Hf  Hf3  1  0.29339889  0.71424556  0.63485517  1
  Hf  Hf4  1  0.01415965  0.19963223  0.48385311  1
  Hf  Hf5  1  0.59996836  0.78647758  0.51008486  1
  Hf  Hf6  1  0.78329325  0.39795994  0.49189604  1
  Hf  Hf7  1  0.70429789  0.71103037  0.37649298  1
  Hf  Hf8  1  -0.01347229  0.40078899  0.48853427  1
  Hf  Hf9  1  0.80153522  0.40226804  0.25815101  1
  Hf  Hf10  1  0.70829845  0.51071853  0.12434225  1
  Hf  Hf11  1  0.19807622  0.02250184  0.24223020  1
  Hf  Hf12  1  0.10594837  0.30409911  0.87001978  1
  Hf  Hf13  1  -0.01479397  0.79268284  0.00239777  1
  Hf  Hf14  1  0.60395203  0.79934497  -0.00656874  1
  Hf  Hf15  1  0.00407429  -0.01413682  0.24305293  1
  Hf  Hf16  1  0.18589202  0.80989571  0.23116049  1
  Hf  Hf17  1  0.40184674  0.39934183  0.50933678  1
  Hf  Hf18  1  0.59954365  0.60111767  -0.01696696  1
  Hf  Hf19  1  0.88055326  0.88240325  0.13211867  1
  Hf  Hf20  1  0.80571611  0.20135673  0.50410759  1
  Hf  Hf21  1  0.19996217  0.59781528  0.51549076  1
  Hf  Hf22  1  0.79549098  0.81348672  0.74407135  1
  Hf  Hf23  1  0.29926605  0.49409608  0.36480882  1
  Hf  Hf24  1  0.89163778  0.88570438  0.37883529  1
  Hf  Hf25  1  0.48560585  0.91520294  0.61278983  1
  Hf  Hf26  1  0.40291679  0.77882096  0.24820273  1
  Hf  Hf27  1  0.70990680  0.09375544  0.86321150  1
  Hf  Hf28  1  0.49742531  0.69057177  0.63884122  1
  Hf  Hf29  1  0.20598585  0.58227080  0.73766403  1
  Hf  Hf30  1  0.70516305  0.29812543  0.11556956  1
  Hf  Hf31  1  0.12670754  0.90533843  0.64148659  1
  Hf  Hf32  1  0.49129607  0.30599713  0.87061881  1
  Hf  Hf33  1  0.88072739  0.49383208  0.63727263  1
  Hf  Hf34  1  0.49680044  0.89452902  0.38822894  1
  Hf  Hf35  1  0.30180326  0.49466287  0.13817514  1
  Hf  Hf36  1  0.00771952  0.40207054  0.26531506  1
  Hf  Hf37  1  0.30080155  0.29969094  0.13161405  1
  Hf  Hf38  1  0.31788454  0.10589694  0.11309622  1
  Hf  Hf39  1  0.10049818  0.30654109  0.12443399  1
  Zr  Zr40  1  0.59043656  0.01162035  0.73922183  1
  Zr  Zr41  1  0.49871602  0.90634720  0.11565987  1
  Zr  Zr42  1  0.18365758  0.00545751  0.01951834  1
  Zr  Zr43  1  0.59656061  0.80839639  0.74551614  1
  Zr  Zr44  1  0.69742275  0.11890303  0.38390183  1
  Zr  Zr45  1  0.59009904  0.01616498  0.25878091  1
  Zr  Zr46  1  0.20118124  0.80710853  0.49579763  1
  Zr  Zr47  1  0.79308047  0.59881736  0.50354145  1
  Zr  Zr48  1  0.19598219  0.38971398  0.49745406  1
  Zr  Zr49  1  0.89643446  0.10210653  0.13806557  1
  Zr  Zr50  1  0.09623423  0.51893546  0.37944457  1
  Zr  Zr51  1  0.30573728  0.89664670  0.11888258  1
  Zr  Zr52  1  0.30805808  0.69487934  0.37737733  1
  Zr  Zr53  1  0.50595901  0.11509094  0.88506523  1
  Zr  Zr54  1  0.20160420  0.61045613  0.23450819  1
  Zr  Zr55  1  -0.01271210  0.01018135  0.74479577  1
  Zr  Zr56  1  0.49277860  0.90997153  0.88562247  1
  Zr  Zr57  1  -0.00208131  0.60087936  0.23143863  1
  Zr  Zr58  1  0.29183286  0.90395921  0.89190664  1
  Zr  Zr59  1  0.49968412  0.50386109  0.37900061  1
  Zr  Zr60  1  0.60104831  0.40216110  -0.01466432  1
  Zr  Zr61  1  -0.00576778  0.80271108  0.74581197  1
  Zr  Zr62  1  0.00389565  0.79494236  0.51399055  1
  Zr  Zr63  1  0.09695277  0.69137157  0.86630497  1
  Zr  Zr64  1  0.50017402  0.49809562  0.12796821  1
  Zr  Zr65  1  0.09660386  0.90196799  0.86991892  1
  Zr  Zr66  1  0.01176084  0.58471101  0.00392369  1
  Zr  Zr67  1  0.60400606  0.81414748  0.25729600  1
  Zr  Zr68  1  0.80631214  0.60944445  -0.01287207  1
  Zr  Zr69  1  0.81246171  0.19217837  0.74894394  1
  Zr  Zr70  1  0.00477986  -0.00000902  0.49990644  1
  Zr  Zr71  1  0.10646825  0.28799924  0.62937913  1
  Zr  Zr72  1  0.02498944  0.19077215  0.26739274  1
  Zr  Zr73  1  0.29228916  0.69809320  0.87001940  1
  Zr  Zr74  1  0.90381090  0.29419819  0.12409639  1
  Zr  Zr75  1  0.38758712  0.81946388  0.74955561  1
  Zr  Zr76  1  0.90883332  0.68582672  0.38160335  1
  Zr  Zr77  1  0.60022411  0.40078978  0.25251881  1
  Zr  Zr78  1  0.71263480  0.71421883  0.13114887  1
  Zr  Zr79  1  0.80964027  0.39927092  -0.01904804  1
  Ta  Ta80  1  0.18554095  0.78947790  0.01718715  1
  Ta  Ta81  1  0.40002870  0.59211415  -0.00587871  1
  Ta  Ta82  1  0.88813759  0.28698530  0.36564895  1
  Ta  Ta83  1  0.70252264  0.30202337  0.63558324  1
  Ta  Ta84  1  0.49972546  0.29109301  0.11317595  1
  Ta  Ta85  1  0.19360720  0.41108036  -0.00129999  1
  Ta  Ta86  1  0.30992414  0.28652587  0.37504092  1
  Ta  Ta87  1  0.70084787  0.10054006  0.62089409  1
  Ta  Ta88  1  0.79740199  -0.00524949  0.00072680  1
  Ta  Ta89  1  0.29720861  0.09212667  0.62526413  1
  Ta  Ta90  1  0.09280603  0.48654035  0.63148943  1
  Ta  Ta91  1  0.90722446  0.48882087  0.11856886  1
  Ta  Ta92  1  0.09526070  0.10680204  0.87724586  1
  Ta  Ta93  1  0.40687828  0.20521700  0.74011672  1
  Ta  Ta94  1  0.69705368  0.91395023  0.12573745  1
  Ta  Ta95  1  0.51065951  0.30801863  0.62420747  1
  Ta  Ta96  1  0.40515473  0.38302715  0.25864119  1
  Ta  Ta97  1  0.40162516  0.59996651  0.51416568  1
  Ta  Ta98  1  0.39919787  -0.00741957  0.26202654  1
  Ta  Ta99  1  0.38489765  0.01329431  0.48627935  1
  Ta  Ta100  1  0.59121353  0.61461276  0.25693351  1
  Ta  Ta101  1  0.70204561  0.68551415  0.64007947  1
  Ta  Ta102  1  0.21528261  0.18439648  0.49083968  1
  Ta  Ta103  1  -0.00193273  0.39433949  0.75135163  1
  Ta  Ta104  1  0.60811871  0.21055643  0.24941653  1
  Ta  Ta105  1  0.70105686  0.10590565  0.12579968  1
  Ta  Ta106  1  0.70447490  0.91052974  0.39999942  1
  Ta  Ta107  1  0.80703916  0.18604056  -0.01107609  1
  Ta  Ta108  1  0.20980508  0.18761638  0.75417107  1
  Ta  Ta109  1  0.89117185  0.69708045  0.63263366  1
  Ta  Ta110  1  0.90397132  0.29996969  0.62651543  1
  Ta  Ta111  1  0.51486939  0.28624887  0.39587446  1
  Ta  Ta112  1  0.30190721  0.49239075  0.86953482  1
  Ta  Ta113  1  0.49206353  0.69552980  0.86545302  1
  Ta  Ta114  1  0.19847091  0.21078030  -0.00227709  1
  Ta  Ta115  1  -0.00130012  0.59505875  0.52100576  1
  Ta  Ta116  1  0.61222044  0.00933755  -0.00055155  1
  Ta  Ta117  1  0.59036503  0.58657695  0.75923795  1
  Ta  Ta118  1  0.20864315  0.59771787  0.01162988  1
  Ta  Ta119  1  0.39001139  0.40009926  -0.00413913  1
  Ti  Ti120  1  0.00399749  0.19901352  0.74894162  1
  Ti  Ti121  1  -0.00825987  0.59186083  0.74308396  1
  Ti  Ti122  1  0.10796831  0.09867873  0.62754518  1
  Ti  Ti123  1  0.80251156  0.39252039  0.76196504  1
  Ti  Ti124  1  0.49899047  0.69270716  0.12011903  1
  Ti  Ti125  1  0.69549540  0.28740819  0.86808825  1
  Ti  Ti126  1  0.70063788  0.50734472  0.37170017  1
  Ti  Ti127  1  0.19923034  0.00046750  0.48950527  1
  Ti  Ti128  1  0.90124181  0.09988207  0.61717648  1
  Ti  Ti129  1  0.91037312  0.49698663  0.86613316  1
  Ti  Ti130  1  0.38447123  0.01447816  0.74969980  1
  Ti  Ti131  1  0.70533319  0.50181038  0.86082877  1
  Ti  Ti132  1  0.30357460  0.29347893  0.62879124  1
  Ti  Ti133  1  0.59358329  0.01746148  0.49854202  1
  Ti  Ti134  1  0.29953359  0.30468024  0.86631476  1
  Ti  Ti135  1  0.70131290  0.90720996  0.60792425  1
  Ti  Ti136  1  0.80539580  0.60607791  0.25183116  1
  Ti  Ti137  1  0.89314469  0.69917254  0.85890743  1
  Ti  Ti138  1  0.59589883  0.39572550  0.75702881  1
  Ti  Ti139  1  0.10077900  0.70919853  0.37493987  1
  Ti  Ti140  1  0.79401964  0.80426052  -0.01607482  1
  Ti  Ti141  1  0.69610254  0.90514733  0.86920148  1
  Ti  Ti142  1  0.09678112  0.90017688  0.37020642  1
  Ti  Ti143  1  0.69888297  0.70126287  0.85671364  1
  Ti  Ti144  1  0.68307445  0.49198377  0.63629727  1
  Ti  Ti145  1  0.09532109  0.69734885  0.63956195  1
  Ti  Ti146  1  0.88627299  0.91640655  0.86972785  1
  Ti  Ti147  1  -0.00773923  0.78697538  0.23689217  1
  Ti  Ti148  1  0.39455569  0.79868465  0.50248239  1
  Ti  Ti149  1  0.88821036  0.90575224  0.61331521  1
  Ti  Ti150  1  0.39671337  0.41652624  0.73588530  1
  Ti  Ti151  1  0.51013339  0.10754218  0.10639182  1
  Ti  Ti152  1  0.29179266  0.89997619  0.36632511  1
  Ti  Ti153  1  0.59615837  0.58727021  0.50678174  1
  Ti  Ti154  1  0.39570013  0.78397294  0.00285091  1
  Ti  Ti155  1  0.78804188  -0.00272261  0.25833708  1
  Ti  Ti156  1  0.49541939  0.11682828  0.61227415  1
  Ti  Ti157  1  0.10590317  0.49357491  0.86339677  1
  Ti  Ti158  1  0.91284678  0.28593319  0.88005578  1
  Ti  Ti159  1  0.89741585  0.08819843  0.37081882  1
  Mo  Mo160  1  0.59903198  0.20793311  0.73563227  1
  Mo  Mo161  1  0.40024434  0.59682965  0.74958839  1
  Mo  Mo162  1  0.90529234  0.09778685  0.87775508  1
  Mo  Mo163  1  0.79709830  0.59716937  0.75886465  1
  Mo  Mo164  1  0.10388999  0.48848333  0.12333731  1
  Mo  Mo165  1  0.30216700  0.49524352  0.62584818  1
  Mo  Mo166  1  0.49644563  0.10594147  0.38841585  1
  Mo  Mo167  1  0.39768166  0.20286940  0.51138766  1
  Mo  Mo168  1  0.60473331  0.40521799  0.50352669  1
  Mo  Mo169  1  0.89345324  0.50050589  0.37583892  1
  Mo  Mo170  1  0.30493945  0.91509180  0.61787436  1
  Mo  Mo171  1  0.79632697  -0.00424204  0.73541235  1
  Mo  Mo172  1  0.41308913  0.59381675  0.24815783  1
  Mo  Mo173  1  0.21526903  0.20980033  0.25776677  1
  Mo  Mo174  1  0.48973221  0.50007823  0.86987237  1
  Mo  Mo175  1  0.09442962  0.69895421  0.11628341  1
  Mo  Mo176  1  0.69702051  0.30610954  0.37392980  1
  Mo  Mo177  1  0.80028666  0.00274815  0.50072934  1
  Mo  Mo178  1  0.50519641  0.49821851  0.62653422  1
  Mo  Mo179  1  0.20582596  0.00994590  0.75864976  1
  Mo  Mo180  1  0.40802810  0.00107023  0.00209272  1
  Mo  Mo181  1  0.40233197  0.21458726  -0.00037909  1
  Mo  Mo182  1  0.79801964  0.19414881  0.25629246  1
  Mo  Mo183  1  0.10279809  0.11689758  0.11913900  1
  Mo  Mo184  1  0.80207822  0.80715410  0.25865072  1
  Mo  Mo185  1  0.20156873  0.38753545  0.26316741  1
  Mo  Mo186  1  0.88806517  0.68759452  0.12246345  1
  Mo  Mo187  1  0.60412450  0.21148213  0.51619869  1
  Mo  Mo188  1  0.20761269  0.38917583  0.74468488  1
  Mo  Mo189  1  0.00744577  0.19834416  -0.00307015  1
  Mo  Mo190  1  0.31062838  0.69506177  0.11432991  1
  Mo  Mo191  1  0.61340993  0.20297236  -0.00031289  1
  Mo  Mo192  1  0.10943012  0.09065467  0.37827883  1
  Mo  Mo193  1  0.50138874  0.69448017  0.38928786  1
  Mo  Mo194  1  0.08534602  0.89974118  0.12485963  1
  Mo  Mo195  1  0.30272656  0.09463291  0.37173675  1
  Mo  Mo196  1  0.19625936  0.80160002  0.75294961  1
  Mo  Mo197  1  0.79435697  0.79864944  0.52046739  1
  Mo  Mo198  1  0.11266346  0.30171818  0.37718449  1
  Mo  Mo199  1  0.00310975  0.39812807  -0.01229717  1
