# generated using pymatgen
data_HfZrTaTiMo
_symmetry_space_group_name_H-M   'P 1'
_cell_length_a   15.18304360
_cell_length_b   15.20093339
_cell_length_c   16.79296401
_cell_angle_alpha   89.97136143
_cell_angle_beta   89.91904866
_cell_angle_gamma   89.94809004
_symmetry_Int_Tables_number   1
_chemical_formula_structural   HfZrTaTiMo
_chemical_formula_sum   'Hf40 Zr40 Ta40 Ti40 Mo40'
_cell_volume   3875.75027695
_cell_formula_units_Z   40
loop_
 _symmetry_equiv_pos_site_id
 _symmetry_equiv_pos_as_xyz
  1  'x, y, z'
loop_
 _atom_site_type_symbol
 _atom_site_label
 _atom_site_symmetry_multiplicity
 _atom_site_fract_x
 _atom_site_fract_y
 _atom_site_fract_z
 _atom_site_occupancy
  Hf  Hf0  1  0.29568350  0.29976352  0.62524246  1
  Hf  Hf1  1  -0.00360558  0.60709974  0.47476964  1
  Hf  Hf2  1  0.89746308  0.29708347  0.63658918  1
  Hf  Hf3  1  0.39663810  0.39054852  0.75299449  1
  Hf  Hf4  1  0.40807455  0.59729376  0.25322380  1
  Hf  Hf5  1  0.52252470  0.29987261  0.36839643  1
  Hf  Hf6  1  0.09536677  0.29670863  0.63640683  1
  Hf  Hf7  1  0.80204081  0.79675562  0.26701523  1
  Hf  Hf8  1  0.40315587  0.39422360  0.49515776  1
  Hf  Hf9  1  0.70259955  0.31838849  0.64665369  1
  Hf  Hf10  1  -0.00896691  0.79907478  -0.01144538  1
  Hf  Hf11  1  0.51265310  0.08906760  0.85559812  1
  Hf  Hf12  1  0.59493827  0.19643115  -0.00068087  1
  Hf  Hf13  1  -0.01227381  0.40061381  0.77158979  1
  Hf  Hf14  1  -0.01277243  0.81509336  0.48714131  1
  Hf  Hf15  1  0.20084374  0.60231900  0.48947374  1
  Hf  Hf16  1  -0.00470374  0.79353047  0.76235338  1
  Hf  Hf17  1  0.90300108  0.10535349  0.64805095  1
  Hf  Hf18  1  0.40703644  0.19475379  0.49443395  1
  Hf  Hf19  1  0.29063836  0.89068777  0.12342303  1
  Hf  Hf20  1  0.09507271  0.12121428  0.37826722  1
  Hf  Hf21  1  0.69134018  0.91467418  0.38044160  1
  Hf  Hf22  1  0.90897935  0.90346590  0.63591105  1
  Hf  Hf23  1  0.19660792  0.79681871  -0.01011463  1
  Hf  Hf24  1  0.71227919  0.88649095  0.11591333  1
  Hf  Hf25  1  0.19791036  0.00014551  0.23944128  1
  Hf  Hf26  1  0.89752592  0.48628912  0.35950727  1
  Hf  Hf27  1  0.40396150  0.00671853  -0.00131359  1
  Hf  Hf28  1  0.49706352  0.90057927  0.38132627  1
  Hf  Hf29  1  0.19843718  0.00763300  -0.00154707  1
  Hf  Hf30  1  0.89351357  0.71468632  0.12033675  1
  Hf  Hf31  1  0.49806959  0.89140559  0.12399852  1
  Hf  Hf32  1  0.21655523  0.20321308  0.77246354  1
  Hf  Hf33  1  0.38316227  0.78848890  0.25172251  1
  Hf  Hf34  1  0.09288971  0.29519821  0.10752969  1
  Hf  Hf35  1  0.30127329  0.30697608  0.13097654  1
  Hf  Hf36  1  0.88373910  0.69704017  0.62061029  1
  Hf  Hf37  1  0.41038981  0.39785161  -0.00294295  1
  Hf  Hf38  1  0.50832318  0.27839674  0.63225962  1
  Hf  Hf39  1  0.69671365  0.48677985  0.12613016  1
  Zr  Zr40  1  0.39335398  -0.00465685  0.51951162  1
  Zr  Zr41  1  0.69203094  0.11134570  0.64859138  1
  Zr  Zr42  1  0.30168974  0.49944366  0.87332889  1
  Zr  Zr43  1  0.80250193  -0.00014705  -0.00629205  1
  Zr  Zr44  1  0.51338416  0.09514601  0.37609582  1
  Zr  Zr45  1  0.70321081  0.11295288  0.37487386  1
  Zr  Zr46  1  0.39913329  0.59957117  0.51593251  1
  Zr  Zr47  1  0.20506286  0.59954251  0.00407583  1
  Zr  Zr48  1  0.41386248  0.19367093  0.24634830  1
  Zr  Zr49  1  0.52458450  0.49185130  0.62237239  1
  Zr  Zr50  1  0.80761531  0.00268211  0.51110556  1
  Zr  Zr51  1  0.29934821  0.91103512  0.86015903  1
  Zr  Zr52  1  0.78524269  0.58879136  0.49085009  1
  Zr  Zr53  1  0.40307471  0.79288119  -0.01134404  1
  Zr  Zr54  1  0.19303037  0.80435597  0.51461074  1
  Zr  Zr55  1  0.07504137  0.90997775  0.11385246  1
  Zr  Zr56  1  0.78546399  0.79068832  0.75424205  1
  Zr  Zr57  1  0.89356728  0.49495768  0.62500984  1
  Zr  Zr58  1  -0.00303355  0.02745684  0.24305200  1
  Zr  Zr59  1  0.20122602  0.40015143  0.49164803  1
  Zr  Zr60  1  0.08705286  0.70254035  0.62841124  1
  Zr  Zr61  1  0.68456658  0.69687483  0.88118875  1
  Zr  Zr62  1  0.09162521  0.92208809  0.37757177  1
  Zr  Zr63  1  -0.00588388  0.81339960  0.26025993  1
  Zr  Zr64  1  0.59977627  0.00109257  0.00687214  1
  Zr  Zr65  1  0.41458872  0.60150155  0.74198107  1
  Zr  Zr66  1  0.90364377  0.50182553  0.12841504  1
  Zr  Zr67  1  0.29699648  0.09415733  0.37223940  1
  Zr  Zr68  1  0.59023347  0.79952679  0.24971980  1
  Zr  Zr69  1  0.80418919  -0.00085099  0.23485647  1
  Zr  Zr70  1  0.29104262  0.88610091  0.37526149  1
  Zr  Zr71  1  0.68273730  0.68853890  0.37450104  1
  Zr  Zr72  1  0.00153010  0.39555553  0.49133331  1
  Zr  Zr73  1  0.10314912  0.09787925  0.64278813  1
  Zr  Zr74  1  0.69177619  0.69041341  0.11799770  1
  Zr  Zr75  1  0.09871139  0.49835316  0.62953583  1
  Zr  Zr76  1  0.39421660  0.79880952  0.52472774  1
  Zr  Zr77  1  0.92424283  0.10712889  0.09700846  1
  Zr  Zr78  1  0.67795014  0.31195279  0.87150854  1
  Zr  Zr79  1  0.21313767  0.61136216  0.25399914  1
  Ta  Ta80  1  0.19433129  0.60000865  0.75306588  1
  Ta  Ta81  1  0.52080228  0.49370084  0.87005716  1
  Ta  Ta82  1  0.51440055  0.30515203  0.13206893  1
  Ta  Ta83  1  0.40962029  0.40554019  0.25591640  1
  Ta  Ta84  1  0.69534709  0.47976765  0.36033924  1
  Ta  Ta85  1  0.30193219  0.70316159  0.85740217  1
  Ta  Ta86  1  0.79499064  0.79752467  0.49037632  1
  Ta  Ta87  1  0.59388756  0.58848047  0.24887929  1
  Ta  Ta88  1  0.30034358  0.10416482  0.12683046  1
  Ta  Ta89  1  0.09985377  0.70252475  0.13206360  1
  Ta  Ta90  1  0.89016322  0.89698479  0.87446936  1
  Ta  Ta91  1  0.90094679  0.09442914  0.38073063  1
  Ta  Ta92  1  0.18722702  0.00826157  0.51291720  1
  Ta  Ta93  1  -0.00182823  0.61057558  0.25647927  1
  Ta  Ta94  1  0.00147035  0.20184900  0.78138831  1
  Ta  Ta95  1  0.29472502  0.29927640  0.35946356  1
  Ta  Ta96  1  0.90354495  0.28045261  0.37140606  1
  Ta  Ta97  1  0.80288697  0.37607280  0.24272535  1
  Ta  Ta98  1  0.79850793  0.40858722  -0.01441208  1
  Ta  Ta99  1  0.70814471  0.29480399  0.11287436  1
  Ta  Ta100  1  0.40532724  -0.00557752  0.24113633  1
  Ta  Ta101  1  0.09348425  0.50424823  0.88073494  1
  Ta  Ta102  1  0.39795334  0.00724755  0.73798859  1
  Ta  Ta103  1  0.18360017  0.20373528  0.24022946  1
  Ta  Ta104  1  0.10522373  0.49584304  0.35074140  1
  Ta  Ta105  1  0.79825845  0.38671544  0.49364214  1
  Ta  Ta106  1  0.60057887  0.01904790  0.22709534  1
  Ta  Ta107  1  0.51180079  0.50322855  0.38531515  1
  Ta  Ta108  1  0.70012972  0.88900453  0.62895970  1
  Ta  Ta109  1  0.10668231  0.49854922  0.14010315  1
  Ta  Ta110  1  -0.00598161  0.19232021  0.50631897  1
  Ta  Ta111  1  0.59774954  0.00949624  0.52224223  1
  Ta  Ta112  1  0.10060316  0.69340055  0.87124583  1
  Ta  Ta113  1  0.59914628  0.79369263  0.51202676  1
  Ta  Ta114  1  0.89941299  0.30432312  0.09823620  1
  Ta  Ta115  1  0.10468732  0.30812742  0.89321684  1
  Ta  Ta116  1  0.79901546  0.20046579  -0.02093847  1
  Ta  Ta117  1  0.68542954  0.90655993  0.86786418  1
  Ta  Ta118  1  0.48795480  0.69726471  0.38726182  1
  Ta  Ta119  1  0.00992585  -0.00569235  0.77334121  1
  Ti  Ti120  1  0.71170158  0.29535872  0.36723589  1
  Ti  Ti121  1  0.30538355  0.49927290  0.12908936  1
  Ti  Ti122  1  0.50011352  0.49621737  0.12225498  1
  Ti  Ti123  1  0.81535610  0.19196323  0.23487668  1
  Ti  Ti124  1  0.79821361  0.59773459  0.25361210  1
  Ti  Ti125  1  0.40610332  0.60102656  -0.01093469  1
  Ti  Ti126  1  0.00276031  0.38584622  0.24249977  1
  Ti  Ti127  1  0.18690720  0.80917160  0.75223297  1
  Ti  Ti128  1  0.61733734  0.39399607  0.50038649  1
  Ti  Ti129  1  0.00567700  0.59521067  0.00565771  1
  Ti  Ti130  1  0.29034802  0.69764374  0.64228172  1
  Ti  Ti131  1  0.30298052  0.69429762  0.11854257  1
  Ti  Ti132  1  0.79343954  0.41705580  0.77526379  1
  Ti  Ti133  1  0.11245695  0.71310381  0.36531984  1
  Ti  Ti134  1  0.89564301  0.68755748  0.88132385  1
  Ti  Ti135  1  0.50774626  0.90072354  0.63878783  1
  Ti  Ti136  1  0.21399433  0.20213236  -0.00912273  1
  Ti  Ti137  1  0.09940505  0.30614957  0.36495558  1
  Ti  Ti138  1  0.80084790  0.60204710  -0.00186011  1
  Ti  Ti139  1  0.19337329  0.40199215  0.76177591  1
  Ti  Ti140  1  0.48543574  0.28949838  0.86664994  1
  Ti  Ti141  1  0.59374585  0.79581370  -0.00584344  1
  Ti  Ti142  1  0.29351414  0.49702983  0.63162225  1
  Ti  Ti143  1  0.61572217  0.59955887  0.74519610  1
  Ti  Ti144  1  0.27913724  0.90986317  0.64320880  1
  Ti  Ti145  1  0.79849643  0.00167058  0.76301443  1
  Ti  Ti146  1  0.80515456  0.20893074  0.78033386  1
  Ti  Ti147  1  0.30305161  0.10847401  0.62995482  1
  Ti  Ti148  1  0.49786321  0.68974790  0.11924221  1
  Ti  Ti149  1  -0.00684865  0.59585978  0.75729368  1
  Ti  Ti150  1  0.80089767  0.59474775  0.75552338  1
  Ti  Ti151  1  0.50342648  0.88283337  0.85426668  1
  Ti  Ti152  1  0.20206172  0.40698074  0.00199766  1
  Ti  Ti153  1  0.59281937  0.58544564  -0.00310758  1
  Ti  Ti154  1  0.19846646  0.20498381  0.49950275  1
  Ti  Ti155  1  0.40134103  0.19871523  0.00337787  1
  Ti  Ti156  1  0.40293724  0.79695258  0.73970015  1
  Ti  Ti157  1  0.30582949  0.49832110  0.37140732  1
  Ti  Ti158  1  0.11043763  0.09582907  0.87678272  1
  Ti  Ti159  1  0.79386135  0.20322649  0.50735279  1
  Mo  Mo160  1  0.18967843  0.79803743  0.24291768  1
  Mo  Mo161  1  0.00726369  0.20004691  -0.02346428  1
  Mo  Mo162  1  0.39930737  0.19626610  0.75208800  1
  Mo  Mo163  1  0.59606022  0.40025837  0.00352635  1
  Mo  Mo164  1  0.49956713  0.09585798  0.63344428  1
  Mo  Mo165  1  0.00106031  0.01122956  0.50869110  1
  Mo  Mo166  1  0.11436369  0.11293076  0.11110005  1
  Mo  Mo167  1  0.60318837  0.39741633  0.24683914  1
  Mo  Mo168  1  0.20558140  0.39972184  0.24799951  1
  Mo  Mo169  1  0.89984887  0.30718915  0.89347238  1
  Mo  Mo170  1  0.09927451  0.89708089  0.87746167  1
  Mo  Mo171  1  0.61723134  0.21156389  0.50295739  1
  Mo  Mo172  1  -0.01009047  0.21444734  0.24247004  1
  Mo  Mo173  1  0.89753357  0.89670940  0.11204049  1
  Mo  Mo174  1  0.69333596  0.69063853  0.62099507  1
  Mo  Mo175  1  0.09553597  0.90631720  0.63309834  1
  Mo  Mo176  1  0.30214791  0.69627279  0.38297339  1
  Mo  Mo177  1  0.70200531  0.50943752  0.88087055  1
  Mo  Mo178  1  0.59870889  0.59209478  0.49873725  1
  Mo  Mo179  1  0.59609973  0.41054335  0.75126398  1
  Mo  Mo180  1  0.79127480  0.79647769  -0.01756812  1
  Mo  Mo181  1  0.70328136  0.09776869  0.85962152  1
  Mo  Mo182  1  0.90066712  0.51365412  0.88537484  1
  Mo  Mo183  1  0.88740064  0.91124311  0.38162277  1
  Mo  Mo184  1  0.49698572  0.10614869  0.12618480  1
  Mo  Mo185  1  0.00421401  0.41262841  -0.00049129  1
  Mo  Mo186  1  0.51276001  0.70423879  0.62682116  1
  Mo  Mo187  1  0.31520769  0.10899190  0.87768941  1
  Mo  Mo188  1  0.90270074  0.09940458  0.87247941  1
  Mo  Mo189  1  0.62668782  0.20679936  0.23457806  1
  Mo  Mo190  1  0.60571097  -0.01429750  0.73926047  1
  Mo  Mo191  1  0.58932540  0.78885515  0.74313531  1
  Mo  Mo192  1  0.00467983  0.00076397  -0.02757283  1
  Mo  Mo193  1  0.30128144  0.30193786  0.88890036  1
  Mo  Mo194  1  0.71503329  0.50120814  0.62887120  1
  Mo  Mo195  1  0.49272488  0.69118320  0.87341113  1
  Mo  Mo196  1  0.59894261  0.20124798  0.76040751  1
  Mo  Mo197  1  0.89636640  0.69696020  0.37391335  1
  Mo  Mo198  1  0.20265549  0.00347215  0.75466527  1
  Mo  Mo199  1  0.70616183  0.11227285  0.12024792  1
