# generated using pymatgen
data_HfZrTaTiMo
_symmetry_space_group_name_H-M   'P 1'
_cell_length_a   15.21305510
_cell_length_b   15.21127273
_cell_length_c   16.84599272
_cell_angle_alpha   90.06413851
_cell_angle_beta   89.99187546
_cell_angle_gamma   90.03092136
_symmetry_Int_Tables_number   1
_chemical_formula_structural   HfZrTaTiMo
_chemical_formula_sum   'Hf40 Zr40 Ta40 Ti40 Mo40'
_cell_volume   3898.32694864
_cell_formula_units_Z   40
loop_
 _symmetry_equiv_pos_site_id
 _symmetry_equiv_pos_as_xyz
  1  'x, y, z'
loop_
 _atom_site_type_symbol
 _atom_site_label
 _atom_site_symmetry_multiplicity
 _atom_site_fract_x
 _atom_site_fract_y
 _atom_site_fract_z
 _atom_site_occupancy
  Hf  Hf0  1  0.79318525  0.38704066  0.25986630  1
  Hf  Hf1  1  0.19960064  0.80588413  0.00086993  1
  Hf  Hf2  1  0.20698866  0.59607022  0.49200403  1
  Hf  Hf3  1  0.69578673  0.69313102  0.62254616  1
  Hf  Hf4  1  0.89391470  0.09406634  0.11300160  1
  Hf  Hf5  1  0.31304543  0.09513224  0.12146045  1
  Hf  Hf6  1  0.27952388  0.70784389  0.13512888  1
  Hf  Hf7  1  0.19721407  0.79805179  0.48348068  1
  Hf  Hf8  1  0.71874456  0.28979520  0.85281165  1
  Hf  Hf9  1  0.40041584  0.39969527  -0.00729589  1
  Hf  Hf10  1  0.40505108  0.79041233  0.49059427  1
  Hf  Hf11  1  -0.00407707  0.21502860  -0.00192919  1
  Hf  Hf12  1  0.50584272  0.10114329  0.37662164  1
  Hf  Hf13  1  0.80245262  0.79440183  0.76342363  1
  Hf  Hf14  1  0.70237849  0.47919737  0.11856420  1
  Hf  Hf15  1  0.09512895  0.31728679  0.87486017  1
  Hf  Hf16  1  0.20461583  0.40356976  0.72878579  1
  Hf  Hf17  1  -0.00974132  0.21600279  0.73556281  1
  Hf  Hf18  1  0.89715125  0.71417611  0.61196186  1
  Hf  Hf19  1  0.20035466  -0.02093356  0.23893579  1
  Hf  Hf20  1  0.29776547  0.69543585  0.63154689  1
  Hf  Hf21  1  0.69005944  0.70493017  0.36965794  1
  Hf  Hf22  1  0.40953616  0.58848396  0.50448381  1
  Hf  Hf23  1  0.41013841  0.19469966  -0.02069108  1
  Hf  Hf24  1  0.71200255  0.90729089  0.36499906  1
  Hf  Hf25  1  0.70696740  0.49190298  0.87704386  1
  Hf  Hf26  1  0.30461171  0.30759041  0.12533949  1
  Hf  Hf27  1  0.01306421  0.41751498  0.72538182  1
  Hf  Hf28  1  0.19705258  -0.00384916  0.49737423  1
  Hf  Hf29  1  -0.00729882  0.62099676  0.74362500  1
  Hf  Hf30  1  -0.01110429  0.20793427  0.25008938  1
  Hf  Hf31  1  0.60589049  0.00597593  0.23500576  1
  Hf  Hf32  1  0.37621340  0.60249600  -0.00590740  1
  Hf  Hf33  1  0.19890274  0.20610683  0.00196084  1
  Hf  Hf34  1  0.59788059  -0.01668415  0.77590647  1
  Hf  Hf35  1  0.48894367  0.67584133  0.35744120  1
  Hf  Hf36  1  0.39217511  0.19340888  0.76339025  1
  Hf  Hf37  1  0.09388255  0.32687444  0.12821471  1
  Hf  Hf38  1  0.09582506  0.10420088  0.37929174  1
  Hf  Hf39  1  0.49660097  0.29964448  0.63781533  1
  Zr  Zr40  1  0.19589441  0.20823527  0.24749182  1
  Zr  Zr41  1  0.81203091  0.39217597  0.72564492  1
  Zr  Zr42  1  0.60384799  0.20530486  0.51643434  1
  Zr  Zr43  1  0.50570072  0.70257124  0.63605088  1
  Zr  Zr44  1  0.78373957  0.59661234  0.48652050  1
  Zr  Zr45  1  0.09491650  0.10115626  0.12635899  1
  Zr  Zr46  1  0.29290130  0.30780539  0.87123156  1
  Zr  Zr47  1  0.59772568  0.58671724  0.23538847  1
  Zr  Zr48  1  0.39967891  -0.00533211  0.49508338  1
  Zr  Zr49  1  0.88484968  0.90809427  0.62617058  1
  Zr  Zr50  1  0.60727242  0.41978889  0.52102843  1
  Zr  Zr51  1  0.61303048  -0.01885271  0.50354316  1
  Zr  Zr52  1  0.30101725  0.09857101  0.36618854  1
  Zr  Zr53  1  0.89890511  0.51200426  0.60363773  1
  Zr  Zr54  1  0.48677444  0.69610265  0.11462777  1
  Zr  Zr55  1  0.81985859  0.58566336  0.00839914  1
  Zr  Zr56  1  0.89538645  0.09697108  0.37604057  1
  Zr  Zr57  1  0.49570424  0.08968254  0.63283022  1
  Zr  Zr58  1  0.88395164  0.10479053  0.87704617  1
  Zr  Zr59  1  0.62370986  0.21238845  0.25242380  1
  Zr  Zr60  1  0.50372773  0.89042028  0.63316454  1
  Zr  Zr61  1  0.70939314  0.10796569  0.38405005  1
  Zr  Zr62  1  0.30145449  0.89798926  0.63570189  1
  Zr  Zr63  1  0.61089181  0.21041774  -0.02610115  1
  Zr  Zr64  1  0.10556796  0.11048769  0.61586969  1
  Zr  Zr65  1  0.71091890  0.07647693  0.64356792  1
  Zr  Zr66  1  0.18063672  0.79743106  0.75131844  1
  Zr  Zr67  1  -0.00036430  0.00163833  0.74789565  1
  Zr  Zr68  1  0.51114790  0.88647521  0.36732059  1
  Zr  Zr69  1  0.90942574  0.89109452  0.88479695  1
  Zr  Zr70  1  0.17061369  0.60646885  0.00422996  1
  Zr  Zr71  1  0.50185789  0.49482011  0.87486058  1
  Zr  Zr72  1  0.90423964  0.29950407  0.39866053  1
  Zr  Zr73  1  0.52013956  0.30597592  0.11647799  1
  Zr  Zr74  1  0.29765605  0.30833660  0.37895625  1
  Zr  Zr75  1  0.59899085  0.80341824  0.22271559  1
  Zr  Zr76  1  0.38995564  0.59830115  0.76089960  1
  Zr  Zr77  1  0.88284388  0.30418239  0.12472864  1
  Zr  Zr78  1  0.80784810  0.79608312  0.23696991  1
  Zr  Zr79  1  0.41615086  0.20361528  0.24921390  1
  Ta  Ta80  1  0.60652840  0.79742056  0.00087933  1
  Ta  Ta81  1  0.39710184  0.20258004  0.50088821  1
  Ta  Ta82  1  0.70669545  0.91382734  0.10455847  1
  Ta  Ta83  1  0.31381186  0.50768990  0.36609872  1
  Ta  Ta84  1  0.19352649  0.41619350  0.00603042  1
  Ta  Ta85  1  0.40758133  0.80205962  0.77685556  1
  Ta  Ta86  1  0.18440547  0.59303275  0.74076435  1
  Ta  Ta87  1  0.91420205  0.89194514  0.12251012  1
  Ta  Ta88  1  0.30198230  0.09969131  0.62741530  1
  Ta  Ta89  1  0.91609077  0.68153409  0.13933516  1
  Ta  Ta90  1  0.39896322  0.40029759  0.51174320  1
  Ta  Ta91  1  -0.00672667  0.60195342  0.27964062  1
  Ta  Ta92  1  0.80828428  0.19469213  0.52952725  1
  Ta  Ta93  1  0.09174872  0.70109479  0.60987362  1
  Ta  Ta94  1  0.90489753  0.90165048  0.36735014  1
  Ta  Ta95  1  0.40926276  -0.00874821  0.23880748  1
  Ta  Ta96  1  0.49110924  0.90258399  0.10152791  1
  Ta  Ta97  1  0.28896722  0.50504474  0.13518055  1
  Ta  Ta98  1  0.29388037  0.28702005  0.62101133  1
  Ta  Ta99  1  0.00191625  0.61014480  0.47620264  1
  Ta  Ta100  1  -0.01115296  0.00146698  0.50447763  1
  Ta  Ta101  1  -0.00211412  0.80714284  0.48108362  1
  Ta  Ta102  1  0.50652350  0.31388194  0.38541999  1
  Ta  Ta103  1  0.19920529  -0.00297608  0.00950245  1
  Ta  Ta104  1  0.70658770  0.11597650  0.11015443  1
  Ta  Ta105  1  0.28265251  0.09119225  0.87920294  1
  Ta  Ta106  1  0.81114952  0.79069158  0.01214708  1
  Ta  Ta107  1  0.38732133  0.80275929  0.24513053  1
  Ta  Ta108  1  0.39627159  -0.00661257  -0.01380048  1
  Ta  Ta109  1  0.00655595  0.78273463  0.01110211  1
  Ta  Ta110  1  0.19714242  0.41472482  0.25539995  1
  Ta  Ta111  1  0.51098840  0.09682676  0.11021759  1
  Ta  Ta112  1  0.10360608  0.90829479  0.87817728  1
  Ta  Ta113  1  -0.00791526  0.42786278  0.00620311  1
  Ta  Ta114  1  0.90827823  0.50291664  0.86794858  1
  Ta  Ta115  1  0.29357155  0.89883415  0.87303920  1
  Ta  Ta116  1  0.59940569  0.19132180  0.76022015  1
  Ta  Ta117  1  0.20106968  0.00729580  0.75022818  1
  Ta  Ta118  1  0.79641716  0.59680869  0.75279096  1
  Ta  Ta119  1  0.40710195  0.41038747  0.24851134  1
  Ti  Ti120  1  0.60686986  0.40317344  0.74242441  1
  Ti  Ti121  1  0.09367835  0.50973770  0.87307886  1
  Ti  Ti122  1  0.39849706  0.40109099  0.74823337  1
  Ti  Ti123  1  0.90512175  0.31255688  0.87197616  1
  Ti  Ti124  1  0.01747653  0.79783239  0.26162234  1
  Ti  Ti125  1  -0.00333796  0.40998419  0.26128438  1
  Ti  Ti126  1  0.09489778  0.10128236  0.87900787  1
  Ti  Ti127  1  0.19009483  0.20002261  0.75164285  1
  Ti  Ti128  1  0.20449768  0.40296449  0.51429338  1
  Ti  Ti129  1  0.79663834  0.38158946  -0.00547430  1
  Ti  Ti130  1  0.71302490  0.90210872  0.89733692  1
  Ti  Ti131  1  0.40093492  -0.00327536  0.77239892  1
  Ti  Ti132  1  0.79484697  0.80988198  0.49001879  1
  Ti  Ti133  1  0.59652030  0.39889718  0.25433274  1
  Ti  Ti134  1  0.69480058  0.88035705  0.63101400  1
  Ti  Ti135  1  0.49093319  0.49748862  0.11477469  1
  Ti  Ti136  1  0.50312994  0.51096725  0.64026370  1
  Ti  Ti137  1  0.60165033  0.59094719  0.00262439  1
  Ti  Ti138  1  0.80387435  0.58900085  0.25901899  1
  Ti  Ti139  1  0.80396573  0.00652857  0.23685799  1
  Ti  Ti140  1  0.10328051  0.48999900  0.38152353  1
  Ti  Ti141  1  0.30182113  0.89461575  0.36623404  1
  Ti  Ti142  1  0.00780705  -0.01010701  0.00386227  1
  Ti  Ti143  1  0.09076493  0.89375055  0.62237796  1
  Ti  Ti144  1  0.71070638  0.69467157  0.89071897  1
  Ti  Ti145  1  0.60605176  0.60440531  0.76363265  1
  Ti  Ti146  1  0.10026719  0.30355176  0.39486511  1
  Ti  Ti147  1  0.28083396  0.69920116  0.86984097  1
  Ti  Ti148  1  0.50186320  0.70006919  0.89073730  1
  Ti  Ti149  1  0.68089861  0.49601188  0.37616072  1
  Ti  Ti150  1  0.19320805  0.61372406  0.26839604  1
  Ti  Ti151  1  0.08420478  0.52555611  0.14249716  1
  Ti  Ti152  1  0.60179946  0.00891224  -0.01518019  1
  Ti  Ti153  1  0.28115648  0.50100957  0.87211775  1
  Ti  Ti154  1  0.07708449  0.70725773  0.87324536  1
  Ti  Ti155  1  0.60447323  0.79255174  0.77811139  1
  Ti  Ti156  1  0.89263268  0.48891209  0.39175217  1
  Ti  Ti157  1  0.70798199  0.30584934  0.39643323  1
  Ti  Ti158  1  0.70697339  0.69408154  0.11780482  1
  Ti  Ti159  1  0.00199260  -0.00964690  0.24543960  1
  Mo  Mo160  1  0.70025034  0.29323149  0.64205242  1
  Mo  Mo161  1  0.50700911  0.30514959  0.85161740  1
  Mo  Mo162  1  0.80700088  0.19252497  0.72970675  1
  Mo  Mo163  1  0.50248591  0.89047735  0.89750149  1
  Mo  Mo164  1  0.79283477  -0.01050923  0.76277077  1
  Mo  Mo165  1  -0.00321184  0.60185178  0.00215707  1
  Mo  Mo166  1  0.89263826  0.70567589  0.36980826  1
  Mo  Mo167  1  0.80634503  -0.00793143  0.49986467  1
  Mo  Mo168  1  0.90344434  0.09743705  0.62866099  1
  Mo  Mo169  1  0.60656109  0.78361408  0.49354855  1
  Mo  Mo170  1  0.69129705  0.50816689  0.63912563  1
  Mo  Mo171  1  0.69885610  0.29876515  0.11788042  1
  Mo  Mo172  1  0.09372213  0.91071973  0.37525397  1
  Mo  Mo173  1  0.70554197  0.08946361  0.86434094  1
  Mo  Mo174  1  0.09968714  0.89086635  0.12493306  1
  Mo  Mo175  1  0.00197613  0.80228774  0.74658234  1
  Mo  Mo176  1  0.10642117  0.51735000  0.60925651  1
  Mo  Mo177  1  0.79866066  0.19454560  0.25093342  1
  Mo  Mo178  1  0.90965681  0.49539773  0.14585236  1
  Mo  Mo179  1  0.79462567  0.39228330  0.51449577  1
  Mo  Mo180  1  0.89598058  0.69341570  0.87827241  1
  Mo  Mo181  1  0.30944104  0.89766144  0.11945646  1
  Mo  Mo182  1  0.30991561  0.49507237  0.62687283  1
  Mo  Mo183  1  0.00692100  0.20100252  0.50916311  1
  Mo  Mo184  1  0.80239284  0.20134963  -0.00890105  1
  Mo  Mo185  1  0.21066541  0.20271959  0.49672280  1
  Mo  Mo186  1  0.08903059  0.70749647  0.14415809  1
  Mo  Mo187  1  0.91038238  0.30351560  0.60225868  1
  Mo  Mo188  1  0.38794495  0.59151057  0.23818289  1
  Mo  Mo189  1  0.80222371  -0.00455375  0.00326080  1
  Mo  Mo190  1  0.49588720  0.09450291  0.87489297  1
  Mo  Mo191  1  0.01229063  0.41196026  0.50303210  1
  Mo  Mo192  1  0.10367718  0.30614553  0.60552983  1
  Mo  Mo193  1  0.60612681  0.40424670  -0.01216338  1
  Mo  Mo194  1  0.39369815  0.79462835  -0.01784460  1
  Mo  Mo195  1  0.19725157  0.80190609  0.26533582  1
  Mo  Mo196  1  0.30212889  0.70023000  0.36400851  1
  Mo  Mo197  1  0.49892271  0.48676650  0.37505850  1
  Mo  Mo198  1  0.59169959  0.60785689  0.49696483  1
  Mo  Mo199  1  0.10012527  0.70110194  0.37807488  1
