# generated using pymatgen
data_HfZrTaTiMo
_symmetry_space_group_name_H-M   'P 1'
_cell_length_a   15.20484946
_cell_length_b   15.20573502
_cell_length_c   16.87305169
_cell_angle_alpha   89.97263085
_cell_angle_beta   89.97579241
_cell_angle_gamma   90.09550064
_symmetry_Int_Tables_number   1
_chemical_formula_structural   HfZrTaTiMo
_chemical_formula_sum   'Hf40 Zr40 Ta40 Ti40 Mo40'
_cell_volume   3901.05872394
_cell_formula_units_Z   40
loop_
 _symmetry_equiv_pos_site_id
 _symmetry_equiv_pos_as_xyz
  1  'x, y, z'
loop_
 _atom_site_type_symbol
 _atom_site_label
 _atom_site_symmetry_multiplicity
 _atom_site_fract_x
 _atom_site_fract_y
 _atom_site_fract_z
 _atom_site_occupancy
  Hf  Hf0  1  0.59638393  0.20376805  0.76266292  1
  Hf  Hf1  1  0.29759137  0.07425707  0.12242888  1
  Hf  Hf2  1  0.19114320  0.39357088  0.24757834  1
  Hf  Hf3  1  -0.00248443  0.00347266  0.51743082  1
  Hf  Hf4  1  0.90014951  0.70163960  0.36866023  1
  Hf  Hf5  1  0.39426605  0.22351222  0.77383536  1
  Hf  Hf6  1  0.39463356  -0.01786460  0.25115963  1
  Hf  Hf7  1  0.20655414  0.58918276  0.50907746  1
  Hf  Hf8  1  0.61198682  0.80528902  0.73230704  1
  Hf  Hf9  1  0.39682325  0.79023725  0.50696522  1
  Hf  Hf10  1  0.39746194  0.01778674  0.76879542  1
  Hf  Hf11  1  0.80123975  0.19186955  0.24094917  1
  Hf  Hf12  1  0.39853050  0.40791714  0.23129105  1
  Hf  Hf13  1  0.78748137  -0.00812904  0.74071688  1
  Hf  Hf14  1  0.88846368  0.09895328  0.87137242  1
  Hf  Hf15  1  0.08640155  0.10071260  0.87199811  1
  Hf  Hf16  1  0.83173322  0.60927004  0.00368711  1
  Hf  Hf17  1  0.10702918  0.90489607  0.11905226  1
  Hf  Hf18  1  0.09425642  0.69473614  0.12994071  1
  Hf  Hf19  1  0.68990140  0.31257274  0.62536740  1
  Hf  Hf20  1  0.52165751  0.71599984  0.86725292  1
  Hf  Hf21  1  0.71932291  0.49807715  0.89198161  1
  Hf  Hf22  1  0.50444588  0.30823535  0.35311692  1
  Hf  Hf23  1  0.38918883  0.02453562  0.50012307  1
  Hf  Hf24  1  0.49156691  0.91101427  0.62310035  1
  Hf  Hf25  1  -0.00680556  0.20921177  0.74309535  1
  Hf  Hf26  1  0.47708241  0.31761166  0.62820604  1
  Hf  Hf27  1  0.61324402  0.62094323  0.00094867  1
  Hf  Hf28  1  0.60603783  0.79058419  0.50977591  1
  Hf  Hf29  1  0.41026499  0.58602067  0.51070671  1
  Hf  Hf30  1  0.30840058  0.71639759  0.12020453  1
  Hf  Hf31  1  0.50623500  0.50709322  0.88298081  1
  Hf  Hf32  1  0.60197607  0.20800882  0.49303560  1
  Hf  Hf33  1  0.39090573  0.19912047  -0.00064556  1
  Hf  Hf34  1  0.52801362  0.51030433  0.63654672  1
  Hf  Hf35  1  0.58421016  0.79040232  0.24886250  1
  Hf  Hf36  1  0.21169987  -0.01718943  -0.02408164  1
  Hf  Hf37  1  0.41538256  0.00532016  -0.02040348  1
  Hf  Hf38  1  0.21422593  0.80948082  0.25209741  1
  Hf  Hf39  1  0.08987031  0.90126526  0.38804607  1
  Zr  Zr40  1  0.60413832  0.00330354  0.51066656  1
  Zr  Zr41  1  0.70489975  0.09131689  0.36656744  1
  Zr  Zr42  1  0.89915288  0.31908268  0.12722494  1
  Zr  Zr43  1  0.20985620  0.59399494  0.24786733  1
  Zr  Zr44  1  0.12131107  0.30176231  0.62540674  1
  Zr  Zr45  1  0.28834154  0.90265652  0.39375887  1
  Zr  Zr46  1  0.39713781  0.80814537  -0.02014483  1
  Zr  Zr47  1  0.10568858  0.69954043  0.37440257  1
  Zr  Zr48  1  0.60457269  0.40006733  0.76628699  1
  Zr  Zr49  1  0.88865126  0.91025882  0.37113045  1
  Zr  Zr50  1  0.29336656  0.90959031  0.62832036  1
  Zr  Zr51  1  0.89350255  0.91106630  0.13406319  1
  Zr  Zr52  1  0.89408899  0.30760028  0.62396872  1
  Zr  Zr53  1  0.18084075  0.58203874  0.73781926  1
  Zr  Zr54  1  0.68723631  0.50630338  0.36397993  1
  Zr  Zr55  1  0.69465996  0.30700392  0.11812306  1
  Zr  Zr56  1  0.19615225  0.39793928  0.00750985  1
  Zr  Zr57  1  0.40566324  0.59966279  0.74745551  1
  Zr  Zr58  1  0.49849680  0.10598405  0.36027855  1
  Zr  Zr59  1  0.58739169  0.41292249  0.49229234  1
  Zr  Zr60  1  0.80235768  0.19933272  0.00028803  1
  Zr  Zr61  1  0.19240835  0.19217825  0.24080934  1
  Zr  Zr62  1  0.29827535  0.49020919  0.87478732  1
  Zr  Zr63  1  0.71321386  0.49871185  0.11893989  1
  Zr  Zr64  1  -0.00669298  -0.00281508  0.73932215  1
  Zr  Zr65  1  0.10096565  0.88369751  0.62436255  1
  Zr  Zr66  1  0.81148611  0.41130616  0.75480732  1
  Zr  Zr67  1  0.79451452  0.39781122  0.48335055  1
  Zr  Zr68  1  0.18573493  0.18878526  0.00224184  1
  Zr  Zr69  1  -0.00766901  0.00124552  -0.00276508  1
  Zr  Zr70  1  0.78969927  0.80011087  0.00811782  1
  Zr  Zr71  1  0.59506006  0.00774798  0.74381719  1
  Zr  Zr72  1  -0.00155809  0.40575301  0.48658460  1
  Zr  Zr73  1  -0.00264219  0.19837886  0.50993093  1
  Zr  Zr74  1  0.50667401  0.89650124  0.37981600  1
  Zr  Zr75  1  0.08364100  0.87636662  0.86842917  1
  Zr  Zr76  1  0.29088854  0.69457007  0.86637859  1
  Zr  Zr77  1  0.48536354  0.88777164  0.12384723  1
  Zr  Zr78  1  0.79853780  0.00916127  0.51606971  1
  Zr  Zr79  1  0.80099625  0.79531696  0.50463247  1
  Ta  Ta80  1  0.30625968  0.49570021  0.37267298  1
  Ta  Ta81  1  0.39519636  0.22167929  0.49319783  1
  Ta  Ta82  1  0.50811312  0.30614243  0.90127503  1
  Ta  Ta83  1  0.88233815  0.88457958  0.86832036  1
  Ta  Ta84  1  0.40264267  0.60412761  0.00375187  1
  Ta  Ta85  1  0.89571610  0.88602229  0.62815661  1
  Ta  Ta86  1  0.10662392  0.49577936  0.38188807  1
  Ta  Ta87  1  0.18834948  0.78736612  -0.00828084  1
  Ta  Ta88  1  0.50351408  0.68492100  0.37790049  1
  Ta  Ta89  1  0.20154988  -0.00349283  0.76391642  1
  Ta  Ta90  1  0.79530201  0.59389336  0.50274430  1
  Ta  Ta91  1  0.68764539  0.88926197  0.87745319  1
  Ta  Ta92  1  0.31282698  0.69101104  0.37653058  1
  Ta  Ta93  1  0.80005105  0.77687224  0.74033764  1
  Ta  Ta94  1  0.61867224  -0.00757856  0.23293599  1
  Ta  Ta95  1  0.50077311  0.30089319  0.11709422  1
  Ta  Ta96  1  0.51116193  0.50000213  0.11423512  1
  Ta  Ta97  1  0.90985999  0.50980816  0.13891937  1
  Ta  Ta98  1  0.78162952  0.81351793  0.25198200  1
  Ta  Ta99  1  0.89967673  0.70420649  0.14618233  1
  Ta  Ta100  1  0.90826078  0.10419552  0.37246854  1
  Ta  Ta101  1  0.31200549  0.47078330  0.63193657  1
  Ta  Ta102  1  0.40004713  0.40388927  0.01052435  1
  Ta  Ta103  1  0.10286360  0.09657996  0.38259400  1
  Ta  Ta104  1  -0.00490448  0.60895904  0.50461122  1
  Ta  Ta105  1  0.68903932  0.09118213  0.88336475  1
  Ta  Ta106  1  0.07994242  0.67283751  0.87640238  1
  Ta  Ta107  1  0.59463955  0.18093928  0.01058785  1
  Ta  Ta108  1  0.20202432  0.19421222  0.76595091  1
  Ta  Ta109  1  0.92717962  0.51754369  0.87436526  1
  Ta  Ta110  1  0.08088605  0.29146515  0.11979478  1
  Ta  Ta111  1  0.29621517  0.69838664  0.63399742  1
  Ta  Ta112  1  0.79859182  0.60502962  0.25157794  1
  Ta  Ta113  1  0.49042708  0.12331574  0.62478007  1
  Ta  Ta114  1  0.29592864  0.10823786  0.36743211  1
  Ta  Ta115  1  0.09290493  0.30752203  0.87705073  1
  Ta  Ta116  1  0.20931950  0.18987596  0.49805252  1
  Ta  Ta117  1  0.01549457  0.41401777  0.75186166  1
  Ta  Ta118  1  0.00404736  0.01586558  0.24842422  1
  Ta  Ta119  1  0.09198756  0.49150908  0.12944157  1
  Ti  Ti120  1  0.63969062  0.60699466  0.75662106  1
  Ti  Ti121  1  0.11262546  0.09636697  0.63253255  1
  Ti  Ti122  1  0.00220616  0.81034048  0.25004849  1
  Ti  Ti123  1  0.49089117  0.50404745  0.36209758  1
  Ti  Ti124  1  0.91709223  0.11395718  0.12053056  1
  Ti  Ti125  1  0.79441625  0.40234301  0.26303570  1
  Ti  Ti126  1  0.00349532  0.59109641  0.26101740  1
  Ti  Ti127  1  0.09358018  0.49263889  0.61235937  1
  Ti  Ti128  1  0.69538691  0.70641772  0.13257216  1
  Ti  Ti129  1  0.69459817  0.70419693  0.37250434  1
  Ti  Ti130  1  0.22098993  0.38718898  0.49571972  1
  Ti  Ti131  1  0.30362544  0.29958534  0.36448179  1
  Ti  Ti132  1  0.39927818  0.19390729  0.23079926  1
  Ti  Ti133  1  0.89131820  0.29517494  0.37011863  1
  Ti  Ti134  1  0.79825225  0.20131781  0.49457766  1
  Ti  Ti135  1  0.30021950  0.11721353  0.63342275  1
  Ti  Ti136  1  0.59669715  0.59266617  0.23719539  1
  Ti  Ti137  1  -0.01434258  0.59811074  0.72845337  1
  Ti  Ti138  1  0.29369752  0.29811804  0.12397572  1
  Ti  Ti139  1  0.50158313  0.70057181  0.63258245  1
  Ti  Ti140  1  0.78914988  -0.00219468  0.00396903  1
  Ti  Ti141  1  0.39995047  0.81169075  0.75400361  1
  Ti  Ti142  1  0.89770650  0.31248061  0.88168220  1
  Ti  Ti143  1  -0.00722331  0.77859177  0.74274715  1
  Ti  Ti144  1  0.60305035  -0.01203262  0.01154955  1
  Ti  Ti145  1  0.21545417  0.38150013  0.75725879  1
  Ti  Ti146  1  0.29925673  0.50855167  0.11843713  1
  Ti  Ti147  1  0.19180235  0.78528169  0.50725472  1
  Ti  Ti148  1  0.78920947  0.20745995  0.76226168  1
  Ti  Ti149  1  0.70304001  0.11725191  0.62895132  1
  Ti  Ti150  1  0.40934044  0.61289457  0.23811764  1
  Ti  Ti151  1  0.00492437  0.20570708  0.25560083  1
  Ti  Ti152  1  -0.01079670  0.78542582  0.00245814  1
  Ti  Ti153  1  0.60043767  0.19435373  0.22913640  1
  Ti  Ti154  1  0.10731033  0.29259370  0.38027413  1
  Ti  Ti155  1  -0.00549843  0.41401516  -0.00277139  1
  Ti  Ti156  1  -0.00434732  0.40150830  0.26724308  1
  Ti  Ti157  1  0.19264323  0.59589794  0.00213257  1
  Ti  Ti158  1  0.19149511  0.00062006  0.25189630  1
  Ti  Ti159  1  0.19272380  0.78768139  0.74937343  1
  Mo  Mo160  1  0.39665033  0.78717997  0.26104866  1
  Mo  Mo161  1  0.50972923  0.10829722  0.88316700  1
  Mo  Mo162  1  0.29274477  0.89675589  0.11813314  1
  Mo  Mo163  1  0.70695527  0.08968873  0.11980729  1
  Mo  Mo164  1  0.40254487  0.40458784  0.76220388  1
  Mo  Mo165  1  0.08993336  0.09669853  0.12473911  1
  Mo  Mo166  1  0.29681466  0.88985879  0.85540524  1
  Mo  Mo167  1  0.59752383  0.80525549  0.00349854  1
  Mo  Mo168  1  0.69733146  0.89601182  0.36887211  1
  Mo  Mo169  1  0.71578646  0.50352149  0.62581386  1
  Mo  Mo170  1  0.81531721  0.40641438  -0.00757645  1
  Mo  Mo171  1  0.90930223  0.70785813  0.87190119  1
  Mo  Mo172  1  0.50065600  0.68902783  0.12075590  1
  Mo  Mo173  1  0.70690472  0.28895015  0.89008456  1
  Mo  Mo174  1  0.29563619  0.30240438  0.88771554  1
  Mo  Mo175  1  0.70446695  0.89503241  0.62663948  1
  Mo  Mo176  1  0.60400240  0.60690904  0.49996747  1
  Mo  Mo177  1  0.30027235  0.28886676  0.62704248  1
  Mo  Mo178  1  0.80710223  0.00541681  0.24357439  1
  Mo  Mo179  1  0.72076976  0.70903806  0.87325037  1
  Mo  Mo180  1  0.10149190  0.69124820  0.62300322  1
  Mo  Mo181  1  0.81396579  0.60153261  0.75094848  1
  Mo  Mo182  1  0.69761849  0.29373607  0.35584932  1
  Mo  Mo183  1  0.69613343  0.67765825  0.62228245  1
  Mo  Mo184  1  0.60310356  0.39847477  -0.00403267  1
  Mo  Mo185  1  0.19621922  0.01385596  0.50601035  1
  Mo  Mo186  1  0.90164403  0.50150077  0.61926129  1
  Mo  Mo187  1  0.39264766  0.40251831  0.48955479  1
  Mo  Mo188  1  0.10128337  0.49345477  0.87583566  1
  Mo  Mo189  1  0.69576953  0.89659893  0.12377661  1
  Mo  Mo190  1  0.89056144  0.10611892  0.63872112  1
  Mo  Mo191  1  0.59558872  0.40036993  0.24352333  1
  Mo  Mo192  1  0.51097103  0.90588816  0.86912188  1
  Mo  Mo193  1  0.29405069  0.10305239  0.87596493  1
  Mo  Mo194  1  0.90239823  0.50692592  0.36212727  1
  Mo  Mo195  1  0.01167971  0.60188832  0.01170339  1
  Mo  Mo196  1  -0.00136373  0.79505393  0.50355654  1
  Mo  Mo197  1  0.90338172  0.69348447  0.61656992  1
  Mo  Mo198  1  0.50394087  0.09915982  0.13283840  1
  Mo  Mo199  1  -0.00413896  0.21464314  -0.00628709  1
