# generated using pymatgen
data_HfZrTaTiMo
_symmetry_space_group_name_H-M   'P 1'
_cell_length_a   15.22424001
_cell_length_b   15.20786897
_cell_length_c   16.85619036
_cell_angle_alpha   89.96714240
_cell_angle_beta   89.93705061
_cell_angle_gamma   90.02872688
_symmetry_Int_Tables_number   1
_chemical_formula_structural   HfZrTaTiMo
_chemical_formula_sum   'Hf40 Zr40 Ta40 Ti40 Mo40'
_cell_volume   3902.68072181
_cell_formula_units_Z   40
loop_
 _symmetry_equiv_pos_site_id
 _symmetry_equiv_pos_as_xyz
  1  'x, y, z'
loop_
 _atom_site_type_symbol
 _atom_site_label
 _atom_site_symmetry_multiplicity
 _atom_site_fract_x
 _atom_site_fract_y
 _atom_site_fract_z
 _atom_site_occupancy
  Hf  Hf0  1  0.08678910  0.30320129  0.36190984  1
  Hf  Hf1  1  0.80686292  0.18454614  0.50135693  1
  Hf  Hf2  1  0.51698330  0.28684162  0.62377728  1
  Hf  Hf3  1  0.20470712  0.41081782  0.75665673  1
  Hf  Hf4  1  0.21270888  0.41456458  0.25770942  1
  Hf  Hf5  1  0.69201561  0.09664159  0.63145716  1
  Hf  Hf6  1  0.40192987  0.80039663  0.49402933  1
  Hf  Hf7  1  0.00225888  0.79405218  0.24294943  1
  Hf  Hf8  1  0.19104676  0.80816421  0.00590366  1
  Hf  Hf9  1  0.10352863  0.30518983  0.13729838  1
  Hf  Hf10  1  0.89170894  0.48684729  0.64528852  1
  Hf  Hf11  1  -0.00162531  0.40320058  -0.00249553  1
  Hf  Hf12  1  0.29538583  0.69649840  0.62499557  1
  Hf  Hf13  1  0.70055111  0.89941198  0.36866355  1
  Hf  Hf14  1  0.27630399  0.92113265  0.86850890  1
  Hf  Hf15  1  0.79022376  0.59589138  0.50095046  1
  Hf  Hf16  1  0.51117292  0.09078441  0.87248258  1
  Hf  Hf17  1  0.51002070  0.10303857  0.11615894  1
  Hf  Hf18  1  0.09025067  0.93324464  0.61973333  1
  Hf  Hf19  1  0.39197006  0.78936201  0.25678382  1
  Hf  Hf20  1  0.90522896  0.09141242  0.13125740  1
  Hf  Hf21  1  0.79658812  0.79351390  0.01032640  1
  Hf  Hf22  1  0.62311063  0.40629255  0.74930312  1
  Hf  Hf23  1  0.71000512  0.48001451  0.13295690  1
  Hf  Hf24  1  0.40870910  0.40124050  0.74838323  1
  Hf  Hf25  1  0.41186778  0.41110128  0.26408074  1
  Hf  Hf26  1  0.49438760  0.67947388  0.38251620  1
  Hf  Hf27  1  0.69955387  0.69770846  0.36246422  1
  Hf  Hf28  1  0.38427274  0.01748726  0.73870413  1
  Hf  Hf29  1  0.09916218  0.71379987  0.86967516  1
  Hf  Hf30  1  0.31702491  0.51518800  0.12974107  1
  Hf  Hf31  1  0.50014210  0.70988659  0.62738897  1
  Hf  Hf32  1  0.68930494  0.90748772  0.86662019  1
  Hf  Hf33  1  0.38853247  0.00353485  -0.00236268  1
  Hf  Hf34  1  0.19526884  0.80292666  0.25844167  1
  Hf  Hf35  1  0.38824870  0.79766605  0.00532834  1
  Hf  Hf36  1  0.50495215  0.70364502  0.87192390  1
  Hf  Hf37  1  0.21427146  0.20735127  0.25635447  1
  Hf  Hf38  1  0.10300351  0.30393303  0.63007673  1
  Hf  Hf39  1  0.60360356  0.37588486  0.25907017  1
  Zr  Zr40  1  0.51542513  0.51139537  0.61413233  1
  Zr  Zr41  1  0.89558004  0.69513629  0.64084184  1
  Zr  Zr42  1  0.81009084  0.38982563  0.49829970  1
  Zr  Zr43  1  0.00669855  0.59935724  -0.01603232  1
  Zr  Zr44  1  -0.01447753  0.81051561  0.50255990  1
  Zr  Zr45  1  0.40438337  0.21022581  -0.01123683  1
  Zr  Zr46  1  0.91117779  0.28123178  0.63771079  1
  Zr  Zr47  1  0.09952786  0.53210589  0.13260710  1
  Zr  Zr48  1  0.79988450  0.58977499  -0.00031684  1
  Zr  Zr49  1  0.50633793  0.49600285  0.88095336  1
  Zr  Zr50  1  -0.01885532  0.41915190  0.24401975  1
  Zr  Zr51  1  0.90097216  0.09778533  0.35582097  1
  Zr  Zr52  1  0.57446412  0.58153637  0.23985894  1
  Zr  Zr53  1  0.30996010  0.29106478  0.60696224  1
  Zr  Zr54  1  0.90873898  0.07965606  0.88469383  1
  Zr  Zr55  1  0.80109818  0.19344112  -0.00022387  1
  Zr  Zr56  1  0.49048078  0.89814730  0.86534710  1
  Zr  Zr57  1  0.01017893  0.19502612  0.00595394  1
  Zr  Zr58  1  0.20483152  0.41494028  -0.00599488  1
  Zr  Zr59  1  0.30342111  0.49995580  0.61405162  1
  Zr  Zr60  1  0.90712962  0.29195246  0.86167278  1
  Zr  Zr61  1  0.49472845  0.30752517  0.11955833  1
  Zr  Zr62  1  0.30432035  0.09948240  0.38920456  1
  Zr  Zr63  1  0.20989050  0.20637424  0.00425900  1
  Zr  Zr64  1  0.60167956  0.80272765  0.01078957  1
  Zr  Zr65  1  0.29972427  0.90898312  0.61491115  1
  Zr  Zr66  1  0.70368768  0.49673011  0.36390933  1
  Zr  Zr67  1  0.19535809  0.40648979  0.48969491  1
  Zr  Zr68  1  0.40952922  0.00638447  0.26008578  1
  Zr  Zr69  1  0.19330359  0.81501106  0.74245774  1
  Zr  Zr70  1  0.50302020  0.90502904  0.12758597  1
  Zr  Zr71  1  0.78917726  0.19895780  0.24435852  1
  Zr  Zr72  1  -0.00380566  0.60416289  0.50459566  1
  Zr  Zr73  1  0.30726944  0.11143593  0.13463009  1
  Zr  Zr74  1  0.21994593  0.18770698  0.74460885  1
  Zr  Zr75  1  0.18586896  0.80474963  0.49413190  1
  Zr  Zr76  1  0.80051057  -0.01305687  0.50208741  1
  Zr  Zr77  1  0.69557191  0.68627585  0.63340912  1
  Zr  Zr78  1  0.89108814  0.69902792  0.86512997  1
  Zr  Zr79  1  0.60758198  0.39263504  0.49303437  1
  Ta  Ta80  1  0.29138949  0.90436686  0.13262486  1
  Ta  Ta81  1  0.19962849  -0.00229446  0.25853329  1
  Ta  Ta82  1  0.30229236  0.70875994  0.86783372  1
  Ta  Ta83  1  0.59338208  0.79583979  0.24323164  1
  Ta  Ta84  1  0.69764331  0.69139381  0.13854687  1
  Ta  Ta85  1  0.39609849  0.59940459  0.75696735  1
  Ta  Ta86  1  0.89640139  0.89690662  0.36070998  1
  Ta  Ta87  1  0.20208720  0.60210163  0.75871101  1
  Ta  Ta88  1  0.88995678  0.90489614  0.63334404  1
  Ta  Ta89  1  0.09606256  0.51889624  0.36836330  1
  Ta  Ta90  1  0.48019008  0.68624220  0.12542884  1
  Ta  Ta91  1  0.00792930  0.59062944  0.75884262  1
  Ta  Ta92  1  0.88840975  0.31085125  0.12878880  1
  Ta  Ta93  1  0.89880381  0.69822854  0.36716268  1
  Ta  Ta94  1  0.08652221  0.91562514  0.37515885  1
  Ta  Ta95  1  -0.00572042  0.80373041  0.01203321  1
  Ta  Ta96  1  0.69178264  0.89066185  0.63740591  1
  Ta  Ta97  1  0.59450108  0.18343861  0.25169443  1
  Ta  Ta98  1  0.00176510  0.39920183  0.49636749  1
  Ta  Ta99  1  0.90979599  0.68367746  0.12909878  1
  Ta  Ta100  1  -0.00673172  0.81036423  0.74594434  1
  Ta  Ta101  1  0.69956809  0.07911907  0.12094933  1
  Ta  Ta102  1  0.11604057  0.09028419  0.87822890  1
  Ta  Ta103  1  0.09690142  0.50784444  0.62922830  1
  Ta  Ta104  1  0.69485802  0.26997158  0.38072175  1
  Ta  Ta105  1  0.31333825  0.52241097  0.38245706  1
  Ta  Ta106  1  0.61256920  0.19428224  -0.01458929  1
  Ta  Ta107  1  0.59870007  0.59690842  0.01122781  1
  Ta  Ta108  1  0.17218377  0.19555199  0.49050842  1
  Ta  Ta109  1  0.79905110  0.39479318  -0.00805215  1
  Ta  Ta110  1  0.30895169  0.30531364  0.86951043  1
  Ta  Ta111  1  0.39481456  0.60081483  -0.00922640  1
  Ta  Ta112  1  0.60609692  0.80136972  0.49954383  1
  Ta  Ta113  1  0.19469227  0.61019540  0.49189009  1
  Ta  Ta114  1  0.10572431  0.29719407  0.86486729  1
  Ta  Ta115  1  0.80220012  0.00014769  0.75145176  1
  Ta  Ta116  1  0.60846997  0.19558414  0.75906448  1
  Ta  Ta117  1  0.01609858  0.17139979  0.75193975  1
  Ta  Ta118  1  0.10053072  0.09606657  0.14441125  1
  Ta  Ta119  1  0.30682150  0.30277665  0.39007618  1
  Ti  Ti120  1  0.50807658  0.91095979  0.63460667  1
  Ti  Ti121  1  0.89584733  0.89135792  0.87718377  1
  Ti  Ti122  1  0.41158465  0.40320045  0.48819529  1
  Ti  Ti123  1  0.29793040  0.90440763  0.38415024  1
  Ti  Ti124  1  0.20866611  0.61179970  -0.00776003  1
  Ti  Ti125  1  0.71278943  0.30186402  0.62939460  1
  Ti  Ti126  1  0.70628842  0.30179810  0.87217717  1
  Ti  Ti127  1  0.41080133  0.21325581  0.26311937  1
  Ti  Ti128  1  0.09568841  0.70155689  0.63413561  1
  Ti  Ti129  1  0.79143703  -0.01292265  0.00147602  1
  Ti  Ti130  1  0.41314822  0.00107028  0.50300156  1
  Ti  Ti131  1  0.60036662  0.00091679  0.50474724  1
  Ti  Ti132  1  0.42003462  0.19574721  0.49742926  1
  Ti  Ti133  1  0.60750622  0.39707813  -0.00353381  1
  Ti  Ti134  1  0.69338038  0.28437270  0.11862005  1
  Ti  Ti135  1  0.41245435  0.20258566  0.75150796  1
  Ti  Ti136  1  0.79677504  0.79461565  0.50134359  1
  Ti  Ti137  1  0.39640496  0.40624330  -0.00200894  1
  Ti  Ti138  1  0.89325192  0.90177021  0.13105254  1
  Ti  Ti139  1  0.80171553  0.19052344  0.75294204  1
  Ti  Ti140  1  0.28064365  0.09502817  0.59635011  1
  Ti  Ti141  1  0.89162994  0.48827717  0.85643152  1
  Ti  Ti142  1  0.60332602  0.59938483  0.75650916  1
  Ti  Ti143  1  0.52331686  0.10137479  0.38316241  1
  Ti  Ti144  1  0.90226476  0.50164439  0.37581537  1
  Ti  Ti145  1  0.61216433  -0.00319601  0.25148676  1
  Ti  Ti146  1  0.50635718  0.89930673  0.37610179  1
  Ti  Ti147  1  0.69634084  0.69368045  0.87148932  1
  Ti  Ti148  1  0.18836334  0.00731430  0.01190459  1
  Ti  Ti149  1  0.50904998  0.30104908  0.87254806  1
  Ti  Ti150  1  0.07933840  0.91229152  0.87900936  1
  Ti  Ti151  1  0.08944749  0.10555505  0.35528671  1
  Ti  Ti152  1  0.81826919  0.58748679  0.24323351  1
  Ti  Ti153  1  0.89570425  0.29999875  0.36422917  1
  Ti  Ti154  1  0.09227517  0.90938796  0.12910965  1
  Ti  Ti155  1  0.78949310  0.79758165  0.75320411  1
  Ti  Ti156  1  0.39745555  0.80348330  0.74629989  1
  Ti  Ti157  1  0.20502939  0.62027364  0.26055262  1
  Ti  Ti158  1  -0.00309547  0.03079429  0.49586582  1
  Ti  Ti159  1  0.79705297  0.79756542  0.23862601  1
  Mo  Mo160  1  0.01076200  0.39563419  0.75723118  1
  Mo  Mo161  1  0.70415723  0.89292728  0.13482123  1
  Mo  Mo162  1  0.70313782  0.50129462  0.88224795  1
  Mo  Mo163  1  0.09024143  0.70504106  0.37731430  1
  Mo  Mo164  1  0.39540295  0.59943779  0.50461237  1
  Mo  Mo165  1  0.70534519  0.49318683  0.62450825  1
  Mo  Mo166  1  0.18671689  0.00782627  0.48068057  1
  Mo  Mo167  1  0.49852513  0.28616342  0.38054642  1
  Mo  Mo168  1  0.89809279  0.49741452  0.11978739  1
  Mo  Mo169  1  0.18114411  0.01626216  0.74704421  1
  Mo  Mo170  1  0.28889500  0.70297392  0.12411675  1
  Mo  Mo171  1  -0.00829471  0.21362294  0.49085327  1
  Mo  Mo172  1  0.29276778  0.70403463  0.38351933  1
  Mo  Mo173  1  0.70711618  0.10062582  0.86607328  1
  Mo  Mo174  1  0.59725382  0.00369354  0.73929311  1
  Mo  Mo175  1  0.90727405  0.08711510  0.63078480  1
  Mo  Mo176  1  0.78653241  0.58191131  0.76287040  1
  Mo  Mo177  1  0.00333860  -0.01546751  0.00926647  1
  Mo  Mo178  1  0.79688674  -0.01162410  0.24384637  1
  Mo  Mo179  1  0.00306869  -0.00758157  0.24735167  1
  Mo  Mo180  1  0.09921875  0.50061786  0.87010578  1
  Mo  Mo181  1  0.80014333  0.38646603  0.75612745  1
  Mo  Mo182  1  0.10591413  0.70772463  0.11988327  1
  Mo  Mo183  1  0.49115260  0.09897404  0.62244044  1
  Mo  Mo184  1  0.30344602  0.50997026  0.87622475  1
  Mo  Mo185  1  0.60186808  0.60837834  0.49734099  1
  Mo  Mo186  1  -0.00497125  -0.00695693  0.75461141  1
  Mo  Mo187  1  0.60644078  0.18692679  0.50178435  1
  Mo  Mo188  1  0.00185946  0.61017081  0.25813005  1
  Mo  Mo189  1  0.59739865  0.79925086  0.74992930  1
  Mo  Mo190  1  -0.00018495  0.20717710  0.23601999  1
  Mo  Mo191  1  0.30259615  0.10762461  0.87444964  1
  Mo  Mo192  1  0.38918244  0.60050171  0.25150097  1
  Mo  Mo193  1  0.50155237  0.49392225  0.38821797  1
  Mo  Mo194  1  0.79473648  0.39350785  0.25685717  1
  Mo  Mo195  1  0.08740184  0.11380953  0.61658890  1
  Mo  Mo196  1  0.61078586  0.00447231  -0.00022925  1
  Mo  Mo197  1  0.30483688  0.31229143  0.13278988  1
  Mo  Mo198  1  0.69691627  0.08823803  0.37521852  1
  Mo  Mo199  1  0.50543490  0.49876853  0.10874972  1
