# generated using pymatgen
data_HfZrTaTiMo
_symmetry_space_group_name_H-M   'P 1'
_cell_length_a   15.21446210
_cell_length_b   15.20996920
_cell_length_c   16.83878728
_cell_angle_alpha   89.95126895
_cell_angle_beta   90.01132383
_cell_angle_gamma   90.01966655
_symmetry_Int_Tables_number   1
_chemical_formula_structural   HfZrTaTiMo
_chemical_formula_sum   'Hf40 Zr40 Ta40 Ti40 Mo40'
_cell_volume   3896.68730836
_cell_formula_units_Z   40
loop_
 _symmetry_equiv_pos_site_id
 _symmetry_equiv_pos_as_xyz
  1  'x, y, z'
loop_
 _atom_site_type_symbol
 _atom_site_label
 _atom_site_symmetry_multiplicity
 _atom_site_fract_x
 _atom_site_fract_y
 _atom_site_fract_z
 _atom_site_occupancy
  Hf  Hf0  1  0.69239174  0.49501043  0.86249407  1
  Hf  Hf1  1  0.70674322  0.68689947  0.86682889  1
  Hf  Hf2  1  0.11107423  0.89437289  0.63161859  1
  Hf  Hf3  1  0.61715320  0.79482308  0.49981737  1
  Hf  Hf4  1  -0.00222488  0.60443209  0.75829870  1
  Hf  Hf5  1  0.52104327  0.10682343  0.62668124  1
  Hf  Hf6  1  0.89385019  0.49994477  0.37408502  1
  Hf  Hf7  1  0.39041144  0.40506792  0.73405818  1
  Hf  Hf8  1  0.50964573  0.50411359  0.37529568  1
  Hf  Hf9  1  0.78522617  0.40217202  0.00649946  1
  Hf  Hf10  1  0.19064892  0.19585630  0.48899735  1
  Hf  Hf11  1  0.58093167  0.60697752  0.73975551  1
  Hf  Hf12  1  0.21965759  0.78495951  0.49802895  1
  Hf  Hf13  1  0.70237174  0.89636556  0.11694107  1
  Hf  Hf14  1  0.79107345  0.39406627  0.73923191  1
  Hf  Hf15  1  0.58851149  0.39067753  0.51509926  1
  Hf  Hf16  1  0.77477118  0.18907871  0.50322821  1
  Hf  Hf17  1  0.89773130  0.90237425  0.37570050  1
  Hf  Hf18  1  0.30818054  0.10573501  0.87197070  1
  Hf  Hf19  1  0.18940032  0.41236465  0.50397309  1
  Hf  Hf20  1  0.02098178  0.79352453  0.26075962  1
  Hf  Hf21  1  0.20183111  0.38451283  0.24187059  1
  Hf  Hf22  1  0.79836432  0.79950280  0.24522342  1
  Hf  Hf23  1  0.47467859  0.29879491  0.37222618  1
  Hf  Hf24  1  0.81815589  0.79291937  0.75905051  1
  Hf  Hf25  1  0.80744843  0.79000468  -0.00571071  1
  Hf  Hf26  1  0.78819750  0.20552714  0.24006002  1
  Hf  Hf27  1  0.30722189  0.49669979  0.13055411  1
  Hf  Hf28  1  -0.01262298  0.39829111  0.76694511  1
  Hf  Hf29  1  0.89495753  0.30625261  0.39054180  1
  Hf  Hf30  1  0.50776715  0.50880388  0.13151545  1
  Hf  Hf31  1  0.89857602  0.10342776  0.37527784  1
  Hf  Hf32  1  0.11404080  0.89382138  0.12044958  1
  Hf  Hf33  1  0.10310917  0.50425450  0.36554029  1
  Hf  Hf34  1  0.19672151  0.18963047  0.26218102  1
  Hf  Hf35  1  0.01481626  0.01045721  0.49750144  1
  Hf  Hf36  1  0.90191133  0.50976910  0.12734501  1
  Hf  Hf37  1  0.30579564  0.49880806  0.88066946  1
  Hf  Hf38  1  -0.00807107  0.61054250  -0.01373835  1
  Hf  Hf39  1  0.39931816  0.19875104  0.73905656  1
  Zr  Zr40  1  0.70740847  0.90045477  0.63070400  1
  Zr  Zr41  1  -0.00904912  0.20245333  0.76905011  1
  Zr  Zr42  1  0.39618728  0.80244406  -0.00875236  1
  Zr  Zr43  1  0.69391037  0.09695566  0.12459176  1
  Zr  Zr44  1  0.68454806  0.30604036  0.37478682  1
  Zr  Zr45  1  0.00227422  0.20898548  0.25205616  1
  Zr  Zr46  1  0.80697560  0.00375629  0.75248141  1
  Zr  Zr47  1  0.21493447  -0.00676326  0.50620958  1
  Zr  Zr48  1  0.79691716  0.40274563  0.24091606  1
  Zr  Zr49  1  -0.00051351  0.19202577  -0.02034790  1
  Zr  Zr50  1  0.91551698  0.89852934  0.12049834  1
  Zr  Zr51  1  0.60235814  0.80737407  0.76135274  1
  Zr  Zr52  1  0.29860130  0.69253554  0.35553846  1
  Zr  Zr53  1  0.88421249  0.28984351  0.61578335  1
  Zr  Zr54  1  0.31037640  0.48849075  0.36173553  1
  Zr  Zr55  1  0.39844781  0.20222780  0.51629224  1
  Zr  Zr56  1  0.79529330  0.21048728  0.00492423  1
  Zr  Zr57  1  0.40945946  0.01337359  0.24605699  1
  Zr  Zr58  1  0.49672640  0.88466031  0.62070255  1
  Zr  Zr59  1  0.01493045  0.80024048  0.48735030  1
  Zr  Zr60  1  -0.01149658  0.39275401  -0.01330654  1
  Zr  Zr61  1  0.69471214  0.08754352  0.35997639  1
  Zr  Zr62  1  0.31210349  0.89044992  0.36389949  1
  Zr  Zr63  1  0.07536551  0.30838422  0.61321428  1
  Zr  Zr64  1  0.40439790  0.77752328  0.76699247  1
  Zr  Zr65  1  0.67716919  0.29851225  0.86754454  1
  Zr  Zr66  1  0.32024534  0.10303956  0.37792196  1
  Zr  Zr67  1  0.10670424  0.49869714  0.88391208  1
  Zr  Zr68  1  0.01647465  0.59016852  0.50223232  1
  Zr  Zr69  1  0.30236764  0.71563811  0.13474519  1
  Zr  Zr70  1  0.90390895  0.09172603  0.12902856  1
  Zr  Zr71  1  0.11584169  0.68885306  0.63080514  1
  Zr  Zr72  1  0.50991667  0.91143624  0.38206886  1
  Zr  Zr73  1  0.00792858  0.00169209  0.75337987  1
  Zr  Zr74  1  0.69524167  0.09557896  0.88935674  1
  Zr  Zr75  1  0.50079421  0.49361125  0.87206127  1
  Zr  Zr76  1  0.89160323  0.69444898  0.37892696  1
  Zr  Zr77  1  0.18737639  0.40062483  0.74281016  1
  Zr  Zr78  1  0.49270711  0.10341538  0.12114289  1
  Zr  Zr79  1  0.10751361  0.09588263  0.11852045  1
  Ta  Ta80  1  0.79340100  0.59769251  0.00344796  1
  Ta  Ta81  1  0.39632405  0.00419516  0.00440275  1
  Ta  Ta82  1  0.40065683  0.39278361  0.00395282  1
  Ta  Ta83  1  0.48783717  0.30932925  0.13248052  1
  Ta  Ta84  1  0.58166936  0.21566785  0.00719436  1
  Ta  Ta85  1  0.09362930  0.69923234  0.11466746  1
  Ta  Ta86  1  0.61299053  0.01362999  0.50366030  1
  Ta  Ta87  1  0.28807145  0.29790369  0.87275684  1
  Ta  Ta88  1  0.91021156  0.89240054  0.62025136  1
  Ta  Ta89  1  0.90519425  0.50056221  0.62346917  1
  Ta  Ta90  1  0.69657738  0.69201507  0.12744035  1
  Ta  Ta91  1  0.60483373  0.59613200  0.50653206  1
  Ta  Ta92  1  0.01337296  0.80415697  -0.01988945  1
  Ta  Ta93  1  0.30139087  0.90864784  0.86952828  1
  Ta  Ta94  1  0.90236547  0.70342914  0.62132414  1
  Ta  Ta95  1  0.00463711  0.40157651  0.24353258  1
  Ta  Ta96  1  0.20479005  0.60533329  0.00600269  1
  Ta  Ta97  1  0.40574502  -0.00743025  0.74186635  1
  Ta  Ta98  1  0.90800783  0.90865099  0.88281249  1
  Ta  Ta99  1  0.60256340  0.60070116  -0.00166707  1
  Ta  Ta100  1  0.60114855  0.01294345  0.75697181  1
  Ta  Ta101  1  0.21397449  0.00746959  0.74177276  1
  Ta  Ta102  1  0.50174166  0.91456086  0.87868536  1
  Ta  Ta103  1  0.59823697  0.79361157  -0.01038851  1
  Ta  Ta104  1  0.80352533  -0.01180692  0.50684138  1
  Ta  Ta105  1  0.40609729  0.60324077  0.00149536  1
  Ta  Ta106  1  0.21429955  0.61108914  0.76163752  1
  Ta  Ta107  1  0.28298424  0.52130667  0.62199343  1
  Ta  Ta108  1  0.01271421  0.79913222  0.76961741  1
  Ta  Ta109  1  0.50173920  0.89267827  0.12250262  1
  Ta  Ta110  1  0.01355180  -0.00115203  0.26360497  1
  Ta  Ta111  1  0.20400980  0.38762064  0.00772855  1
  Ta  Ta112  1  0.50168122  0.70564150  0.38100335  1
  Ta  Ta113  1  0.78664294  0.41327042  0.51138519  1
  Ta  Ta114  1  0.59345548  0.79194853  0.25242766  1
  Ta  Ta115  1  0.10913093  0.11385537  0.63215655  1
  Ta  Ta116  1  0.18475376  0.60470326  0.23406829  1
  Ta  Ta117  1  0.38602575  0.40498363  0.51513123  1
  Ta  Ta118  1  0.39562339  0.61085429  0.49783698  1
  Ta  Ta119  1  0.20650912  -0.00124658  -0.00496117  1
  Ti  Ti120  1  0.90417588  0.09859060  0.61782842  1
  Ti  Ti121  1  0.67429969  0.27399122  0.63137048  1
  Ti  Ti122  1  0.20743150  0.80331846  0.76380025  1
  Ti  Ti123  1  0.60748030  -0.01127947  0.24487175  1
  Ti  Ti124  1  0.70283922  0.50827064  0.37116738  1
  Ti  Ti125  1  0.27949346  0.28849859  0.62812537  1
  Ti  Ti126  1  0.38120728  0.21792722  0.24030123  1
  Ti  Ti127  1  0.57979825  0.19700815  0.25005454  1
  Ti  Ti128  1  0.59434307  0.39815343  0.24755164  1
  Ti  Ti129  1  0.40427794  -0.00613781  0.51539151  1
  Ti  Ti130  1  0.19931136  -0.00760319  0.25740876  1
  Ti  Ti131  1  0.90022891  0.70097108  0.12648554  1
  Ti  Ti132  1  0.69767113  0.50496831  0.63195734  1
  Ti  Ti133  1  0.79470395  0.60641394  0.50942142  1
  Ti  Ti134  1  0.90348484  0.30239852  0.12423444  1
  Ti  Ti135  1  0.09988021  0.29540502  0.11537266  1
  Ti  Ti136  1  0.50056489  0.10789057  0.88057456  1
  Ti  Ti137  1  0.50686857  0.70437372  0.12362615  1
  Ti  Ti138  1  0.48225230  0.29642117  0.87539746  1
  Ti  Ti139  1  0.59354670  -0.00299328  0.00104353  1
  Ti  Ti140  1  0.41992656  0.61088878  0.24949155  1
  Ti  Ti141  1  0.11554482  0.09960732  0.87364293  1
  Ti  Ti142  1  0.81646044  0.00344502  -0.00490726  1
  Ti  Ti143  1  0.59432991  0.40127806  0.00914669  1
  Ti  Ti144  1  -0.00298605  0.60097053  0.24775933  1
  Ti  Ti145  1  0.09675633  0.49833223  0.11639759  1
  Ti  Ti146  1  0.32298491  0.70866849  0.62640983  1
  Ti  Ti147  1  0.58281376  0.38879298  0.73111706  1
  Ti  Ti148  1  0.38002683  0.20457398  0.01003827  1
  Ti  Ti149  1  0.69866595  0.69152175  0.37058344  1
  Ti  Ti150  1  0.87822552  0.51147707  0.86922403  1
  Ti  Ti151  1  0.30627469  0.90966801  0.13313834  1
  Ti  Ti152  1  0.08875492  0.30357929  0.38475569  1
  Ti  Ti153  1  0.20057401  0.79909456  -0.01672866  1
  Ti  Ti154  1  0.79013702  0.19350753  0.75522018  1
  Ti  Ti155  1  0.48667250  0.51230494  0.61933643  1
  Ti  Ti156  1  0.70298243  0.90226443  0.88266372  1
  Ti  Ti157  1  0.69675102  0.50695568  0.13476981  1
  Ti  Ti158  1  0.70626917  0.69863775  0.63203569  1
  Ti  Ti159  1  0.70809518  0.89236711  0.37503455  1
  Mo  Mo160  1  0.20206765  0.80155574  0.24346858  1
  Mo  Mo161  1  0.29923002  0.69394508  0.88507972  1
  Mo  Mo162  1  0.29073072  0.30827254  0.38013403  1
  Mo  Mo163  1  -0.01262938  0.40428073  0.49859230  1
  Mo  Mo164  1  0.79691685  0.60520303  0.24456471  1
  Mo  Mo165  1  0.59457821  0.20022767  0.75833683  1
  Mo  Mo166  1  0.80487111  0.79599701  0.50536401  1
  Mo  Mo167  1  0.41516757  0.80367549  0.24216575  1
  Mo  Mo168  1  0.09440392  0.50636346  0.63420952  1
  Mo  Mo169  1  0.59280604  0.19755767  0.49351079  1
  Mo  Mo170  1  0.11261673  0.29442136  0.88008047  1
  Mo  Mo171  1  0.40418332  0.40065843  0.24447939  1
  Mo  Mo172  1  0.50981104  0.10622617  0.38402816  1
  Mo  Mo173  1  0.19545601  0.19869970  0.74720825  1
  Mo  Mo174  1  0.11130292  0.70259941  0.87807727  1
  Mo  Mo175  1  0.80161948  0.59660795  0.73200750  1
  Mo  Mo176  1  0.30177852  0.09375753  0.62756358  1
  Mo  Mo177  1  0.20321396  0.19840698  -0.00250109  1
  Mo  Mo178  1  -0.00355228  0.19470362  0.49715505  1
  Mo  Mo179  1  0.60753037  0.60542340  0.25526775  1
  Mo  Mo180  1  0.01147332  -0.00508098  -0.01629522  1
  Mo  Mo181  1  0.50229314  0.69269870  0.88537486  1
  Mo  Mo182  1  0.48958617  0.30767512  0.62524336  1
  Mo  Mo183  1  0.29394258  0.29149152  0.12002344  1
  Mo  Mo184  1  0.67683227  0.30677277  0.13032854  1
  Mo  Mo185  1  0.30301607  0.89343912  0.63908326  1
  Mo  Mo186  1  0.21113049  0.59859083  0.49701518  1
  Mo  Mo187  1  0.11416756  0.90795221  0.86942460  1
  Mo  Mo188  1  0.10818688  0.69328871  0.36677429  1
  Mo  Mo189  1  0.39310033  0.59649704  0.74513656  1
  Mo  Mo190  1  0.29133829  0.09428460  0.12433433  1
  Mo  Mo191  1  0.89573963  0.09937249  0.87919967  1
  Mo  Mo192  1  0.71206533  0.10069867  0.63022557  1
  Mo  Mo193  1  0.80225298  -0.00755177  0.24978180  1
  Mo  Mo194  1  0.11268314  0.89909870  0.37208902  1
  Mo  Mo195  1  0.10098013  0.09287327  0.37231745  1
  Mo  Mo196  1  0.90181126  0.69971422  0.87467944  1
  Mo  Mo197  1  0.40678045  0.80077709  0.50012771  1
  Mo  Mo198  1  0.87668165  0.30750339  0.87138817  1
  Mo  Mo199  1  0.50641831  0.69223302  0.61147890  1
