# generated using pymatgen
data_HfZrTaTiMo
_symmetry_space_group_name_H-M   'P 1'
_cell_length_a   15.20054781
_cell_length_b   15.21099469
_cell_length_c   16.82957574
_cell_angle_alpha   89.97821378
_cell_angle_beta   90.05855947
_cell_angle_gamma   89.93842675
_symmetry_Int_Tables_number   1
_chemical_formula_structural   HfZrTaTiMo
_chemical_formula_sum   'Hf40 Zr40 Ta40 Ti40 Mo40'
_cell_volume   3891.25339959
_cell_formula_units_Z   40
loop_
 _symmetry_equiv_pos_site_id
 _symmetry_equiv_pos_as_xyz
  1  'x, y, z'
loop_
 _atom_site_type_symbol
 _atom_site_label
 _atom_site_symmetry_multiplicity
 _atom_site_fract_x
 _atom_site_fract_y
 _atom_site_fract_z
 _atom_site_occupancy
  Hf  Hf0  1  0.78661429  0.60204722  0.51486080  1
  Hf  Hf1  1  0.80681229  -0.00328785  0.25961249  1
  Hf  Hf2  1  0.40990571  0.01821974  -0.00577990  1
  Hf  Hf3  1  0.60514431  0.41476121  0.51927838  1
  Hf  Hf4  1  -0.00684929  0.39981244  0.48397047  1
  Hf  Hf5  1  0.30265800  0.90211726  0.63969589  1
  Hf  Hf6  1  0.56916094  0.18478351  -0.00917240  1
  Hf  Hf7  1  0.39437904  0.60299508  0.49924070  1
  Hf  Hf8  1  0.27592922  0.28724592  0.61566334  1
  Hf  Hf9  1  0.70925007  0.89129897  0.60554686  1
  Hf  Hf10  1  0.49753537  0.08768772  0.61515543  1
  Hf  Hf11  1  0.01544972  0.81629817  0.50276137  1
  Hf  Hf12  1  0.38775558  0.18776426  0.73121317  1
  Hf  Hf13  1  0.18727451  0.81424688  0.24309201  1
  Hf  Hf14  1  0.19210334  0.40192611  0.49158189  1
  Hf  Hf15  1  0.00138624  -0.01911429  0.24473784  1
  Hf  Hf16  1  0.30151821  0.29247875  0.38303635  1
  Hf  Hf17  1  -0.01373460  0.20743705  0.01417040  1
  Hf  Hf18  1  0.78519147  0.19355254  0.26036224  1
  Hf  Hf19  1  0.30346684  0.70662067  0.12604436  1
  Hf  Hf20  1  0.49983777  0.50176026  0.38056046  1
  Hf  Hf21  1  0.91176729  0.71062643  0.87236391  1
  Hf  Hf22  1  0.60834126  0.60074823  0.00324235  1
  Hf  Hf23  1  0.38658266  -0.00598565  0.49564817  1
  Hf  Hf24  1  0.09835155  0.71363113  0.36840971  1
  Hf  Hf25  1  0.48478523  0.51603336  0.63724095  1
  Hf  Hf26  1  0.39577415  0.37262234  -0.00334443  1
  Hf  Hf27  1  0.89535767  0.71598542  0.63002272  1
  Hf  Hf28  1  0.69775365  0.28312201  0.87655729  1
  Hf  Hf29  1  0.69586747  0.50158941  0.37132297  1
  Hf  Hf30  1  0.62121601  0.81279855  -0.00630363  1
  Hf  Hf31  1  0.51723805  0.91927112  0.12223443  1
  Hf  Hf32  1  0.31167535  0.91038806  0.12809849  1
  Hf  Hf33  1  0.09211033  0.09997002  0.88081741  1
  Hf  Hf34  1  0.30125001  0.28698833  0.14033325  1
  Hf  Hf35  1  -0.02453853  0.61745989  0.25112720  1
  Hf  Hf36  1  0.21133540  0.20086347  0.00181385  1
  Hf  Hf37  1  0.61793809  0.81276919  0.24947414  1
  Hf  Hf38  1  0.29913635  0.90659048  0.36218903  1
  Hf  Hf39  1  0.89912676  0.48977670  0.62189074  1
  Zr  Zr40  1  0.00187929  0.82937617  0.75360777  1
  Zr  Zr41  1  0.60522079  0.39370236  0.73704873  1
  Zr  Zr42  1  0.29986189  0.49042654  0.87471923  1
  Zr  Zr43  1  0.81772799  0.38670249  -0.00405507  1
  Zr  Zr44  1  0.00387981  0.59124104  -0.00082171  1
  Zr  Zr45  1  0.17694385  0.40152513  0.00660842  1
  Zr  Zr46  1  0.70455020  0.69700800  0.36876122  1
  Zr  Zr47  1  0.60745590  0.61831288  0.74366199  1
  Zr  Zr48  1  0.68534779  0.08815634  0.12359534  1
  Zr  Zr49  1  0.50030715  0.71056624  0.88553920  1
  Zr  Zr50  1  0.80084406  0.59530252  0.75451060  1
  Zr  Zr51  1  -0.00171987  0.60720940  0.50088050  1
  Zr  Zr52  1  0.80368928  0.60188961  -0.01235225  1
  Zr  Zr53  1  0.10308632  0.09946985  0.12889178  1
  Zr  Zr54  1  0.09017665  0.70391424  0.12607751  1
  Zr  Zr55  1  0.59526374  0.39437574  -0.00760664  1
  Zr  Zr56  1  0.01064079  0.59490845  0.75052238  1
  Zr  Zr57  1  0.21369954  0.59961076  0.74982016  1
  Zr  Zr58  1  0.70939236  0.49372362  0.12891285  1
  Zr  Zr59  1  0.41814298  0.80575486  0.25200500  1
  Zr  Zr60  1  0.40422552  0.59605356  0.24240031  1
  Zr  Zr61  1  0.30216952  0.89675128  0.86796662  1
  Zr  Zr62  1  0.29758624  0.49484359  0.13147666  1
  Zr  Zr63  1  0.72044790  0.89912168  0.39792521  1
  Zr  Zr64  1  0.07551590  0.30986715  0.87776556  1
  Zr  Zr65  1  0.09730269  0.28378306  0.36401964  1
  Zr  Zr66  1  0.50131000  0.29708734  0.39656943  1
  Zr  Zr67  1  0.90650494  0.92201129  0.61351542  1
  Zr  Zr68  1  0.18559622  0.39379450  0.74646043  1
  Zr  Zr69  1  0.40724498  0.59560051  0.00856554  1
  Zr  Zr70  1  0.51045791  0.88828854  0.61569190  1
  Zr  Zr71  1  0.49910956  0.49479242  0.86000499  1
  Zr  Zr72  1  0.79715060  0.18858758  0.74591814  1
  Zr  Zr73  1  0.80366400  -0.00701922  0.75531552  1
  Zr  Zr74  1  0.80403612  0.38637674  0.75017923  1
  Zr  Zr75  1  0.59677612  0.60297766  0.23286190  1
  Zr  Zr76  1  0.20407081  0.39884921  0.25896357  1
  Zr  Zr77  1  0.20106847  0.60088407  -0.00572071  1
  Zr  Zr78  1  0.69110121  0.29041897  0.12168944  1
  Zr  Zr79  1  0.19984929  0.60780999  0.50540591  1
  Ta  Ta80  1  0.69372604  0.29819177  0.38631317  1
  Ta  Ta81  1  0.30601813  0.10063807  0.86586245  1
  Ta  Ta82  1  0.29893303  0.50491985  0.36975430  1
  Ta  Ta83  1  0.09355167  0.90501313  0.89135501  1
  Ta  Ta84  1  0.51057203  0.91827066  0.87319230  1
  Ta  Ta85  1  0.79805966  0.39966099  0.25888126  1
  Ta  Ta86  1  0.92176143  0.47606019  0.87397921  1
  Ta  Ta87  1  0.20620327  0.00390300  -0.00099457  1
  Ta  Ta88  1  0.10294816  0.49489582  0.62050355  1
  Ta  Ta89  1  0.59322776  0.62052430  0.51803303  1
  Ta  Ta90  1  0.11503062  0.72016486  0.63509850  1
  Ta  Ta91  1  0.11057251  0.91776896  0.63032495  1
  Ta  Ta92  1  0.72161682  0.70659168  0.12716557  1
  Ta  Ta93  1  0.31580399  0.70079618  0.63525408  1
  Ta  Ta94  1  0.51045294  0.90140034  0.38749739  1
  Ta  Ta95  1  0.21499535  0.80796958  0.50061144  1
  Ta  Ta96  1  0.59858452  0.38701202  0.25316811  1
  Ta  Ta97  1  0.49502354  0.29363047  0.61601224  1
  Ta  Ta98  1  0.59846635  0.18923920  0.73677806  1
  Ta  Ta99  1  0.30782313  0.09740683  0.14237539  1
  Ta  Ta100  1  0.40300187  0.79048314  0.49324621  1
  Ta  Ta101  1  0.09025158  0.30203547  0.14416624  1
  Ta  Ta102  1  0.39012989  0.40375054  0.51550948  1
  Ta  Ta103  1  0.11401288  0.71299467  0.87205834  1
  Ta  Ta104  1  0.70397498  0.09035358  0.60236512  1
  Ta  Ta105  1  0.09759020  0.89954725  0.10482330  1
  Ta  Ta106  1  0.19276066  0.00642880  0.49826835  1
  Ta  Ta107  1  0.41354018  0.79653105  0.75241573  1
  Ta  Ta108  1  0.38141065  0.18818560  0.50963212  1
  Ta  Ta109  1  0.08160840  0.28987948  0.61211694  1
  Ta  Ta110  1  0.20915924  0.80474719  0.00032585  1
  Ta  Ta111  1  0.72356585  0.89878580  0.12483034  1
  Ta  Ta112  1  0.89434743  0.30030866  0.14171148  1
  Ta  Ta113  1  0.38715078  0.39513103  0.73233375  1
  Ta  Ta114  1  -0.00407771  0.18385629  0.48676717  1
  Ta  Ta115  1  -0.01738011  0.18457229  0.24848416  1
  Ta  Ta116  1  0.09763698  0.51197797  0.35918231  1
  Ta  Ta117  1  0.29886928  0.69952194  0.36364528  1
  Ta  Ta118  1  0.89624426  0.28852250  0.60818526  1
  Ta  Ta119  1  0.09043014  0.49930608  0.14860958  1
  Ti  Ti120  1  0.49531863  0.28944829  0.13019533  1
  Ti  Ti121  1  -0.01212467  0.40124349  0.26085811  1
  Ti  Ti122  1  0.40540436  0.19516899  0.26493337  1
  Ti  Ti123  1  0.70316852  0.49573690  0.87436582  1
  Ti  Ti124  1  0.70289463  0.28800894  0.61114456  1
  Ti  Ti125  1  0.10184611  0.08567304  0.36204039  1
  Ti  Ti126  1  0.89917347  0.50308405  0.13277029  1
  Ti  Ti127  1  0.89644382  0.10050764  0.87779390  1
  Ti  Ti128  1  0.68145213  0.08262214  0.87722517  1
  Ti  Ti129  1  0.82807170  0.79822333  0.24622563  1
  Ti  Ti130  1  -0.00416432  0.38758985  0.73923621  1
  Ti  Ti131  1  0.89300786  0.71656117  0.38619734  1
  Ti  Ti132  1  0.60280682  0.00836256  0.27013497  1
  Ti  Ti133  1  0.29487486  0.28985874  0.86380755  1
  Ti  Ti134  1  0.79160076  0.79896779  0.76221406  1
  Ti  Ti135  1  0.79439194  -0.00605180  -0.00708537  1
  Ti  Ti136  1  0.59199365  0.19609674  0.26315353  1
  Ti  Ti137  1  0.41065719  0.39310665  0.25673400  1
  Ti  Ti138  1  0.81769325  0.80790189  -0.00807854  1
  Ti  Ti139  1  0.29030523  0.10123055  0.36164809  1
  Ti  Ti140  1  0.79715920  0.19330149  0.48471420  1
  Ti  Ti141  1  0.60292640  -0.00234471  0.74440582  1
  Ti  Ti142  1  0.48565380  0.28491002  0.85670649  1
  Ti  Ti143  1  0.61175168  0.80875820  0.75925054  1
  Ti  Ti144  1  -0.00961452  0.19745576  0.74698915  1
  Ti  Ti145  1  0.88953326  0.51205023  0.37304122  1
  Ti  Ti146  1  0.30967943  0.70402548  0.87459145  1
  Ti  Ti147  1  0.50234221  0.48000440  0.12536369  1
  Ti  Ti148  1  0.19161075  0.00178947  0.75679824  1
  Ti  Ti149  1  0.79817074  0.39758221  0.49512523  1
  Ti  Ti150  1  0.90417527  0.10589997  0.61573815  1
  Ti  Ti151  1  0.50207339  0.10071162  0.39319692  1
  Ti  Ti152  1  0.89257393  0.29432149  0.37129721  1
  Ti  Ti153  1  -0.01816580  -0.00125087  0.01020557  1
  Ti  Ti154  1  0.09680357  0.10286205  0.62344964  1
  Ti  Ti155  1  0.79677237  0.18319394  0.00310223  1
  Ti  Ti156  1  0.18319082  0.19310263  0.74953351  1
  Ti  Ti157  1  0.50606053  0.72039279  0.11034105  1
  Ti  Ti158  1  0.49083578  0.10492052  0.13903365  1
  Ti  Ti159  1  0.50522501  0.70189448  0.37431070  1
  Mo  Mo160  1  0.19492014  0.19231470  0.24950362  1
  Mo  Mo161  1  0.00560077  0.80371343  -0.00866823  1
  Mo  Mo162  1  0.69094705  0.10440737  0.38947680  1
  Mo  Mo163  1  0.88401069  0.09628741  0.12140978  1
  Mo  Mo164  1  0.38911154  0.19629820  -0.00492328  1
  Mo  Mo165  1  0.60208487  0.00380334  0.48941312  1
  Mo  Mo166  1  0.60830296  0.00255833  -0.00297528  1
  Mo  Mo167  1  0.20341860  0.00282208  0.24372473  1
  Mo  Mo168  1  -0.00583263  0.80767123  0.25098611  1
  Mo  Mo169  1  0.18835409  0.18388174  0.49488789  1
  Mo  Mo170  1  0.10843073  0.90518420  0.37727201  1
  Mo  Mo171  1  0.90553243  0.91551493  0.88216787  1
  Mo  Mo172  1  0.49707730  0.71256216  0.62926895  1
  Mo  Mo173  1  0.70796227  0.70358129  0.87831519  1
  Mo  Mo174  1  0.81920993  0.01323334  0.48882549  1
  Mo  Mo175  1  0.20078750  0.80288137  0.75460190  1
  Mo  Mo176  1  0.81297225  0.79378893  0.50275814  1
  Mo  Mo177  1  0.60121429  0.79165820  0.49388734  1
  Mo  Mo178  1  0.09341908  0.50551142  0.87244808  1
  Mo  Mo179  1  0.49768663  0.10108174  0.85434391  1
  Mo  Mo180  1  0.69671819  0.71357797  0.63062340  1
  Mo  Mo181  1  0.29320083  0.49643317  0.62474845  1
  Mo  Mo182  1  0.00564000  0.02381060  0.75314923  1
  Mo  Mo183  1  0.41817433  0.01359446  0.26447540  1
  Mo  Mo184  1  0.27751974  0.08669549  0.63145224  1
  Mo  Mo185  1  0.70494776  0.89831410  0.87234593  1
  Mo  Mo186  1  0.19578385  0.60511907  0.25549601  1
  Mo  Mo187  1  0.59893882  0.20231613  0.51288689  1
  Mo  Mo188  1  0.01362304  0.01139136  0.49377691  1
  Mo  Mo189  1  0.40382502  0.80798552  -0.00143323  1
  Mo  Mo190  1  0.89463190  0.71292556  0.11606099  1
  Mo  Mo191  1  0.70278858  0.50077493  0.62341643  1
  Mo  Mo192  1  0.40944893  -0.00258936  0.75388885  1
  Mo  Mo193  1  0.91666404  0.89823431  0.38414419  1
  Mo  Mo194  1  0.40010547  0.60394368  0.75469089  1
  Mo  Mo195  1  -0.00484687  0.39987960  0.02104672  1
  Mo  Mo196  1  0.80109430  0.60145448  0.24766765  1
  Mo  Mo197  1  0.89879643  0.28426332  0.87713764  1
  Mo  Mo198  1  0.90216267  0.09948129  0.37433183  1
  Mo  Mo199  1  0.90096403  0.89578328  0.11474554  1
