# generated using pymatgen
data_HfZrTaTiMo
_symmetry_space_group_name_H-M   'P 1'
_cell_length_a   15.20765991
_cell_length_b   15.20699288
_cell_length_c   16.82362834
_cell_angle_alpha   89.97124751
_cell_angle_beta   89.94912572
_cell_angle_gamma   89.96881564
_symmetry_Int_Tables_number   1
_chemical_formula_structural   HfZrTaTiMo
_chemical_formula_sum   'Hf40 Zr40 Ta40 Ti40 Mo40'
_cell_volume   3890.67639538
_cell_formula_units_Z   40
loop_
 _symmetry_equiv_pos_site_id
 _symmetry_equiv_pos_as_xyz
  1  'x, y, z'
loop_
 _atom_site_type_symbol
 _atom_site_label
 _atom_site_symmetry_multiplicity
 _atom_site_fract_x
 _atom_site_fract_y
 _atom_site_fract_z
 _atom_site_occupancy
  Hf  Hf0  1  0.80750885  -0.00920616  0.24898327  1
  Hf  Hf1  1  0.78831155  0.19136982  0.48930406  1
  Hf  Hf2  1  0.39380318  0.39550675  0.24331337  1
  Hf  Hf3  1  0.41106422  -0.00871735  0.51383703  1
  Hf  Hf4  1  0.20982643  0.60789494  0.75785670  1
  Hf  Hf5  1  0.20417483  0.21307099  0.73074752  1
  Hf  Hf6  1  0.29497635  0.70563385  0.37931131  1
  Hf  Hf7  1  0.69288833  0.30192006  0.62378555  1
  Hf  Hf8  1  0.58998436  0.40958061  0.76059140  1
  Hf  Hf9  1  0.90726026  0.09028841  0.86529006  1
  Hf  Hf10  1  0.10124371  0.70958814  0.87786432  1
  Hf  Hf11  1  0.68678587  0.90893418  0.87087509  1
  Hf  Hf12  1  0.20066676  0.38638274  0.01002317  1
  Hf  Hf13  1  0.29062334  0.28612170  0.87829615  1
  Hf  Hf14  1  0.29707330  0.49663124  0.38338339  1
  Hf  Hf15  1  0.00226781  0.20899699  -0.00455966  1
  Hf  Hf16  1  0.70454060  0.51817903  0.62693826  1
  Hf  Hf17  1  0.80605701  0.19953801  -0.00109723  1
  Hf  Hf18  1  0.50415738  0.50087507  0.37795829  1
  Hf  Hf19  1  0.90301068  0.29725287  0.13621120  1
  Hf  Hf20  1  0.49113492  0.28717518  0.61232443  1
  Hf  Hf21  1  0.50257660  0.69577506  0.63166712  1
  Hf  Hf22  1  0.08555002  0.70721680  0.63669713  1
  Hf  Hf23  1  0.20141067  0.59376538  0.24484417  1
  Hf  Hf24  1  0.09661332  0.90906577  0.85961143  1
  Hf  Hf25  1  0.59816156  0.19176165  0.00102291  1
  Hf  Hf26  1  0.21611797  0.80505794  0.00346112  1
  Hf  Hf27  1  0.40087081  0.60449880  0.50103737  1
  Hf  Hf28  1  0.00610483  0.39739991  0.25775078  1
  Hf  Hf29  1  0.10018842  0.90888966  0.12730478  1
  Hf  Hf30  1  0.20286466  0.00587345  0.73129827  1
  Hf  Hf31  1  -0.00248120  0.40813303  0.50664241  1
  Hf  Hf32  1  0.20638772  0.00704309  -0.00049857  1
  Hf  Hf33  1  0.49608966  0.51807247  0.11980580  1
  Hf  Hf34  1  0.80440968  0.20207067  0.74895481  1
  Hf  Hf35  1  0.79767499  0.59769410  0.24880638  1
  Hf  Hf36  1  0.30076047  0.11293370  0.60396831  1
  Hf  Hf37  1  -0.00174711  0.59348023  0.76376159  1
  Hf  Hf38  1  -0.00054868  0.80568740  0.24227008  1
  Hf  Hf39  1  0.00591127  0.19094261  0.73702452  1
  Zr  Zr40  1  0.78608618  0.80533353  0.01490427  1
  Zr  Zr41  1  -0.00600087  0.79124022  0.49933088  1
  Zr  Zr42  1  0.38931895  0.39389414  0.74334318  1
  Zr  Zr43  1  0.90624671  0.08642527  0.61501545  1
  Zr  Zr44  1  0.70511068  0.72105353  0.63811713  1
  Zr  Zr45  1  0.49569774  0.29226067  0.38239822  1
  Zr  Zr46  1  0.50332121  0.08587156  0.87683352  1
  Zr  Zr47  1  0.70448200  0.30084862  0.87762834  1
  Zr  Zr48  1  0.59707922  0.81261218  0.49546854  1
  Zr  Zr49  1  0.79799914  0.40599941  0.49876482  1
  Zr  Zr50  1  0.67850555  0.69525003  0.12192266  1
  Zr  Zr51  1  0.59057760  0.40549163  -0.00357220  1
  Zr  Zr52  1  0.69842369  0.09538189  0.13282847  1
  Zr  Zr53  1  0.00232389  0.39586710  0.72992849  1
  Zr  Zr54  1  -0.00860620  0.80321432  0.00713897  1
  Zr  Zr55  1  0.31048627  0.67730834  0.10616840  1
  Zr  Zr56  1  0.79360024  0.80122673  0.49115604  1
  Zr  Zr57  1  0.31419347  0.09839260  0.38951107  1
  Zr  Zr58  1  0.40623225  0.60608189  0.25398324  1
  Zr  Zr59  1  0.70329509  0.49448225  0.12228395  1
  Zr  Zr60  1  0.10285026  0.50530529  0.38291042  1
  Zr  Zr61  1  0.70315992  0.51097508  0.88200035  1
  Zr  Zr62  1  0.19308338  0.20433764  0.26353685  1
  Zr  Zr63  1  0.21132009  -0.00454939  0.25186323  1
  Zr  Zr64  1  0.81094406  0.40943549  0.74895848  1
  Zr  Zr65  1  0.70038613  0.50689819  0.37268072  1
  Zr  Zr66  1  0.80974026  0.19574444  0.26372851  1
  Zr  Zr67  1  0.10172562  0.50592031  0.11044228  1
  Zr  Zr68  1  0.10144078  0.11467399  0.12811751  1
  Zr  Zr69  1  0.38823641  0.19003178  0.00495607  1
  Zr  Zr70  1  0.50874606  0.49936599  0.61886306  1
  Zr  Zr71  1  0.59217294  0.20077759  0.75902914  1
  Zr  Zr72  1  0.89453166  0.88253246  0.86043886  1
  Zr  Zr73  1  0.08886105  0.31256589  0.87048666  1
  Zr  Zr74  1  0.40699287  -0.02870900  0.00946106  1
  Zr  Zr75  1  0.49586452  0.91804357  0.36350365  1
  Zr  Zr76  1  0.11499964  0.10827120  0.87322013  1
  Zr  Zr77  1  0.30765559  0.49524936  0.88936401  1
  Zr  Zr78  1  0.29388334  0.89583909  0.38104461  1
  Zr  Zr79  1  0.80106149  -0.00301487  0.00948893  1
  Ta  Ta80  1  0.20291570  0.40331289  0.51932035  1
  Ta  Ta81  1  0.19416441  0.40930285  0.73186387  1
  Ta  Ta82  1  0.40223927  -0.00473483  0.73340600  1
  Ta  Ta83  1  0.89785864  0.29290197  0.60981432  1
  Ta  Ta84  1  0.61019930  0.00894614  0.49994456  1
  Ta  Ta85  1  0.38734447  0.79473003  0.73798262  1
  Ta  Ta86  1  0.40545503  0.59750501  0.75981602  1
  Ta  Ta87  1  0.69823225  0.29985333  0.13139010  1
  Ta  Ta88  1  0.80608053  0.60403791  -0.00326905  1
  Ta  Ta89  1  0.79693864  -0.01239407  0.49801098  1
  Ta  Ta90  1  0.49935261  0.29669003  0.12717294  1
  Ta  Ta91  1  0.69290083  0.29937602  0.37000828  1
  Ta  Ta92  1  0.10402320  0.09494994  0.39997241  1
  Ta  Ta93  1  0.59768273  0.79344632  0.25390553  1
  Ta  Ta94  1  0.50306644  0.70795152  0.37606704  1
  Ta  Ta95  1  0.90204999  0.69159450  0.12604158  1
  Ta  Ta96  1  0.30134173  0.88832317  0.86211283  1
  Ta  Ta97  1  0.69521047  0.71689105  0.87373838  1
  Ta  Ta98  1  0.90104679  0.69664473  0.36279336  1
  Ta  Ta99  1  0.81398735  0.61248197  0.49439734  1
  Ta  Ta100  1  0.10066131  0.29834218  0.39368307  1
  Ta  Ta101  1  0.39859328  0.19052009  0.24929349  1
  Ta  Ta102  1  0.39578935  0.80710886  0.23669262  1
  Ta  Ta103  1  0.49358123  0.89069963  0.86191612  1
  Ta  Ta104  1  0.20243112  0.79005499  0.23575982  1
  Ta  Ta105  1  0.50101572  0.09137238  0.13303763  1
  Ta  Ta106  1  0.80964368  0.61606266  0.76408249  1
  Ta  Ta107  1  0.00518796  0.01272145  0.26320171  1
  Ta  Ta108  1  0.59506736  0.20237672  0.24914662  1
  Ta  Ta109  1  0.90629699  0.49897312  0.11854294  1
  Ta  Ta110  1  0.09904184  0.70668030  0.37226542  1
  Ta  Ta111  1  0.00269334  0.60281237  0.24644406  1
  Ta  Ta112  1  0.79790027  0.79786410  0.24100891  1
  Ta  Ta113  1  0.39613167  0.79964622  0.51454920  1
  Ta  Ta114  1  0.29571592  0.30141720  0.38887877  1
  Ta  Ta115  1  0.89446872  0.87850069  0.64015818  1
  Ta  Ta116  1  -0.00295263  0.00232470  0.00225993  1
  Ta  Ta117  1  0.69863639  0.09953490  0.62299871  1
  Ta  Ta118  1  0.39690806  0.19026254  0.74914220  1
  Ta  Ta119  1  0.10347845  0.50394113  0.89135216  1
  Ti  Ti120  1  0.60201607  0.39813567  0.49728131  1
  Ti  Ti121  1  0.09494368  0.30121568  0.12905546  1
  Ti  Ti122  1  0.59980291  0.40457566  0.24700631  1
  Ti  Ti123  1  0.30162229  0.50996852  0.62442390  1
  Ti  Ti124  1  0.48899145  0.70735836  0.86986600  1
  Ti  Ti125  1  0.60194544  -0.00026602  0.73978214  1
  Ti  Ti126  1  0.91088102  0.48946985  0.88986736  1
  Ti  Ti127  1  0.48228337  0.31024014  0.88388840  1
  Ti  Ti128  1  0.29620599  0.28791565  0.12632728  1
  Ti  Ti129  1  0.30800001  0.08545734  0.86766962  1
  Ti  Ti130  1  0.69913002  0.89923105  0.36358609  1
  Ti  Ti131  1  0.19070688  0.61293652  0.50428125  1
  Ti  Ti132  1  0.90460934  0.89682071  0.37169568  1
  Ti  Ti133  1  0.19462126  0.81125703  0.51128836  1
  Ti  Ti134  1  0.79865166  -0.00388840  0.74082891  1
  Ti  Ti135  1  0.00287546  -0.01468419  0.50113297  1
  Ti  Ti136  1  0.91289383  0.09646251  0.13277210  1
  Ti  Ti137  1  0.68514078  0.09413882  0.36836294  1
  Ti  Ti138  1  0.20346716  0.39837144  0.24424856  1
  Ti  Ti139  1  0.58576483  0.62355105  -0.01217288  1
  Ti  Ti140  1  0.09974649  0.28147788  0.60046140  1
  Ti  Ti141  1  0.90713979  0.09215785  0.38693213  1
  Ti  Ti142  1  0.50825622  0.10165729  0.62223311  1
  Ti  Ti143  1  0.90349362  0.29915937  0.38057865  1
  Ti  Ti144  1  0.51345290  0.89500141  0.63453023  1
  Ti  Ti145  1  0.51623693  0.89512099  0.13219649  1
  Ti  Ti146  1  0.09989254  0.69485857  0.11011506  1
  Ti  Ti147  1  0.39529805  0.39803493  0.50775340  1
  Ti  Ti148  1  0.90335123  0.52013678  0.62157024  1
  Ti  Ti149  1  0.09017811  0.90303957  0.63770322  1
  Ti  Ti150  1  0.60080048  0.61025098  0.76385107  1
  Ti  Ti151  1  0.90622081  0.50386308  0.37479911  1
  Ti  Ti152  1  0.61445468  0.61510848  0.49355004  1
  Ti  Ti153  1  0.81047502  0.39417138  0.00113756  1
  Ti  Ti154  1  0.80066176  0.39772122  0.25426988  1
  Ti  Ti155  1  0.10204697  0.89775258  0.37470673  1
  Ti  Ti156  1  0.29006536  0.70407067  0.62415233  1
  Ti  Ti157  1  0.10143841  0.51448480  0.61806021  1
  Ti  Ti158  1  0.70278444  0.09593228  0.87448335  1
  Ti  Ti159  1  0.30265085  0.09005403  0.13037195  1
  Mo  Mo160  1  0.20048187  0.20389832  0.49574143  1
  Mo  Mo161  1  0.40453875  -0.00040680  0.23637016  1
  Mo  Mo162  1  0.70210751  0.91631461  0.63048735  1
  Mo  Mo163  1  0.20027755  0.60236596  -0.01071936  1
  Mo  Mo164  1  0.58588686  0.81615387  -0.00309892  1
  Mo  Mo165  1  -0.00883270  0.78915206  0.75160235  1
  Mo  Mo166  1  -0.00911458  0.39937786  0.00413728  1
  Mo  Mo167  1  0.58768178  0.80492608  0.75305280  1
  Mo  Mo168  1  -0.00282896  -0.00370342  0.73812081  1
  Mo  Mo169  1  0.69886950  0.70575798  0.36486558  1
  Mo  Mo170  1  0.30755192  0.70610154  0.87731091  1
  Mo  Mo171  1  -0.00491888  0.60131097  -0.00688411  1
  Mo  Mo172  1  0.79046702  0.80056020  0.75596214  1
  Mo  Mo173  1  0.29864459  0.89468325  0.62464747  1
  Mo  Mo174  1  0.60288127  0.19234683  0.49621557  1
  Mo  Mo175  1  -0.00295372  0.60499225  0.49629881  1
  Mo  Mo176  1  0.60065382  -0.00987150  0.00474649  1
  Mo  Mo177  1  0.39967985  0.39312016  0.01674949  1
  Mo  Mo178  1  0.41641730  0.78835619  -0.00165170  1
  Mo  Mo179  1  0.59530340  0.60379485  0.25748919  1
  Mo  Mo180  1  0.20103754  0.80384363  0.74492576  1
  Mo  Mo181  1  0.89728536  0.30066279  0.87414555  1
  Mo  Mo182  1  0.40648631  0.20071212  0.49705936  1
  Mo  Mo183  1  0.29902218  0.30863493  0.61579813  1
  Mo  Mo184  1  0.49913785  0.71026065  0.12177837  1
  Mo  Mo185  1  0.89420581  0.69088346  0.62972780  1
  Mo  Mo186  1  0.00191794  0.19568306  0.27835823  1
  Mo  Mo187  1  0.40898877  0.59618739  -0.01530393  1
  Mo  Mo188  1  0.50013268  0.50867098  0.87804538  1
  Mo  Mo189  1  0.30538100  0.48387625  0.11336849  1
  Mo  Mo190  1  0.19128231  -0.01057954  0.51224600  1
  Mo  Mo191  1  0.30809897  0.89364098  0.12728185  1
  Mo  Mo192  1  0.09825156  0.09285623  0.60096433  1
  Mo  Mo193  1  -0.00820714  0.19798588  0.48806453  1
  Mo  Mo194  1  0.89297851  0.69029822  0.88479137  1
  Mo  Mo195  1  0.50734081  0.10215433  0.36836225  1
  Mo  Mo196  1  0.69139438  0.89899624  0.13923569  1
  Mo  Mo197  1  0.20120615  0.19515263  0.00782990  1
  Mo  Mo198  1  0.90298140  0.90561226  0.13306218  1
  Mo  Mo199  1  0.60240068  -0.00042079  0.25134748  1
