# generated using pymatgen
data_HfZrTaTiMo
_symmetry_space_group_name_H-M   'P 1'
_cell_length_a   15.21681574
_cell_length_b   15.21457585
_cell_length_c   16.82792823
_cell_angle_alpha   90.02813443
_cell_angle_beta   90.02648007
_cell_angle_gamma   90.14495014
_symmetry_Int_Tables_number   1
_chemical_formula_structural   HfZrTaTiMo
_chemical_formula_sum   'Hf40 Zr40 Ta40 Ti40 Mo40'
_cell_volume   3895.94478941
_cell_formula_units_Z   40
loop_
 _symmetry_equiv_pos_site_id
 _symmetry_equiv_pos_as_xyz
  1  'x, y, z'
loop_
 _atom_site_type_symbol
 _atom_site_label
 _atom_site_symmetry_multiplicity
 _atom_site_fract_x
 _atom_site_fract_y
 _atom_site_fract_z
 _atom_site_occupancy
  Hf  Hf0  1  0.28675560  0.49353566  0.13271507  1
  Hf  Hf1  1  0.50044998  0.69458462  0.36692405  1
  Hf  Hf2  1  0.81066439  -0.01272333  0.25725380  1
  Hf  Hf3  1  0.69726321  0.88756745  0.39424254  1
  Hf  Hf4  1  0.70658896  0.09523589  0.87702604  1
  Hf  Hf5  1  0.40703274  -0.00059431  0.00322192  1
  Hf  Hf6  1  0.51296355  0.31873574  0.61140939  1
  Hf  Hf7  1  0.78848888  0.78433100  0.25546272  1
  Hf  Hf8  1  0.29285343  0.70297994  0.89113338  1
  Hf  Hf9  1  0.91600645  0.51291127  0.37862279  1
  Hf  Hf10  1  0.19550470  0.80991675  0.75278621  1
  Hf  Hf11  1  0.91446662  0.30433592  0.85599135  1
  Hf  Hf12  1  0.19528435  0.01547085  0.00289322  1
  Hf  Hf13  1  0.40031021  0.80032803  0.75658076  1
  Hf  Hf14  1  0.91031525  0.30006457  0.14096977  1
  Hf  Hf15  1  0.79881586  0.39570365  0.49597903  1
  Hf  Hf16  1  0.28718708  0.48609710  0.87998297  1
  Hf  Hf17  1  0.09398151  0.31015795  0.63487169  1
  Hf  Hf18  1  0.49991861  0.09892405  0.61139440  1
  Hf  Hf19  1  0.60466237  0.59836639  0.01458085  1
  Hf  Hf20  1  0.51391744  0.10444588  0.87822017  1
  Hf  Hf21  1  0.01151001  0.20356124  -0.00492189  1
  Hf  Hf22  1  0.00899412  0.01688886  0.51403110  1
  Hf  Hf23  1  0.10634705  0.31486132  0.13059827  1
  Hf  Hf24  1  0.50805935  0.89447774  0.87432071  1
  Hf  Hf25  1  0.18237784  0.58509174  0.00381488  1
  Hf  Hf26  1  0.90374606  0.09864577  0.85982956  1
  Hf  Hf27  1  0.12235095  0.11164021  0.63479401  1
  Hf  Hf28  1  0.19043686  0.60429581  0.75304630  1
  Hf  Hf29  1  0.70479867  0.09851547  0.12253378  1
  Hf  Hf30  1  0.81146402  0.41623229  0.00953494  1
  Hf  Hf31  1  0.79693317  0.79402818  0.73917778  1
  Hf  Hf32  1  0.16802464  0.01063603  0.24741324  1
  Hf  Hf33  1  0.69969555  0.08500535  0.39031114  1
  Hf  Hf34  1  -0.00512406  0.79447083  0.73576293  1
  Hf  Hf35  1  0.69540534  0.50050215  0.87077312  1
  Hf  Hf36  1  0.29876784  0.51361508  0.36537636  1
  Hf  Hf37  1  0.19404011  0.40558897  0.48857910  1
  Hf  Hf38  1  0.30407963  0.11104655  0.13604931  1
  Hf  Hf39  1  0.58316655  0.57792417  0.49827187  1
  Zr  Zr40  1  0.30906520  0.30426075  0.13769775  1
  Zr  Zr41  1  0.48915683  0.69570606  0.62065873  1
  Zr  Zr42  1  0.28638337  0.70453541  0.62274620  1
  Zr  Zr43  1  0.39975073  0.39722177  0.75104243  1
  Zr  Zr44  1  0.41615319  0.80469260  0.23525099  1
  Zr  Zr45  1  0.70178620  0.69161118  0.60498232  1
  Zr  Zr46  1  0.39700412  0.79493517  0.01603904  1
  Zr  Zr47  1  0.10261364  0.90265195  0.88861955  1
  Zr  Zr48  1  0.59994554  0.39281632  0.01837356  1
  Zr  Zr49  1  0.08544742  0.69100652  0.38317239  1
  Zr  Zr50  1  0.09515939  0.51369076  0.62004055  1
  Zr  Zr51  1  0.21114083  0.22293703  -0.01114007  1
  Zr  Zr52  1  0.70319403  0.89299834  0.12588602  1
  Zr  Zr53  1  0.30729050  0.91433017  0.62242986  1
  Zr  Zr54  1  0.19067169  0.21044389  0.26430200  1
  Zr  Zr55  1  0.70826383  0.50503939  0.35550022  1
  Zr  Zr56  1  0.88085275  0.69286335  0.11370722  1
  Zr  Zr57  1  0.18492611  0.79586918  0.24628873  1
  Zr  Zr58  1  -0.01195239  0.80538038  0.25133221  1
  Zr  Zr59  1  0.08021538  0.70477141  0.89145201  1
  Zr  Zr60  1  0.58798664  0.59352978  0.74459239  1
  Zr  Zr61  1  0.89403214  0.49706973  0.62812463  1
  Zr  Zr62  1  0.60039409  -0.00691979  0.73596199  1
  Zr  Zr63  1  0.40820429  0.19211809  0.74485015  1
  Zr  Zr64  1  0.80999056  0.18289896  0.25517920  1
  Zr  Zr65  1  0.68058399  0.47336974  0.62894468  1
  Zr  Zr66  1  0.59126059  0.79892495  0.01403968  1
  Zr  Zr67  1  0.59270193  0.18060665  0.26185525  1
  Zr  Zr68  1  0.69880974  0.69389146  0.39091329  1
  Zr  Zr69  1  0.90805858  0.30638738  0.35492463  1
  Zr  Zr70  1  0.01243231  -0.00896346  0.74435038  1
  Zr  Zr71  1  0.80919289  0.20143177  0.00867122  1
  Zr  Zr72  1  0.82615782  0.19670970  0.48954000  1
  Zr  Zr73  1  0.29229903  0.90712967  0.13120402  1
  Zr  Zr74  1  0.79985891  -0.01129213  0.73532050  1
  Zr  Zr75  1  0.70564377  0.29620242  0.88421150  1
  Zr  Zr76  1  0.29785929  0.90292716  0.35887957  1
  Zr  Zr77  1  0.40260822  0.00047952  0.48902636  1
  Zr  Zr78  1  0.30006788  0.29662646  0.61216099  1
  Zr  Zr79  1  0.61882764  0.21641954  0.73708026  1
  Ta  Ta80  1  0.01431367  0.40848736  -0.00392430  1
  Ta  Ta81  1  0.50164721  0.29147403  0.13672915  1
  Ta  Ta82  1  0.89716357  0.88701323  0.88048027  1
  Ta  Ta83  1  0.41589811  0.20576923  -0.00059084  1
  Ta  Ta84  1  0.21877444  0.01111740  0.75760185  1
  Ta  Ta85  1  0.70905581  0.10536774  0.60918894  1
  Ta  Ta86  1  0.49719743  0.68942275  0.87829800  1
  Ta  Ta87  1  0.81554619  -0.00752856  0.51271611  1
  Ta  Ta88  1  0.88091360  0.69276813  0.87962733  1
  Ta  Ta89  1  0.49384288  0.49865065  0.88451703  1
  Ta  Ta90  1  0.70198918  0.29833672  0.35831510  1
  Ta  Ta91  1  0.30852404  0.10332838  0.87818365  1
  Ta  Ta92  1  0.49286788  0.29041053  0.37305007  1
  Ta  Ta93  1  0.59323183  0.40122550  0.25422323  1
  Ta  Ta94  1  0.39061856  0.59649441  0.75711736  1
  Ta  Ta95  1  0.19645706  0.19441278  0.48786167  1
  Ta  Ta96  1  0.70230504  0.30483593  0.14605983  1
  Ta  Ta97  1  0.92125520  0.08446089  0.12756550  1
  Ta  Ta98  1  -0.00007926  0.80725419  0.51264935  1
  Ta  Ta99  1  0.91252998  0.50299266  0.13991732  1
  Ta  Ta100  1  0.08357913  0.70220290  0.11039878  1
  Ta  Ta101  1  0.89915498  0.29897973  0.63965294  1
  Ta  Ta102  1  0.69054106  0.70220167  0.87278505  1
  Ta  Ta103  1  0.50385251  0.09915503  0.12353400  1
  Ta  Ta104  1  0.08181427  0.90670299  0.10958338  1
  Ta  Ta105  1  0.91167595  0.11270670  0.63853592  1
  Ta  Ta106  1  0.50520435  0.30604572  0.87907828  1
  Ta  Ta107  1  0.38846850  0.59744905  0.49149055  1
  Ta  Ta108  1  0.71307037  0.51022069  0.14701063  1
  Ta  Ta109  1  0.30381138  0.50184282  0.62175887  1
  Ta  Ta110  1  0.39304413  0.39565681  0.00235189  1
  Ta  Ta111  1  0.80752855  -0.00971460  -0.00372513  1
  Ta  Ta112  1  0.39498173  0.79437589  0.48766217  1
  Ta  Ta113  1  0.08770611  0.91091161  0.38446598  1
  Ta  Ta114  1  0.28640006  0.69190551  0.12495897  1
  Ta  Ta115  1  0.30798101  0.10714722  0.36408646  1
  Ta  Ta116  1  0.59806151  0.39266018  0.47245606  1
  Ta  Ta117  1  0.19859589  0.80799144  0.49185031  1
  Ta  Ta118  1  0.89492441  0.50002538  0.86091869  1
  Ta  Ta119  1  0.21652114  0.21461921  0.76053481  1
  Ti  Ti120  1  0.41720720  0.01422706  0.25672462  1
  Ti  Ti121  1  0.17121146  0.59446670  0.24500290  1
  Ti  Ti122  1  0.79389522  0.60135954  0.74567242  1
  Ti  Ti123  1  -0.02307859  0.58954690  -0.00462307  1
  Ti  Ti124  1  0.60128500  0.79748022  0.74479453  1
  Ti  Ti125  1  0.29475808  0.70357762  0.36412869  1
  Ti  Ti126  1  0.20705440  0.00633937  0.49269061  1
  Ti  Ti127  1  0.93343744  0.09202977  0.37010985  1
  Ti  Ti128  1  0.19651321  0.60903366  0.49655852  1
  Ti  Ti129  1  0.49667988  0.49387878  0.13362683  1
  Ti  Ti130  1  0.89914400  0.89398317  0.11316847  1
  Ti  Ti131  1  0.69600525  0.89266803  0.60222351  1
  Ti  Ti132  1  0.19647968  0.40697365  0.26941283  1
  Ti  Ti133  1  0.08564831  0.49826691  0.86338510  1
  Ti  Ti134  1  0.90025688  0.89626314  0.38894278  1
  Ti  Ti135  1  0.40184914  0.59834877  0.24138080  1
  Ti  Ti136  1  0.60427257  0.20287946  0.49190178  1
  Ti  Ti137  1  0.10488552  0.11419348  0.86109308  1
  Ti  Ti138  1  0.40235289  -0.00097926  0.75350648  1
  Ti  Ti139  1  0.11249121  0.89991236  0.61827241  1
  Ti  Ti140  1  0.89051061  0.70094407  0.39822505  1
  Ti  Ti141  1  0.78258420  0.38449397  0.74561820  1
  Ti  Ti142  1  -0.01147594  0.60728470  0.74895520  1
  Ti  Ti143  1  0.11676837  0.32095206  0.85710971  1
  Ti  Ti144  1  0.39799048  0.20021428  0.49337275  1
  Ti  Ti145  1  0.40203268  0.39776580  0.26071434  1
  Ti  Ti146  1  0.70297964  0.89415628  0.87677029  1
  Ti  Ti147  1  0.08625989  0.29848413  0.38148329  1
  Ti  Ti148  1  0.50463300  0.89116147  0.61221923  1
  Ti  Ti149  1  0.90349491  0.69213970  0.60719700  1
  Ti  Ti150  1  -0.00518346  0.00651866  -0.00869817  1
  Ti  Ti151  1  0.60647563  0.00055479  0.00366399  1
  Ti  Ti152  1  0.51019732  0.90085851  0.38017694  1
  Ti  Ti153  1  0.01790903  0.42244118  0.25490478  1
  Ti  Ti154  1  0.40041488  0.59380444  0.01159836  1
  Ti  Ti155  1  0.30218223  0.30248924  0.37803574  1
  Ti  Ti156  1  0.29992074  0.90277683  0.88491675  1
  Ti  Ti157  1  0.78744955  0.78744986  -0.00396351  1
  Ti  Ti158  1  0.40747581  0.41174313  0.48674116  1
  Ti  Ti159  1  0.60013844  -0.01849758  0.25066537  1
  Mo  Mo160  1  0.19399657  0.39975764  -0.00192385  1
  Mo  Mo161  1  0.50591460  0.91610242  0.13144006  1
  Mo  Mo162  1  0.79950406  0.59151246  0.50594699  1
  Mo  Mo163  1  0.48173830  0.49576514  0.61741725  1
  Mo  Mo164  1  0.80542837  0.19606972  0.74073740  1
  Mo  Mo165  1  0.80599657  0.40115065  0.24537822  1
  Mo  Mo166  1  0.59787555  0.19759055  0.01189703  1
  Mo  Mo167  1  0.00041307  0.41358083  0.75283678  1
  Mo  Mo168  1  0.49382164  0.68659003  0.13321565  1
  Mo  Mo169  1  0.00051578  0.60009056  0.50704165  1
  Mo  Mo170  1  0.19199082  0.79890206  0.01739661  1
  Mo  Mo171  1  0.58376999  0.79818101  0.50145117  1
  Mo  Mo172  1  0.09556960  0.10595152  0.11799204  1
  Mo  Mo173  1  0.09727314  0.70840464  0.61333087  1
  Mo  Mo174  1  0.59690827  0.60686464  0.23706630  1
  Mo  Mo175  1  0.80741264  0.80010502  0.50855878  1
  Mo  Mo176  1  0.01238111  0.20429622  0.75649693  1
  Mo  Mo177  1  0.10351097  0.10086698  0.38429141  1
  Mo  Mo178  1  0.30029421  0.10512584  0.62087289  1
  Mo  Mo179  1  0.79246703  0.59306202  -0.00543707  1
  Mo  Mo180  1  0.59791002  0.80060681  0.24640251  1
  Mo  Mo181  1  0.59304569  0.39855859  0.75769182  1
  Mo  Mo182  1  0.49480565  0.49632794  0.35971607  1
  Mo  Mo183  1  0.70690908  0.29139656  0.61077338  1
  Mo  Mo184  1  -0.00630854  -0.00762222  0.25187140  1
  Mo  Mo185  1  -0.00242405  0.38715300  0.49896082  1
  Mo  Mo186  1  0.90183400  0.90053233  0.61977544  1
  Mo  Mo187  1  0.10079083  0.49811521  0.38430066  1
  Mo  Mo188  1  -0.01911715  0.80621047  -0.00024891  1
  Mo  Mo189  1  0.60477323  -0.00203821  0.51097295  1
  Mo  Mo190  1  0.09302841  0.50647777  0.12568491  1
  Mo  Mo191  1  0.00816117  0.21363855  0.50486094  1
  Mo  Mo192  1  0.81437891  0.60405758  0.25539618  1
  Mo  Mo193  1  0.50337460  0.09435459  0.38757116  1
  Mo  Mo194  1  0.20452596  0.41001844  0.74494964  1
  Mo  Mo195  1  0.69299892  0.69205946  0.13260026  1
  Mo  Mo196  1  0.40165507  0.19998347  0.26035841  1
  Mo  Mo197  1  0.31156624  0.29882225  0.87535717  1
  Mo  Mo198  1  -0.00094744  0.61288219  0.24717134  1
  Mo  Mo199  1  0.01363734  0.18221843  0.24340086  1
