# generated using pymatgen
data_HfZrTaTiMo
_symmetry_space_group_name_H-M   'P 1'
_cell_length_a   15.19019973
_cell_length_b   15.19935126
_cell_length_c   16.80607016
_cell_angle_alpha   89.95713886
_cell_angle_beta   90.13003989
_cell_angle_gamma   89.97738765
_symmetry_Int_Tables_number   1
_chemical_formula_structural   HfZrTaTiMo
_chemical_formula_sum   'Hf40 Zr40 Ta40 Ti40 Mo40'
_cell_volume   3880.19394975
_cell_formula_units_Z   40
loop_
 _symmetry_equiv_pos_site_id
 _symmetry_equiv_pos_as_xyz
  1  'x, y, z'
loop_
 _atom_site_type_symbol
 _atom_site_label
 _atom_site_symmetry_multiplicity
 _atom_site_fract_x
 _atom_site_fract_y
 _atom_site_fract_z
 _atom_site_occupancy
  Hf  Hf0  1  0.70158290  0.70053897  0.63360439  1
  Hf  Hf1  1  0.71080312  0.50270326  0.88936769  1
  Hf  Hf2  1  0.29919340  0.50039281  0.39888990  1
  Hf  Hf3  1  -0.00632141  0.79828163  0.49935038  1
  Hf  Hf4  1  0.70091530  0.49044438  0.11634600  1
  Hf  Hf5  1  0.17750731  0.60970471  0.76987581  1
  Hf  Hf6  1  0.59332458  0.80959244  0.50110136  1
  Hf  Hf7  1  0.89104067  0.89583305  0.62227367  1
  Hf  Hf8  1  0.30525044  0.89446229  0.37289833  1
  Hf  Hf9  1  0.39736066  0.79413462  0.50441838  1
  Hf  Hf10  1  0.80205059  0.58805339  0.24405916  1
  Hf  Hf11  1  0.80664233  0.79270752  0.76006302  1
  Hf  Hf12  1  0.49970847  0.30464905  0.13193556  1
  Hf  Hf13  1  0.80281002  0.01059033  0.76781492  1
  Hf  Hf14  1  0.00413465  -0.00842324  0.74671545  1
  Hf  Hf15  1  0.49414842  0.50210583  0.12510918  1
  Hf  Hf16  1  0.30299026  0.69886088  0.12101165  1
  Hf  Hf17  1  0.71108728  0.89853725  0.13081481  1
  Hf  Hf18  1  0.91012162  0.11077180  0.13513722  1
  Hf  Hf19  1  0.08143704  0.48917363  0.61480894  1
  Hf  Hf20  1  0.09875473  0.50754888  0.38244349  1
  Hf  Hf21  1  0.50682757  0.51265912  0.61421708  1
  Hf  Hf22  1  0.41239980  0.00902251  0.73224084  1
  Hf  Hf23  1  0.09730016  0.89454882  0.36973770  1
  Hf  Hf24  1  0.49938916  0.71704616  0.64613728  1
  Hf  Hf25  1  0.50746925  0.71203058  0.86070318  1
  Hf  Hf26  1  0.09425517  0.30020935  0.37655218  1
  Hf  Hf27  1  0.01022142  0.77865182  0.75413555  1
  Hf  Hf28  1  0.29745385  0.09830480  0.13634336  1
  Hf  Hf29  1  0.51179022  0.30215592  0.39772542  1
  Hf  Hf30  1  0.81266588  0.78616941  0.01090964  1
  Hf  Hf31  1  0.39825475  0.20143245  -0.00042414  1
  Hf  Hf32  1  0.30544908  0.88850510  0.13427024  1
  Hf  Hf33  1  -0.00358927  0.19952735  -0.00253940  1
  Hf  Hf34  1  0.40037873  0.60474358  -0.01609740  1
  Hf  Hf35  1  0.70576836  0.89099074  0.35908331  1
  Hf  Hf36  1  0.81447756  0.40663857  0.75163305  1
  Hf  Hf37  1  0.60170284  0.00556418  0.25001596  1
  Hf  Hf38  1  0.39659286  0.60453091  0.25479898  1
  Hf  Hf39  1  0.60342670  0.19823822  0.73462707  1
  Zr  Zr40  1  0.89562464  0.70654150  0.35892097  1
  Zr  Zr41  1  0.81533164  0.00305254  0.25351535  1
  Zr  Zr42  1  0.29266007  0.70347388  0.64477518  1
  Zr  Zr43  1  0.60235650  -0.00088494  0.00992446  1
  Zr  Zr44  1  0.40382535  0.39578647  0.72816231  1
  Zr  Zr45  1  0.29968588  0.30202995  0.13506745  1
  Zr  Zr46  1  0.89237427  0.10169967  0.61979068  1
  Zr  Zr47  1  0.50121148  0.10344968  0.86730295  1
  Zr  Zr48  1  0.20361300  -0.00577291  -0.00197016  1
  Zr  Zr49  1  0.10700859  0.89463758  0.62213186  1
  Zr  Zr50  1  0.18521791  0.39437229  0.74143017  1
  Zr  Zr51  1  0.69618591  0.30444704  0.87447900  1
  Zr  Zr52  1  0.19935151  0.19574094  0.00394287  1
  Zr  Zr53  1  0.92364218  0.88913243  0.88887435  1
  Zr  Zr54  1  0.68545748  0.91498637  0.64239276  1
  Zr  Zr55  1  0.09649793  0.71020551  0.11629396  1
  Zr  Zr56  1  0.29827974  0.49880433  0.12040275  1
  Zr  Zr57  1  0.50400425  0.50592489  0.39244712  1
  Zr  Zr58  1  0.70409017  0.29739093  0.13267364  1
  Zr  Zr59  1  -0.01831103  0.57516593  0.76256189  1
  Zr  Zr60  1  0.28708130  0.51183893  0.61044064  1
  Zr  Zr61  1  0.62842676  0.01331927  0.49175324  1
  Zr  Zr62  1  0.09561212  0.30414807  0.87161517  1
  Zr  Zr63  1  0.20178217  0.40093241  0.25618930  1
  Zr  Zr64  1  0.10273792  0.09236715  0.87096937  1
  Zr  Zr65  1  0.40911255  -0.00480706  0.25626922  1
  Zr  Zr66  1  0.79084940  0.79852688  0.49816451  1
  Zr  Zr67  1  0.69236656  0.89350702  0.88132694  1
  Zr  Zr68  1  0.79130763  0.18776288  0.48582863  1
  Zr  Zr69  1  0.19375472  0.78287582  0.49496951  1
  Zr  Zr70  1  0.00289470  0.19968205  0.74701738  1
  Zr  Zr71  1  0.80132484  0.20176252  -0.00609447  1
  Zr  Zr72  1  0.29899593  0.48954428  0.86494153  1
  Zr  Zr73  1  0.59630738  0.60928995  0.00123175  1
  Zr  Zr74  1  0.09563336  0.50020384  0.11167149  1
  Zr  Zr75  1  0.49528362  0.30525675  0.86527032  1
  Zr  Zr76  1  0.40267746  0.19858248  0.26942244  1
  Zr  Zr77  1  -0.00495062  0.60536521  0.49469022  1
  Zr  Zr78  1  0.19516218  0.60744389  -0.02179575  1
  Zr  Zr79  1  0.40236036  -0.00243861  -0.00177490  1
  Ta  Ta80  1  0.09798530  0.09495704  0.37733349  1
  Ta  Ta81  1  0.57923543  0.79826471  0.23782093  1
  Ta  Ta82  1  0.39982122  0.80430812  -0.00974303  1
  Ta  Ta83  1  0.81421909  0.00452741  -0.00035259  1
  Ta  Ta84  1  0.40538464  0.40127757  0.26790911  1
  Ta  Ta85  1  0.30068448  0.29820913  0.39540954  1
  Ta  Ta86  1  0.89417466  0.29425348  0.35684067  1
  Ta  Ta87  1  0.09550813  0.28599024  0.61152559  1
  Ta  Ta88  1  0.19402610  0.60300762  0.25335520  1
  Ta  Ta89  1  0.50517418  0.10485364  0.12923115  1
  Ta  Ta90  1  0.20302374  0.01014996  0.73851113  1
  Ta  Ta91  1  0.90105413  0.31080211  0.62112600  1
  Ta  Ta92  1  0.19402047  0.18913569  0.49560356  1
  Ta  Ta93  1  0.60909695  0.59418816  0.75445745  1
  Ta  Ta94  1  0.69691368  0.69663501  0.13545638  1
  Ta  Ta95  1  0.68827957  0.69519265  0.35923257  1
  Ta  Ta96  1  0.49381992  0.70673396  0.37385425  1
  Ta  Ta97  1  0.59381796  0.59807685  0.24627293  1
  Ta  Ta98  1  0.00171103  0.00579725  0.49888710  1
  Ta  Ta99  1  0.71135355  0.50159374  0.61831757  1
  Ta  Ta100  1  0.29756395  0.28760586  0.86171906  1
  Ta  Ta101  1  0.59624842  0.19884233  0.00481851  1
  Ta  Ta102  1  0.08958535  0.28849705  0.13679077  1
  Ta  Ta103  1  0.79550097  0.59624829  0.49151199  1
  Ta  Ta104  1  0.80574085  0.20628496  0.75813418  1
  Ta  Ta105  1  0.89550211  0.49176254  0.37021490  1
  Ta  Ta106  1  -0.00969189  0.40901058  0.24500818  1
  Ta  Ta107  1  0.69834662  0.49642929  0.37811782  1
  Ta  Ta108  1  0.89772145  0.49966504  0.10667788  1
  Ta  Ta109  1  0.60508487  0.61556541  0.49961062  1
  Ta  Ta110  1  0.30754627  0.89844582  0.63176147  1
  Ta  Ta111  1  0.39646492  0.39794778  -0.00861887  1
  Ta  Ta112  1  0.19402222  0.19087224  0.26284488  1
  Ta  Ta113  1  0.60894720  0.40548018  0.73423145  1
  Ta  Ta114  1  0.19869101  0.38986007  -0.00318914  1
  Ta  Ta115  1  0.41021968  -0.00361761  0.50840040  1
  Ta  Ta116  1  0.60451343  0.19989194  0.25904886  1
  Ta  Ta117  1  0.40340068  0.39477603  0.51439393  1
  Ta  Ta118  1  -0.01517798  0.81343252  0.23386785  1
  Ta  Ta119  1  0.80188286  0.39653995  0.49490542  1
  Ti  Ti120  1  -0.01212957  0.39305782  0.49245604  1
  Ti  Ti121  1  0.29822894  0.71953797  0.85921241  1
  Ti  Ti122  1  0.58671711  0.80038290  0.01864541  1
  Ti  Ti123  1  0.00192336  0.60498815  0.24378716  1
  Ti  Ti124  1  0.30301231  0.90748966  0.85748692  1
  Ti  Ti125  1  0.40182665  0.59787899  0.75769339  1
  Ti  Ti126  1  0.40447887  0.19279390  0.51001787  1
  Ti  Ti127  1  0.29209694  0.69153875  0.37711655  1
  Ti  Ti128  1  0.19563491  0.79165480  0.25378983  1
  Ti  Ti129  1  0.00910704  0.00017433  0.00807681  1
  Ti  Ti130  1  0.30209480  0.10478584  0.85867715  1
  Ti  Ti131  1  0.28971330  0.29740831  0.60841791  1
  Ti  Ti132  1  0.50154900  0.90040907  0.37564050  1
  Ti  Ti133  1  0.19549471  0.80748712  -0.01634762  1
  Ti  Ti134  1  0.59305114  0.39439422  -0.00154850  1
  Ti  Ti135  1  0.39404826  0.20419405  0.72446945  1
  Ti  Ti136  1  0.60151138  0.40339900  0.25618559  1
  Ti  Ti137  1  0.70586332  0.10616512  0.12842286  1
  Ti  Ti138  1  0.50166230  0.90286549  0.86185883  1
  Ti  Ti139  1  0.10340919  0.91012769  0.12991450  1
  Ti  Ti140  1  -0.02003499  0.62107684  -0.00650665  1
  Ti  Ti141  1  0.52291180  0.09692903  0.61453872  1
  Ti  Ti142  1  0.30273310  0.09606421  0.38623569  1
  Ti  Ti143  1  0.20147557  -0.00062733  0.25535463  1
  Ti  Ti144  1  -0.00714649  0.19722530  0.49471491  1
  Ti  Ti145  1  0.70005528  0.30284759  0.37285963  1
  Ti  Ti146  1  0.51041854  0.10368854  0.38970154  1
  Ti  Ti147  1  0.10013548  0.68675920  0.62598002  1
  Ti  Ti148  1  0.90409788  0.90876665  0.37552070  1
  Ti  Ti149  1  0.01330339  0.00973626  0.24706631  1
  Ti  Ti150  1  0.69730367  0.10024531  0.87947195  1
  Ti  Ti151  1  0.07692543  0.49188730  0.89356139  1
  Ti  Ti152  1  0.20482170  -0.00529405  0.50212507  1
  Ti  Ti153  1  0.70297792  0.29654394  0.61783776  1
  Ti  Ti154  1  0.79875021  0.59694364  0.75708179  1
  Ti  Ti155  1  0.50779125  0.49617824  0.86761655  1
  Ti  Ti156  1  0.70386895  0.69903498  0.88023675  1
  Ti  Ti157  1  0.89412845  0.30714224  0.13980765  1
  Ti  Ti158  1  0.89711026  0.68091110  0.62555509  1
  Ti  Ti159  1  0.29161032  0.10052374  0.61640716  1
  Mo  Mo160  1  0.70265866  0.10899978  0.36422846  1
  Mo  Mo161  1  0.89684995  0.09878794  0.87883774  1
  Mo  Mo162  1  0.91337878  0.09988648  0.37051215  1
  Mo  Mo163  1  0.79743933  0.40144290  0.25596949  1
  Mo  Mo164  1  0.79746391  0.79576255  0.23813916  1
  Mo  Mo165  1  0.89840337  0.69726655  0.13431414  1
  Mo  Mo166  1  0.61666500  0.40528281  0.51098808  1
  Mo  Mo167  1  0.90000428  0.48493532  0.90191765  1
  Mo  Mo168  1  0.09696307  0.70224145  0.35537362  1
  Mo  Mo169  1  0.11508956  0.89709398  0.86928554  1
  Mo  Mo170  1  0.90173885  0.30557095  0.87532631  1
  Mo  Mo171  1  0.10354791  0.09828524  0.61095709  1
  Mo  Mo172  1  0.19565894  0.81232052  0.75952455  1
  Mo  Mo173  1  0.00247390  0.20186980  0.25386592  1
  Mo  Mo174  1  0.80651271  0.39356146  0.00069369  1
  Mo  Mo175  1  0.81593276  -0.00414492  0.48384888  1
  Mo  Mo176  1  0.10375737  0.09857727  0.13568626  1
  Mo  Mo177  1  0.40370048  0.61197763  0.50023680  1
  Mo  Mo178  1  0.39369765  0.79351783  0.26029559  1
  Mo  Mo179  1  0.79667931  0.60126232  0.01000903  1
  Mo  Mo180  1  0.21092450  0.19583480  0.73264747  1
  Mo  Mo181  1  -0.00739120  0.39210708  0.74668588  1
  Mo  Mo182  1  0.49812003  0.90695200  0.62550127  1
  Mo  Mo183  1  0.60333031  0.00784873  0.75427586  1
  Mo  Mo184  1  0.19223264  0.38855169  0.50364785  1
  Mo  Mo185  1  0.60087051  0.20539429  0.50998363  1
  Mo  Mo186  1  0.49683808  0.89456120  0.12310843  1
  Mo  Mo187  1  0.00778225  0.81040286  0.01223928  1
  Mo  Mo188  1  0.71179537  0.10597471  0.63207883  1
  Mo  Mo189  1  0.50489960  0.29929595  0.61077650  1
  Mo  Mo190  1  0.89149264  0.49756805  0.61398839  1
  Mo  Mo191  1  0.08527998  0.70944965  0.88852807  1
  Mo  Mo192  1  0.39678310  0.81265645  0.75746334  1
  Mo  Mo193  1  0.89011794  0.68641572  0.87992360  1
  Mo  Mo194  1  0.91308737  0.90576377  0.11573894  1
  Mo  Mo195  1  0.60550716  0.80025130  0.75716678  1
  Mo  Mo196  1  0.19526433  0.60421863  0.50016939  1
  Mo  Mo197  1  0.49199419  0.70727381  0.12430884  1
  Mo  Mo198  1  -0.00074689  0.38937138  0.01533604  1
  Mo  Mo199  1  0.79564922  0.19981868  0.25864727  1
