# generated using pymatgen
data_HfZrTaTiMo
_symmetry_space_group_name_H-M   'P 1'
_cell_length_a   15.20216577
_cell_length_b   15.20056241
_cell_length_c   16.83855700
_cell_angle_alpha   89.98234802
_cell_angle_beta   89.92716870
_cell_angle_gamma   89.99221042
_symmetry_Int_Tables_number   1
_chemical_formula_structural   HfZrTaTiMo
_chemical_formula_sum   'Hf40 Zr40 Ta40 Ti40 Mo40'
_cell_volume   3891.07513267
_cell_formula_units_Z   40
loop_
 _symmetry_equiv_pos_site_id
 _symmetry_equiv_pos_as_xyz
  1  'x, y, z'
loop_
 _atom_site_type_symbol
 _atom_site_label
 _atom_site_symmetry_multiplicity
 _atom_site_fract_x
 _atom_site_fract_y
 _atom_site_fract_z
 _atom_site_occupancy
  Hf  Hf0  1  0.09621383  0.90942256  0.86429595  1
  Hf  Hf1  1  0.49304597  0.69029599  0.12545055  1
  Hf  Hf2  1  0.90398247  0.29954534  0.12877963  1
  Hf  Hf3  1  0.48649235  0.09456102  0.37273049  1
  Hf  Hf4  1  0.49711536  0.69826796  0.86556533  1
  Hf  Hf5  1  0.60092601  0.00034149  0.00021364  1
  Hf  Hf6  1  -0.00278154  0.41117964  0.50910212  1
  Hf  Hf7  1  0.90774504  0.68788532  0.11392471  1
  Hf  Hf8  1  0.39448591  0.58850558  0.50258825  1
  Hf  Hf9  1  0.20162036  0.61848514  0.00076256  1
  Hf  Hf10  1  0.19278218  0.40417706  0.25158737  1
  Hf  Hf11  1  0.39569580  0.19510706  0.00583993  1
  Hf  Hf12  1  0.90804859  0.90256234  0.12942854  1
  Hf  Hf13  1  0.61075664  0.79476717  0.74091212  1
  Hf  Hf14  1  0.08657853  0.50895566  0.11496651  1
  Hf  Hf15  1  0.70406798  0.69265241  0.12290069  1
  Hf  Hf16  1  0.51970893  0.68265070  0.61545200  1
  Hf  Hf17  1  0.49797458  0.12412398  0.63418233  1
  Hf  Hf18  1  0.41594151  0.40883732  -0.00414380  1
  Hf  Hf19  1  0.79769274  -0.00393474  0.51351655  1
  Hf  Hf20  1  -0.01416261  0.60268460  0.25132097  1
  Hf  Hf21  1  0.29611862  0.89748811  0.86913731  1
  Hf  Hf22  1  0.90327255  0.48045576  0.87604510  1
  Hf  Hf23  1  0.59942719  0.20802171  -0.00954539  1
  Hf  Hf24  1  0.80010184  0.80351388  -0.00588521  1
  Hf  Hf25  1  -0.00178288  -0.00401908  0.26404656  1
  Hf  Hf26  1  0.79520377  0.20460744  0.74533484  1
  Hf  Hf27  1  0.30019545  0.09391389  0.13659865  1
  Hf  Hf28  1  0.49573138  0.90017275  0.13476654  1
  Hf  Hf29  1  0.20547179  0.19072290  0.49787692  1
  Hf  Hf30  1  0.30204843  0.29647003  0.88032729  1
  Hf  Hf31  1  0.00545067  0.19347129  0.73500389  1
  Hf  Hf32  1  0.30275194  0.69916462  0.86170334  1
  Hf  Hf33  1  0.19779754  0.81652405  0.00980091  1
  Hf  Hf34  1  0.38472632  -0.00587997  0.73794775  1
  Hf  Hf35  1  0.40690871  0.60181711  0.26073143  1
  Hf  Hf36  1  0.68424510  0.50527736  0.63110810  1
  Hf  Hf37  1  0.39476525  -0.00697077  0.00113202  1
  Hf  Hf38  1  0.29572899  0.69553174  0.37337624  1
  Hf  Hf39  1  0.29743334  0.91078868  0.38147580  1
  Zr  Zr40  1  0.80528329  0.60206883  0.51880336  1
  Zr  Zr41  1  0.19348020  0.20142701  0.26049235  1
  Zr  Zr42  1  0.89121714  0.49034913  0.10828019  1
  Zr  Zr43  1  0.30881487  0.51640926  0.12392156  1
  Zr  Zr44  1  0.70647331  0.90299610  0.13111450  1
  Zr  Zr45  1  -0.00393586  0.01031264  0.50558287  1
  Zr  Zr46  1  0.89130638  0.51152149  0.38271405  1
  Zr  Zr47  1  0.59374927  -0.00054610  0.49960981  1
  Zr  Zr48  1  0.71284268  0.89124271  0.37651941  1
  Zr  Zr49  1  0.20681278  0.21423128  0.74417133  1
  Zr  Zr50  1  0.48560781  0.11060766  0.85725652  1
  Zr  Zr51  1  0.41077609  0.80417618  0.50097905  1
  Zr  Zr52  1  0.39565656  0.78645053  0.00650477  1
  Zr  Zr53  1  0.20181085  0.78180214  0.51635735  1
  Zr  Zr54  1  0.60031014  0.20210501  0.25006229  1
  Zr  Zr55  1  0.90622009  0.08797809  0.86401495  1
  Zr  Zr56  1  0.60416447  0.78961769  0.25364238  1
  Zr  Zr57  1  0.19948906  0.60011322  0.73438295  1
  Zr  Zr58  1  0.10038604  0.51237387  0.38112689  1
  Zr  Zr59  1  0.50407435  0.30337352  0.12560518  1
  Zr  Zr60  1  0.58785969  0.59414914  -0.00773529  1
  Zr  Zr61  1  0.91384058  0.71925369  0.38912748  1
  Zr  Zr62  1  0.00991850  0.79342792  -0.00058768  1
  Zr  Zr63  1  0.69834731  0.30130966  0.38667868  1
  Zr  Zr64  1  0.69331678  0.09349260  0.85829943  1
  Zr  Zr65  1  0.00491597  0.80070035  0.73322174  1
  Zr  Zr66  1  0.50553631  0.90354349  0.62826182  1
  Zr  Zr67  1  0.00143275  0.00041637  0.00173670  1
  Zr  Zr68  1  0.30147486  0.48414781  0.62718342  1
  Zr  Zr69  1  0.39831682  0.39672957  0.24867162  1
  Zr  Zr70  1  0.89613280  0.30437540  0.38153310  1
  Zr  Zr71  1  0.50409396  0.90095121  0.86150530  1
  Zr  Zr72  1  0.17940779  0.01204539  0.73510443  1
  Zr  Zr73  1  0.70816960  0.30814603  0.12266512  1
  Zr  Zr74  1  0.90427904  0.69195138  0.86839150  1
  Zr  Zr75  1  0.80351806  0.20461830  -0.01466037  1
  Zr  Zr76  1  0.09113671  0.10264425  0.13121704  1
  Zr  Zr77  1  0.20086814  0.40444855  -0.00099055  1
  Zr  Zr78  1  0.67789350  0.29346312  0.62072923  1
  Zr  Zr79  1  0.89754245  0.10651749  0.37643279  1
  Ta  Ta80  1  0.28688395  0.09615389  0.87541987  1
  Ta  Ta81  1  0.51810145  0.69400078  0.38843621  1
  Ta  Ta82  1  0.79457471  0.41772601  0.25480090  1
  Ta  Ta83  1  0.49704035  0.29941224  0.37585712  1
  Ta  Ta84  1  0.80152140  -0.01044048  0.72912556  1
  Ta  Ta85  1  0.40308866  0.38027399  0.75644752  1
  Ta  Ta86  1  0.79978523  0.19271939  0.51563902  1
  Ta  Ta87  1  0.30105450  0.29783734  0.38017620  1
  Ta  Ta88  1  0.49634621  0.49941531  0.86073831  1
  Ta  Ta89  1  0.29283633  0.29869248  0.12182012  1
  Ta  Ta90  1  0.19120704  0.19854932  0.00076099  1
  Ta  Ta91  1  0.80165735  0.39983091  0.74720829  1
  Ta  Ta92  1  0.80642104  0.80261565  0.52498536  1
  Ta  Ta93  1  0.09716201  0.50980729  0.87780450  1
  Ta  Ta94  1  0.02571986  0.80010891  0.24522195  1
  Ta  Ta95  1  0.08783491  0.30857309  0.87523897  1
  Ta  Ta96  1  0.09435202  0.29819486  0.38919321  1
  Ta  Ta97  1  -0.00046764  0.20770435  -0.00425725  1
  Ta  Ta98  1  0.19427513  -0.01106239  0.25931420  1
  Ta  Ta99  1  0.70136710  0.09989597  0.12588092  1
  Ta  Ta100  1  0.20473790  0.40224627  0.49728078  1
  Ta  Ta101  1  0.10859394  0.30554075  0.61431795  1
  Ta  Ta102  1  0.71212128  0.69177802  0.38285155  1
  Ta  Ta103  1  0.60188670  0.00155503  0.25622863  1
  Ta  Ta104  1  0.69147744  0.50328424  0.38579573  1
  Ta  Ta105  1  0.10668051  0.70415089  0.86110597  1
  Ta  Ta106  1  0.60282603  0.80238796  -0.00520537  1
  Ta  Ta107  1  0.69996381  0.70045151  0.86976432  1
  Ta  Ta108  1  0.10143108  0.90659072  0.61147692  1
  Ta  Ta109  1  0.88839866  0.10265835  0.13070041  1
  Ta  Ta110  1  0.82117920  0.78962370  0.25155243  1
  Ta  Ta111  1  0.00117424  0.59062504  0.73859746  1
  Ta  Ta112  1  0.21660254  0.80725693  0.72480301  1
  Ta  Ta113  1  0.49950674  0.49657776  0.37810473  1
  Ta  Ta114  1  0.70745834  0.89767318  0.86410251  1
  Ta  Ta115  1  0.69823598  0.49932766  0.12255067  1
  Ta  Ta116  1  0.78992801  0.58779880  -0.01523738  1
  Ta  Ta117  1  0.57915940  0.39862900  0.50127120  1
  Ta  Ta118  1  0.60291062  0.39093911  0.76301772  1
  Ta  Ta119  1  0.69687729  0.10233877  0.38110379  1
  Ti  Ti120  1  0.90070062  0.29831059  0.61938293  1
  Ti  Ti121  1  0.79136370  0.40069344  0.51190163  1
  Ti  Ti122  1  0.29371481  0.10080265  0.62151851  1
  Ti  Ti123  1  0.40705428  0.59701099  0.73800107  1
  Ti  Ti124  1  0.79319076  0.60225356  0.74553686  1
  Ti  Ti125  1  0.89688820  0.89738836  0.86074015  1
  Ti  Ti126  1  0.61304269  0.59149152  0.25593579  1
  Ti  Ti127  1  0.28962122  0.71432909  0.14465253  1
  Ti  Ti128  1  0.79927777  0.00048745  -0.00299184  1
  Ti  Ti129  1  0.41059278  0.20781555  0.49617266  1
  Ti  Ti130  1  0.19718696  0.00676278  0.00643577  1
  Ti  Ti131  1  0.60222563  0.40399338  0.25640772  1
  Ti  Ti132  1  0.29574017  0.90226089  0.14450707  1
  Ti  Ti133  1  -0.00145004  0.20401201  0.25481504  1
  Ti  Ti134  1  0.80243648  0.79533318  0.73005233  1
  Ti  Ti135  1  0.39715856  0.80566837  0.26165666  1
  Ti  Ti136  1  0.79689641  0.20104499  0.25233177  1
  Ti  Ti137  1  0.29492184  0.49800022  0.37823864  1
  Ti  Ti138  1  0.62172799  0.40452423  -0.02463212  1
  Ti  Ti139  1  0.89941593  0.49721699  0.63401672  1
  Ti  Ti140  1  0.39383207  0.19685763  0.25283993  1
  Ti  Ti141  1  0.68811842  0.09435742  0.63416022  1
  Ti  Ti142  1  0.09163394  0.88935028  0.39482855  1
  Ti  Ti143  1  0.10868333  0.09344297  0.38349965  1
  Ti  Ti144  1  0.79869610  0.00137683  0.25656833  1
  Ti  Ti145  1  0.18595480  0.61413670  0.24481774  1
  Ti  Ti146  1  0.49777705  0.48047900  0.63259909  1
  Ti  Ti147  1  0.09573470  0.30614346  0.12150741  1
  Ti  Ti148  1  -0.00217619  0.39811789  0.25664201  1
  Ti  Ti149  1  0.30269202  0.50488391  0.86896449  1
  Ti  Ti150  1  0.01492946  0.61525568  0.52705711  1
  Ti  Ti151  1  0.19361394  0.40448214  0.75391241  1
  Ti  Ti152  1  0.00417559  0.39538418  0.74125896  1
  Ti  Ti153  1  0.51169333  0.49875269  0.12799028  1
  Ti  Ti154  1  0.31710588  0.29482520  0.61749632  1
  Ti  Ti155  1  0.10384024  0.70172609  0.38429369  1
  Ti  Ti156  1  0.38582196  0.01188373  0.50664080  1
  Ti  Ti157  1  0.10060925  0.10797009  0.87645880  1
  Ti  Ti158  1  0.50537599  0.89521324  0.37362302  1
  Ti  Ti159  1  0.50050163  0.09549140  0.13647526  1
  Mo  Mo160  1  0.58830144  0.21193253  0.75832995  1
  Mo  Mo161  1  0.38713521  0.19996193  0.74867713  1
  Mo  Mo162  1  0.09681798  0.49036724  0.62529196  1
  Mo  Mo163  1  0.29875800  0.10138283  0.37096896  1
  Mo  Mo164  1  0.90409714  0.90230191  0.62943301  1
  Mo  Mo165  1  0.00064813  0.20865994  0.51238455  1
  Mo  Mo166  1  0.60500023  0.00415893  0.74563354  1
  Mo  Mo167  1  0.71153133  0.30943812  0.86899903  1
  Mo  Mo168  1  0.11352045  0.90457503  0.13354969  1
  Mo  Mo169  1  0.70279237  0.69844241  0.62433524  1
  Mo  Mo170  1  0.19988892  0.80227912  0.26183057  1
  Mo  Mo171  1  0.10496868  0.69673638  0.63168806  1
  Mo  Mo172  1  0.31722666  0.69824753  0.62966178  1
  Mo  Mo173  1  0.10496821  0.70033720  0.13024492  1
  Mo  Mo174  1  0.60074129  0.59156766  0.49501559  1
  Mo  Mo175  1  0.19781913  0.59008496  0.51106783  1
  Mo  Mo176  1  0.90808229  0.29651289  0.86212739  1
  Mo  Mo177  1  0.40223645  -0.00288457  0.25453402  1
  Mo  Mo178  1  0.20128657  -0.00237196  0.50394134  1
  Mo  Mo179  1  0.00169907  0.38962594  -0.00439862  1
  Mo  Mo180  1  0.60163902  0.59159950  0.75579519  1
  Mo  Mo181  1  0.90182147  0.69291739  0.63642616  1
  Mo  Mo182  1  0.79051304  0.60263642  0.25209831  1
  Mo  Mo183  1  0.59851208  0.19647269  0.49427705  1
  Mo  Mo184  1  0.39444199  0.39348629  0.49068153  1
  Mo  Mo185  1  0.39321793  0.59299986  -0.00670887  1
  Mo  Mo186  1  0.50299648  0.30353884  0.87703691  1
  Mo  Mo187  1  0.39807021  0.78943786  0.73285197  1
  Mo  Mo188  1  0.90433145  0.89618643  0.37208936  1
  Mo  Mo189  1  0.30159651  0.90818525  0.61094784  1
  Mo  Mo190  1  0.61727189  0.79193127  0.49747585  1
  Mo  Mo191  1  0.69797053  0.89736481  0.62507405  1
  Mo  Mo192  1  0.70418812  0.50920815  0.85819103  1
  Mo  Mo193  1  -0.00671524  0.00024551  0.73534192  1
  Mo  Mo194  1  0.89262146  0.10794107  0.62726313  1
  Mo  Mo195  1  0.79443321  0.39658957  -0.01225512  1
  Mo  Mo196  1  0.49100682  0.30830778  0.62437179  1
  Mo  Mo197  1  0.00526131  0.59902285  -0.01363913  1
  Mo  Mo198  1  -0.00250933  0.80149684  0.51842608  1
  Mo  Mo199  1  0.09751207  0.11101507  0.61234415  1
