# generated using pymatgen
data_HfZrTaTiMo
_symmetry_space_group_name_H-M   'P 1'
_cell_length_a   15.17639354
_cell_length_b   15.17572449
_cell_length_c   16.81003181
_cell_angle_alpha   90.02649575
_cell_angle_beta   89.97483218
_cell_angle_gamma   90.05801085
_symmetry_Int_Tables_number   1
_chemical_formula_structural   HfZrTaTiMo
_chemical_formula_sum   'Hf40 Zr40 Ta40 Ti40 Mo40'
_cell_volume   3871.56216968
_cell_formula_units_Z   40
loop_
 _symmetry_equiv_pos_site_id
 _symmetry_equiv_pos_as_xyz
  1  'x, y, z'
loop_
 _atom_site_type_symbol
 _atom_site_label
 _atom_site_symmetry_multiplicity
 _atom_site_fract_x
 _atom_site_fract_y
 _atom_site_fract_z
 _atom_site_occupancy
  Hf  Hf0  1  0.81690758  0.17910581  -0.00108895  1
  Hf  Hf1  1  0.68360847  0.49191138  0.88520467  1
  Hf  Hf2  1  0.27720734  0.69972400  0.61363341  1
  Hf  Hf3  1  0.80863722  0.40100011  0.25032261  1
  Hf  Hf4  1  0.91340241  0.50397587  0.61339275  1
  Hf  Hf5  1  0.19136556  -0.00075883  0.75923970  1
  Hf  Hf6  1  0.79114058  0.20059276  0.73728021  1
  Hf  Hf7  1  0.90844327  0.29337661  0.86210496  1
  Hf  Hf8  1  0.60202385  -0.02131135  0.25289038  1
  Hf  Hf9  1  0.40813693  0.20271633  -0.00193066  1
  Hf  Hf10  1  0.29506139  0.91983966  0.35035991  1
  Hf  Hf11  1  0.61503167  0.20547922  0.01064035  1
  Hf  Hf12  1  0.50204695  0.50824992  0.37782766  1
  Hf  Hf13  1  0.88411672  0.70072459  0.61666226  1
  Hf  Hf14  1  0.91360439  0.29301566  0.12728883  1
  Hf  Hf15  1  0.81864504  0.19410184  0.25562826  1
  Hf  Hf16  1  0.10976621  0.09020015  0.35741298  1
  Hf  Hf17  1  0.20580531  0.20706063  0.50119414  1
  Hf  Hf18  1  0.20504687  0.20298808  0.23807507  1
  Hf  Hf19  1  0.67679364  0.09423383  0.62690688  1
  Hf  Hf20  1  0.10929682  0.49965992  0.10681404  1
  Hf  Hf21  1  0.60067760  -0.00139082  -0.00028452  1
  Hf  Hf22  1  0.19703946  0.00878669  0.49742718  1
  Hf  Hf23  1  0.41522611  0.17933881  0.76489254  1
  Hf  Hf24  1  0.80311092  0.20059793  0.50502859  1
  Hf  Hf25  1  0.20111995  0.41156179  0.25599875  1
  Hf  Hf26  1  0.50739421  0.29543365  0.37060007  1
  Hf  Hf27  1  -0.01662459  0.81057206  0.49252449  1
  Hf  Hf28  1  0.31526633  0.51572725  0.88763043  1
  Hf  Hf29  1  0.40350835  0.41874549  0.24559083  1
  Hf  Hf30  1  0.48962339  0.71307296  0.61240161  1
  Hf  Hf31  1  0.78685207  0.80606364  0.00828382  1
  Hf  Hf32  1  0.38250673  0.59473212  0.49921681  1
  Hf  Hf33  1  0.31272678  0.71345294  0.36700898  1
  Hf  Hf34  1  0.50394006  0.49065077  0.61297176  1
  Hf  Hf35  1  0.79422582  0.60136438  0.23562702  1
  Hf  Hf36  1  0.08680719  0.09100516  0.88110127  1
  Hf  Hf37  1  0.21323419  0.41467482  0.48878804  1
  Hf  Hf38  1  0.59525910  0.80630292  0.75523667  1
  Hf  Hf39  1  0.59394543  0.59586546  0.74000742  1
  Zr  Zr40  1  0.00117705  0.18182237  0.74519172  1
  Zr  Zr41  1  0.72267614  0.08110374  0.13458997  1
  Zr  Zr42  1  0.80224315  -0.00932942  0.50037975  1
  Zr  Zr43  1  0.50226977  0.91666437  0.62736609  1
  Zr  Zr44  1  0.09723227  0.90000539  0.62427579  1
  Zr  Zr45  1  0.17856561  0.81186205  0.23861553  1
  Zr  Zr46  1  0.08440406  0.69440497  0.61701109  1
  Zr  Zr47  1  0.71065168  0.51130704  0.38189386  1
  Zr  Zr48  1  0.79631177  0.79807000  0.76157344  1
  Zr  Zr49  1  0.68835528  0.69524511  0.88876623  1
  Zr  Zr50  1  0.90464381  0.69869317  0.89909210  1
  Zr  Zr51  1  0.20516076  0.60442667  0.25194882  1
  Zr  Zr52  1  0.90211648  0.92046138  0.88420893  1
  Zr  Zr53  1  -0.00183804  0.60027993  0.23978058  1
  Zr  Zr54  1  0.00172131  0.58418381  0.76181875  1
  Zr  Zr55  1  0.48670782  0.68094404  0.88140826  1
  Zr  Zr56  1  0.40212147  0.18196058  0.50272326  1
  Zr  Zr57  1  0.38860848  0.79289040  0.75552929  1
  Zr  Zr58  1  0.38677745  0.59077024  0.73243571  1
  Zr  Zr59  1  0.00662904  0.79684947  0.76254717  1
  Zr  Zr60  1  0.79241685  0.38042287  0.00742337  1
  Zr  Zr61  1  -0.00876503  -0.01667014  0.22857588  1
  Zr  Zr62  1  0.19362829  0.61333791  0.77054868  1
  Zr  Zr63  1  0.79566171  0.81267283  0.23812093  1
  Zr  Zr64  1  0.41018335  0.20719760  0.23420528  1
  Zr  Zr65  1  0.91729295  0.09342396  0.37956890  1
  Zr  Zr66  1  0.20696579  0.39458249  -0.01788045  1
  Zr  Zr67  1  0.89814991  0.49560299  0.89045748  1
  Zr  Zr68  1  0.30500359  0.31636302  0.11432663  1
  Zr  Zr69  1  0.40229188  0.38649367  0.49998104  1
  Zr  Zr70  1  0.19663995  0.80587753  0.48058027  1
  Zr  Zr71  1  0.51509717  0.27850917  0.63372582  1
  Zr  Zr72  1  0.09612510  0.29368544  0.36909966  1
  Zr  Zr73  1  0.51528369  0.30654641  0.87307394  1
  Zr  Zr74  1  0.10664015  0.31167244  0.64431110  1
  Zr  Zr75  1  0.39281606  -0.01184807  0.77161941  1
  Zr  Zr76  1  0.49462728  0.08938712  0.36063238  1
  Zr  Zr77  1  0.79329590  0.59561613  0.75367144  1
  Zr  Zr78  1  0.30286949  0.30082621  0.64858352  1
  Zr  Zr79  1  0.01329430  0.40172385  0.49842148  1
  Ta  Ta80  1  0.09856822  0.70072040  0.11023374  1
  Ta  Ta81  1  0.60962316  0.39989782  0.25716451  1
  Ta  Ta82  1  0.61513735  0.20114476  0.24231181  1
  Ta  Ta83  1  0.70810265  0.29574750  0.37730944  1
  Ta  Ta84  1  0.52288162  0.31813221  0.12402473  1
  Ta  Ta85  1  0.39557467  -0.00596588  0.00020072  1
  Ta  Ta86  1  0.10132850  0.30230137  0.12430139  1
  Ta  Ta87  1  0.57766050  0.78898414  0.01393517  1
  Ta  Ta88  1  0.70402475  0.09980171  0.87141402  1
  Ta  Ta89  1  0.60531008  0.19246377  0.49215464  1
  Ta  Ta90  1  0.49275336  0.88957165  0.88985617  1
  Ta  Ta91  1  0.47987573  0.69749234  0.14269386  1
  Ta  Ta92  1  0.60365646  0.61038925  0.49886762  1
  Ta  Ta93  1  0.61219217  0.39343396  0.49689579  1
  Ta  Ta94  1  0.91188861  0.50846005  0.38285934  1
  Ta  Ta95  1  0.01098966  0.20380353  -0.00527850  1
  Ta  Ta96  1  0.30420437  0.09076561  0.63384367  1
  Ta  Ta97  1  0.39661420  -0.01435377  0.49541459  1
  Ta  Ta98  1  0.88599038  0.69927034  0.37241107  1
  Ta  Ta99  1  0.78671306  0.59587741  0.01979201  1
  Ta  Ta100  1  0.90373494  0.30361425  0.62835692  1
  Ta  Ta101  1  0.20176426  0.80595150  0.76423858  1
  Ta  Ta102  1  0.70437895  0.09304298  0.36981972  1
  Ta  Ta103  1  0.59709621  -0.00562119  0.48584219  1
  Ta  Ta104  1  0.90468909  0.49662361  0.11174726  1
  Ta  Ta105  1  0.49095127  0.88162865  0.36821221  1
  Ta  Ta106  1  0.61677007  0.39803008  0.74043501  1
  Ta  Ta107  1  0.69130609  0.70450620  0.61864501  1
  Ta  Ta108  1  0.70050179  0.89496671  0.62547651  1
  Ta  Ta109  1  0.00695739  0.19095110  0.51342892  1
  Ta  Ta110  1  0.10629565  0.89269867  0.89786169  1
  Ta  Ta111  1  0.29945671  0.89599009  0.62129156  1
  Ta  Ta112  1  0.10688425  0.09919501  0.62958954  1
  Ta  Ta113  1  0.79939719  0.00171269  0.74725898  1
  Ta  Ta114  1  0.68641030  0.48495327  0.12527720  1
  Ta  Ta115  1  0.89718032  0.90009408  0.63177867  1
  Ta  Ta116  1  0.19354282  0.00077634  0.01625613  1
  Ta  Ta117  1  0.71037431  0.50525901  0.60871688  1
  Ta  Ta118  1  0.30218874  0.09897462  0.11896988  1
  Ta  Ta119  1  0.42726305  0.42249795  0.00221213  1
  Ti  Ti120  1  0.59111915  0.80661509  0.49237626  1
  Ti  Ti121  1  0.68833454  0.70999506  0.36345442  1
  Ti  Ti122  1  0.70861731  0.29762296  0.86675010  1
  Ti  Ti123  1  0.88793287  0.89560616  0.36692463  1
  Ti  Ti124  1  0.30393849  0.10582295  0.35941349  1
  Ti  Ti125  1  -0.01467909  0.01165376  0.01692401  1
  Ti  Ti126  1  0.20047091  0.41923359  0.76625041  1
  Ti  Ti127  1  0.31564923  0.52788078  0.11272766  1
  Ti  Ti128  1  0.89952670  0.70511427  0.11786880  1
  Ti  Ti129  1  0.41104291  0.40537078  0.75368523  1
  Ti  Ti130  1  0.12007154  0.50828290  0.62523343  1
  Ti  Ti131  1  0.67623181  0.69065907  0.12904945  1
  Ti  Ti132  1  0.10797000  0.29793915  0.85720555  1
  Ti  Ti133  1  0.19791913  0.19993987  0.00068613  1
  Ti  Ti134  1  0.09373100  0.10902437  0.12663178  1
  Ti  Ti135  1  0.77934319  0.79650620  0.49160869  1
  Ti  Ti136  1  0.68730857  0.89309298  0.12160578  1
  Ti  Ti137  1  0.08102331  0.90363732  0.36813592  1
  Ti  Ti138  1  0.57764658  0.58153503  0.01227403  1
  Ti  Ti139  1  0.30492579  0.29703655  0.86448966  1
  Ti  Ti140  1  0.10208229  0.69589378  0.90705987  1
  Ti  Ti141  1  0.00386528  0.40164038  0.25146787  1
  Ti  Ti142  1  -0.00253608  0.81248240  0.01553198  1
  Ti  Ti143  1  0.29681440  0.72094490  0.90010706  1
  Ti  Ti144  1  0.31095255  0.90164466  0.13653887  1
  Ti  Ti145  1  0.07801725  0.70432745  0.36626680  1
  Ti  Ti146  1  0.90669852  0.30164614  0.37921071  1
  Ti  Ti147  1  0.50364792  0.69949595  0.35893652  1
  Ti  Ti148  1  0.00810859  0.39403872  -0.00879835  1
  Ti  Ti149  1  0.69330836  0.90343328  0.87896069  1
  Ti  Ti150  1  0.70530651  0.30758490  0.61887164  1
  Ti  Ti151  1  0.50262732  0.09050665  0.12898525  1
  Ti  Ti152  1  0.20964900  0.80709556  0.02003531  1
  Ti  Ti153  1  0.30729977  0.30057607  0.36769802  1
  Ti  Ti154  1  0.29272006  0.09839637  0.88833556  1
  Ti  Ti155  1  0.80994193  0.40653789  0.74262144  1
  Ti  Ti156  1  0.58939758  0.01376833  0.76756827  1
  Ti  Ti157  1  0.80783205  0.40077287  0.49762814  1
  Ti  Ti158  1  0.18102416  0.59925309  0.47391902  1
  Ti  Ti159  1  0.90780432  0.08614873  0.62127255  1
  Mo  Mo160  1  0.59890924  0.59470347  0.24880600  1
  Mo  Mo161  1  0.40494505  0.61586123  0.00911025  1
  Mo  Mo162  1  0.09504035  0.50771729  0.36979815  1
  Mo  Mo163  1  0.28748576  0.90211699  0.89278254  1
  Mo  Mo164  1  0.30348870  0.50494327  0.37218937  1
  Mo  Mo165  1  0.50499249  0.50792160  0.13591088  1
  Mo  Mo166  1  0.70796184  0.29457840  0.13789209  1
  Mo  Mo167  1  -0.00143649  0.60908452  0.48731516  1
  Mo  Mo168  1  0.00430200  0.40091218  0.74980620  1
  Mo  Mo169  1  0.69327877  0.89200939  0.37874448  1
  Mo  Mo170  1  -0.01138268  0.79041299  0.24163556  1
  Mo  Mo171  1  0.00900982  0.20859520  0.24937242  1
  Mo  Mo172  1  0.79664279  0.60990015  0.49329517  1
  Mo  Mo173  1  0.28922518  0.49214246  0.63225841  1
  Mo  Mo174  1  0.79524228  -0.00274387  -0.00286429  1
  Mo  Mo175  1  0.88335574  0.90837063  0.11236668  1
  Mo  Mo176  1  0.40119889  0.80765112  0.24203275  1
  Mo  Mo177  1  0.59690900  0.78912950  0.24114942  1
  Mo  Mo178  1  0.91152651  0.10140872  0.12837280  1
  Mo  Mo179  1  0.89408714  0.09963929  0.86914064  1
  Mo  Mo180  1  0.79745627  -0.00202173  0.26044858  1
  Mo  Mo181  1  0.50684236  0.09209817  0.89023724  1
  Mo  Mo182  1  0.49892591  0.90107323  0.12122815  1
  Mo  Mo183  1  0.39951153  0.80749239  0.49389562  1
  Mo  Mo184  1  0.39975050  0.00392625  0.23594527  1
  Mo  Mo185  1  0.00349881  0.00093312  0.49904967  1
  Mo  Mo186  1  0.09552059  0.90039051  0.10833638  1
  Mo  Mo187  1  -0.00512231  -0.01095056  0.75028503  1
  Mo  Mo188  1  0.39661735  0.60447318  0.25468932  1
  Mo  Mo189  1  0.49450343  0.09000691  0.62283209  1
  Mo  Mo190  1  0.29251468  0.70680008  0.12508752  1
  Mo  Mo191  1  0.50409136  0.49813923  0.86941906  1
  Mo  Mo192  1  0.20408078  0.60841347  -0.00170893  1
  Mo  Mo193  1  -0.00483094  0.60086558  0.01079845  1
  Mo  Mo194  1  0.39700239  0.80788215  0.01432137  1
  Mo  Mo195  1  0.21165133  0.19283232  0.76349869  1
  Mo  Mo196  1  0.60753065  0.19693241  0.75647645  1
  Mo  Mo197  1  0.19935914  0.00720344  0.22095006  1
  Mo  Mo198  1  0.10031050  0.49956601  0.89112094  1
  Mo  Mo199  1  0.60510365  0.39656567  0.00252668  1
