# generated using pymatgen
data_HfZrTaTiMo
_symmetry_space_group_name_H-M   'P 1'
_cell_length_a   15.19716947
_cell_length_b   15.20014248
_cell_length_c   16.82208016
_cell_angle_alpha   89.99066318
_cell_angle_beta   89.97925942
_cell_angle_gamma   89.91218463
_symmetry_Int_Tables_number   1
_chemical_formula_structural   HfZrTaTiMo
_chemical_formula_sum   'Hf40 Zr40 Ta40 Ti40 Mo40'
_cell_volume   3885.88120167
_cell_formula_units_Z   40
loop_
 _symmetry_equiv_pos_site_id
 _symmetry_equiv_pos_as_xyz
  1  'x, y, z'
loop_
 _atom_site_type_symbol
 _atom_site_label
 _atom_site_symmetry_multiplicity
 _atom_site_fract_x
 _atom_site_fract_y
 _atom_site_fract_z
 _atom_site_occupancy
  Hf  Hf0  1  -0.01562780  0.21958221  0.49980264  1
  Hf  Hf1  1  0.91228038  0.09914747  0.36750626  1
  Hf  Hf2  1  0.79494609  0.80391018  0.75475786  1
  Hf  Hf3  1  0.59227195  0.81449874  0.00381151  1
  Hf  Hf4  1  0.29699731  0.70611667  0.14066424  1
  Hf  Hf5  1  0.40827155  0.40008821  0.01080653  1
  Hf  Hf6  1  0.00685729  0.61476406  0.73667835  1
  Hf  Hf7  1  -0.00615259  0.60618470  0.01202869  1
  Hf  Hf8  1  0.10377637  0.32042555  0.37601949  1
  Hf  Hf9  1  0.88042435  0.70850659  0.61507875  1
  Hf  Hf10  1  0.80965719  0.80956260  0.00407793  1
  Hf  Hf11  1  0.50533316  0.29153507  0.87411820  1
  Hf  Hf12  1  0.20584537  0.20126883  0.23962761  1
  Hf  Hf13  1  0.28134360  0.89682683  0.39072536  1
  Hf  Hf14  1  0.90616397  0.11089489  0.88589626  1
  Hf  Hf15  1  0.90181621  0.70425762  0.37591198  1
  Hf  Hf16  1  -0.01526041  0.81389286  0.50441159  1
  Hf  Hf17  1  0.09984983  0.30279911  0.62169923  1
  Hf  Hf18  1  0.89941501  0.91313884  0.86558481  1
  Hf  Hf19  1  0.28390437  0.48327659  0.36045761  1
  Hf  Hf20  1  0.60845220  0.38968650  0.02436489  1
  Hf  Hf21  1  0.68981465  0.30760582  0.37732013  1
  Hf  Hf22  1  0.60551781  0.39253652  0.73619617  1
  Hf  Hf23  1  0.09238393  0.50236140  0.87867959  1
  Hf  Hf24  1  0.70642099  0.89503312  0.61995061  1
  Hf  Hf25  1  0.18728266  0.39593824  0.23087213  1
  Hf  Hf26  1  0.20385635  0.40236085  0.00636148  1
  Hf  Hf27  1  0.78482661  0.00993249  0.00537321  1
  Hf  Hf28  1  -0.00766911  0.39560925  0.75295236  1
  Hf  Hf29  1  0.40509093  0.59708341  0.01438597  1
  Hf  Hf30  1  0.91250226  0.70714528  0.87499284  1
  Hf  Hf31  1  0.38408864  0.79013218  0.73855739  1
  Hf  Hf32  1  0.51052714  0.47838613  0.36158068  1
  Hf  Hf33  1  0.21226091  0.60670164  0.74707518  1
  Hf  Hf34  1  0.41193145  0.00611043  0.48198852  1
  Hf  Hf35  1  0.90388918  0.10417390  0.62284461  1
  Hf  Hf36  1  0.09048085  0.90302786  0.87403292  1
  Hf  Hf37  1  0.11001327  0.11018986  0.38621708  1
  Hf  Hf38  1  0.30081187  0.69234615  0.60914879  1
  Hf  Hf39  1  0.30601507  0.30965842  0.63859433  1
  Zr  Zr40  1  0.60062685  0.59755421  0.74089974  1
  Zr  Zr41  1  0.81662879  0.21639868  0.75100337  1
  Zr  Zr42  1  0.21253320  0.60298517  0.00142729  1
  Zr  Zr43  1  0.61829747  0.17877577  0.74959284  1
  Zr  Zr44  1  0.60577831  0.58378512  0.02286104  1
  Zr  Zr45  1  0.49437926  0.08684776  0.13431822  1
  Zr  Zr46  1  0.29407844  0.90483196  0.60418711  1
  Zr  Zr47  1  0.79580787  0.41350096  0.75427248  1
  Zr  Zr48  1  0.79501344  0.60148698  0.75469993  1
  Zr  Zr49  1  0.30026298  0.29968735  0.87839429  1
  Zr  Zr50  1  0.10469967  0.71061271  0.88170286  1
  Zr  Zr51  1  0.48846016  0.89447191  0.14152999  1
  Zr  Zr52  1  0.00491454  0.61138317  0.24865608  1
  Zr  Zr53  1  0.70736605  0.70095187  0.13177145  1
  Zr  Zr54  1  0.19821934  0.40120396  0.76018233  1
  Zr  Zr55  1  0.59268276  -0.00579919  0.27549010  1
  Zr  Zr56  1  0.71345014  0.10647681  0.37923248  1
  Zr  Zr57  1  0.61029462  -0.01494930  0.48372735  1
  Zr  Zr58  1  0.19592163  0.58593575  0.49146173  1
  Zr  Zr59  1  0.51992195  0.48970931  0.87377283  1
  Zr  Zr60  1  0.59844816  0.79643618  0.74497128  1
  Zr  Zr61  1  0.08258563  0.91123694  0.38663606  1
  Zr  Zr62  1  0.90287544  0.50025245  0.61367104  1
  Zr  Zr63  1  -0.00390483  0.40123088  0.01594376  1
  Zr  Zr64  1  0.80020670  0.41191151  0.00035832  1
  Zr  Zr65  1  0.09214167  0.91742621  0.61432081  1
  Zr  Zr66  1  0.49473095  0.69839675  0.14277771  1
  Zr  Zr67  1  0.39943879  0.17945391  0.76081342  1
  Zr  Zr68  1  0.81297475  0.39344901  0.49567856  1
  Zr  Zr69  1  0.60570779  0.18197593  0.00110305  1
  Zr  Zr70  1  0.69244495  0.70043192  0.88841361  1
  Zr  Zr71  1  0.70964868  0.29016245  0.60726736  1
  Zr  Zr72  1  0.48157262  0.89625703  0.86246011  1
  Zr  Zr73  1  0.20503328  0.00845516  0.75183815  1
  Zr  Zr74  1  0.19586101  -0.00438262  0.24752440  1
  Zr  Zr75  1  0.00555007  0.20786564  0.23136703  1
  Zr  Zr76  1  0.38618045  0.38690268  0.49054331  1
  Zr  Zr77  1  0.49687821  0.88727950  0.61582550  1
  Zr  Zr78  1  0.40546440  0.59093402  0.48200125  1
  Zr  Zr79  1  0.48469098  0.68954276  0.87703413  1
  Ta  Ta80  1  0.50339753  0.08945301  0.62474227  1
  Ta  Ta81  1  0.82408194  -0.01309620  0.49277954  1
  Ta  Ta82  1  0.89564248  0.30347792  0.35910381  1
  Ta  Ta83  1  0.78546069  0.01696559  0.75282800  1
  Ta  Ta84  1  0.69622185  0.90561287  0.13571051  1
  Ta  Ta85  1  0.60537017  0.79521482  0.26835819  1
  Ta  Ta86  1  0.51503674  0.07568896  0.87338538  1
  Ta  Ta87  1  0.69132906  0.51760711  0.59859880  1
  Ta  Ta88  1  0.30605838  0.28806733  0.11636956  1
  Ta  Ta89  1  0.10098848  0.71339941  0.12192655  1
  Ta  Ta90  1  0.21204621  -0.00109739  -0.00104087  1
  Ta  Ta91  1  0.09168477  0.28743018  0.88657836  1
  Ta  Ta92  1  0.69434495  0.10025624  0.14028052  1
  Ta  Ta93  1  0.10257342  0.09926091  0.89253128  1
  Ta  Ta94  1  0.80607138  0.59742775  -0.00116199  1
  Ta  Ta95  1  0.01407794  0.19115169  0.75198982  1
  Ta  Ta96  1  0.39778548  0.18171539  -0.00837315  1
  Ta  Ta97  1  0.49610648  0.28488467  0.13088107  1
  Ta  Ta98  1  0.30859857  0.11053520  0.36992427  1
  Ta  Ta99  1  0.49774883  0.28727280  0.62768382  1
  Ta  Ta100  1  0.80277385  0.80444104  0.25559813  1
  Ta  Ta101  1  0.70301245  0.30180389  0.88097553  1
  Ta  Ta102  1  0.79477200  0.20668219  0.24096321  1
  Ta  Ta103  1  0.90192228  0.50247080  0.37179179  1
  Ta  Ta104  1  0.48300319  0.49081046  0.62456710  1
  Ta  Ta105  1  0.30515418  0.10630422  0.61684079  1
  Ta  Ta106  1  0.68362967  0.92556764  0.87198896  1
  Ta  Ta107  1  0.30701128  0.09204083  0.12515342  1
  Ta  Ta108  1  0.32247755  0.50959460  0.86491661  1
  Ta  Ta109  1  0.19679948  0.19489942  0.75782572  1
  Ta  Ta110  1  0.80362668  -0.00460436  0.24994393  1
  Ta  Ta111  1  0.10449956  0.09444684  0.10821332  1
  Ta  Ta112  1  0.60716644  0.58966004  0.24942289  1
  Ta  Ta113  1  0.58634825  0.19415000  0.49390376  1
  Ta  Ta114  1  -0.00307507  -0.00184232  0.23320651  1
  Ta  Ta115  1  0.18062816  0.79776607  0.73463759  1
  Ta  Ta116  1  0.29699594  0.90127005  0.13001883  1
  Ta  Ta117  1  0.31076663  0.49831618  0.14307462  1
  Ta  Ta118  1  0.10357203  0.51219020  0.12514498  1
  Ta  Ta119  1  0.79989557  0.21077462  0.01660570  1
  Ti  Ti120  1  0.29082636  0.89946979  0.86918425  1
  Ti  Ti121  1  0.20036474  0.80847928  0.00329958  1
  Ti  Ti122  1  0.70769725  0.50263513  0.37736749  1
  Ti  Ti123  1  0.09685214  0.89685798  0.11762360  1
  Ti  Ti124  1  0.11492690  0.50498809  0.62579395  1
  Ti  Ti125  1  0.58956131  0.20220204  0.25838004  1
  Ti  Ti126  1  0.72439470  0.49387138  0.14637269  1
  Ti  Ti127  1  -0.00598854  0.41157460  0.23970559  1
  Ti  Ti128  1  0.20326624  0.19600836  0.00295991  1
  Ti  Ti129  1  0.70309839  0.68543154  0.37388189  1
  Ti  Ti130  1  0.01587705  0.41784457  0.49557143  1
  Ti  Ti131  1  0.40391200  -0.00907766  -0.00323325  1
  Ti  Ti132  1  0.10905794  0.10601464  0.61170486  1
  Ti  Ti133  1  0.39945219  0.78886199  0.48095618  1
  Ti  Ti134  1  0.90216295  0.91378334  0.64498391  1
  Ti  Ti135  1  0.29836514  0.70937990  0.87387588  1
  Ti  Ti136  1  0.19660945  0.60438594  0.25699239  1
  Ti  Ti137  1  0.50981901  0.68384277  0.60855755  1
  Ti  Ti138  1  0.00050857  0.60694387  0.50005663  1
  Ti  Ti139  1  0.39201427  0.80529637  0.27234699  1
  Ti  Ti140  1  -0.00377128  0.20345738  0.01849460  1
  Ti  Ti141  1  0.58519603  0.39658431  0.50470590  1
  Ti  Ti142  1  0.89456056  0.09570520  0.12627891  1
  Ti  Ti143  1  0.59700406  0.78413457  0.48211987  1
  Ti  Ti144  1  0.60699641  0.38876477  0.23619598  1
  Ti  Ti145  1  0.88541564  0.31778007  0.13749075  1
  Ti  Ti146  1  0.90101734  0.70821957  0.13191485  1
  Ti  Ti147  1  0.40462983  0.20171457  0.49507468  1
  Ti  Ti148  1  -0.00073410  0.81405947  0.24799441  1
  Ti  Ti149  1  0.90397476  0.30761490  0.88559159  1
  Ti  Ti150  1  0.38799503  0.80186754  0.00372422  1
  Ti  Ti151  1  0.70481794  0.09160008  0.60559345  1
  Ti  Ti152  1  0.39742582  0.37214916  0.25142688  1
  Ti  Ti153  1  0.39945848  0.59409626  0.25930420  1
  Ti  Ti154  1  0.50206211  0.69025806  0.36665670  1
  Ti  Ti155  1  0.19065515  0.79893986  0.25436931  1
  Ti  Ti156  1  0.10997866  0.70881823  0.38440601  1
  Ti  Ti157  1  0.78627727  0.79968507  0.48549026  1
  Ti  Ti158  1  0.21488878  0.21908283  0.49779498  1
  Ti  Ti159  1  -0.00642878  -0.00891583  0.01335709  1
  Mo  Mo160  1  0.30329865  0.49889898  0.63399427  1
  Mo  Mo161  1  0.09749731  0.70642085  0.61091035  1
  Mo  Mo162  1  0.29348286  0.29154321  0.37104556  1
  Mo  Mo163  1  0.49478281  0.28826705  0.36918558  1
  Mo  Mo164  1  0.90098862  0.50943224  0.87575801  1
  Mo  Mo165  1  0.89733984  0.90057272  0.13026898  1
  Mo  Mo166  1  0.80024130  0.40288990  0.26113869  1
  Mo  Mo167  1  0.30344382  0.08644438  0.88386933  1
  Mo  Mo168  1  0.69869810  0.29166103  0.13600461  1
  Mo  Mo169  1  0.19611169  0.40094570  0.50457966  1
  Mo  Mo170  1  0.59745457  0.59230934  0.48637777  1
  Mo  Mo171  1  0.29808213  0.69932973  0.36285012  1
  Mo  Mo172  1  0.79739988  0.19408033  0.49488288  1
  Mo  Mo173  1  0.59608600  -0.00664176  0.00557538  1
  Mo  Mo174  1  0.39895052  0.19478431  0.24762925  1
  Mo  Mo175  1  0.40378352  0.59703082  0.74162191  1
  Mo  Mo176  1  0.20769968  0.02554812  0.49956191  1
  Mo  Mo177  1  0.70747732  0.10583133  0.87785336  1
  Mo  Mo178  1  0.08669179  0.50858603  0.36881439  1
  Mo  Mo179  1  0.91031330  0.30190496  0.62546438  1
  Mo  Mo180  1  0.70889487  0.88632167  0.37413798  1
  Mo  Mo181  1  -0.00051357  0.01585220  0.75435787  1
  Mo  Mo182  1  0.79983941  0.60344707  0.48766186  1
  Mo  Mo183  1  0.38742146  -0.00421460  0.26673274  1
  Mo  Mo184  1  0.60171601  -0.00064042  0.73747897  1
  Mo  Mo185  1  0.00154341  0.80811961  0.01110505  1
  Mo  Mo186  1  0.40913511  0.39991811  0.75044776  1
  Mo  Mo187  1  0.49986436  0.10491648  0.37089225  1
  Mo  Mo188  1  0.89660181  0.51358330  0.13993797  1
  Mo  Mo189  1  0.79991135  0.60269340  0.25890923  1
  Mo  Mo190  1  0.39858201  0.00030235  0.74179977  1
  Mo  Mo191  1  0.70227337  0.49488240  0.88271241  1
  Mo  Mo192  1  0.69034512  0.70222525  0.60410038  1
  Mo  Mo193  1  0.49393885  0.88455824  0.37477822  1
  Mo  Mo194  1  0.18948916  0.78892169  0.50287431  1
  Mo  Mo195  1  0.89734869  0.90439204  0.36693948  1
  Mo  Mo196  1  -0.00179042  0.01333776  0.50154272  1
  Mo  Mo197  1  0.09982118  0.29587772  0.11209279  1
  Mo  Mo198  1  -0.00116345  0.80818237  0.73668650  1
  Mo  Mo199  1  0.49863620  0.48733701  0.15428389  1
