# generated using pymatgen
data_HfZrTaTiMo
_symmetry_space_group_name_H-M   'P 1'
_cell_length_a   15.21675221
_cell_length_b   15.20725117
_cell_length_c   16.81307417
_cell_angle_alpha   90.03120651
_cell_angle_beta   90.00085679
_cell_angle_gamma   89.96038527
_symmetry_Int_Tables_number   1
_chemical_formula_structural   HfZrTaTiMo
_chemical_formula_sum   'Hf40 Zr40 Ta40 Ti40 Mo40'
_cell_volume   3890.62746463
_cell_formula_units_Z   40
loop_
 _symmetry_equiv_pos_site_id
 _symmetry_equiv_pos_as_xyz
  1  'x, y, z'
loop_
 _atom_site_type_symbol
 _atom_site_label
 _atom_site_symmetry_multiplicity
 _atom_site_fract_x
 _atom_site_fract_y
 _atom_site_fract_z
 _atom_site_occupancy
  Hf  Hf0  1  0.60799205  -0.00334560  0.75469972  1
  Hf  Hf1  1  0.28858132  0.49425884  0.89175846  1
  Hf  Hf2  1  0.59171437  0.19650369  0.50226411  1
  Hf  Hf3  1  0.18554737  0.38804456  0.02044246  1
  Hf  Hf4  1  0.21659195  0.18716290  0.01399654  1
  Hf  Hf5  1  0.00356015  0.79710833  0.73913029  1
  Hf  Hf6  1  0.89713741  0.29900150  0.35819530  1
  Hf  Hf7  1  0.61661946  0.59889096  -0.01307818  1
  Hf  Hf8  1  0.10444904  0.10553816  0.37118603  1
  Hf  Hf9  1  0.89678160  0.50882721  0.88193990  1
  Hf  Hf10  1  0.40279717  0.59702123  0.24352811  1
  Hf  Hf11  1  0.40615041  0.00125678  0.50450167  1
  Hf  Hf12  1  0.29739124  0.91750516  0.11968287  1
  Hf  Hf13  1  0.01479641  0.38811963  0.75077175  1
  Hf  Hf14  1  0.88819350  0.10747222  0.13646881  1
  Hf  Hf15  1  0.80670983  0.40608928  0.75125797  1
  Hf  Hf16  1  0.39303029  0.19089064  0.24671716  1
  Hf  Hf17  1  0.29966308  0.10431737  0.38085580  1
  Hf  Hf18  1  0.50242720  0.69496398  0.62986699  1
  Hf  Hf19  1  0.69492820  0.91943380  0.12049419  1
  Hf  Hf20  1  -0.00910721  0.00641530  0.74370531  1
  Hf  Hf21  1  0.29557608  0.10341147  0.85734687  1
  Hf  Hf22  1  -0.00284987  -0.00737122  0.25494619  1
  Hf  Hf23  1  0.10609293  0.09128279  0.13312188  1
  Hf  Hf24  1  0.58612156  -0.00700117  -0.01719372  1
  Hf  Hf25  1  0.39897781  0.59079943  0.75543177  1
  Hf  Hf26  1  0.81090309  0.21010644  0.00541586  1
  Hf  Hf27  1  0.39608511  0.80158613  0.25036873  1
  Hf  Hf28  1  0.10191449  0.48705428  0.60904313  1
  Hf  Hf29  1  -0.00301334  0.78660978  0.00861713  1
  Hf  Hf30  1  0.69962829  0.10920858  0.87380753  1
  Hf  Hf31  1  0.80408630  0.19840995  0.74458434  1
  Hf  Hf32  1  0.79814296  0.79686900  0.01100230  1
  Hf  Hf33  1  0.19030881  0.59520777  0.74354840  1
  Hf  Hf34  1  0.01096849  0.00062048  0.50473599  1
  Hf  Hf35  1  0.09631386  0.11969932  0.62929879  1
  Hf  Hf36  1  0.88875300  0.90245209  0.61262043  1
  Hf  Hf37  1  0.09444839  0.68847627  0.87871083  1
  Hf  Hf38  1  0.80413179  0.80899692  0.23750072  1
  Hf  Hf39  1  0.50323358  0.88643460  0.63239396  1
  Zr  Zr40  1  0.69957271  0.89643929  0.38070990  1
  Zr  Zr41  1  0.89122362  0.69338812  0.62413578  1
  Zr  Zr42  1  0.60455162  0.59860332  0.76404562  1
  Zr  Zr43  1  0.10241855  0.70035155  0.13230704  1
  Zr  Zr44  1  0.10314257  0.30514598  0.36409405  1
  Zr  Zr45  1  0.59908733  0.19615086  0.00586812  1
  Zr  Zr46  1  0.89591352  0.10176140  0.37839938  1
  Zr  Zr47  1  0.59758949  0.59878786  0.49945343  1
  Zr  Zr48  1  0.70227212  0.10607637  0.38527800  1
  Zr  Zr49  1  0.29629799  0.70084965  0.87766088  1
  Zr  Zr50  1  0.71826564  0.30905165  0.13565620  1
  Zr  Zr51  1  0.49983312  0.28493527  0.86818331  1
  Zr  Zr52  1  0.00442037  0.79333527  0.50652751  1
  Zr  Zr53  1  0.91776125  0.29248445  0.87535086  1
  Zr  Zr54  1  0.09935678  0.69998530  0.36274566  1
  Zr  Zr55  1  0.39637080  0.39745314  0.24043939  1
  Zr  Zr56  1  -0.00327839  0.00927332  -0.00062966  1
  Zr  Zr57  1  0.29747856  0.69930182  0.38324105  1
  Zr  Zr58  1  0.49749314  0.29096467  0.63757645  1
  Zr  Zr59  1  0.30617002  0.69908300  0.62167041  1
  Zr  Zr60  1  0.60557611  0.39623764  0.49649587  1
  Zr  Zr61  1  0.40776617  0.81113327  -0.00904388  1
  Zr  Zr62  1  0.50178591  0.49595283  0.11041651  1
  Zr  Zr63  1  0.10358967  0.50091892  0.36527695  1
  Zr  Zr64  1  0.50802456  0.29086741  0.12892415  1
  Zr  Zr65  1  0.10093334  0.90462486  0.87714867  1
  Zr  Zr66  1  0.49877534  0.89091251  0.13093343  1
  Zr  Zr67  1  0.90028061  0.49930013  0.36579702  1
  Zr  Zr68  1  -0.00369947  0.80141052  0.24646153  1
  Zr  Zr69  1  0.69778175  0.50584172  0.62250044  1
  Zr  Zr70  1  0.30556467  0.90710396  0.63008816  1
  Zr  Zr71  1  0.40012156  0.38754071  0.50337656  1
  Zr  Zr72  1  0.89674439  0.48890881  0.60719109  1
  Zr  Zr73  1  0.49883332  0.08015094  0.13491742  1
  Zr  Zr74  1  0.60303555  0.40041685  0.75284001  1
  Zr  Zr75  1  0.38888019  0.39590589  0.74919017  1
  Zr  Zr76  1  0.19471040  0.80993013  0.51301519  1
  Zr  Zr77  1  0.50327756  0.70007411  0.37646481  1
  Zr  Zr78  1  0.09426957  0.12767961  0.86645243  1
  Zr  Zr79  1  -0.01904199  0.39957518  0.01818755  1
  Ta  Ta80  1  0.39994793  0.58895644  0.50136447  1
  Ta  Ta81  1  0.70069138  0.71389451  0.62952087  1
  Ta  Ta82  1  0.88635755  0.49696067  0.14502060  1
  Ta  Ta83  1  0.88971900  0.70548189  0.37768843  1
  Ta  Ta84  1  0.79344988  0.60526926  0.48850377  1
  Ta  Ta85  1  0.79927873  -0.00332894  0.74806039  1
  Ta  Ta86  1  0.00128923  0.59934096  0.49636669  1
  Ta  Ta87  1  0.59748588  -0.00255737  0.50690346  1
  Ta  Ta88  1  0.89396984  0.90090197  0.39051843  1
  Ta  Ta89  1  0.30287774  0.90196772  0.38394089  1
  Ta  Ta90  1  0.39429111  0.37789449  0.00361047  1
  Ta  Ta91  1  0.08509681  0.50528943  0.13965745  1
  Ta  Ta92  1  0.49514315  0.49264187  0.89135010  1
  Ta  Ta93  1  0.20615637  0.39987132  0.23102905  1
  Ta  Ta94  1  0.18837358  0.59903623  0.01099285  1
  Ta  Ta95  1  0.60311230  0.79540917  -0.01096993  1
  Ta  Ta96  1  0.50329392  0.08818232  0.36506276  1
  Ta  Ta97  1  0.29910442  0.30399042  0.37264984  1
  Ta  Ta98  1  0.90152010  0.70314336  0.87120106  1
  Ta  Ta99  1  0.50343874  0.28720501  0.36509784  1
  Ta  Ta100  1  0.29104759  0.29317459  0.87946994  1
  Ta  Ta101  1  0.89343379  0.09216035  0.87759334  1
  Ta  Ta102  1  0.61182556  0.78349277  0.24823277  1
  Ta  Ta103  1  0.30127432  0.90312855  0.86356602  1
  Ta  Ta104  1  0.70042470  0.90043195  0.61867587  1
  Ta  Ta105  1  0.29721495  0.49620580  0.37628131  1
  Ta  Ta106  1  0.19790814  0.80110973  0.74086437  1
  Ta  Ta107  1  -0.00283307  0.59121834  0.74412742  1
  Ta  Ta108  1  0.78652694  0.61806598  0.24986078  1
  Ta  Ta109  1  0.69482555  0.51389396  0.13540404  1
  Ta  Ta110  1  0.69740173  0.50449214  0.36318741  1
  Ta  Ta111  1  0.70982788  0.31030438  0.87939482  1
  Ta  Ta112  1  0.30716714  0.70381946  0.11611391  1
  Ta  Ta113  1  0.51474684  0.69286709  0.12098316  1
  Ta  Ta114  1  0.49622324  0.49090147  0.36943187  1
  Ta  Ta115  1  0.91116964  0.29601756  0.61728312  1
  Ta  Ta116  1  0.10585710  0.90224670  0.11867632  1
  Ta  Ta117  1  0.00095682  0.21178799  0.49729029  1
  Ta  Ta118  1  0.71621149  0.70264265  0.87441568  1
  Ta  Ta119  1  0.50113619  0.09579838  0.64094304  1
  Ti  Ti120  1  0.81270942  0.60094261  0.01244860  1
  Ti  Ti121  1  0.61170440  0.39875858  -0.00454701  1
  Ti  Ti122  1  0.78539719  0.00864270  0.25183507  1
  Ti  Ti123  1  0.70103341  0.10045470  0.61963037  1
  Ti  Ti124  1  0.60064665  0.79792633  0.49819549  1
  Ti  Ti125  1  0.20341231  0.01259087  0.51229494  1
  Ti  Ti126  1  0.40185521  0.60293238  -0.00185693  1
  Ti  Ti127  1  0.60456551  0.80245141  0.76484045  1
  Ti  Ti128  1  0.71304098  0.29826296  0.61806122  1
  Ti  Ti129  1  0.38536818  0.01787305  -0.01123105  1
  Ti  Ti130  1  0.10793047  0.90434470  0.37615005  1
  Ti  Ti131  1  0.60079472  0.40238972  0.25425348  1
  Ti  Ti132  1  0.21300604  -0.00056760  0.25481474  1
  Ti  Ti133  1  0.20462126  0.20441943  0.23615145  1
  Ti  Ti134  1  0.61559171  0.18276090  0.24663124  1
  Ti  Ti135  1  0.89426304  0.89863802  0.87998568  1
  Ti  Ti136  1  0.20995717  0.60105654  0.23927372  1
  Ti  Ti137  1  0.30115944  0.49008581  0.61622261  1
  Ti  Ti138  1  0.20114731  0.40353040  0.75206449  1
  Ti  Ti139  1  0.20357115  0.80589319  -0.00119126  1
  Ti  Ti140  1  0.49228277  0.10007393  0.85814312  1
  Ti  Ti141  1  0.20272607  0.80942549  0.24777891  1
  Ti  Ti142  1  0.79768116  0.80663945  0.75424252  1
  Ti  Ti143  1  0.80020116  0.60482741  0.75314498  1
  Ti  Ti144  1  0.01261846  0.21141310  0.01641277  1
  Ti  Ti145  1  0.49992660  0.70484696  0.87183217  1
  Ti  Ti146  1  0.20513524  0.21859630  0.50734383  1
  Ti  Ti147  1  0.29831403  0.50420436  0.11130453  1
  Ti  Ti148  1  0.30588448  0.11582412  0.63508926  1
  Ti  Ti149  1  0.40069824  -0.00598854  0.75095439  1
  Ti  Ti150  1  0.19217040  -0.00019662  0.73844515  1
  Ti  Ti151  1  0.39859169  0.19680939  0.50129385  1
  Ti  Ti152  1  0.70453744  0.30274822  0.36871825  1
  Ti  Ti153  1  0.19792669  0.59989863  0.50335295  1
  Ti  Ti154  1  0.90163869  0.91023946  0.11706428  1
  Ti  Ti155  1  0.49988066  0.89943101  0.37306114  1
  Ti  Ti156  1  0.19436781  0.22470880  0.74127675  1
  Ti  Ti157  1  0.71035661  0.90207683  0.88185052  1
  Ti  Ti158  1  0.09239361  0.49137275  0.88558790  1
  Ti  Ti159  1  0.88853810  0.10571975  0.60922891  1
  Mo  Mo160  1  0.39455315  -0.00773145  0.26631286  1
  Mo  Mo161  1  0.09916581  0.68940003  0.62798694  1
  Mo  Mo162  1  0.70326707  0.70078896  0.37465555  1
  Mo  Mo163  1  0.11453028  0.30605774  0.88003062  1
  Mo  Mo164  1  0.30286629  0.09380828  0.12896402  1
  Mo  Mo165  1  -0.00147446  0.59496109  0.00568343  1
  Mo  Mo166  1  0.90738451  0.30130871  0.14970781  1
  Mo  Mo167  1  0.49766194  0.89924690  0.86357007  1
  Mo  Mo168  1  0.10184794  0.30613616  0.61381524  1
  Mo  Mo169  1  0.09568820  0.29447015  0.14254060  1
  Mo  Mo170  1  0.69717767  0.09927307  0.12589592  1
  Mo  Mo171  1  0.79635198  0.19821261  0.24970417  1
  Mo  Mo172  1  0.00060275  0.40123065  0.23911750  1
  Mo  Mo173  1  0.60747507  0.19400981  0.74281824  1
  Mo  Mo174  1  0.41037694  0.80139722  0.49291204  1
  Mo  Mo175  1  0.79854852  0.00476693  -0.00513335  1
  Mo  Mo176  1  0.40423585  0.18896229  -0.00414740  1
  Mo  Mo177  1  0.28435144  0.30000538  0.62403064  1
  Mo  Mo178  1  -0.00386966  0.19996600  0.74191431  1
  Mo  Mo179  1  0.59627999  0.59544974  0.25085684  1
  Mo  Mo180  1  0.79937727  0.39159462  0.49057153  1
  Mo  Mo181  1  0.20652772  0.40466830  0.49138595  1
  Mo  Mo182  1  0.40484234  0.80044005  0.76340150  1
  Mo  Mo183  1  0.69526755  0.70366076  0.11959124  1
  Mo  Mo184  1  0.89675814  0.68608253  0.12887773  1
  Mo  Mo185  1  0.78640639  0.41510910  0.00136975  1
  Mo  Mo186  1  0.20233818  -0.00722107  -0.00943963  1
  Mo  Mo187  1  0.30410659  0.29525867  0.12202532  1
  Mo  Mo188  1  0.38978265  0.19378272  0.74579284  1
  Mo  Mo189  1  0.79701360  0.21254187  0.50686463  1
  Mo  Mo190  1  0.60007509  -0.00936505  0.25900282  1
  Mo  Mo191  1  0.79534937  0.00301232  0.50700601  1
  Mo  Mo192  1  -0.01271858  0.60554265  0.25008450  1
  Mo  Mo193  1  0.79143257  0.79506070  0.49909358  1
  Mo  Mo194  1  0.48786136  0.50539286  0.62388253  1
  Mo  Mo195  1  -0.00051863  0.39587000  0.49240917  1
  Mo  Mo196  1  0.70744373  0.49987731  0.88000336  1
  Mo  Mo197  1  0.10264748  0.90781646  0.63301468  1
  Mo  Mo198  1  0.00623707  0.19677225  0.24533644  1
  Mo  Mo199  1  0.78923095  0.40677741  0.25593763  1
