# generated using pymatgen
data_HfZrTaTiMo
_symmetry_space_group_name_H-M   'P 1'
_cell_length_a   15.21916550
_cell_length_b   15.20426564
_cell_length_c   16.86156228
_cell_angle_alpha   89.99558782
_cell_angle_beta   89.98218870
_cell_angle_gamma   90.04496018
_symmetry_Int_Tables_number   1
_chemical_formula_structural   HfZrTaTiMo
_chemical_formula_sum   'Hf40 Zr40 Ta40 Ti40 Mo40'
_cell_volume   3901.70063034
_cell_formula_units_Z   40
loop_
 _symmetry_equiv_pos_site_id
 _symmetry_equiv_pos_as_xyz
  1  'x, y, z'
loop_
 _atom_site_type_symbol
 _atom_site_label
 _atom_site_symmetry_multiplicity
 _atom_site_fract_x
 _atom_site_fract_y
 _atom_site_fract_z
 _atom_site_occupancy
  Hf  Hf0  1  0.79850747  0.40663704  0.25534483  1
  Hf  Hf1  1  0.59762433  0.79186237  0.25567176  1
  Hf  Hf2  1  0.10836893  0.09275726  0.60704211  1
  Hf  Hf3  1  0.79537534  0.78739794  0.76385254  1
  Hf  Hf4  1  0.18572112  0.37993656  -0.01356588  1
  Hf  Hf5  1  0.89620578  0.90869482  0.64240577  1
  Hf  Hf6  1  0.31041206  0.08421692  0.60714059  1
  Hf  Hf7  1  0.80553207  0.81868929  0.49542774  1
  Hf  Hf8  1  0.29239685  0.33096064  0.37754186  1
  Hf  Hf9  1  0.10293085  0.48052097  0.12920651  1
  Hf  Hf10  1  0.20151226  0.00968997  0.75166026  1
  Hf  Hf11  1  0.69644355  0.29960786  0.37515840  1
  Hf  Hf12  1  0.30690260  0.49013151  0.12599474  1
  Hf  Hf13  1  0.70625187  0.69445981  0.61256848  1
  Hf  Hf14  1  0.48070360  0.92331615  0.62742000  1
  Hf  Hf15  1  0.90760712  0.10378774  0.62887341  1
  Hf  Hf16  1  0.59166972  0.80929646  0.50382011  1
  Hf  Hf17  1  0.20109291  0.38066785  0.74273885  1
  Hf  Hf18  1  0.38706149  0.79936132  0.74161031  1
  Hf  Hf19  1  0.39067307  -0.01283442  0.01348927  1
  Hf  Hf20  1  0.48794936  0.10466970  0.12827007  1
  Hf  Hf21  1  0.39949246  0.39391546  -0.00867717  1
  Hf  Hf22  1  0.10753345  0.09163652  0.38743914  1
  Hf  Hf23  1  0.89841198  0.29792986  0.37547789  1
  Hf  Hf24  1  0.01865002  0.19812284  0.75237272  1
  Hf  Hf25  1  0.02376966  0.40083363  0.27475477  1
  Hf  Hf26  1  0.90975678  0.91018223  0.87345693  1
  Hf  Hf27  1  0.68847283  0.10565738  0.63325690  1
  Hf  Hf28  1  0.00659373  0.39144224  0.49261829  1
  Hf  Hf29  1  0.60767694  0.59519901  0.25459610  1
  Hf  Hf30  1  0.30615687  0.49588341  0.86415520  1
  Hf  Hf31  1  0.78773815  0.01580076  0.49994315  1
  Hf  Hf32  1  0.70004660  0.50016117  0.86807367  1
  Hf  Hf33  1  0.09625011  0.49770429  0.63304964  1
  Hf  Hf34  1  0.80673382  0.61456683  0.26097549  1
  Hf  Hf35  1  0.49827856  0.29389763  0.87147898  1
  Hf  Hf36  1  0.47873785  0.90015520  0.35972499  1
  Hf  Hf37  1  0.91634494  0.31717009  0.86635173  1
  Hf  Hf38  1  0.49029102  0.68800085  0.38900232  1
  Hf  Hf39  1  0.30969998  0.70466447  0.88445843  1
  Zr  Zr40  1  0.40254558  0.18072510  0.74067459  1
  Zr  Zr41  1  0.20559182  0.57528930  0.26711101  1
  Zr  Zr42  1  0.70343100  0.30263670  0.11821679  1
  Zr  Zr43  1  0.80989990  0.62250674  -0.00746412  1
  Zr  Zr44  1  0.60615539  0.60532408  -0.00270071  1
  Zr  Zr45  1  0.79552436  0.00865578  -0.00560738  1
  Zr  Zr46  1  0.80520841  -0.00136945  0.24202883  1
  Zr  Zr47  1  0.28461168  0.89831804  0.14757195  1
  Zr  Zr48  1  0.09219593  0.48527776  0.85633019  1
  Zr  Zr49  1  0.91056655  0.51237406  0.13686732  1
  Zr  Zr50  1  0.89239858  0.09979699  0.37575441  1
  Zr  Zr51  1  0.19528041  0.81201741  0.00722890  1
  Zr  Zr52  1  0.49818427  0.30284103  0.37551548  1
  Zr  Zr53  1  0.70387293  0.50642155  0.12082467  1
  Zr  Zr54  1  0.58509376  0.00920362  0.49556498  1
  Zr  Zr55  1  0.00338861  0.58937803  -0.00353484  1
  Zr  Zr56  1  0.09272279  0.70702468  0.87531597  1
  Zr  Zr57  1  0.58978482  0.80006682  0.73856550  1
  Zr  Zr58  1  0.09614004  0.89778117  0.62103760  1
  Zr  Zr59  1  0.10051190  0.69393817  0.14254510  1
  Zr  Zr60  1  0.50736999  0.70189030  0.87593168  1
  Zr  Zr61  1  0.50507661  0.10262105  0.36007407  1
  Zr  Zr62  1  0.90687589  0.70618854  0.61340439  1
  Zr  Zr63  1  0.91241267  0.10544377  0.12055463  1
  Zr  Zr64  1  0.01527780  0.20438960  -0.00867079  1
  Zr  Zr65  1  0.40630594  0.39938025  0.52012809  1
  Zr  Zr66  1  0.10920387  0.27746008  0.13343414  1
  Zr  Zr67  1  0.60769407  0.00119621  0.23622902  1
  Zr  Zr68  1  0.78832683  0.01536601  0.76689086  1
  Zr  Zr69  1  0.19632536  0.80398923  0.75397875  1
  Zr  Zr70  1  -0.00545223  -0.03206098  0.48405095  1
  Zr  Zr71  1  0.60324340  0.19368652  -0.00159754  1
  Zr  Zr72  1  0.38475496  0.21180769  0.25197092  1
  Zr  Zr73  1  0.10607086  0.69792963  0.61192702  1
  Zr  Zr74  1  0.89691565  0.51640102  0.85088745  1
  Zr  Zr75  1  0.00301846  0.58244356  0.48386664  1
  Zr  Zr76  1  0.20565074  0.59556303  0.00051347  1
  Zr  Zr77  1  -0.01374722  0.79751669  0.01092621  1
  Zr  Zr78  1  0.50540060  0.07854538  0.87863096  1
  Zr  Zr79  1  -0.01603510  0.79869716  0.24789536  1
  Ta  Ta80  1  0.50265145  0.49588268  0.12294422  1
  Ta  Ta81  1  0.28358453  0.10942776  0.12505094  1
  Ta  Ta82  1  0.49537752  0.30856965  0.12382616  1
  Ta  Ta83  1  0.60266576  0.39201408  0.74599737  1
  Ta  Ta84  1  0.48664624  0.88615641  0.13816296  1
  Ta  Ta85  1  0.09964526  0.69646236  0.36768509  1
  Ta  Ta86  1  0.20894032  0.60606606  0.74836685  1
  Ta  Ta87  1  0.50038041  0.49847666  0.86197070  1
  Ta  Ta88  1  0.10486873  0.28835245  0.61682899  1
  Ta  Ta89  1  0.89775878  0.70163024  0.38875628  1
  Ta  Ta90  1  0.30397884  0.09507750  0.88554064  1
  Ta  Ta91  1  0.89431714  0.50846161  0.63287769  1
  Ta  Ta92  1  0.61260858  0.19407608  0.76118178  1
  Ta  Ta93  1  0.30170668  0.50879237  0.63041011  1
  Ta  Ta94  1  0.69418718  0.90623812  0.63431644  1
  Ta  Ta95  1  0.81484594  0.40467697  -0.00263988  1
  Ta  Ta96  1  0.40457092  0.39413530  0.73789383  1
  Ta  Ta97  1  0.59837499  -0.01389933  0.01569054  1
  Ta  Ta98  1  0.80533338  0.41082854  0.50508038  1
  Ta  Ta99  1  0.79835986  0.21616249  0.51274157  1
  Ta  Ta100  1  0.69754568  0.70198563  0.39308780  1
  Ta  Ta101  1  0.31043120  0.69988373  0.13609108  1
  Ta  Ta102  1  0.78862944  0.80637665  0.26324478  1
  Ta  Ta103  1  0.49940444  0.69618519  0.12567272  1
  Ta  Ta104  1  0.29812224  0.70024369  0.61076131  1
  Ta  Ta105  1  0.66988081  0.90793635  0.87217675  1
  Ta  Ta106  1  0.60026926  0.40233235  -0.00806323  1
  Ta  Ta107  1  0.71428646  0.29445627  0.88049283  1
  Ta  Ta108  1  0.79406896  0.39860891  0.73752218  1
  Ta  Ta109  1  0.69543994  0.91314499  0.37527298  1
  Ta  Ta110  1  0.41122892  0.59306507  0.25131355  1
  Ta  Ta111  1  0.40771897  0.59918022  0.00394795  1
  Ta  Ta112  1  0.60810678  0.59874335  0.74414871  1
  Ta  Ta113  1  0.79923264  0.20112930  0.24567364  1
  Ta  Ta114  1  0.60679012  0.20161133  0.50235316  1
  Ta  Ta115  1  0.29388087  0.28031365  0.86840595  1
  Ta  Ta116  1  0.90918516  0.30913942  0.12650908  1
  Ta  Ta117  1  0.19161096  0.80658889  0.47790362  1
  Ta  Ta118  1  0.50244435  0.49319535  0.38329574  1
  Ta  Ta119  1  0.71070883  0.72086438  0.12476150  1
  Ti  Ti120  1  0.30072221  0.28855956  0.62150839  1
  Ti  Ti121  1  0.80238297  0.21278690  0.74539723  1
  Ti  Ti122  1  -0.00398910  0.62036921  0.74640450  1
  Ti  Ti123  1  0.87645978  0.88561756  0.11905142  1
  Ti  Ti124  1  0.59831269  0.58870342  0.50602996  1
  Ti  Ti125  1  0.00278445  0.19224164  0.25677657  1
  Ti  Ti126  1  0.11054756  0.10117444  0.87654453  1
  Ti  Ti127  1  -0.00133439  0.19763298  0.49887064  1
  Ti  Ti128  1  0.18581455  0.00622171  0.00883650  1
  Ti  Ti129  1  0.78052161  0.80819908  -0.01910638  1
  Ti  Ti130  1  0.29041610  0.90546821  0.88153818  1
  Ti  Ti131  1  0.30229297  0.29803057  0.12099603  1
  Ti  Ti132  1  0.70031706  0.49759688  0.62447496  1
  Ti  Ti133  1  0.00403556  0.81334677  0.75887819  1
  Ti  Ti134  1  0.89281759  0.11886411  0.88001014  1
  Ti  Ti135  1  0.70407158  0.50437040  0.38812316  1
  Ti  Ti136  1  0.90821562  0.30876413  0.62775215  1
  Ti  Ti137  1  0.19074571  0.00873519  0.25105054  1
  Ti  Ti138  1  0.38612698  0.80728416  0.49641753  1
  Ti  Ti139  1  0.70779553  0.10485776  0.11705527  1
  Ti  Ti140  1  0.60744990  0.20541255  0.24149982  1
  Ti  Ti141  1  0.60929199  0.39391562  0.51191696  1
  Ti  Ti142  1  0.19322657  0.20232719  0.26719530  1
  Ti  Ti143  1  0.28887133  0.90278455  0.35694314  1
  Ti  Ti144  1  0.20115433  0.40757282  0.51009854  1
  Ti  Ti145  1  0.30316139  0.70458779  0.36803829  1
  Ti  Ti146  1  0.30988212  0.09208014  0.38125571  1
  Ti  Ti147  1  0.58854595  0.80384583  0.00524136  1
  Ti  Ti148  1  0.00714770  -0.00466076  0.00574850  1
  Ti  Ti149  1  0.41187430  0.19245656  0.50135679  1
  Ti  Ti150  1  0.47845942  0.89250716  0.87711790  1
  Ti  Ti151  1  0.20876207  0.20742012  0.49020675  1
  Ti  Ti152  1  0.59197206  0.40200149  0.24901854  1
  Ti  Ti153  1  0.21464962  0.59503707  0.48496429  1
  Ti  Ti154  1  0.28662912  0.89688717  0.61138950  1
  Ti  Ti155  1  0.00156085  -0.00487320  0.25346517  1
  Ti  Ti156  1  0.49038765  0.69399296  0.61234563  1
  Ti  Ti157  1  0.50419795  0.50160289  0.63108889  1
  Ti  Ti158  1  0.51708492  0.28665088  0.63008570  1
  Ti  Ti159  1  0.40495356  0.60180149  0.74207955  1
  Mo  Mo160  1  0.00487948  0.00518249  0.76206340  1
  Mo  Mo161  1  0.10759721  0.29092849  0.86797243  1
  Mo  Mo162  1  0.40601716  0.41113896  0.24782067  1
  Mo  Mo163  1  -0.00310003  0.59319654  0.27365420  1
  Mo  Mo164  1  0.81078421  0.21491489  -0.00129640  1
  Mo  Mo165  1  0.70029070  0.10501747  0.87944643  1
  Mo  Mo166  1  0.19495153  0.79599507  0.26251792  1
  Mo  Mo167  1  0.69386347  0.89523716  0.11782358  1
  Mo  Mo168  1  0.58749155  0.00188458  0.75205184  1
  Mo  Mo169  1  0.89965726  0.50034852  0.37399144  1
  Mo  Mo170  1  0.69469696  0.70565701  0.87170470  1
  Mo  Mo171  1  0.70442957  0.30464031  0.62525271  1
  Mo  Mo172  1  0.21675654  0.38410963  0.24747424  1
  Mo  Mo173  1  0.12783896  0.48424682  0.38382974  1
  Mo  Mo174  1  0.00320576  0.79159015  0.48516290  1
  Mo  Mo175  1  0.79240009  0.59985880  0.74245245  1
  Mo  Mo176  1  0.89069087  0.70303841  0.13159784  1
  Mo  Mo177  1  0.10091872  0.91912239  0.87879606  1
  Mo  Mo178  1  0.10529787  0.28628833  0.38545358  1
  Mo  Mo179  1  0.10200301  0.89364913  0.35620321  1
  Mo  Mo180  1  0.21201326  0.18881406  -0.00057077  1
  Mo  Mo181  1  0.49879378  0.10745716  0.62478564  1
  Mo  Mo182  1  0.38998041  -0.00651349  0.48775702  1
  Mo  Mo183  1  -0.00523652  0.39681822  0.00326669  1
  Mo  Mo184  1  0.79348798  0.59371753  0.49378323  1
  Mo  Mo185  1  0.40279127  0.60049675  0.51125509  1
  Mo  Mo186  1  -0.00136260  0.39735308  0.73041199  1
  Mo  Mo187  1  0.32623222  0.51568414  0.38765756  1
  Mo  Mo188  1  0.10265005  0.08762381  0.13434764  1
  Mo  Mo189  1  0.40071542  0.79511245  0.01127154  1
  Mo  Mo190  1  0.89914400  0.71020924  0.86907186  1
  Mo  Mo191  1  0.70192670  0.11688510  0.37258076  1
  Mo  Mo192  1  0.89180948  0.89672619  0.36918063  1
  Mo  Mo193  1  0.21018566  -0.00916978  0.48481533  1
  Mo  Mo194  1  0.39162526  -0.01313105  0.75744783  1
  Mo  Mo195  1  0.39517446  0.78662067  0.25539261  1
  Mo  Mo196  1  0.39107246  0.19886567  0.00278539  1
  Mo  Mo197  1  0.20878152  0.19447426  0.74182966  1
  Mo  Mo198  1  0.08525989  0.91418004  0.13758032  1
  Mo  Mo199  1  0.38680011  0.00356909  0.23940298  1
