# generated using pymatgen
data_HfZrTaTiMo
_symmetry_space_group_name_H-M   'P 1'
_cell_length_a   15.20987593
_cell_length_b   15.20654924
_cell_length_c   16.84112399
_cell_angle_alpha   90.03701864
_cell_angle_beta   90.01213106
_cell_angle_gamma   89.99102688
_symmetry_Int_Tables_number   1
_chemical_formula_structural   HfZrTaTiMo
_chemical_formula_sum   'Hf40 Zr40 Ta40 Ti40 Mo40'
_cell_volume   3895.17802779
_cell_formula_units_Z   40
loop_
 _symmetry_equiv_pos_site_id
 _symmetry_equiv_pos_as_xyz
  1  'x, y, z'
loop_
 _atom_site_type_symbol
 _atom_site_label
 _atom_site_symmetry_multiplicity
 _atom_site_fract_x
 _atom_site_fract_y
 _atom_site_fract_z
 _atom_site_occupancy
  Hf  Hf0  1  0.19923897  0.39816091  0.47418375  1
  Hf  Hf1  1  0.89503557  0.10968471  0.37835002  1
  Hf  Hf2  1  0.41961278  0.18658699  0.49557554  1
  Hf  Hf3  1  0.69631786  0.71129898  0.86663911  1
  Hf  Hf4  1  0.89723877  0.30080916  0.88398443  1
  Hf  Hf5  1  0.38759041  0.40976122  0.74596164  1
  Hf  Hf6  1  0.88138569  0.51861366  0.36002112  1
  Hf  Hf7  1  0.69638205  0.29151555  0.63172551  1
  Hf  Hf8  1  -0.00184721  0.78998097  0.00317715  1
  Hf  Hf9  1  0.21080618  0.78688803  -0.00917895  1
  Hf  Hf10  1  0.50788105  0.69771858  0.87215190  1
  Hf  Hf11  1  0.11717282  0.69728070  0.14086068  1
  Hf  Hf12  1  0.09300243  0.50464486  0.14786085  1
  Hf  Hf13  1  0.21320474  -0.00670555  -0.01549260  1
  Hf  Hf14  1  0.79897355  0.40432810  0.76080142  1
  Hf  Hf15  1  0.58955188  0.61739600  0.72152014  1
  Hf  Hf16  1  0.90293448  0.70447417  0.62445382  1
  Hf  Hf17  1  0.39335141  0.40803494  0.00655714  1
  Hf  Hf18  1  0.08819959  0.09421065  0.88684621  1
  Hf  Hf19  1  0.40996090  0.21069899  -0.01484823  1
  Hf  Hf20  1  0.61414828  0.19460743  0.23969046  1
  Hf  Hf21  1  0.00175165  0.82257712  0.74588098  1
  Hf  Hf22  1  0.20259334  0.19102393  0.75383774  1
  Hf  Hf23  1  0.18493668  0.40756125  0.01512738  1
  Hf  Hf24  1  0.11462165  0.30262222  0.62015843  1
  Hf  Hf25  1  0.30424496  0.09085715  0.12518081  1
  Hf  Hf26  1  0.79993699  0.80102665  0.50118782  1
  Hf  Hf27  1  0.59147506  0.39571460  -0.00836020  1
  Hf  Hf28  1  0.20230895  0.39451811  0.26112771  1
  Hf  Hf29  1  0.61965545  0.59598672  0.25942500  1
  Hf  Hf30  1  0.50987028  0.10776540  0.11062687  1
  Hf  Hf31  1  0.40187412  0.79809461  -0.00267702  1
  Hf  Hf32  1  0.79252911  0.01113260  0.25169837  1
  Hf  Hf33  1  0.29159032  0.30905326  0.87477040  1
  Hf  Hf34  1  0.41822402  0.78776748  0.73305739  1
  Hf  Hf35  1  0.40325481  0.60317821  0.00857161  1
  Hf  Hf36  1  0.19840386  -0.01312384  0.25660575  1
  Hf  Hf37  1  0.60175450  0.21396743  0.77699004  1
  Hf  Hf38  1  0.70928714  0.90532993  0.88984856  1
  Hf  Hf39  1  -0.00598709  0.18988370  0.75034884  1
  Zr  Zr40  1  0.89801201  0.68712130  0.14063824  1
  Zr  Zr41  1  0.00405590  0.58500340  0.00076589  1
  Zr  Zr42  1  0.59351713  0.41087596  0.75281935  1
  Zr  Zr43  1  0.78587085  0.82306706  0.73007548  1
  Zr  Zr44  1  0.09435735  0.07626421  0.61653847  1
  Zr  Zr45  1  0.00377279  0.81375487  0.24677276  1
  Zr  Zr46  1  0.77513861  0.40501027  0.24441661  1
  Zr  Zr47  1  0.00083702  0.60579256  0.74716439  1
  Zr  Zr48  1  0.19547203  0.19251348  0.26101825  1
  Zr  Zr49  1  0.78073841  0.80736957  0.26122249  1
  Zr  Zr50  1  0.89548908  0.31434319  0.62891119  1
  Zr  Zr51  1  0.29939521  0.09081996  0.61820371  1
  Zr  Zr52  1  0.60113950  0.39132329  0.50246916  1
  Zr  Zr53  1  0.51633602  0.28056431  0.37222788  1
  Zr  Zr54  1  0.62093490  -0.01258404  0.74428148  1
  Zr  Zr55  1  0.31801901  0.07839605  0.38080902  1
  Zr  Zr56  1  0.40453429  -0.02223870  0.24458134  1
  Zr  Zr57  1  0.89218810  0.70700694  0.86997262  1
  Zr  Zr58  1  0.40350584  -0.00623182  -0.01101045  1
  Zr  Zr59  1  0.30461280  0.51270996  0.14479645  1
  Zr  Zr60  1  0.50911061  0.09087295  0.87712576  1
  Zr  Zr61  1  0.10132306  0.10461542  0.11387855  1
  Zr  Zr62  1  0.69562258  0.51826833  0.88054150  1
  Zr  Zr63  1  0.39254832  -0.00087498  0.75468742  1
  Zr  Zr64  1  0.51182657  0.89178535  0.12166337  1
  Zr  Zr65  1  0.88998179  0.10707105  0.61823242  1
  Zr  Zr66  1  0.19600409  0.78262925  0.75572717  1
  Zr  Zr67  1  0.09317260  0.30798694  0.88538984  1
  Zr  Zr68  1  0.30341593  0.68109550  0.62087939  1
  Zr  Zr69  1  0.50682877  0.10995060  0.63829859  1
  Zr  Zr70  1  -0.00839443  0.41079889  0.49134170  1
  Zr  Zr71  1  0.88322650  0.90436150  0.11469224  1
  Zr  Zr72  1  0.28630651  0.48665050  0.60956364  1
  Zr  Zr73  1  0.00435333  0.61317957  0.49560562  1
  Zr  Zr74  1  0.00034463  0.20553368  0.49727627  1
  Zr  Zr75  1  0.11014349  0.90247520  0.11754407  1
  Zr  Zr76  1  -0.01333312  0.39024675  0.25075556  1
  Zr  Zr77  1  0.01469016  0.41343712  0.74871887  1
  Zr  Zr78  1  0.51646606  0.71186867  0.39097200  1
  Zr  Zr79  1  0.30470877  0.29246146  0.13282280  1
  Ta  Ta80  1  0.30799292  0.28964350  0.61751860  1
  Ta  Ta81  1  0.18184408  -0.01361419  0.75950402  1
  Ta  Ta82  1  -0.00492358  0.00998995  0.25114089  1
  Ta  Ta83  1  -0.01016005  0.19635944  0.24777046  1
  Ta  Ta84  1  0.67834423  0.90419761  0.38967049  1
  Ta  Ta85  1  0.41441001  0.60339503  0.26967324  1
  Ta  Ta86  1  0.50666552  0.68784931  0.13335819  1
  Ta  Ta87  1  0.90978415  0.71058766  0.36837190  1
  Ta  Ta88  1  0.90691017  0.92061107  0.61247658  1
  Ta  Ta89  1  0.39955730  0.20873014  0.76323995  1
  Ta  Ta90  1  0.09509695  0.90147936  0.37569263  1
  Ta  Ta91  1  0.19759764  0.57323500  0.75034246  1
  Ta  Ta92  1  0.60864193  0.59800569  0.51067495  1
  Ta  Ta93  1  0.90341638  0.91160812  0.88668469  1
  Ta  Ta94  1  0.89794549  0.09732242  0.89640015  1
  Ta  Ta95  1  0.40227475  0.59060610  0.48033234  1
  Ta  Ta96  1  0.79303239  0.40938292  0.49318448  1
  Ta  Ta97  1  0.78794525  0.00613709  0.49256929  1
  Ta  Ta98  1  0.68826545  0.11071152  0.37882737  1
  Ta  Ta99  1  0.70295147  0.08690024  0.10474098  1
  Ta  Ta100  1  0.20771443  0.59837144  0.00225013  1
  Ta  Ta101  1  0.30533383  0.88725853  0.85954783  1
  Ta  Ta102  1  0.21721989  0.60981171  0.27213467  1
  Ta  Ta103  1  0.79633767  0.21342442  0.00743818  1
  Ta  Ta104  1  0.78360603  0.21303237  0.49542564  1
  Ta  Ta105  1  0.48526959  0.90543097  0.39186669  1
  Ta  Ta106  1  0.11264345  0.71568208  0.36945735  1
  Ta  Ta107  1  0.31172319  0.68110432  0.86183381  1
  Ta  Ta108  1  0.69739210  0.71117054  0.12371596  1
  Ta  Ta109  1  0.70829780  0.10138603  0.89678754  1
  Ta  Ta110  1  0.89798197  0.90846099  0.38181499  1
  Ta  Ta111  1  0.28113237  0.89170954  0.62843591  1
  Ta  Ta112  1  0.79364604  0.19023937  0.76553030  1
  Ta  Ta113  1  0.50792017  0.49363511  0.13558362  1
  Ta  Ta114  1  0.90507765  0.10891825  0.10978448  1
  Ta  Ta115  1  0.09370472  0.51109074  0.36118087  1
  Ta  Ta116  1  0.20720368  0.19493967  0.48844506  1
  Ta  Ta117  1  0.39851858  0.39227105  0.48899004  1
  Ta  Ta118  1  0.20043238  -0.02422444  0.49346652  1
  Ta  Ta119  1  0.48366798  0.51135959  0.87130057  1
  Ti  Ti120  1  0.49422417  0.90561844  0.61443275  1
  Ti  Ti121  1  0.80290821  0.20790556  0.23425549  1
  Ti  Ti122  1  0.51470793  0.88763906  0.86843830  1
  Ti  Ti123  1  0.31024374  0.28878199  0.37099346  1
  Ti  Ti124  1  0.89123310  0.49592832  0.13126244  1
  Ti  Ti125  1  0.07877290  0.29533256  0.11910571  1
  Ti  Ti126  1  0.38456361  0.80179782  0.50657815  1
  Ti  Ti127  1  0.08888697  0.29144174  0.37217430  1
  Ti  Ti128  1  0.48422776  0.50476661  0.61430630  1
  Ti  Ti129  1  0.90807023  0.50189694  0.88160994  1
  Ti  Ti130  1  0.49491617  0.30328164  0.62722999  1
  Ti  Ti131  1  0.79560318  0.61266810  0.00202714  1
  Ti  Ti132  1  0.60706361  0.79230854  0.00396653  1
  Ti  Ti133  1  0.01176976  0.81485793  0.50145550  1
  Ti  Ti134  1  0.09572474  0.50689156  0.61271080  1
  Ti  Ti135  1  0.59409880  0.39376379  0.25086022  1
  Ti  Ti136  1  0.31270024  0.71561778  0.14253420  1
  Ti  Ti137  1  0.69445551  0.51576127  0.11312030  1
  Ti  Ti138  1  0.68635988  0.30197556  0.11257413  1
  Ti  Ti139  1  0.80228489  0.59781411  0.50838471  1
  Ti  Ti140  1  0.09546077  0.09325718  0.38279341  1
  Ti  Ti141  1  0.60317195  -0.00573834  0.25275993  1
  Ti  Ti142  1  0.71145796  0.49869435  0.62546140  1
  Ti  Ti143  1  0.41427758  0.19118687  0.25158255  1
  Ti  Ti144  1  0.80091330  0.41031632  0.00314149  1
  Ti  Ti145  1  0.58827788  0.80367897  0.25596535  1
  Ti  Ti146  1  0.58773244  0.01361638  0.50384290  1
  Ti  Ti147  1  0.20695111  0.60408041  0.47523547  1
  Ti  Ti148  1  0.71475024  0.68902505  0.38303816  1
  Ti  Ti149  1  0.20562448  0.20000300  -0.00354604  1
  Ti  Ti150  1  0.11112978  0.70637330  0.61811465  1
  Ti  Ti151  1  0.88517375  0.30277092  0.37235563  1
  Ti  Ti152  1  0.70346924  0.09623529  0.62628618  1
  Ti  Ti153  1  0.50924110  0.49332583  0.37797008  1
  Ti  Ti154  1  0.10552675  0.68109273  0.87574179  1
  Ti  Ti155  1  0.09489999  0.89181433  0.88374244  1
  Ti  Ti156  1  0.28578485  0.50042400  0.87554300  1
  Ti  Ti157  1  0.60394445  0.80340281  0.52400397  1
  Ti  Ti158  1  0.40701078  0.39724968  0.25857381  1
  Ti  Ti159  1  0.79819621  0.60205887  0.73903325  1
  Mo  Mo160  1  0.59747673  0.80684109  0.72652931  1
  Mo  Mo161  1  0.70893055  0.29988138  0.36983009  1
  Mo  Mo162  1  0.21811318  0.80597905  0.25299569  1
  Mo  Mo163  1  0.69172658  0.89793587  0.12088062  1
  Mo  Mo164  1  0.19330267  0.78834000  0.50351474  1
  Mo  Mo165  1  0.60906356  0.19309868  0.50668177  1
  Mo  Mo166  1  0.49570669  0.69688806  0.59731609  1
  Mo  Mo167  1  0.40646365  0.78950481  0.25679720  1
  Mo  Mo168  1  0.31238748  0.70544513  0.38020114  1
  Mo  Mo169  1  0.39742901  0.59339541  0.74549914  1
  Mo  Mo170  1  0.51474783  0.07990184  0.37102623  1
  Mo  Mo171  1  0.29207752  0.09944510  0.86756710  1
  Mo  Mo172  1  0.59748786  0.60155464  0.00881807  1
  Mo  Mo173  1  -0.01614405  0.40056171  0.01484338  1
  Mo  Mo174  1  0.30969992  0.49502783  0.36884521  1
  Mo  Mo175  1  0.70488466  0.30348671  0.88883585  1
  Mo  Mo176  1  0.39848335  -0.01344479  0.50977669  1
  Mo  Mo177  1  0.69380628  0.50387830  0.38572273  1
  Mo  Mo178  1  0.79548843  0.60652716  0.24579832  1
  Mo  Mo179  1  0.60400344  0.20567214  -0.00797233  1
  Mo  Mo180  1  0.88888904  0.30350626  0.12025337  1
  Mo  Mo181  1  0.00470017  0.60705027  0.26084812  1
  Mo  Mo182  1  -0.00522372  -0.00310289  0.48780962  1
  Mo  Mo183  1  0.60179816  -0.00766372  -0.00310867  1
  Mo  Mo184  1  0.49341728  0.31565035  0.87028173  1
  Mo  Mo185  1  -0.00126693  0.20608373  0.00518390  1
  Mo  Mo186  1  0.19930954  0.39268493  0.74398639  1
  Mo  Mo187  1  0.79869618  0.79098493  0.00197032  1
  Mo  Mo188  1  0.29258087  0.87851694  0.38147501  1
  Mo  Mo189  1  0.50053979  0.30456161  0.13618352  1
  Mo  Mo190  1  0.09900755  0.89738568  0.62206547  1
  Mo  Mo191  1  0.80269902  0.00030601  0.00593703  1
  Mo  Mo192  1  0.89182626  0.50738146  0.62046717  1
  Mo  Mo193  1  0.30073772  0.88873289  0.12310240  1
  Mo  Mo194  1  0.70198254  0.91479762  0.60462416  1
  Mo  Mo195  1  0.70382197  0.69951213  0.61855709  1
  Mo  Mo196  1  0.00279138  -0.00408877  0.00188117  1
  Mo  Mo197  1  0.81647885  0.01081707  0.75344430  1
  Mo  Mo198  1  0.10554063  0.50103857  0.88260378  1
  Mo  Mo199  1  -0.01042877  -0.00142383  0.75546478  1
