# generated using pymatgen
data_HfZrTaTiMo
_symmetry_space_group_name_H-M   'P 1'
_cell_length_a   15.18359398
_cell_length_b   15.17678687
_cell_length_c   16.80002115
_cell_angle_alpha   89.95908537
_cell_angle_beta   89.92008402
_cell_angle_gamma   90.00577814
_symmetry_Int_Tables_number   1
_chemical_formula_structural   HfZrTaTiMo
_chemical_formula_sum   'Hf40 Zr40 Ta40 Ti40 Mo40'
_cell_volume   3871.36135235
_cell_formula_units_Z   40
loop_
 _symmetry_equiv_pos_site_id
 _symmetry_equiv_pos_as_xyz
  1  'x, y, z'
loop_
 _atom_site_type_symbol
 _atom_site_label
 _atom_site_symmetry_multiplicity
 _atom_site_fract_x
 _atom_site_fract_y
 _atom_site_fract_z
 _atom_site_occupancy
  Hf  Hf0  1  0.20757110  0.81197129  0.00651933  1
  Hf  Hf1  1  0.88046319  0.48433549  0.87602823  1
  Hf  Hf2  1  0.20280455  0.80859447  0.51035334  1
  Hf  Hf3  1  0.11225421  0.09932172  0.38055806  1
  Hf  Hf4  1  -0.01725832  0.20155085  0.26012395  1
  Hf  Hf5  1  0.79413022  0.59412996  0.74992761  1
  Hf  Hf6  1  0.09033829  0.29122066  0.12683508  1
  Hf  Hf7  1  0.31603910  0.69079667  0.11837643  1
  Hf  Hf8  1  0.18505396  0.40734675  0.75105413  1
  Hf  Hf9  1  0.20512532  0.58882107  0.26023918  1
  Hf  Hf10  1  0.30227908  0.10776713  0.13452407  1
  Hf  Hf11  1  0.11201510  0.10746636  0.61558343  1
  Hf  Hf12  1  0.31031356  0.70039869  0.39050430  1
  Hf  Hf13  1  0.21686117  0.01378569  -0.00149525  1
  Hf  Hf14  1  0.70017711  0.70393200  0.61452127  1
  Hf  Hf15  1  0.90381657  0.89803891  0.13279162  1
  Hf  Hf16  1  0.81598280  0.00040739  0.49707463  1
  Hf  Hf17  1  0.68360491  0.50235104  0.61555532  1
  Hf  Hf18  1  0.48306554  0.50330825  0.11910186  1
  Hf  Hf19  1  0.70592732  0.72396851  0.38336789  1
  Hf  Hf20  1  0.67901485  0.29640615  0.38027839  1
  Hf  Hf21  1  0.00115000  0.58310841  -0.01075563  1
  Hf  Hf22  1  0.02017795  0.00851953  0.01659528  1
  Hf  Hf23  1  0.71424353  0.10353191  0.62144015  1
  Hf  Hf24  1  0.87633613  0.29272492  0.38481054  1
  Hf  Hf25  1  0.89940079  0.69845761  0.62533320  1
  Hf  Hf26  1  -0.02013016  0.18556464  0.50009636  1
  Hf  Hf27  1  0.10717277  0.70194133  0.38104624  1
  Hf  Hf28  1  0.08960237  0.90857275  0.63565986  1
  Hf  Hf29  1  0.59505596  0.61318145  0.25281579  1
  Hf  Hf30  1  0.29791095  0.31127058  0.12388899  1
  Hf  Hf31  1  0.10081593  0.49255726  0.12893861  1
  Hf  Hf32  1  0.69643518  0.29957553  0.87846180  1
  Hf  Hf33  1  0.41422891  0.01176641  0.49109338  1
  Hf  Hf34  1  0.01024873  0.00813062  0.24827457  1
  Hf  Hf35  1  0.31650542  0.90313269  0.36304754  1
  Hf  Hf36  1  0.51627759  0.10940233  0.61852195  1
  Hf  Hf37  1  0.50657716  0.70191691  0.39589774  1
  Hf  Hf38  1  0.10667379  0.91785669  0.86552424  1
  Hf  Hf39  1  0.00877479  -0.01228109  0.48792591  1
  Zr  Zr40  1  0.89513746  0.48194496  0.12335471  1
  Zr  Zr41  1  0.20267877  0.59610399  -0.01409290  1
  Zr  Zr42  1  0.19833106  0.20220948  0.26088116  1
  Zr  Zr43  1  0.80027874  0.19453903  0.75064308  1
  Zr  Zr44  1  0.21888004  0.00300994  0.49727753  1
  Zr  Zr45  1  0.31588248  0.90828314  0.86934613  1
  Zr  Zr46  1  0.90519263  0.90096563  0.88404301  1
  Zr  Zr47  1  0.10276214  0.70711076  0.87274322  1
  Zr  Zr48  1  0.39090758  0.60137665  0.73211562  1
  Zr  Zr49  1  0.20170208  0.60305409  0.74937571  1
  Zr  Zr50  1  0.18473244  0.39791477  -0.01750642  1
  Zr  Zr51  1  0.89084639  0.89025427  0.35779764  1
  Zr  Zr52  1  -0.00130606  0.79879190  0.75195784  1
  Zr  Zr53  1  0.30081853  0.30396678  0.86352437  1
  Zr  Zr54  1  0.31866789  0.12204771  0.63444626  1
  Zr  Zr55  1  0.50747507  0.69707901  0.61049115  1
  Zr  Zr56  1  0.49271303  0.69724828  0.87129139  1
  Zr  Zr57  1  -0.01846566  0.79548740  0.49370080  1
  Zr  Zr58  1  0.68941247  0.69478798  0.88035773  1
  Zr  Zr59  1  0.79394357  0.58223932  0.26404204  1
  Zr  Zr60  1  0.80668463  0.60291348  0.48479135  1
  Zr  Zr61  1  0.71257777  0.10662683  0.37252505  1
  Zr  Zr62  1  0.00150297  0.57626048  0.75799190  1
  Zr  Zr63  1  0.68436015  0.09951785  0.11980758  1
  Zr  Zr64  1  0.89294085  0.68737819  0.13031169  1
  Zr  Zr65  1  -0.01092206  0.39977139  0.26272340  1
  Zr  Zr66  1  0.10460608  0.69601871  0.13141305  1
  Zr  Zr67  1  -0.00491898  0.59532122  0.27451020  1
  Zr  Zr68  1  0.42739558  0.80838192  0.00641971  1
  Zr  Zr69  1  0.58531633  0.39969779  0.24756733  1
  Zr  Zr70  1  0.56686262  0.40623522  0.49571280  1
  Zr  Zr71  1  0.40392585  0.80896146  0.73689114  1
  Zr  Zr72  1  0.79769981  0.80315237  0.75499227  1
  Zr  Zr73  1  0.10081404  0.69220386  0.62091236  1
  Zr  Zr74  1  0.40001771  0.59608263  0.26019224  1
  Zr  Zr75  1  0.32687395  0.91063789  0.13456025  1
  Zr  Zr76  1  0.90189809  0.29681024  0.86809661  1
  Zr  Zr77  1  0.78226429  0.58734795  0.00328696  1
  Zr  Zr78  1  0.80430360  0.00452320  0.00701022  1
  Zr  Zr79  1  0.00578431  0.79972126  0.00959992  1
  Ta  Ta80  1  0.49507089  0.28805183  0.11892706  1
  Ta  Ta81  1  0.00052723  0.19581599  0.00096038  1
  Ta  Ta82  1  0.59551121  0.39768658  0.00823439  1
  Ta  Ta83  1  0.70750352  0.90520392  0.62606957  1
  Ta  Ta84  1  0.21262780  0.80569650  0.73697929  1
  Ta  Ta85  1  0.00075548  0.58994725  0.48982718  1
  Ta  Ta86  1  0.48114046  0.29884100  0.62436172  1
  Ta  Ta87  1  0.09211625  0.30303848  0.39804453  1
  Ta  Ta88  1  0.78863521  0.39186677  0.50972496  1
  Ta  Ta89  1  0.80134709  0.01047933  0.24424816  1
  Ta  Ta90  1  0.89405384  0.69468361  0.88350668  1
  Ta  Ta91  1  0.43146853  0.79987604  0.24306072  1
  Ta  Ta92  1  0.60195484  0.80379400  0.74516362  1
  Ta  Ta93  1  0.09537614  0.29873781  0.61233641  1
  Ta  Ta94  1  0.20181960  0.01680743  0.74936155  1
  Ta  Ta95  1  0.12308498  0.90995955  0.14684477  1
  Ta  Ta96  1  0.50070844  0.30145895  0.87834127  1
  Ta  Ta97  1  0.67929537  0.48787825  0.87153851  1
  Ta  Ta98  1  0.78462271  0.39706909  0.73239206  1
  Ta  Ta99  1  0.10770842  0.48844530  0.39560858  1
  Ta  Ta100  1  0.42536169  0.01233354  0.25608792  1
  Ta  Ta101  1  0.40871729  0.57571287  0.50863046  1
  Ta  Ta102  1  0.39514667  0.19796174  -0.00357969  1
  Ta  Ta103  1  0.21967942  0.79331256  0.24812843  1
  Ta  Ta104  1  0.69258570  0.09290267  0.88081218  1
  Ta  Ta105  1  0.21529769  0.58911295  0.50970144  1
  Ta  Ta106  1  0.91391217  0.09864033  0.87652844  1
  Ta  Ta107  1  0.59146955  0.58698183  0.74734923  1
  Ta  Ta108  1  0.40577360  0.20907667  0.25608183  1
  Ta  Ta109  1  0.67600040  0.29524862  0.62035781  1
  Ta  Ta110  1  0.58841958  0.20057594  0.75760474  1
  Ta  Ta111  1  0.11493573  0.89506958  0.35635778  1
  Ta  Ta112  1  0.89929264  0.49097012  0.61489554  1
  Ta  Ta113  1  0.78264674  0.80154103  0.23932073  1
  Ta  Ta114  1  0.22587916  0.21280712  0.48990113  1
  Ta  Ta115  1  0.67804960  0.71150334  0.11936227  1
  Ta  Ta116  1  0.51794489  0.91378124  0.86912059  1
  Ta  Ta117  1  0.79342020  0.79797339  0.00695948  1
  Ta  Ta118  1  0.70094320  0.90145385  0.87909251  1
  Ta  Ta119  1  0.30273031  0.11214356  0.86261417  1
  Ti  Ti120  1  0.40093342  0.81253856  0.51487613  1
  Ti  Ti121  1  0.61483811  0.00362668  0.75088887  1
  Ti  Ti122  1  0.09427953  0.28180588  0.86469496  1
  Ti  Ti123  1  0.78821347  0.38748248  0.01199745  1
  Ti  Ti124  1  0.58167668  0.60163025  0.00308128  1
  Ti  Ti125  1  0.51175513  0.91242697  0.62802083  1
  Ti  Ti126  1  0.90142991  0.11453658  0.12684015  1
  Ti  Ti127  1  0.30349412  0.70796075  0.87866872  1
  Ti  Ti128  1  0.41968683  0.01947385  0.75338312  1
  Ti  Ti129  1  0.42404739  0.01559808  -0.00070830  1
  Ti  Ti130  1  0.51884752  0.89941418  0.37617079  1
  Ti  Ti131  1  0.36780227  0.39463219  0.49835211  1
  Ti  Ti132  1  0.78644718  0.37580107  0.23934650  1
  Ti  Ti133  1  -0.01218539  0.38490865  0.73581348  1
  Ti  Ti134  1  0.09775149  0.48920890  0.61058451  1
  Ti  Ti135  1  0.29269038  0.49828016  0.11734015  1
  Ti  Ti136  1  0.39828162  0.40006115  -0.00464853  1
  Ti  Ti137  1  0.38524738  0.40295686  0.25925612  1
  Ti  Ti138  1  0.58737853  0.19055425  -0.00251025  1
  Ti  Ti139  1  0.80066866  0.20182825  0.00043879  1
  Ti  Ti140  1  0.60876901  -0.01383772  0.24997885  1
  Ti  Ti141  1  0.00708228  0.18524323  0.74026039  1
  Ti  Ti142  1  0.30746171  0.91774551  0.63209588  1
  Ti  Ti143  1  0.68851047  0.49856668  0.12805030  1
  Ti  Ti144  1  0.00506007  0.79411759  0.24944383  1
  Ti  Ti145  1  0.40977474  0.40508080  0.74571148  1
  Ti  Ti146  1  0.19376509  0.19836593  -0.00180137  1
  Ti  Ti147  1  0.30994760  0.50696290  0.87350139  1
  Ti  Ti148  1  -0.00910805  0.38413770  -0.00190510  1
  Ti  Ti149  1  0.48112716  0.30028927  0.37832124  1
  Ti  Ti150  1  0.88755787  0.28613791  0.61950139  1
  Ti  Ti151  1  0.81354442  -0.00018117  0.75278000  1
  Ti  Ti152  1  0.51351521  0.11125275  0.37744916  1
  Ti  Ti153  1  0.28940333  0.30835556  0.63499846  1
  Ti  Ti154  1  0.61231479  0.00423723  0.49482138  1
  Ti  Ti155  1  0.49713837  0.49498934  0.87756889  1
  Ti  Ti156  1  0.68643572  0.49777645  0.38487139  1
  Ti  Ti157  1  0.59683007  0.19635617  0.24081236  1
  Ti  Ti158  1  0.60837285  0.82014365  0.50611136  1
  Ti  Ti159  1  0.19549951  0.39738628  0.26393161  1
  Mo  Mo160  1  0.32230185  0.10891584  0.36621674  1
  Mo  Mo161  1  0.21624510  -0.00043984  0.25800679  1
  Mo  Mo162  1  0.79090542  0.20175369  0.51046802  1
  Mo  Mo163  1  0.59391534  0.39360353  0.74944964  1
  Mo  Mo164  1  0.10489007  0.10965502  0.87180803  1
  Mo  Mo165  1  0.29112901  0.30836575  0.37080004  1
  Mo  Mo166  1  0.49253461  0.09922436  0.12854161  1
  Mo  Mo167  1  0.40433905  0.21148764  0.75195621  1
  Mo  Mo168  1  -0.01187324  0.39351860  0.50989844  1
  Mo  Mo169  1  0.59141344  0.19878884  0.49754562  1
  Mo  Mo170  1  0.07977688  0.47390035  0.86856951  1
  Mo  Mo171  1  0.29942708  0.49445012  0.38192151  1
  Mo  Mo172  1  0.79877034  0.81258433  0.50487712  1
  Mo  Mo173  1  0.49204042  0.49704098  0.37300629  1
  Mo  Mo174  1  0.89881907  0.69879847  0.36239275  1
  Mo  Mo175  1  0.30298786  0.70717023  0.60643893  1
  Mo  Mo176  1  0.70395221  0.90020632  0.12278632  1
  Mo  Mo177  1  0.89930403  0.09819855  0.36484416  1
  Mo  Mo178  1  0.50298433  0.70059110  0.12119794  1
  Mo  Mo179  1  0.49390852  0.48714824  0.62914926  1
  Mo  Mo180  1  0.29841581  0.49111002  0.62728810  1
  Mo  Mo181  1  0.88934481  0.28974218  0.11890910  1
  Mo  Mo182  1  0.49939797  0.10478017  0.87236147  1
  Mo  Mo183  1  0.60211980  0.80614394  0.25330115  1
  Mo  Mo184  1  0.91144427  0.08573723  0.63252696  1
  Mo  Mo185  1  0.53035437  0.90738573  0.12689339  1
  Mo  Mo186  1  0.10503273  0.10214973  0.12863727  1
  Mo  Mo187  1  0.59575194  -0.00507098  -0.00356071  1
  Mo  Mo188  1  0.19509728  0.39864328  0.50973812  1
  Mo  Mo189  1  0.69548031  0.90973885  0.37608481  1
  Mo  Mo190  1  0.78888970  0.20366404  0.23943625  1
  Mo  Mo191  1  0.69007881  0.29822523  0.11427356  1
  Mo  Mo192  1  0.89593363  0.48424579  0.39527909  1
  Mo  Mo193  1  0.40781604  0.21123410  0.49033431  1
  Mo  Mo194  1  0.59918213  0.59985197  0.49114764  1
  Mo  Mo195  1  -0.00134439  0.01095190  0.75126178  1
  Mo  Mo196  1  0.89395002  0.90876138  0.62994704  1
  Mo  Mo197  1  0.39740339  0.59087319  -0.00797115  1
  Mo  Mo198  1  0.60672896  0.80611153  -0.00557213  1
  Mo  Mo199  1  0.19371469  0.20763761  0.74501541  1
