# generated using pymatgen
data_HfZrTaTiMo
_symmetry_space_group_name_H-M   'P 1'
_cell_length_a   15.19302176
_cell_length_b   15.19977501
_cell_length_c   16.79036694
_cell_angle_alpha   90.08102120
_cell_angle_beta   90.02543981
_cell_angle_gamma   89.98507945
_symmetry_Int_Tables_number   1
_chemical_formula_structural   HfZrTaTiMo
_chemical_formula_sum   'Hf40 Zr40 Ta40 Ti40 Mo40'
_cell_volume   3877.40365092
_cell_formula_units_Z   40
loop_
 _symmetry_equiv_pos_site_id
 _symmetry_equiv_pos_as_xyz
  1  'x, y, z'
loop_
 _atom_site_type_symbol
 _atom_site_label
 _atom_site_symmetry_multiplicity
 _atom_site_fract_x
 _atom_site_fract_y
 _atom_site_fract_z
 _atom_site_occupancy
  Hf  Hf0  1  0.30792212  0.68640335  0.64212362  1
  Hf  Hf1  1  0.49846701  0.30542909  0.13467952  1
  Hf  Hf2  1  0.90917453  0.89559796  0.88483801  1
  Hf  Hf3  1  0.81921150  0.79329656  0.23657449  1
  Hf  Hf4  1  0.60850038  0.00846026  0.50830840  1
  Hf  Hf5  1  0.38953635  0.60779147  0.25219037  1
  Hf  Hf6  1  0.60813948  0.01339739  0.74477895  1
  Hf  Hf7  1  0.91311070  0.49074100  0.13113754  1
  Hf  Hf8  1  0.81082411  0.79305730  0.50639061  1
  Hf  Hf9  1  0.10382864  0.10685577  0.86780147  1
  Hf  Hf10  1  0.09616910  0.89367336  0.37466568  1
  Hf  Hf11  1  0.09387392  0.29818768  0.62046876  1
  Hf  Hf12  1  0.81366055  -0.00259710  0.24303018  1
  Hf  Hf13  1  0.59064995  0.20611907  -0.00956271  1
  Hf  Hf14  1  -0.01676405  0.40719117  0.74343496  1
  Hf  Hf15  1  0.79580394  0.59479725  0.01465908  1
  Hf  Hf16  1  0.00733974  0.80170487  0.73618642  1
  Hf  Hf17  1  0.59480428  0.80340273  -0.01371663  1
  Hf  Hf18  1  0.12624594  0.69349583  0.37579858  1
  Hf  Hf19  1  -0.00201719  0.60845262  0.50584152  1
  Hf  Hf20  1  0.09297110  0.48584788  0.37900611  1
  Hf  Hf21  1  0.31094894  0.08568676  0.86698041  1
  Hf  Hf22  1  0.40549065  0.20839652  0.75120409  1
  Hf  Hf23  1  0.71340877  0.67823733  0.62444437  1
  Hf  Hf24  1  0.20804122  -0.00690116  0.50799106  1
  Hf  Hf25  1  0.68302823  0.09842469  0.13643101  1
  Hf  Hf26  1  0.30010704  0.88635516  0.38126323  1
  Hf  Hf27  1  0.87713390  0.29761023  0.61894800  1
  Hf  Hf28  1  0.58855097  0.38609180  0.75361545  1
  Hf  Hf29  1  0.59153018  0.60445088  0.25002422  1
  Hf  Hf30  1  0.80110487  0.59610098  0.23859406  1
  Hf  Hf31  1  0.70468528  0.09338845  0.88040714  1
  Hf  Hf32  1  0.90153816  0.30788922  0.86896134  1
  Hf  Hf33  1  0.50265935  0.89944573  0.12735847  1
  Hf  Hf34  1  0.79585587  0.79387727  0.00001671  1
  Hf  Hf35  1  0.01019378  0.80558876  0.51873340  1
  Hf  Hf36  1  0.71995543  0.90973865  0.63219287  1
  Hf  Hf37  1  0.87247429  0.50669563  0.60930410  1
  Hf  Hf38  1  0.39003450  0.38745761  -0.00989289  1
  Hf  Hf39  1  0.29894500  0.31266953  0.37827375  1
  Zr  Zr40  1  0.50317612  0.91029082  0.37988275  1
  Zr  Zr41  1  0.10353869  0.89046794  0.11409876  1
  Zr  Zr42  1  0.71854752  0.50228743  0.86272597  1
  Zr  Zr43  1  0.60573800  0.58771432  0.49640577  1
  Zr  Zr44  1  0.70050670  0.30535515  0.14409971  1
  Zr  Zr45  1  0.48197280  0.10246485  0.12442164  1
  Zr  Zr46  1  0.59828827  0.40594210  -0.00617889  1
  Zr  Zr47  1  0.02137961  0.20242636  0.26190733  1
  Zr  Zr48  1  0.48867238  0.48122598  0.36611376  1
  Zr  Zr49  1  0.48847253  0.50411494  0.86148238  1
  Zr  Zr50  1  0.09259231  0.69799673  0.88598050  1
  Zr  Zr51  1  0.21353193  -0.00710860  0.73895922  1
  Zr  Zr52  1  0.30988344  0.90566312  0.12099481  1
  Zr  Zr53  1  0.11196036  0.90471327  0.87691630  1
  Zr  Zr54  1  0.69864469  0.88967513  0.36188376  1
  Zr  Zr55  1  0.18801022  0.39783794  0.01369318  1
  Zr  Zr56  1  0.69274225  0.89713431  0.13444288  1
  Zr  Zr57  1  0.01070219  0.60735057  0.24562392  1
  Zr  Zr58  1  -0.00486226  0.19631879  0.49357056  1
  Zr  Zr59  1  0.81023579  0.00462585  0.49020553  1
  Zr  Zr60  1  0.39236578  0.01259182  0.25828493  1
  Zr  Zr61  1  0.39698828  0.60658103  0.49479216  1
  Zr  Zr62  1  0.59693455  0.60674927  -0.00300005  1
  Zr  Zr63  1  0.38744357  0.60096022  -0.00710159  1
  Zr  Zr64  1  0.80771458  0.78356729  0.75718576  1
  Zr  Zr65  1  0.59909427  0.81128171  0.75517506  1
  Zr  Zr66  1  0.80399389  0.19633558  0.01314790  1
  Zr  Zr67  1  0.50545577  0.70972453  0.63326002  1
  Zr  Zr68  1  -0.01754662  0.60963958  0.74164166  1
  Zr  Zr69  1  0.01109194  0.21642585  0.00661833  1
  Zr  Zr70  1  0.09638425  0.50067127  0.62247109  1
  Zr  Zr71  1  0.69380014  0.09826568  0.35771760  1
  Zr  Zr72  1  0.90263535  0.09781712  0.87327643  1
  Zr  Zr73  1  0.70518718  0.69279043  0.37427441  1
  Zr  Zr74  1  0.19586274  0.00029399  0.25265039  1
  Zr  Zr75  1  0.18363707  0.39064434  0.23780337  1
  Zr  Zr76  1  0.48923873  0.51096488  0.64237759  1
  Zr  Zr77  1  0.80777601  0.39400580  0.00615754  1
  Zr  Zr78  1  0.81156694  0.20243212  0.25259695  1
  Zr  Zr79  1  0.91585992  0.70861875  0.37197741  1
  Ta  Ta80  1  0.21183768  0.20346689  -0.00365727  1
  Ta  Ta81  1  0.21800454  0.79509692  -0.00792388  1
  Ta  Ta82  1  0.48662320  0.49912435  0.13103467  1
  Ta  Ta83  1  0.38564836  0.40799247  0.51664597  1
  Ta  Ta84  1  0.41058843  0.21932441  0.50487765  1
  Ta  Ta85  1  0.20732904  0.59226445  0.50964014  1
  Ta  Ta86  1  0.27673033  0.49210271  0.86528234  1
  Ta  Ta87  1  0.00650049  0.00810468  0.00604020  1
  Ta  Ta88  1  0.08304860  0.49717138  0.87745327  1
  Ta  Ta89  1  0.10869036  0.30746617  0.86424737  1
  Ta  Ta90  1  0.00306102  -0.00081934  0.51187854  1
  Ta  Ta91  1  -0.00359347  -0.00000652  0.73716800  1
  Ta  Ta92  1  0.20432620  0.59171612  0.23032650  1
  Ta  Ta93  1  0.88815505  0.09573275  0.62926410  1
  Ta  Ta94  1  0.51356874  0.11983653  0.61779104  1
  Ta  Ta95  1  0.91206932  0.89773696  0.11248995  1
  Ta  Ta96  1  0.39929639  0.21379643  0.26212481  1
  Ta  Ta97  1  0.20706740  0.20342579  0.50603357  1
  Ta  Ta98  1  0.48675697  0.71318945  0.86469916  1
  Ta  Ta99  1  0.20335601  0.78534219  0.24340990  1
  Ta  Ta100  1  0.89488518  0.31294897  0.37313262  1
  Ta  Ta101  1  0.88834246  0.50244751  0.37800914  1
  Ta  Ta102  1  0.58120998  0.38953205  0.50727720  1
  Ta  Ta103  1  0.80034359  -0.00218641  0.01197952  1
  Ta  Ta104  1  0.31262588  0.10280137  0.61642378  1
  Ta  Ta105  1  0.28540955  0.50870781  0.37208969  1
  Ta  Ta106  1  0.30078007  0.70238020  0.11784208  1
  Ta  Ta107  1  0.00006484  0.20089605  0.74227803  1
  Ta  Ta108  1  0.21461359  0.00888563  -0.00001246  1
  Ta  Ta109  1  0.70287551  0.29645385  0.86879460  1
  Ta  Ta110  1  0.49795515  0.71352913  0.37821846  1
  Ta  Ta111  1  0.49886346  0.11452693  0.38348189  1
  Ta  Ta112  1  0.79155519  0.19344455  0.74839908  1
  Ta  Ta113  1  0.21063594  0.78517486  0.51627177  1
  Ta  Ta114  1  0.10085050  0.10070695  0.62599696  1
  Ta  Ta115  1  0.48516294  0.91833739  0.87682222  1
  Ta  Ta116  1  0.41288731  0.00377206  0.73463804  1
  Ta  Ta117  1  0.20719226  0.20476862  0.73951408  1
  Ta  Ta118  1  0.21353282  0.19105087  0.25766127  1
  Ta  Ta119  1  0.61017946  0.21105609  0.49324439  1
  Ti  Ti120  1  0.91330290  0.09922223  0.12580969  1
  Ti  Ti121  1  0.19150192  0.59471634  0.75044530  1
  Ti  Ti122  1  0.11325877  0.90018894  0.62759220  1
  Ti  Ti123  1  0.11077673  0.09948440  0.38607178  1
  Ti  Ti124  1  0.49712103  0.91118359  0.61676367  1
  Ti  Ti125  1  0.19582030  0.39640668  0.74289941  1
  Ti  Ti126  1  0.20348552  0.79588327  0.74553533  1
  Ti  Ti127  1  0.38079231  0.39591518  0.74708573  1
  Ti  Ti128  1  0.19571989  0.59045642  0.00658754  1
  Ti  Ti129  1  0.68229055  0.30644799  0.35720437  1
  Ti  Ti130  1  0.91295851  0.09398158  0.37124212  1
  Ti  Ti131  1  0.60436741  0.80021983  0.50642830  1
  Ti  Ti132  1  0.40075246  0.79798136  0.25353500  1
  Ti  Ti133  1  0.92039470  0.70409505  0.10994478  1
  Ti  Ti134  1  0.91986050  0.30441516  0.14272070  1
  Ti  Ti135  1  0.39180279  0.81635369  0.74867543  1
  Ti  Ti136  1  0.00531298  -0.00528965  0.24249383  1
  Ti  Ti137  1  0.77231572  0.39472450  0.49126846  1
  Ti  Ti138  1  0.40108570  0.80714097  0.50780504  1
  Ti  Ti139  1  0.90949001  0.90090255  0.36982607  1
  Ti  Ti140  1  0.29648028  0.69864201  0.86537559  1
  Ti  Ti141  1  0.69644046  0.48810039  0.36405465  1
  Ti  Ti142  1  0.69241886  0.48279566  0.63714333  1
  Ti  Ti143  1  0.59422337  0.00418663  -0.00536414  1
  Ti  Ti144  1  0.68781431  0.49250478  0.13660294  1
  Ti  Ti145  1  0.79445665  0.20146624  0.48505541  1
  Ti  Ti146  1  0.60871481  0.61084402  0.76141335  1
  Ti  Ti147  1  0.39539871  0.19108191  -0.01416713  1
  Ti  Ti148  1  0.30848636  0.10118523  0.39480245  1
  Ti  Ti149  1  0.89349526  0.67729767  0.88792691  1
  Ti  Ti150  1  0.10216540  0.69713414  0.10953060  1
  Ti  Ti151  1  0.68489630  0.28753822  0.62871830  1
  Ti  Ti152  1  0.59483477  0.19912521  0.76152225  1
  Ti  Ti153  1  0.30190455  0.28872451  0.12928156  1
  Ti  Ti154  1  -0.01174326  0.39640060  0.49728784  1
  Ti  Ti155  1  0.19989815  0.39922254  0.50683138  1
  Ti  Ti156  1  0.49336189  0.70634229  0.12243278  1
  Ti  Ti157  1  0.11398493  0.10601656  0.12357771  1
  Ti  Ti158  1  0.68656426  0.70436402  0.13138503  1
  Ti  Ti159  1  0.70623639  0.90178733  0.87304595  1
  Mo  Mo160  1  0.59263297  0.00258369  0.25490972  1
  Mo  Mo161  1  0.90554786  0.50103814  0.88041380  1
  Mo  Mo162  1  0.70868383  0.11718794  0.62143154  1
  Mo  Mo163  1  0.79828397  0.40542982  0.25696516  1
  Mo  Mo164  1  0.40140262  0.00082163  -0.00292228  1
  Mo  Mo165  1  0.00241988  0.40057702  -0.00136130  1
  Mo  Mo166  1  0.00312512  0.79672073  -0.00600173  1
  Mo  Mo167  1  0.49604128  0.30266944  0.37511267  1
  Mo  Mo168  1  0.89755917  0.70123460  0.61973385  1
  Mo  Mo169  1  0.90766424  0.90688405  0.62817147  1
  Mo  Mo170  1  0.69838662  0.70274075  0.87402871  1
  Mo  Mo171  1  0.10385024  0.28927333  0.12924100  1
  Mo  Mo172  1  0.40141291  0.79707956  -0.00748937  1
  Mo  Mo173  1  0.30401071  0.49815461  0.12374760  1
  Mo  Mo174  1  0.40720749  0.01066554  0.51128319  1
  Mo  Mo175  1  0.79373667  0.58594973  0.48830516  1
  Mo  Mo176  1  0.58996126  0.40346865  0.24919076  1
  Mo  Mo177  1  0.11126218  0.69956485  0.62800465  1
  Mo  Mo178  1  0.79092383  0.38928829  0.74389746  1
  Mo  Mo179  1  0.50365953  0.09924337  0.87454748  1
  Mo  Mo180  1  0.80505112  -0.00247015  0.75281045  1
  Mo  Mo181  1  0.10159207  0.29580627  0.39329634  1
  Mo  Mo182  1  0.30285581  0.70062719  0.37566114  1
  Mo  Mo183  1  0.80006744  0.58974459  0.75162431  1
  Mo  Mo184  1  0.29578553  0.30036801  0.62129733  1
  Mo  Mo185  1  0.30862587  0.88670309  0.87334025  1
  Mo  Mo186  1  -0.00774743  0.39719364  0.26298515  1
  Mo  Mo187  1  0.09681011  0.50115319  0.12165519  1
  Mo  Mo188  1  0.38763930  0.60231465  0.76664186  1
  Mo  Mo189  1  0.01215345  0.80751264  0.24184499  1
  Mo  Mo190  1  0.31328200  0.89378094  0.61986130  1
  Mo  Mo191  1  0.49431338  0.29708820  0.87571835  1
  Mo  Mo192  1  0.00307860  0.59117846  0.00662385  1
  Mo  Mo193  1  0.58762200  0.20013735  0.25995325  1
  Mo  Mo194  1  0.29189424  0.49498968  0.63803264  1
  Mo  Mo195  1  0.58642199  0.79215194  0.24963144  1
  Mo  Mo196  1  0.49815556  0.30363511  0.62602560  1
  Mo  Mo197  1  0.28898390  0.29750510  0.86949512  1
  Mo  Mo198  1  0.29529643  0.11376525  0.12139137  1
  Mo  Mo199  1  0.38251650  0.40638193  0.24159805  1
