# generated using pymatgen
data_HfZrTaTiMo
_symmetry_space_group_name_H-M   'P 1'
_cell_length_a   15.19731193
_cell_length_b   15.22310643
_cell_length_c   16.84332198
_cell_angle_alpha   90.01786658
_cell_angle_beta   90.01964660
_cell_angle_gamma   90.12474525
_symmetry_Int_Tables_number   1
_chemical_formula_structural   HfZrTaTiMo
_chemical_formula_sum   'Hf40 Zr40 Ta40 Ti40 Mo40'
_cell_volume   3896.69788692
_cell_formula_units_Z   40
loop_
 _symmetry_equiv_pos_site_id
 _symmetry_equiv_pos_as_xyz
  1  'x, y, z'
loop_
 _atom_site_type_symbol
 _atom_site_label
 _atom_site_symmetry_multiplicity
 _atom_site_fract_x
 _atom_site_fract_y
 _atom_site_fract_z
 _atom_site_occupancy
  Hf  Hf0  1  -0.00047825  0.18683701  0.76738784  1
  Hf  Hf1  1  0.68911195  0.70807113  0.87542012  1
  Hf  Hf2  1  -0.00207739  0.60400870  0.51210335  1
  Hf  Hf3  1  0.81106309  0.38193349  -0.00820434  1
  Hf  Hf4  1  0.38286691  0.59265704  -0.00906205  1
  Hf  Hf5  1  0.30869543  0.89876505  0.13498194  1
  Hf  Hf6  1  0.39580706  0.38795091  0.49911570  1
  Hf  Hf7  1  0.09900987  0.48453474  0.12932516  1
  Hf  Hf8  1  0.00510575  0.79894140  0.02157975  1
  Hf  Hf9  1  0.79984946  0.79781637  0.25720247  1
  Hf  Hf10  1  -0.01959908  0.21143204  -0.00987089  1
  Hf  Hf11  1  0.88011601  0.69602995  0.12361428  1
  Hf  Hf12  1  0.79685512  0.01266011  0.00539422  1
  Hf  Hf13  1  0.30895792  0.31946655  0.88027125  1
  Hf  Hf14  1  0.29369640  0.30197014  0.11401192  1
  Hf  Hf15  1  0.29669070  0.90072052  0.62487040  1
  Hf  Hf16  1  0.09101996  0.89499380  0.37010240  1
  Hf  Hf17  1  0.69062207  0.89147975  0.61849108  1
  Hf  Hf18  1  0.59571558  0.81525897  0.27866774  1
  Hf  Hf19  1  0.90203600  0.90647421  0.62239533  1
  Hf  Hf20  1  0.39069843  0.00990074  0.49204074  1
  Hf  Hf21  1  -0.00039459  0.80088567  0.74748869  1
  Hf  Hf22  1  0.49810688  0.10064339  0.87708437  1
  Hf  Hf23  1  -0.00292407  0.39895519  0.50466845  1
  Hf  Hf24  1  0.90099122  0.49770158  0.86699850  1
  Hf  Hf25  1  0.80766091  0.01356153  0.49378879  1
  Hf  Hf26  1  0.10693680  0.49336161  0.62942694  1
  Hf  Hf27  1  0.49867016  0.09707820  0.13180427  1
  Hf  Hf28  1  0.09488400  0.50321606  0.37310175  1
  Hf  Hf29  1  0.39873734  0.59700650  0.74073973  1
  Hf  Hf30  1  0.00317600  0.00409174  0.23820224  1
  Hf  Hf31  1  0.51815819  0.70277410  0.60446271  1
  Hf  Hf32  1  0.19915693  0.20967563  0.76071786  1
  Hf  Hf33  1  0.00150066  0.60891908  0.23802194  1
  Hf  Hf34  1  0.89373194  0.27969390  0.63003149  1
  Hf  Hf35  1  0.79471295  0.59614720  0.74456832  1
  Hf  Hf36  1  0.20387611  0.60320081  0.50326095  1
  Hf  Hf37  1  0.29435339  0.09702406  0.12785903  1
  Hf  Hf38  1  0.88920142  0.50535546  0.37071334  1
  Hf  Hf39  1  0.80124833  0.20553807  0.77413876  1
  Zr  Zr40  1  0.00097861  0.19038006  0.49913575  1
  Zr  Zr41  1  0.58233730  0.60673142  -0.00357662  1
  Zr  Zr42  1  0.80624310  0.00405403  0.75071906  1
  Zr  Zr43  1  0.66996376  0.70113849  0.13584035  1
  Zr  Zr44  1  0.40310035  0.37798700  0.24629184  1
  Zr  Zr45  1  0.40149960  0.20651216  0.75255106  1
  Zr  Zr46  1  0.72462811  0.29198614  0.12578763  1
  Zr  Zr47  1  0.10264210  0.69655043  0.87012144  1
  Zr  Zr48  1  0.59877114  -0.01293008  0.00014022  1
  Zr  Zr49  1  0.90966724  0.10491833  0.35979710  1
  Zr  Zr50  1  0.71063711  0.11222197  0.61806062  1
  Zr  Zr51  1  0.49729596  0.89942540  0.61424616  1
  Zr  Zr52  1  0.89600674  0.90133412  0.88715007  1
  Zr  Zr53  1  0.90939381  0.70152769  0.36952843  1
  Zr  Zr54  1  0.78788056  0.59401949  0.52009345  1
  Zr  Zr55  1  0.10343664  0.09815489  0.62547372  1
  Zr  Zr56  1  0.39342090  -0.01000218  -0.00276197  1
  Zr  Zr57  1  0.19946644  0.00279076  0.75277634  1
  Zr  Zr58  1  0.78075430  0.58495319  -0.00340404  1
  Zr  Zr59  1  0.60002946  0.60367706  0.74274294  1
  Zr  Zr60  1  0.21315900  0.79354061  0.00747466  1
  Zr  Zr61  1  0.18565305  0.79218214  0.23813626  1
  Zr  Zr62  1  0.78848475  0.38717449  0.51022190  1
  Zr  Zr63  1  0.10321850  0.90466585  0.88718915  1
  Zr  Zr64  1  0.19533768  -0.00023156  0.49161771  1
  Zr  Zr65  1  0.88793604  0.12547809  0.13547284  1
  Zr  Zr66  1  0.31091541  0.88693650  0.86711057  1
  Zr  Zr67  1  0.70098379  0.11367227  0.36593708  1
  Zr  Zr68  1  0.42204826  0.78940339  0.00690672  1
  Zr  Zr69  1  0.60086853  0.20629724  0.74956148  1
  Zr  Zr70  1  0.00031034  0.59088484  0.00491877  1
  Zr  Zr71  1  0.30417576  0.49418938  0.37308506  1
  Zr  Zr72  1  0.40058468  0.20184483  -0.00172242  1
  Zr  Zr73  1  0.50028243  0.11271964  0.37301066  1
  Zr  Zr74  1  0.39916887  0.77991528  0.25943753  1
  Zr  Zr75  1  0.01245035  0.38886815  0.75819349  1
  Zr  Zr76  1  0.89528739  0.70423652  0.88161832  1
  Zr  Zr77  1  0.58824818  0.40470775  0.74011452  1
  Zr  Zr78  1  0.79789404  0.79907296  0.49155515  1
  Zr  Zr79  1  0.60718520  0.41364896  0.23177230  1
  Ta  Ta80  1  0.88989658  0.90742304  0.12456871  1
  Ta  Ta81  1  0.20503653  0.58634866  0.75706872  1
  Ta  Ta82  1  0.50691970  0.30400449  0.38047303  1
  Ta  Ta83  1  0.51451257  0.31625799  0.89447225  1
  Ta  Ta84  1  0.78373274  0.39629598  0.75189535  1
  Ta  Ta85  1  0.49200963  0.51951881  0.13177415  1
  Ta  Ta86  1  0.40334900  0.00739928  0.74446363  1
  Ta  Ta87  1  0.49902425  0.10253364  0.61445457  1
  Ta  Ta88  1  0.00721441  0.79853995  0.50685247  1
  Ta  Ta89  1  0.10781609  0.29784018  0.38152517  1
  Ta  Ta90  1  0.29579076  0.89701879  0.36803384  1
  Ta  Ta91  1  0.39115976  0.79674062  0.48717935  1
  Ta  Ta92  1  0.49905411  0.68730397  0.39090436  1
  Ta  Ta93  1  0.69748452  0.30501133  0.36719225  1
  Ta  Ta94  1  0.48970811  0.70846871  0.86348522  1
  Ta  Ta95  1  0.19079970  0.38936889  0.25401242  1
  Ta  Ta96  1  0.50610197  0.50116802  0.37304072  1
  Ta  Ta97  1  0.69233094  0.49633741  0.37385406  1
  Ta  Ta98  1  0.89864903  0.29989879  0.37221323  1
  Ta  Ta99  1  0.01435314  0.22588270  0.24742064  1
  Ta  Ta100  1  0.58704522  0.21542426  0.23878235  1
  Ta  Ta101  1  0.19590081  0.59522064  -0.00711327  1
  Ta  Ta102  1  0.59728432  -0.00000697  0.74725762  1
  Ta  Ta103  1  0.79060456  -0.00548608  0.25335115  1
  Ta  Ta104  1  0.78896690  0.79672002  0.74356581  1
  Ta  Ta105  1  0.61202432  0.20140212  0.00628895  1
  Ta  Ta106  1  0.20496164  0.41181300  -0.00782488  1
  Ta  Ta107  1  0.51207346  0.89231668  0.13751916  1
  Ta  Ta108  1  0.20549599  0.59660893  0.24790926  1
  Ta  Ta109  1  0.40992991  -0.00704983  0.26298515  1
  Ta  Ta110  1  0.22253941  0.20018455  0.49784190  1
  Ta  Ta111  1  0.10301402  0.11770154  0.12097395  1
  Ta  Ta112  1  0.20876793  0.20537257  0.25251854  1
  Ta  Ta113  1  0.80894966  0.39646828  0.25073119  1
  Ta  Ta114  1  0.89110585  0.49057741  0.12967590  1
  Ta  Ta115  1  0.60230714  -0.00519109  0.48632832  1
  Ta  Ta116  1  0.10187975  0.89061820  0.62619628  1
  Ta  Ta117  1  0.20178163  0.00485098  0.25509205  1
  Ta  Ta118  1  0.69528415  0.68181245  0.37141789  1
  Ta  Ta119  1  0.69498539  0.09618432  0.87611625  1
  Ti  Ti120  1  0.60591405  0.41126553  0.01528776  1
  Ti  Ti121  1  0.40523804  0.58957074  0.50835191  1
  Ti  Ti122  1  0.29157421  0.09452574  0.88259067  1
  Ti  Ti123  1  0.01366902  0.39767232  -0.01363954  1
  Ti  Ti124  1  0.69413802  0.09492803  0.14171624  1
  Ti  Ti125  1  0.18826855  0.20745399  -0.00980027  1
  Ti  Ti126  1  -0.00096394  0.80598099  0.22749593  1
  Ti  Ti127  1  0.49401104  0.49704037  0.87669397  1
  Ti  Ti128  1  0.11099680  0.91768809  0.11851681  1
  Ti  Ti129  1  0.60990641  0.21304718  0.50333889  1
  Ti  Ti130  1  0.69561557  0.89853978  0.86858423  1
  Ti  Ti131  1  0.20068589  0.39359507  0.49599607  1
  Ti  Ti132  1  0.40768370  0.79831452  0.74069075  1
  Ti  Ti133  1  0.10810147  0.10500173  0.36957375  1
  Ti  Ti134  1  0.10810594  0.69983501  0.63186163  1
  Ti  Ti135  1  0.29994013  0.49190988  0.62218337  1
  Ti  Ti136  1  0.29905945  0.49628746  0.13125221  1
  Ti  Ti137  1  -0.00071051  0.00898174  0.01361962  1
  Ti  Ti138  1  0.90078564  0.90244399  0.37257583  1
  Ti  Ti139  1  0.78013557  0.80688896  0.00750885  1
  Ti  Ti140  1  0.69552629  0.90258700  0.13391213  1
  Ti  Ti141  1  0.09662908  0.09471766  0.89027991  1
  Ti  Ti142  1  -0.00009316  -0.00071462  0.75319753  1
  Ti  Ti143  1  0.00444980  0.59887840  0.74693910  1
  Ti  Ti144  1  0.39379218  0.40462353  0.74221574  1
  Ti  Ti145  1  0.30207852  0.70046551  0.62145307  1
  Ti  Ti146  1  0.00277157  -0.00554785  0.50011610  1
  Ti  Ti147  1  0.30360144  0.68127010  0.13038874  1
  Ti  Ti148  1  0.51085859  0.89446805  0.86131443  1
  Ti  Ti149  1  0.10322333  0.70125693  0.37633527  1
  Ti  Ti150  1  0.19849703  0.79815994  0.49940589  1
  Ti  Ti151  1  0.29791255  0.29320647  0.62641735  1
  Ti  Ti152  1  0.30507364  0.11250188  0.36310107  1
  Ti  Ti153  1  0.49897403  0.29823646  0.61526284  1
  Ti  Ti154  1  0.21005292  0.78774579  0.74895266  1
  Ti  Ti155  1  0.59659750  0.41212432  0.51212075  1
  Ti  Ti156  1  0.89931344  0.70362811  0.62978927  1
  Ti  Ti157  1  0.89821500  0.49011906  0.63798644  1
  Ti  Ti158  1  0.29649677  0.69160683  0.37598990  1
  Ti  Ti159  1  0.10875226  0.29779066  0.62088416  1
  Mo  Mo160  1  0.10469317  0.30010248  0.11767063  1
  Mo  Mo161  1  0.80099338  0.20738985  0.49280770  1
  Mo  Mo162  1  0.10706977  0.69352878  0.12258110  1
  Mo  Mo163  1  0.60021138  0.00217159  0.25427422  1
  Mo  Mo164  1  0.10823580  0.29876257  0.88192460  1
  Mo  Mo165  1  0.11038252  0.49318629  0.86990075  1
  Mo  Mo166  1  0.50558349  0.30612230  0.10425977  1
  Mo  Mo167  1  0.92850423  0.31977860  0.13193036  1
  Mo  Mo168  1  0.41151707  0.41080844  0.01087815  1
  Mo  Mo169  1  0.59741288  0.80685920  0.74852844  1
  Mo  Mo170  1  0.90304634  0.09005410  0.88369770  1
  Mo  Mo171  1  0.30136854  0.29006649  0.37488683  1
  Mo  Mo172  1  0.79109418  0.19320362  -0.02159171  1
  Mo  Mo173  1  0.70514786  0.90316992  0.38058163  1
  Mo  Mo174  1  0.31070665  0.10657109  0.62617315  1
  Mo  Mo175  1  0.19215250  0.01010818  0.00303277  1
  Mo  Mo176  1  0.30432720  0.69693444  0.86325835  1
  Mo  Mo177  1  0.21343891  0.39813397  0.74442065  1
  Mo  Mo178  1  0.90699075  0.09555625  0.62509892  1
  Mo  Mo179  1  0.49403830  0.90032009  0.38766987  1
  Mo  Mo180  1  0.30494621  0.50152380  0.86892807  1
  Mo  Mo181  1  0.59963909  0.59184153  0.50023327  1
  Mo  Mo182  1  0.58640734  0.60668991  0.25689322  1
  Mo  Mo183  1  0.00317070  0.40333661  0.25879212  1
  Mo  Mo184  1  0.70523652  0.70585960  0.62482296  1
  Mo  Mo185  1  0.78370285  0.58679169  0.24661497  1
  Mo  Mo186  1  0.48895800  0.70319714  0.13347608  1
  Mo  Mo187  1  0.60198864  0.80722674  -0.00089040  1
  Mo  Mo188  1  0.68295625  0.48355693  0.87597926  1
  Mo  Mo189  1  0.69555449  0.49820939  0.62668291  1
  Mo  Mo190  1  0.69426006  0.30183765  0.62430296  1
  Mo  Mo191  1  0.80072748  0.20845274  0.25105097  1
  Mo  Mo192  1  0.70533572  0.50624945  0.12898886  1
  Mo  Mo193  1  0.69001440  0.30880130  0.88360280  1
  Mo  Mo194  1  0.60176786  0.80007211  0.47658926  1
  Mo  Mo195  1  0.40589853  0.20253057  0.50550409  1
  Mo  Mo196  1  0.48898702  0.49754837  0.61578995  1
  Mo  Mo197  1  0.40231568  0.20066789  0.24322324  1
  Mo  Mo198  1  0.89992640  0.30464087  0.86833519  1
  Mo  Mo199  1  0.39667541  0.58976873  0.25489582  1
