# generated using pymatgen
data_HfZrTaTiMo
_symmetry_space_group_name_H-M   'P 1'
_cell_length_a   15.20617780
_cell_length_b   15.21732332
_cell_length_c   16.86626814
_cell_angle_alpha   90.03711127
_cell_angle_beta   90.03562984
_cell_angle_gamma   89.99594408
_symmetry_Int_Tables_number   1
_chemical_formula_structural   HfZrTaTiMo
_chemical_formula_sum   'Hf40 Zr40 Ta40 Ti40 Mo40'
_cell_volume   3902.80772929
_cell_formula_units_Z   40
loop_
 _symmetry_equiv_pos_site_id
 _symmetry_equiv_pos_as_xyz
  1  'x, y, z'
loop_
 _atom_site_type_symbol
 _atom_site_label
 _atom_site_symmetry_multiplicity
 _atom_site_fract_x
 _atom_site_fract_y
 _atom_site_fract_z
 _atom_site_occupancy
  Hf  Hf0  1  0.39181656  0.60797552  0.74677959  1
  Hf  Hf1  1  0.92501509  0.69778192  0.63246138  1
  Hf  Hf2  1  0.71431462  0.91386437  0.62580699  1
  Hf  Hf3  1  0.41741850  -0.00741895  0.74999160  1
  Hf  Hf4  1  0.89923309  0.08189182  0.61506083  1
  Hf  Hf5  1  -0.00503238  0.19179786  0.74949666  1
  Hf  Hf6  1  0.91168153  0.07345603  0.37661444  1
  Hf  Hf7  1  -0.01062451  0.19401148  0.01042533  1
  Hf  Hf8  1  0.50545435  0.11153935  0.11791986  1
  Hf  Hf9  1  0.39424580  0.19525813  0.49298439  1
  Hf  Hf10  1  0.40784624  0.40174663  0.51250332  1
  Hf  Hf11  1  0.49378981  0.50618291  0.13045582  1
  Hf  Hf12  1  0.19567165  0.20353803  -0.00484025  1
  Hf  Hf13  1  0.08857682  0.91038539  0.37140633  1
  Hf  Hf14  1  0.40792167  0.79690337  0.24838951  1
  Hf  Hf15  1  0.59122456  0.60053534  0.74461879  1
  Hf  Hf16  1  0.89158050  0.30537443  0.61734147  1
  Hf  Hf17  1  0.40285934  0.40127014  0.73947638  1
  Hf  Hf18  1  0.29334122  0.09879277  0.63218526  1
  Hf  Hf19  1  0.08457743  0.50865481  0.63925788  1
  Hf  Hf20  1  0.12445013  0.69228757  0.36835137  1
  Hf  Hf21  1  0.59789111  0.39784540  0.00182351  1
  Hf  Hf22  1  0.28391071  0.50925605  0.37830080  1
  Hf  Hf23  1  0.49830946  0.30177458  0.87648101  1
  Hf  Hf24  1  0.69683431  0.51505111  0.37204612  1
  Hf  Hf25  1  0.41744731  0.79301301  0.50406777  1
  Hf  Hf26  1  -0.00580732  0.39129334  0.75728258  1
  Hf  Hf27  1  0.00621441  0.40880035  0.49245010  1
  Hf  Hf28  1  0.20863226  0.78739377  0.50924071  1
  Hf  Hf29  1  0.19887338  0.00771230  0.23636747  1
  Hf  Hf30  1  0.80857649  0.80589257  0.00004160  1
  Hf  Hf31  1  0.26508640  0.29866456  0.38971487  1
  Hf  Hf32  1  0.69529518  0.70722330  0.87420498  1
  Hf  Hf33  1  0.19248249  0.20922238  0.76082862  1
  Hf  Hf34  1  0.70452558  0.71550850  0.63147094  1
  Hf  Hf35  1  0.19943734  0.40306394  -0.00155631  1
  Hf  Hf36  1  0.70137229  0.49311118  0.12460753  1
  Hf  Hf37  1  0.37805796  0.19680786  0.27012848  1
  Hf  Hf38  1  0.30219579  0.30258301  0.12697942  1
  Hf  Hf39  1  0.19656043  -0.00616020  0.00897085  1
  Zr  Zr40  1  0.30582589  0.90116030  0.62471024  1
  Zr  Zr41  1  0.89390913  0.70312829  0.36644619  1
  Zr  Zr42  1  0.59465671  0.20379722  0.73931546  1
  Zr  Zr43  1  0.20289403  0.60493701  -0.01342870  1
  Zr  Zr44  1  0.58521406  0.19317742  0.26571428  1
  Zr  Zr45  1  0.39743527  0.59949290  -0.00695302  1
  Zr  Zr46  1  0.69106166  0.28653442  0.12997858  1
  Zr  Zr47  1  0.70322388  0.48967288  0.62257716  1
  Zr  Zr48  1  0.18680850  0.40317677  0.24628684  1
  Zr  Zr49  1  0.27967407  0.49453634  0.62688959  1
  Zr  Zr50  1  0.80327201  0.79716726  0.23839834  1
  Zr  Zr51  1  0.01606436  0.19869789  0.50125726  1
  Zr  Zr52  1  0.79352140  0.19561258  0.48983622  1
  Zr  Zr53  1  0.90442850  0.50533654  0.88633647  1
  Zr  Zr54  1  0.52938240  0.90487525  0.38179067  1
  Zr  Zr55  1  0.82181386  0.81182398  0.76205104  1
  Zr  Zr56  1  0.80434273  0.60830904  0.49840031  1
  Zr  Zr57  1  0.80916833  0.00472194  0.00998529  1
  Zr  Zr58  1  0.90152591  0.29625283  0.36935125  1
  Zr  Zr59  1  0.80671614  0.59637324  0.75872530  1
  Zr  Zr60  1  0.40119755  -0.00640397  0.00218112  1
  Zr  Zr61  1  0.30226540  0.09495027  0.87245950  1
  Zr  Zr62  1  0.07111786  0.69741111  0.87405239  1
  Zr  Zr63  1  0.50015515  0.50091143  0.37473072  1
  Zr  Zr64  1  0.69487614  0.10115793  0.61741676  1
  Zr  Zr65  1  0.50796355  0.09997029  0.88127848  1
  Zr  Zr66  1  0.20441601  0.78963116  0.74811203  1
  Zr  Zr67  1  0.79750165  0.20728220  0.74763675  1
  Zr  Zr68  1  0.01231096  0.59735417  0.25183532  1
  Zr  Zr69  1  0.08614703  0.09342830  0.88019619  1
  Zr  Zr70  1  0.12101631  0.11649156  0.37103925  1
  Zr  Zr71  1  0.29277874  0.89299052  0.37134701  1
  Zr  Zr72  1  0.41365765  0.00406213  0.25477604  1
  Zr  Zr73  1  0.38639080  0.60927012  0.51248128  1
  Zr  Zr74  1  0.79374092  0.18901262  0.25760620  1
  Zr  Zr75  1  0.92562579  0.69730430  0.11374969  1
  Zr  Zr76  1  0.40191131  0.00235951  0.49033531  1
  Zr  Zr77  1  0.00107858  0.79924956  0.49222720  1
  Zr  Zr78  1  0.58970964  0.60733355  0.51562735  1
  Zr  Zr79  1  0.79546719  0.59751796  -0.00076827  1
  Ta  Ta80  1  0.39401877  0.40557035  -0.00392952  1
  Ta  Ta81  1  0.10876463  0.30662298  0.62566813  1
  Ta  Ta82  1  0.60032784  0.39714661  0.74350052  1
  Ta  Ta83  1  0.00979855  0.19897739  0.23726245  1
  Ta  Ta84  1  0.10387260  0.89608667  0.87904290  1
  Ta  Ta85  1  0.30174065  0.89426100  0.12727169  1
  Ta  Ta86  1  0.59656665  0.81400990  0.75195192  1
  Ta  Ta87  1  0.39658633  0.40098496  0.25755846  1
  Ta  Ta88  1  0.51083395  0.70053432  0.37315924  1
  Ta  Ta89  1  0.68636936  0.31069028  0.37792016  1
  Ta  Ta90  1  0.09317782  0.89846570  0.62445748  1
  Ta  Ta91  1  0.59122044  0.60639138  -0.00260595  1
  Ta  Ta92  1  0.88757399  0.09068359  0.87517001  1
  Ta  Ta93  1  0.40090943  0.79447138  0.00552937  1
  Ta  Ta94  1  0.10223608  0.48656457  0.87020664  1
  Ta  Ta95  1  0.52394412  0.90161019  0.61408400  1
  Ta  Ta96  1  0.79418954  0.40271007  0.49058052  1
  Ta  Ta97  1  0.49280194  0.70939476  0.87262949  1
  Ta  Ta98  1  0.89409998  0.29518287  0.88724408  1
  Ta  Ta99  1  0.78380824  0.19942446  0.00242054  1
  Ta  Ta100  1  0.39928007  0.20344546  0.74264158  1
  Ta  Ta101  1  0.29420873  0.29498769  0.62111534  1
  Ta  Ta102  1  0.60516466  0.80078553  0.24181180  1
  Ta  Ta103  1  0.79853739  0.59557250  0.24010110  1
  Ta  Ta104  1  0.19846414  0.59293386  0.76587168  1
  Ta  Ta105  1  0.18973281  -0.00739878  0.75354729  1
  Ta  Ta106  1  0.61124461  0.00435583  0.00747955  1
  Ta  Ta107  1  0.90185691  0.49030105  0.11848071  1
  Ta  Ta108  1  0.30170354  0.69773278  0.12672155  1
  Ta  Ta109  1  -0.00921409  -0.01522196  0.75126235  1
  Ta  Ta110  1  0.70056021  0.90249019  0.12498366  1
  Ta  Ta111  1  0.09574007  0.51250996  0.11675749  1
  Ta  Ta112  1  0.59419325  0.40152471  0.25050638  1
  Ta  Ta113  1  -0.00752038  0.39879794  0.24407539  1
  Ta  Ta114  1  0.59811318  0.80317033  0.00458979  1
  Ta  Ta115  1  0.39525834  0.60451730  0.25253135  1
  Ta  Ta116  1  0.70404552  0.91789158  0.87208935  1
  Ta  Ta117  1  0.69857720  0.10495896  0.87268255  1
  Ta  Ta118  1  0.29874161  0.10580856  0.12174347  1
  Ta  Ta119  1  0.50903736  0.89574953  0.88123623  1
  Ti  Ti120  1  0.69764087  0.29980361  0.88175883  1
  Ti  Ti121  1  0.00456127  0.80589428  0.24784187  1
  Ti  Ti122  1  0.79544653  0.40092413  0.25454015  1
  Ti  Ti123  1  0.69180171  0.69793810  0.11824675  1
  Ti  Ti124  1  0.09987489  0.09331683  0.62784176  1
  Ti  Ti125  1  0.49442266  0.30599897  0.37951493  1
  Ti  Ti126  1  0.18377889  0.59202198  0.50613194  1
  Ti  Ti127  1  0.00190487  0.60120106  0.48925942  1
  Ti  Ti128  1  0.09792361  0.88445864  0.12237669  1
  Ti  Ti129  1  0.91917670  0.89521791  0.88257734  1
  Ti  Ti130  1  0.59088401  0.20884365  0.50008477  1
  Ti  Ti131  1  0.90389720  0.89610671  0.61863020  1
  Ti  Ti132  1  0.50071809  0.09603044  0.62021242  1
  Ti  Ti133  1  0.89676237  0.50064669  0.62580387  1
  Ti  Ti134  1  0.40785700  0.79590759  0.73926609  1
  Ti  Ti135  1  0.79204484  0.39513198  0.75440638  1
  Ti  Ti136  1  0.71807225  0.89685195  0.37467618  1
  Ti  Ti137  1  0.61482647  0.00099690  0.24333518  1
  Ti  Ti138  1  0.59975458  0.61186907  0.24455804  1
  Ti  Ti139  1  0.30811003  0.88523218  0.87291712  1
  Ti  Ti140  1  0.49208410  0.30587488  0.12870862  1
  Ti  Ti141  1  -0.00028004  -0.00918299  0.01524302  1
  Ti  Ti142  1  0.50463509  0.89774191  0.12300910  1
  Ti  Ti143  1  0.19339190  0.00670113  0.50107869  1
  Ti  Ti144  1  0.88930053  0.30518289  0.12261028  1
  Ti  Ti145  1  -0.00029716  0.39752305  0.00103382  1
  Ti  Ti146  1  0.39948283  0.21023492  -0.00117358  1
  Ti  Ti147  1  -0.00296368  -0.00278301  0.23022423  1
  Ti  Ti148  1  0.29548287  0.31453957  0.86892963  1
  Ti  Ti149  1  0.69171920  0.08517982  0.38667858  1
  Ti  Ti150  1  0.20148090  0.79059583  0.24134217  1
  Ti  Ti151  1  0.09377040  0.30114008  0.12311095  1
  Ti  Ti152  1  0.80406425  -0.00824219  0.24305265  1
  Ti  Ti153  1  0.49960436  0.50048101  0.87281381  1
  Ti  Ti154  1  0.69435505  0.49071852  0.87813086  1
  Ti  Ti155  1  0.29671627  0.50252852  0.13211820  1
  Ti  Ti156  1  0.89191072  0.10342720  0.13207253  1
  Ti  Ti157  1  0.89997010  0.49954717  0.36744001  1
  Ti  Ti158  1  0.79932613  0.80577348  0.49162490  1
  Ti  Ti159  1  0.20463255  0.79748715  -0.00069852  1
  Mo  Mo160  1  -0.00142269  0.59992077  0.75164963  1
  Mo  Mo161  1  0.10977314  0.69322753  0.62956008  1
  Mo  Mo162  1  0.30414771  0.49620446  0.86813771  1
  Mo  Mo163  1  0.00927771  -0.00607450  0.50586316  1
  Mo  Mo164  1  0.01008379  0.80908375  0.74695321  1
  Mo  Mo165  1  0.30410715  0.71026566  0.87488625  1
  Mo  Mo166  1  0.50362162  0.71300071  0.63351586  1
  Mo  Mo167  1  0.01381279  0.80851538  0.00390634  1
  Mo  Mo168  1  0.00671240  0.59209426  0.00638001  1
  Mo  Mo169  1  0.80248289  0.38866183  -0.00156272  1
  Mo  Mo170  1  0.60954557  0.00738554  0.49738674  1
  Mo  Mo171  1  0.90814727  0.90264371  0.12778049  1
  Mo  Mo172  1  0.89764682  0.70787684  0.88516592  1
  Mo  Mo173  1  0.19822854  0.39465284  0.75900607  1
  Mo  Mo174  1  0.08691206  0.30258775  0.88314276  1
  Mo  Mo175  1  0.59736969  0.19984011  -0.00120279  1
  Mo  Mo176  1  0.50482272  0.70386830  0.12466116  1
  Mo  Mo177  1  0.09590214  0.10098696  0.12186381  1
  Mo  Mo178  1  0.29541192  0.09324161  0.37704568  1
  Mo  Mo179  1  0.60449864  -0.00328666  0.75333236  1
  Mo  Mo180  1  0.09459541  0.49520774  0.37496901  1
  Mo  Mo181  1  0.50040494  0.29405038  0.62190904  1
  Mo  Mo182  1  0.11793639  0.70485999  0.12365360  1
  Mo  Mo183  1  0.80750720  -0.01466254  0.49099178  1
  Mo  Mo184  1  0.20955606  0.60186148  0.24133763  1
  Mo  Mo185  1  0.19014859  0.39976503  0.50371399  1
  Mo  Mo186  1  0.19810291  0.19718046  0.51503561  1
  Mo  Mo187  1  0.60224246  0.39345810  0.50314063  1
  Mo  Mo188  1  0.29225972  0.69529472  0.62866069  1
  Mo  Mo189  1  0.19269080  0.20197478  0.23418105  1
  Mo  Mo190  1  0.50688817  0.10655764  0.38167912  1
  Mo  Mo191  1  0.90152348  0.89973420  0.36501365  1
  Mo  Mo192  1  0.08717393  0.30753780  0.36429532  1
  Mo  Mo193  1  0.68800901  0.71099020  0.37016741  1
  Mo  Mo194  1  0.61783981  0.80109559  0.49837428  1
  Mo  Mo195  1  0.50066342  0.49663239  0.63134594  1
  Mo  Mo196  1  0.80644425  0.00757076  0.75735529  1
  Mo  Mo197  1  0.31074371  0.69973686  0.36771705  1
  Mo  Mo198  1  0.69603004  0.30691487  0.61084938  1
  Mo  Mo199  1  0.69822189  0.09202988  0.13133006  1
