# generated using pymatgen
data_HfZrTaTiMo
_symmetry_space_group_name_H-M   'P 1'
_cell_length_a   15.18068411
_cell_length_b   15.18447942
_cell_length_c   16.79947298
_cell_angle_alpha   90.00784576
_cell_angle_beta   90.00902676
_cell_angle_gamma   90.01437580
_symmetry_Int_Tables_number   1
_chemical_formula_structural   HfZrTaTiMo
_chemical_formula_sum   'Hf40 Zr40 Ta40 Ti40 Mo40'
_cell_volume   3872.45950372
_cell_formula_units_Z   40
loop_
 _symmetry_equiv_pos_site_id
 _symmetry_equiv_pos_as_xyz
  1  'x, y, z'
loop_
 _atom_site_type_symbol
 _atom_site_label
 _atom_site_symmetry_multiplicity
 _atom_site_fract_x
 _atom_site_fract_y
 _atom_site_fract_z
 _atom_site_occupancy
  Hf  Hf0  1  0.91520722  0.70302999  0.88137927  1
  Hf  Hf1  1  0.49752703  0.29771541  0.62648875  1
  Hf  Hf2  1  0.11614204  0.90776930  0.38696913  1
  Hf  Hf3  1  0.50027269  0.30728654  0.88428790  1
  Hf  Hf4  1  0.82026584  0.80300933  0.24059155  1
  Hf  Hf5  1  0.80149050  0.39539870  0.75505824  1
  Hf  Hf6  1  0.59520217  0.60903389  0.24173863  1
  Hf  Hf7  1  -0.00482925  0.61245641  0.25026146  1
  Hf  Hf8  1  0.90656098  0.91634648  0.62327529  1
  Hf  Hf9  1  0.79473736  0.20188264  0.47464176  1
  Hf  Hf10  1  0.59051921  0.40053616  0.23484855  1
  Hf  Hf11  1  -0.01101586  0.19590703  0.75224135  1
  Hf  Hf12  1  0.39721953  0.01051623  0.75975147  1
  Hf  Hf13  1  0.70297812  0.89961913  0.37497647  1
  Hf  Hf14  1  0.90798791  0.50260568  0.88760305  1
  Hf  Hf15  1  0.79826590  0.40365957  0.23546049  1
  Hf  Hf16  1  0.50218049  0.87079809  0.13145668  1
  Hf  Hf17  1  -0.00864473  -0.01047032  0.24393577  1
  Hf  Hf18  1  0.59438218  0.00158567  0.25140780  1
  Hf  Hf19  1  0.20816631  0.59965703  0.49771096  1
  Hf  Hf20  1  0.79953831  0.59680232  0.74121842  1
  Hf  Hf21  1  0.50508956  0.49691320  0.62989020  1
  Hf  Hf22  1  0.81213816  0.78580724  0.52031962  1
  Hf  Hf23  1  0.89255192  0.90417909  0.86661094  1
  Hf  Hf24  1  0.38608956  -0.01706720  0.49877694  1
  Hf  Hf25  1  0.79635241  0.40147633  0.02034774  1
  Hf  Hf26  1  0.10395715  0.31018678  0.62471017  1
  Hf  Hf27  1  0.11162523  0.68658473  0.11546315  1
  Hf  Hf28  1  0.38127674  0.39657936  0.50370268  1
  Hf  Hf29  1  0.52092389  0.69027186  0.85526214  1
  Hf  Hf30  1  0.01113936  0.79225110  0.73738303  1
  Hf  Hf31  1  0.38546409  0.21050874  -0.00431930  1
  Hf  Hf32  1  0.89779106  0.28842992  0.62029077  1
  Hf  Hf33  1  0.28662452  0.49773770  0.64000210  1
  Hf  Hf34  1  0.69193847  0.49845441  0.36772839  1
  Hf  Hf35  1  0.50988594  0.89852656  0.86912773  1
  Hf  Hf36  1  0.79589967  0.61659595  0.00886153  1
  Hf  Hf37  1  0.90363805  0.28840697  0.89066519  1
  Hf  Hf38  1  -0.00971476  0.60857128  0.50526296  1
  Hf  Hf39  1  0.39818981  0.19563695  0.49321030  1
  Zr  Zr40  1  0.00029627  0.40124177  0.24765631  1
  Zr  Zr41  1  0.38446667  -0.01987814  0.00105736  1
  Zr  Zr42  1  0.50506605  0.10123761  0.62088821  1
  Zr  Zr43  1  0.49257658  0.30015958  0.11818168  1
  Zr  Zr44  1  0.79419783  0.79862739  0.73348800  1
  Zr  Zr45  1  0.29031352  0.08721947  0.37400919  1
  Zr  Zr46  1  0.49839933  0.90073097  0.63591823  1
  Zr  Zr47  1  0.10347822  0.50066340  0.37173313  1
  Zr  Zr48  1  0.60140478  0.19505827  0.75817531  1
  Zr  Zr49  1  0.78571840  0.40452032  0.49288728  1
  Zr  Zr50  1  0.19142300  0.19086989  0.75658656  1
  Zr  Zr51  1  0.69708596  0.30005140  0.89516036  1
  Zr  Zr52  1  0.19622683  0.21022998  0.49800936  1
  Zr  Zr53  1  0.69235703  0.30130409  0.62248010  1
  Zr  Zr54  1  0.11727113  0.91502741  0.62533058  1
  Zr  Zr55  1  0.10916605  0.89108722  0.10818494  1
  Zr  Zr56  1  0.68622029  0.12351706  0.11358773  1
  Zr  Zr57  1  0.01610709  0.40117681  0.01090485  1
  Zr  Zr58  1  -0.00456616  0.39809191  0.48771834  1
  Zr  Zr59  1  0.09007516  0.10549931  0.11489292  1
  Zr  Zr60  1  0.10632074  0.71002899  0.37613365  1
  Zr  Zr61  1  0.19301771  -0.00316115  0.24540640  1
  Zr  Zr62  1  0.91053872  0.87984781  0.38591701  1
  Zr  Zr63  1  0.38814094  0.20870655  0.24983135  1
  Zr  Zr64  1  0.49270955  0.08883696  0.11664463  1
  Zr  Zr65  1  0.88958414  0.10637063  0.12839874  1
  Zr  Zr66  1  0.89138959  0.08612225  0.37033278  1
  Zr  Zr67  1  0.28509565  0.09145189  0.62668072  1
  Zr  Zr68  1  0.50957302  0.70091818  0.37624196  1
  Zr  Zr69  1  0.79567663  0.01351270  0.74323601  1
  Zr  Zr70  1  0.68828923  0.51418752  0.88749177  1
  Zr  Zr71  1  0.09555441  0.88695004  0.87914792  1
  Zr  Zr72  1  -0.01649264  -0.00934183  0.00204884  1
  Zr  Zr73  1  0.72582962  0.69441295  0.37327108  1
  Zr  Zr74  1  0.60336693  0.79868458  0.50855204  1
  Zr  Zr75  1  0.40186806  0.60728417  0.50721692  1
  Zr  Zr76  1  0.28557307  0.10311965  0.11844084  1
  Zr  Zr77  1  0.32289729  0.68882186  0.12589751  1
  Zr  Zr78  1  0.21758538  0.78499400  -0.01043546  1
  Zr  Zr79  1  0.41774513  0.77623336  -0.01478365  1
  Ta  Ta80  1  0.69785379  0.90071213  0.87752194  1
  Ta  Ta81  1  0.39903174  0.39884573  0.75629430  1
  Ta  Ta82  1  0.59848312  0.00935026  0.48850777  1
  Ta  Ta83  1  0.49426477  0.89546312  0.36854210  1
  Ta  Ta84  1  0.22373938  0.80356613  0.50367783  1
  Ta  Ta85  1  0.78887320  0.00332915  0.24312060  1
  Ta  Ta86  1  0.60073029  0.20890644  0.47818455  1
  Ta  Ta87  1  0.69960627  0.09771933  0.89325420  1
  Ta  Ta88  1  0.29341741  0.31052985  0.86642464  1
  Ta  Ta89  1  0.60188208  0.40997805  0.75571694  1
  Ta  Ta90  1  0.10159626  0.31186276  0.87107555  1
  Ta  Ta91  1  0.38842873  0.42015026  -0.00551857  1
  Ta  Ta92  1  0.88812320  0.51695993  0.37054143  1
  Ta  Ta93  1  0.29711632  0.89077009  0.86120876  1
  Ta  Ta94  1  0.21753545  0.39218953  0.24658004  1
  Ta  Ta95  1  0.38586702  -0.02561219  0.24558272  1
  Ta  Ta96  1  0.50558953  0.09838509  0.89471422  1
  Ta  Ta97  1  0.39775557  0.19979075  0.76534019  1
  Ta  Ta98  1  0.61351125  0.58971953  0.51229266  1
  Ta  Ta99  1  0.00663279  0.59274738  0.74511336  1
  Ta  Ta100  1  0.28059206  0.50863311  0.86333478  1
  Ta  Ta101  1  0.69575852  0.71796785  0.12835971  1
  Ta  Ta102  1  0.30625634  0.49184590  0.36993324  1
  Ta  Ta103  1  0.00218642  0.40293959  0.75299125  1
  Ta  Ta104  1  0.78842281  -0.00230532  0.00487289  1
  Ta  Ta105  1  0.01570862  0.79812202  0.51832350  1
  Ta  Ta106  1  0.49170356  0.31044190  0.37147096  1
  Ta  Ta107  1  0.09288109  0.10273049  0.37742382  1
  Ta  Ta108  1  0.18858344  0.21212513  -0.00924144  1
  Ta  Ta109  1  0.08348514  0.10189402  0.88976961  1
  Ta  Ta110  1  0.51151870  0.69887498  0.64390085  1
  Ta  Ta111  1  0.22779696  0.80210257  0.24836612  1
  Ta  Ta112  1  -0.00407955  0.20567563  0.26146304  1
  Ta  Ta113  1  0.91262719  0.51534395  0.11693808  1
  Ta  Ta114  1  0.10985838  0.29641309  0.13074820  1
  Ta  Ta115  1  0.49513154  0.09534836  0.36997697  1
  Ta  Ta116  1  0.50070050  0.49704854  0.38237130  1
  Ta  Ta117  1  0.29920389  0.29898475  0.64289050  1
  Ta  Ta118  1  0.79126008  0.21131345  0.26149467  1
  Ta  Ta119  1  0.79727161  0.19485396  0.75603231  1
  Ti  Ti120  1  0.29909593  0.89236524  0.64508190  1
  Ti  Ti121  1  -0.00002989  0.00837502  0.49969572  1
  Ti  Ti122  1  0.10967101  0.30422784  0.37334282  1
  Ti  Ti123  1  0.07856217  0.10671588  0.61514108  1
  Ti  Ti124  1  0.30843459  0.49373665  0.12923308  1
  Ti  Ti125  1  0.40359959  0.79342593  0.50700900  1
  Ti  Ti126  1  0.91584930  0.71340668  0.11158597  1
  Ti  Ti127  1  0.40156679  0.79562324  0.75633619  1
  Ti  Ti128  1  0.80411217  0.60384731  0.23219840  1
  Ti  Ti129  1  -0.00922118  0.20360627  0.48194101  1
  Ti  Ti130  1  0.49289761  0.50267851  0.87127538  1
  Ti  Ti131  1  0.80027551  0.59672652  0.51924295  1
  Ti  Ti132  1  0.19306033  0.20249767  0.25552452  1
  Ti  Ti133  1  0.39816610  0.59775791  0.75211260  1
  Ti  Ti134  1  0.09721924  0.50084864  0.62147055  1
  Ti  Ti135  1  0.68978369  0.51315247  0.12040718  1
  Ti  Ti136  1  0.69070182  0.90799435  0.62112633  1
  Ti  Ti137  1  0.90162173  0.49206963  0.62670657  1
  Ti  Ti138  1  0.79457539  0.00177858  0.50222656  1
  Ti  Ti139  1  0.40184386  0.59360473  0.25648428  1
  Ti  Ti140  1  0.18957282  -0.00285397  0.76672003  1
  Ti  Ti141  1  0.11689183  0.67325613  0.87825079  1
  Ti  Ti142  1  0.57920049  0.60790711  0.01035528  1
  Ti  Ti143  1  0.11752926  0.69695571  0.62618107  1
  Ti  Ti144  1  0.70498129  0.10691249  0.61464903  1
  Ti  Ti145  1  0.20666335  0.40357680  0.00205327  1
  Ti  Ti146  1  0.81006036  0.81335737  0.00699201  1
  Ti  Ti147  1  0.28951064  0.09717195  0.88436281  1
  Ti  Ti148  1  0.02003277  0.80216710  0.24474315  1
  Ti  Ti149  1  0.61624523  0.79889836  -0.00114865  1
  Ti  Ti150  1  0.60286795  0.20455467  0.26339145  1
  Ti  Ti151  1  0.11518729  0.49978685  0.13097757  1
  Ti  Ti152  1  0.20979470  0.60113828  0.25687306  1
  Ti  Ti153  1  0.58881520  0.40961603  0.01503290  1
  Ti  Ti154  1  0.60599642  0.00391507  0.75285281  1
  Ti  Ti155  1  -0.00233066  0.01096801  0.75283299  1
  Ti  Ti156  1  0.69892961  0.90779489  0.12475253  1
  Ti  Ti157  1  0.90244842  0.29189318  0.12170324  1
  Ti  Ti158  1  0.30386130  0.70399901  0.64144515  1
  Ti  Ti159  1  0.70859771  0.71187219  0.87112318  1
  Mo  Mo160  1  0.30734614  0.69658574  0.37059293  1
  Mo  Mo161  1  0.18912606  0.60556984  0.74184037  1
  Mo  Mo162  1  0.20014970  0.40454323  0.49949522  1
  Mo  Mo163  1  0.41078912  0.78562293  0.25512563  1
  Mo  Mo164  1  0.09744785  0.50040333  0.87395035  1
  Mo  Mo165  1  0.58748127  0.40007096  0.49454962  1
  Mo  Mo166  1  0.01167897  0.60098541  0.00554722  1
  Mo  Mo167  1  0.48631603  0.51247234  0.12036109  1
  Mo  Mo168  1  -0.00017440  0.78798027  -0.00435930  1
  Mo  Mo169  1  0.68810500  0.30648931  0.36550386  1
  Mo  Mo170  1  0.89044799  0.09825211  0.88098927  1
  Mo  Mo171  1  0.89244885  0.89754191  0.12365167  1
  Mo  Mo172  1  0.19338411  -0.00035794  0.50285483  1
  Mo  Mo173  1  0.20593343  0.79208442  0.75566341  1
  Mo  Mo174  1  0.30316058  0.89356792  0.12050846  1
  Mo  Mo175  1  0.28967389  0.30871615  0.11858523  1
  Mo  Mo176  1  0.69027922  0.09718771  0.36895547  1
  Mo  Mo177  1  0.60952672  0.80692301  0.74544128  1
  Mo  Mo178  1  0.00063512  0.20494044  0.00131610  1
  Mo  Mo179  1  0.29518091  0.30238227  0.37234566  1
  Mo  Mo180  1  0.80364660  0.19743633  0.00217800  1
  Mo  Mo181  1  0.69703194  0.69280916  0.62652633  1
  Mo  Mo182  1  0.19122381  0.40342514  0.75140752  1
  Mo  Mo183  1  0.60756267  0.59745331  0.74598555  1
  Mo  Mo184  1  0.90549824  0.69822345  0.37678565  1
  Mo  Mo185  1  0.59850443  -0.01220471  0.00078745  1
  Mo  Mo186  1  0.39994604  0.40887135  0.25184321  1
  Mo  Mo187  1  0.91424941  0.69240541  0.63054265  1
  Mo  Mo188  1  0.30628112  0.69167688  0.85705520  1
  Mo  Mo189  1  0.89531961  0.10751003  0.61030862  1
  Mo  Mo190  1  0.30694593  0.88146500  0.37807191  1
  Mo  Mo191  1  0.50911158  0.68979202  0.12595228  1
  Mo  Mo192  1  0.89899321  0.30761279  0.36404472  1
  Mo  Mo193  1  0.70034819  0.49364345  0.62828410  1
  Mo  Mo194  1  0.59327712  0.20307552  -0.00367073  1
  Mo  Mo195  1  0.39589282  0.59265022  -0.01486500  1
  Mo  Mo196  1  0.19919122  0.00106041  -0.01798675  1
  Mo  Mo197  1  0.69981451  0.30484606  0.11863470  1
  Mo  Mo198  1  0.61356457  0.80638580  0.25125331  1
  Mo  Mo199  1  0.21455117  0.57724435  0.00094084  1
