# generated using pymatgen
data_HfZrTaTiMo
_symmetry_space_group_name_H-M   'P 1'
_cell_length_a   15.21082741
_cell_length_b   15.21642358
_cell_length_c   16.86388479
_cell_angle_alpha   90.03586662
_cell_angle_beta   89.95604247
_cell_angle_gamma   89.94483503
_symmetry_Int_Tables_number   1
_chemical_formula_structural   HfZrTaTiMo
_chemical_formula_sum   'Hf40 Zr40 Ta40 Ti40 Mo40'
_cell_volume   3903.21649224
_cell_formula_units_Z   40
loop_
 _symmetry_equiv_pos_site_id
 _symmetry_equiv_pos_as_xyz
  1  'x, y, z'
loop_
 _atom_site_type_symbol
 _atom_site_label
 _atom_site_symmetry_multiplicity
 _atom_site_fract_x
 _atom_site_fract_y
 _atom_site_fract_z
 _atom_site_occupancy
  Hf  Hf0  1  0.49330266  0.90453045  0.11890367  1
  Hf  Hf1  1  0.27239528  0.28540948  0.61434919  1
  Hf  Hf2  1  0.49412566  0.69089654  0.87178921  1
  Hf  Hf3  1  0.37485139  0.19589460  0.75171483  1
  Hf  Hf4  1  0.59317860  0.80809003  0.74018017  1
  Hf  Hf5  1  0.78820464  0.41085082  0.75468850  1
  Hf  Hf6  1  0.50046036  0.89541852  0.88045518  1
  Hf  Hf7  1  0.41067850  -0.01223314  0.74951007  1
  Hf  Hf8  1  0.69699282  0.29540571  0.13145574  1
  Hf  Hf9  1  0.21104297  0.01540636  0.76002104  1
  Hf  Hf10  1  0.90618882  0.69951120  0.89297273  1
  Hf  Hf11  1  0.90496495  0.30580652  0.63254096  1
  Hf  Hf12  1  0.20277221  0.80072707  0.74440894  1
  Hf  Hf13  1  0.69808228  0.70441190  0.87967006  1
  Hf  Hf14  1  -0.00847629  0.79790181  0.50191451  1
  Hf  Hf15  1  0.40873015  0.78604219  0.25626218  1
  Hf  Hf16  1  0.30986207  0.09928258  0.13883794  1
  Hf  Hf17  1  0.31962737  0.68068202  0.38761355  1
  Hf  Hf18  1  -0.01744423  0.20410319  0.00738259  1
  Hf  Hf19  1  0.09624760  0.50325253  0.88697145  1
  Hf  Hf20  1  0.39270582  0.79540661  0.00447144  1
  Hf  Hf21  1  0.70794273  0.70975685  0.11521277  1
  Hf  Hf22  1  0.89647319  0.69789837  0.10519207  1
  Hf  Hf23  1  0.50070040  0.08722859  0.61772254  1
  Hf  Hf24  1  0.80571331  0.39022261  0.00465349  1
  Hf  Hf25  1  0.89572472  0.30624808  0.86649740  1
  Hf  Hf26  1  0.50643059  0.10019244  0.37163353  1
  Hf  Hf27  1  0.48759987  0.30254172  0.62555276  1
  Hf  Hf28  1  0.90930325  0.10917102  0.63479001  1
  Hf  Hf29  1  0.49368688  0.11061566  0.87631065  1
  Hf  Hf30  1  0.70425023  0.10864886  0.61721339  1
  Hf  Hf31  1  0.09857420  0.29952994  0.88252051  1
  Hf  Hf32  1  0.09676066  0.68844358  0.61912821  1
  Hf  Hf33  1  0.58771794  0.40156934  0.01213741  1
  Hf  Hf34  1  0.42531583  0.78483508  0.50673053  1
  Hf  Hf35  1  0.38205309  0.19564826  0.48263687  1
  Hf  Hf36  1  0.88888470  0.30602968  0.37168266  1
  Hf  Hf37  1  0.90405095  0.10689940  0.86182078  1
  Hf  Hf38  1  0.30864291  0.67701255  0.61014949  1
  Hf  Hf39  1  0.92856317  0.49649889  0.11390488  1
  Zr  Zr40  1  0.09880493  0.48391083  0.61401443  1
  Zr  Zr41  1  0.71262416  0.68895088  0.62797227  1
  Zr  Zr42  1  0.20781444  0.80891495  0.49237007  1
  Zr  Zr43  1  0.71125198  0.51206801  0.12508765  1
  Zr  Zr44  1  0.79722839  0.80752455  0.75273645  1
  Zr  Zr45  1  0.70956586  0.10613601  0.38377742  1
  Zr  Zr46  1  0.10618539  0.92032066  0.62434579  1
  Zr  Zr47  1  0.30305651  0.70194485  0.13228315  1
  Zr  Zr48  1  0.50156648  0.49710107  0.87191625  1
  Zr  Zr49  1  0.39913619  -0.01440265  0.26220197  1
  Zr  Zr50  1  0.60838350  0.01240924  -0.01145605  1
  Zr  Zr51  1  0.47868037  0.29847039  0.14482557  1
  Zr  Zr52  1  0.30433122  0.48688791  0.61380267  1
  Zr  Zr53  1  0.88596497  0.51134862  0.62138782  1
  Zr  Zr54  1  0.21092351  0.59108667  0.25222201  1
  Zr  Zr55  1  0.00747112  0.01392559  0.49791211  1
  Zr  Zr56  1  0.89972614  0.90731892  0.12716695  1
  Zr  Zr57  1  0.60225499  0.41510680  0.49952145  1
  Zr  Zr58  1  0.89546846  0.90449040  0.62848672  1
  Zr  Zr59  1  0.22331010  0.20550284  0.00177179  1
  Zr  Zr60  1  0.20110815  -0.00975543  -0.00087570  1
  Zr  Zr61  1  0.10764709  0.68599696  0.37872127  1
  Zr  Zr62  1  0.30978174  0.89853458  0.62258416  1
  Zr  Zr63  1  0.21432560  0.59659340  0.00949702  1
  Zr  Zr64  1  -0.00926495  0.59130453  0.48397946  1
  Zr  Zr65  1  0.09468128  0.10050565  0.12259173  1
  Zr  Zr66  1  0.59788514  0.21313032  0.49618022  1
  Zr  Zr67  1  0.70104757  0.50600839  0.36413340  1
  Zr  Zr68  1  0.87981261  0.89355753  0.37203548  1
  Zr  Zr69  1  0.61134298  0.80729901  0.24861250  1
  Zr  Zr70  1  0.20367304  0.59052588  0.75162951  1
  Zr  Zr71  1  0.70740038  0.91064197  0.11886344  1
  Zr  Zr72  1  0.39655444  0.39746403  0.48544987  1
  Zr  Zr73  1  0.11111042  0.89390526  0.14199098  1
  Zr  Zr74  1  0.20093336  0.38075530  0.75401889  1
  Zr  Zr75  1  -0.01282151  0.77842943  0.25544525  1
  Zr  Zr76  1  0.01067721  0.81891293  0.00434782  1
  Zr  Zr77  1  0.09225186  0.90502977  0.36981389  1
  Zr  Zr78  1  0.10706385  0.70466460  0.87761116  1
  Zr  Zr79  1  0.39894478  -0.01211316  0.48511605  1
  Ta  Ta80  1  0.59713883  0.39903113  0.74551306  1
  Ta  Ta81  1  0.09014605  0.29294710  0.35972565  1
  Ta  Ta82  1  0.48694906  0.30297225  0.87426655  1
  Ta  Ta83  1  0.59520721  0.61124543  0.50478373  1
  Ta  Ta84  1  0.81751868  0.61497400  0.25500586  1
  Ta  Ta85  1  0.59418359  0.20555670  0.74683383  1
  Ta  Ta86  1  0.21405832  0.80535075  0.26367163  1
  Ta  Ta87  1  0.68309049  0.30051936  0.87599851  1
  Ta  Ta88  1  0.09409024  0.68337793  0.13152353  1
  Ta  Ta89  1  0.80247577  0.19696150  0.24740353  1
  Ta  Ta90  1  0.60964168  0.80447857  0.50989287  1
  Ta  Ta91  1  0.70365520  0.50311475  0.88512396  1
  Ta  Ta92  1  0.38636305  0.38316692  0.00529369  1
  Ta  Ta93  1  -0.00303462  0.41758858  0.75416212  1
  Ta  Ta94  1  0.90485781  0.90403741  0.87138961  1
  Ta  Ta95  1  0.81237526  0.40420127  0.23962095  1
  Ta  Ta96  1  0.78491175  0.20473229  0.75082865  1
  Ta  Ta97  1  0.71056934  0.71216506  0.37811156  1
  Ta  Ta98  1  0.20033264  0.00717314  0.26401431  1
  Ta  Ta99  1  0.28962139  0.09401497  0.61532182  1
  Ta  Ta100  1  0.81203089  0.00693220  -0.01361573  1
  Ta  Ta101  1  0.59957501  0.80100527  -0.00030771  1
  Ta  Ta102  1  0.70109927  0.10255678  0.12758851  1
  Ta  Ta103  1  0.29995994  0.88908692  0.87240426  1
  Ta  Ta104  1  0.28567093  0.29193898  0.35272923  1
  Ta  Ta105  1  0.81696885  0.60194838  0.76210776  1
  Ta  Ta106  1  0.01249213  0.21077710  0.49763660  1
  Ta  Ta107  1  0.09912579  0.10332639  0.87908558  1
  Ta  Ta108  1  -0.00286779  0.78976759  0.74560575  1
  Ta  Ta109  1  0.08474311  0.31584640  0.12594427  1
  Ta  Ta110  1  0.30687221  0.48764531  0.87970191  1
  Ta  Ta111  1  0.59843803  0.60174324  0.00488169  1
  Ta  Ta112  1  0.61306574  0.00834034  0.75982918  1
  Ta  Ta113  1  -0.00765372  0.01362876  0.25529884  1
  Ta  Ta114  1  0.69269156  0.91621472  0.61880538  1
  Ta  Ta115  1  0.50658801  0.10341159  0.13082186  1
  Ta  Ta116  1  0.49474822  0.30766557  0.35421889  1
  Ta  Ta117  1  0.90680153  0.10825263  0.37550673  1
  Ta  Ta118  1  0.59082803  0.41357196  0.24336774  1
  Ta  Ta119  1  0.09594684  0.90629567  0.86719943  1
  Ti  Ti120  1  0.00503865  0.57044019  0.26436660  1
  Ti  Ti121  1  0.17965511  0.40325040  0.25027097  1
  Ti  Ti122  1  0.69550786  0.30980503  0.36313063  1
  Ti  Ti123  1  0.10813291  0.12738618  0.63371228  1
  Ti  Ti124  1  0.31449601  0.48666072  0.13753255  1
  Ti  Ti125  1  0.39217188  0.00917387  -0.00161051  1
  Ti  Ti126  1  0.40750761  0.58209425  0.01029714  1
  Ti  Ti127  1  0.49900912  0.51394536  0.63205146  1
  Ti  Ti128  1  0.18171713  0.37979483  0.48543453  1
  Ti  Ti129  1  0.20448571  0.02157447  0.47345902  1
  Ti  Ti130  1  0.79353235  0.00490126  0.75785288  1
  Ti  Ti131  1  0.39762982  0.40217727  0.75027877  1
  Ti  Ti132  1  0.49261554  0.50953002  0.36670265  1
  Ti  Ti133  1  0.51911949  0.69219169  0.37376507  1
  Ti  Ti134  1  0.90535543  0.50619230  0.89268139  1
  Ti  Ti135  1  0.58908509  0.20562938  0.00352455  1
  Ti  Ti136  1  0.28833210  0.29825978  0.15129931  1
  Ti  Ti137  1  0.60264998  0.19908107  0.25244367  1
  Ti  Ti138  1  0.60997993  0.59342648  0.74606064  1
  Ti  Ti139  1  0.30527636  0.68832597  0.87294954  1
  Ti  Ti140  1  -0.01598519  0.39797705  0.49082772  1
  Ti  Ti141  1  0.20387010  0.79913849  0.00361125  1
  Ti  Ti142  1  0.51119235  0.89010844  0.37881696  1
  Ti  Ti143  1  0.69422462  0.90732968  0.38588890  1
  Ti  Ti144  1  0.00645291  0.00352823  0.74946522  1
  Ti  Ti145  1  0.19900260  0.40115794  0.01222010  1
  Ti  Ti146  1  0.79650107  0.00299295  0.25490981  1
  Ti  Ti147  1  0.79408147  0.58911014  0.49122266  1
  Ti  Ti148  1  0.50405353  0.69046128  0.12372751  1
  Ti  Ti149  1  0.39987324  0.78032767  0.74000617  1
  Ti  Ti150  1  0.78209339  0.19372991  -0.00665243  1
  Ti  Ti151  1  0.60483150  0.00363765  0.25019201  1
  Ti  Ti152  1  0.70045635  0.31407091  0.62271047  1
  Ti  Ti153  1  0.60284096  0.60735013  0.24299353  1
  Ti  Ti154  1  0.29240136  0.49077807  0.37640099  1
  Ti  Ti155  1  -0.00793710  0.20785252  0.23887984  1
  Ti  Ti156  1  0.80844644  0.21471763  0.50300513  1
  Ti  Ti157  1  0.80141704  0.79000028  0.50827146  1
  Ti  Ti158  1  0.88856911  0.10099471  0.12368172  1
  Ti  Ti159  1  0.80223338  0.00120482  0.50024034  1
  Mo  Mo160  1  -0.00574284  0.59821411  0.75278429  1
  Mo  Mo161  1  0.79448908  0.39911587  0.49812399  1
  Mo  Mo162  1  0.89328620  0.49612149  0.37050725  1
  Mo  Mo163  1  0.41962397  0.58848359  0.24778686  1
  Mo  Mo164  1  0.19230686  0.19548324  0.75885814  1
  Mo  Mo165  1  0.01188120  0.60140835  0.00555148  1
  Mo  Mo166  1  0.39982752  0.59261396  0.75260901  1
  Mo  Mo167  1  0.39626621  0.19557430  0.26282179  1
  Mo  Mo168  1  0.50552615  0.68874152  0.63438973  1
  Mo  Mo169  1  0.79834637  0.80191527  0.25242165  1
  Mo  Mo170  1  0.89025008  0.69193778  0.37767867  1
  Mo  Mo171  1  0.40960289  0.19858981  0.00544137  1
  Mo  Mo172  1  0.30686967  0.30056366  0.87995155  1
  Mo  Mo173  1  -0.00375922  0.39801088  0.25208160  1
  Mo  Mo174  1  0.29300262  0.10292192  0.36052058  1
  Mo  Mo175  1  0.79789963  0.59813161  -0.01031380  1
  Mo  Mo176  1  0.70124079  0.11392919  0.86808040  1
  Mo  Mo177  1  0.00572106  0.39691507  -0.00223930  1
  Mo  Mo178  1  0.70498388  0.90598205  0.87917931  1
  Mo  Mo179  1  0.09286867  0.11213468  0.36119494  1
  Mo  Mo180  1  0.69053080  0.50159616  0.62885782  1
  Mo  Mo181  1  0.89204710  0.29240447  0.12869480  1
  Mo  Mo182  1  0.49779922  0.50393698  0.12772431  1
  Mo  Mo183  1  0.10274768  0.47991145  0.38283778  1
  Mo  Mo184  1  0.79395413  0.81442206  -0.01505650  1
  Mo  Mo185  1  0.18662926  0.20169245  0.23768119  1
  Mo  Mo186  1  0.30212101  0.89133191  0.38064892  1
  Mo  Mo187  1  0.00672229  0.20881045  0.75230315  1
  Mo  Mo188  1  0.20594922  0.57697395  0.49045555  1
  Mo  Mo189  1  0.30301684  0.09158866  0.88244212  1
  Mo  Mo190  1  -0.00122654  0.00947552  -0.01218009  1
  Mo  Mo191  1  0.60473600  -0.00654604  0.49724263  1
  Mo  Mo192  1  0.41925438  0.58677810  0.49413708  1
  Mo  Mo193  1  0.08527945  0.29950409  0.62448826  1
  Mo  Mo194  1  0.29824909  0.90005302  0.13051319  1
  Mo  Mo195  1  0.18807991  0.19386692  0.49011945  1
  Mo  Mo196  1  0.38607475  0.40886377  0.26088668  1
  Mo  Mo197  1  0.90457120  0.70067223  0.62908500  1
  Mo  Mo198  1  0.50910089  0.89656229  0.62719222  1
  Mo  Mo199  1  0.11389299  0.49724386  0.12488205  1
