# generated using pymatgen
data_HfZrTaTiMo
_symmetry_space_group_name_H-M   'P 1'
_cell_length_a   15.22610662
_cell_length_b   15.20637725
_cell_length_c   16.81762355
_cell_angle_alpha   89.99199797
_cell_angle_beta   90.02462610
_cell_angle_gamma   90.09454511
_symmetry_Int_Tables_number   1
_chemical_formula_structural   HfZrTaTiMo
_chemical_formula_sum   'Hf40 Zr40 Ta40 Ti40 Mo40'
_cell_volume   3893.84462854
_cell_formula_units_Z   40
loop_
 _symmetry_equiv_pos_site_id
 _symmetry_equiv_pos_as_xyz
  1  'x, y, z'
loop_
 _atom_site_type_symbol
 _atom_site_label
 _atom_site_symmetry_multiplicity
 _atom_site_fract_x
 _atom_site_fract_y
 _atom_site_fract_z
 _atom_site_occupancy
  Hf  Hf0  1  0.49137287  0.09856533  0.61780426  1
  Hf  Hf1  1  0.49468983  0.70881630  0.35973751  1
  Hf  Hf2  1  0.89974189  0.50359919  0.87542305  1
  Hf  Hf3  1  0.80860629  0.20237686  0.48821665  1
  Hf  Hf4  1  -0.00772743  0.38582381  0.75289929  1
  Hf  Hf5  1  0.48591866  0.90874624  0.88876157  1
  Hf  Hf6  1  0.39588596  0.19990729  0.75366188  1
  Hf  Hf7  1  0.49890515  0.30440956  0.61961456  1
  Hf  Hf8  1  0.11337792  0.70314413  0.87261926  1
  Hf  Hf9  1  0.50113550  0.69217983  0.62391404  1
  Hf  Hf10  1  0.59300657  0.80189771  0.76330444  1
  Hf  Hf11  1  0.91675868  0.29677796  0.13078976  1
  Hf  Hf12  1  0.90466398  0.70518382  0.36519018  1
  Hf  Hf13  1  0.11282924  0.71621446  0.63870086  1
  Hf  Hf14  1  0.20383785  0.38733740  0.23969807  1
  Hf  Hf15  1  0.50025907  0.47697680  0.37765298  1
  Hf  Hf16  1  0.69980416  0.30982258  0.61844856  1
  Hf  Hf17  1  0.79843773  0.80724813  0.74791734  1
  Hf  Hf18  1  0.90231426  0.49475972  0.36900670  1
  Hf  Hf19  1  0.49478004  0.89337478  0.61725161  1
  Hf  Hf20  1  0.10165544  0.09425934  0.87524934  1
  Hf  Hf21  1  0.29391465  0.10068851  0.61441151  1
  Hf  Hf22  1  0.91530237  0.70424281  0.86525422  1
  Hf  Hf23  1  -0.01498239  -0.00857914  0.51350623  1
  Hf  Hf24  1  0.70063962  0.32496832  0.38479809  1
  Hf  Hf25  1  0.71261646  0.90997456  0.37371529  1
  Hf  Hf26  1  0.10020849  0.09924510  0.35860504  1
  Hf  Hf27  1  0.59758028  0.20350003  0.48188038  1
  Hf  Hf28  1  0.19376367  -0.01777693  0.74683517  1
  Hf  Hf29  1  0.39099222  0.61463476  -0.00097343  1
  Hf  Hf30  1  -0.00200879  0.01289956  0.01570792  1
  Hf  Hf31  1  0.18309447  -0.00488675  0.49845178  1
  Hf  Hf32  1  0.79198069  0.41920032  0.74661202  1
  Hf  Hf33  1  0.28787119  0.29782613  0.38498491  1
  Hf  Hf34  1  0.90863437  0.68186113  0.64775505  1
  Hf  Hf35  1  0.30320066  0.69513296  0.14132970  1
  Hf  Hf36  1  0.28223765  0.88681971  0.89309614  1
  Hf  Hf37  1  0.20964790  -0.00412839  0.23809714  1
  Hf  Hf38  1  0.81300792  0.80972446  0.50829249  1
  Hf  Hf39  1  0.41035957  0.58649283  0.76090154  1
  Zr  Zr40  1  0.67862530  0.10290274  0.12611744  1
  Zr  Zr41  1  0.59541446  0.00591439  0.75313444  1
  Zr  Zr42  1  0.61709088  0.60102147  0.76390249  1
  Zr  Zr43  1  0.60240127  0.40022870  0.23854699  1
  Zr  Zr44  1  0.31391305  0.09163111  0.11894507  1
  Zr  Zr45  1  0.81863044  0.19922735  -0.00403976  1
  Zr  Zr46  1  0.30713991  0.89391765  0.37745590  1
  Zr  Zr47  1  0.29123067  0.88740841  0.61130716  1
  Zr  Zr48  1  0.69304951  0.50816052  0.61377672  1
  Zr  Zr49  1  0.00587433  0.19347938  0.48791178  1
  Zr  Zr50  1  0.80712097  0.60179158  0.23541978  1
  Zr  Zr51  1  0.20117224  0.59392923  0.48552728  1
  Zr  Zr52  1  0.00695705  0.61158651  0.49669489  1
  Zr  Zr53  1  0.81855640  0.61305781  0.00911630  1
  Zr  Zr54  1  0.38095666  0.79156110  0.76027423  1
  Zr  Zr55  1  0.58755569  0.01015673  0.25831068  1
  Zr  Zr56  1  0.89265450  0.07884151  0.36208229  1
  Zr  Zr57  1  0.60495057  0.61134452  0.24989657  1
  Zr  Zr58  1  0.59511510  0.61546028  0.48838394  1
  Zr  Zr59  1  0.78825462  -0.00923956  0.01310894  1
  Zr  Zr60  1  0.39672994  0.39163977  0.01086496  1
  Zr  Zr61  1  0.79430702  0.20250310  0.26360813  1
  Zr  Zr62  1  0.60155701  0.20169381  -0.01565756  1
  Zr  Zr63  1  0.09476004  0.50902223  0.63472987  1
  Zr  Zr64  1  0.70648354  0.51574973  0.38112796  1
  Zr  Zr65  1  0.89878687  0.90770816  0.87990737  1
  Zr  Zr66  1  0.70772167  0.31282172  0.87341199  1
  Zr  Zr67  1  0.50086764  0.51752962  0.12100138  1
  Zr  Zr68  1  0.60979410  0.81360527  -0.00266478  1
  Zr  Zr69  1  0.30529037  0.68601652  0.61790515  1
  Zr  Zr70  1  0.10789473  0.29488671  0.61840799  1
  Zr  Zr71  1  -0.00357216  0.40088797  0.49538337  1
  Zr  Zr72  1  0.39456547  0.18996122  0.25347253  1
  Zr  Zr73  1  0.60584349  -0.00422891  0.49549705  1
  Zr  Zr74  1  0.70031865  0.71155280  0.62093762  1
  Zr  Zr75  1  0.70650295  0.30279695  0.12191676  1
  Zr  Zr76  1  0.29650318  0.49635630  0.88709797  1
  Zr  Zr77  1  0.80546818  0.80794020  0.22768779  1
  Zr  Zr78  1  0.69724978  0.11421970  0.63204396  1
  Zr  Zr79  1  0.20462553  0.39427104  0.75310409  1
  Ta  Ta80  1  0.39817870  0.39478941  0.75194917  1
  Ta  Ta81  1  0.19383622  -0.00643567  0.01510276  1
  Ta  Ta82  1  -0.00591238  0.00644101  0.73748126  1
  Ta  Ta83  1  0.48293561  0.08918823  0.38535813  1
  Ta  Ta84  1  0.21253985  0.60504839  0.75610264  1
  Ta  Ta85  1  0.19953400  0.19295516  0.75274298  1
  Ta  Ta86  1  0.80590744  0.00908725  0.73994943  1
  Ta  Ta87  1  0.49618700  0.72543828  0.12538388  1
  Ta  Ta88  1  0.01999584  0.59595814  0.00560965  1
  Ta  Ta89  1  0.39647833  0.19570624  -0.00298934  1
  Ta  Ta90  1  0.20134866  0.58753285  0.25849477  1
  Ta  Ta91  1  0.09116514  0.89242069  0.36257585  1
  Ta  Ta92  1  0.29646218  0.09155315  0.88502954  1
  Ta  Ta93  1  0.09033175  0.89560039  0.89030163  1
  Ta  Ta94  1  0.49435047  0.10375020  0.87518617  1
  Ta  Ta95  1  0.18816795  0.19626688  0.01493088  1
  Ta  Ta96  1  0.60010463  0.40522769  0.00381549  1
  Ta  Ta97  1  0.00009133  0.39204803  -0.00432472  1
  Ta  Ta98  1  0.49845446  0.92686400  0.10953413  1
  Ta  Ta99  1  0.39868649  0.39047211  0.23759472  1
  Ta  Ta100  1  0.39671422  0.59188946  0.48614894  1
  Ta  Ta101  1  0.50008304  0.28270382  0.12406445  1
  Ta  Ta102  1  0.09798409  0.49941169  0.87405488  1
  Ta  Ta103  1  0.09752087  0.70083705  0.35353300  1
  Ta  Ta104  1  0.19495477  0.77766906  0.01720923  1
  Ta  Ta105  1  0.58486166  0.40761051  0.75473773  1
  Ta  Ta106  1  0.18779114  0.39382079  0.00855724  1
  Ta  Ta107  1  0.69367160  0.70363497  0.11225603  1
  Ta  Ta108  1  0.81939404  0.21043914  0.75161924  1
  Ta  Ta109  1  0.09613017  0.68506482  0.14307607  1
  Ta  Ta110  1  0.70533968  0.50508428  0.11013324  1
  Ta  Ta111  1  0.20135755  0.80024184  0.24498198  1
  Ta  Ta112  1  0.29048991  0.50073086  0.12256932  1
  Ta  Ta113  1  -0.00853766  0.79359668  0.01793497  1
  Ta  Ta114  1  0.81520513  0.60101323  0.50278029  1
  Ta  Ta115  1  0.29544542  0.09380554  0.38226186  1
  Ta  Ta116  1  0.30118639  0.30003323  0.60945048  1
  Ta  Ta117  1  0.90951496  0.11191014  0.86814212  1
  Ta  Ta118  1  0.00690576  0.38476509  0.25977736  1
  Ta  Ta119  1  0.28839413  0.28679918  0.88365912  1
  Ti  Ti120  1  0.80092700  0.00833621  0.51873185  1
  Ti  Ti121  1  0.91316081  0.49959832  0.12940174  1
  Ti  Ti122  1  0.80763292  0.40251000  0.00255278  1
  Ti  Ti123  1  0.50299993  0.70000676  0.88992024  1
  Ti  Ti124  1  0.39957073  0.58942686  0.25315592  1
  Ti  Ti125  1  0.30082739  0.69787576  0.36043794  1
  Ti  Ti126  1  0.60127213  0.21243466  0.76049113  1
  Ti  Ti127  1  -0.00194697  -0.01128277  0.23309847  1
  Ti  Ti128  1  0.18917448  0.20141007  0.23228403  1
  Ti  Ti129  1  0.49947697  0.89592696  0.37940810  1
  Ti  Ti130  1  0.90864872  0.89294836  0.36557446  1
  Ti  Ti131  1  0.90530170  0.10485480  0.13911963  1
  Ti  Ti132  1  0.01098018  0.82040396  0.74584941  1
  Ti  Ti133  1  0.70152103  0.90955425  0.87270476  1
  Ti  Ti134  1  0.50628518  0.49888006  0.88853615  1
  Ti  Ti135  1  0.31439208  0.88792833  0.11537290  1
  Ti  Ti136  1  0.58921020  0.20710856  0.27184614  1
  Ti  Ti137  1  0.09487242  0.10243616  0.62904384  1
  Ti  Ti138  1  0.10761637  0.48752516  0.37096668  1
  Ti  Ti139  1  0.49153812  0.49330579  0.61248817  1
  Ti  Ti140  1  0.19142543  0.79036269  0.48373673  1
  Ti  Ti141  1  0.49185874  0.30719170  0.87589437  1
  Ti  Ti142  1  0.30390552  0.48949027  0.37419548  1
  Ti  Ti143  1  0.70426524  0.71829255  0.37767891  1
  Ti  Ti144  1  0.09490064  0.49125346  0.13141940  1
  Ti  Ti145  1  0.09955490  0.89077724  0.12563477  1
  Ti  Ti146  1  0.79149322  -0.00289582  0.23195341  1
  Ti  Ti147  1  0.30210690  0.48964501  0.61827172  1
  Ti  Ti148  1  0.70773662  0.09963054  0.86695703  1
  Ti  Ti149  1  0.39683098  0.20095561  0.49148120  1
  Ti  Ti150  1  0.40725905  0.78828648  0.49307427  1
  Ti  Ti151  1  0.80433254  0.40269871  0.24404328  1
  Ti  Ti152  1  0.89985365  0.29986449  0.62119287  1
  Ti  Ti153  1  0.00726373  0.80471767  0.50655322  1
  Ti  Ti154  1  0.39088788  -0.00174526  0.75383852  1
  Ti  Ti155  1  0.09059226  0.28862254  0.87847705  1
  Ti  Ti156  1  0.69785540  0.51225117  0.89436560  1
  Ti  Ti157  1  0.71414841  0.70703553  0.88954026  1
  Ti  Ti158  1  0.69495931  0.90391778  0.62638892  1
  Ti  Ti159  1  0.59950341  0.81642862  0.23759270  1
  Mo  Mo160  1  0.09514250  0.09893292  0.13765492  1
  Mo  Mo161  1  0.39408391  0.00389488  -0.00619525  1
  Mo  Mo162  1  0.90258130  0.30275866  0.36628861  1
  Mo  Mo163  1  0.09437288  0.90131291  0.62301882  1
  Mo  Mo164  1  0.39666625  0.80059627  0.00516282  1
  Mo  Mo165  1  0.89354333  0.49398690  0.62509693  1
  Mo  Mo166  1  0.40280414  -0.01128871  0.25110773  1
  Mo  Mo167  1  0.90233005  0.90392279  0.12291668  1
  Mo  Mo168  1  0.30027603  0.29823328  0.11830010  1
  Mo  Mo169  1  0.79856548  0.60542992  0.76552296  1
  Mo  Mo170  1  0.10106934  0.29883776  0.37539165  1
  Mo  Mo171  1  0.19951078  0.19380874  0.49770159  1
  Mo  Mo172  1  0.00570092  0.19632027  0.74719338  1
  Mo  Mo173  1  0.59364828  0.40167926  0.50099147  1
  Mo  Mo174  1  0.91186230  0.69440917  0.12758588  1
  Mo  Mo175  1  0.89562959  0.89716028  0.63197865  1
  Mo  Mo176  1  0.69676210  0.10135190  0.37416328  1
  Mo  Mo177  1  0.19734134  0.80103474  0.75605323  1
  Mo  Mo178  1  0.00821004  0.20263655  0.00081895  1
  Mo  Mo179  1  0.80608083  0.80292121  0.01070559  1
  Mo  Mo180  1  0.59860972  0.01111827  -0.01551893  1
  Mo  Mo181  1  0.00410922  0.19672645  0.25715210  1
  Mo  Mo182  1  0.01008805  0.59137901  0.75601740  1
  Mo  Mo183  1  0.19222122  0.59212773  0.01060426  1
  Mo  Mo184  1  0.60201869  0.80619584  0.49229988  1
  Mo  Mo185  1  0.00559621  0.80077853  0.23707496  1
  Mo  Mo186  1  0.20204593  0.40117061  0.49879410  1
  Mo  Mo187  1  0.39441178  0.40047078  0.50118133  1
  Mo  Mo188  1  0.09706368  0.29879091  0.12190480  1
  Mo  Mo189  1  0.90007499  0.11031064  0.63061020  1
  Mo  Mo190  1  0.40617469  0.81477828  0.24388614  1
  Mo  Mo191  1  0.60188826  0.60552708  -0.00465150  1
  Mo  Mo192  1  0.80775510  0.40771256  0.50975278  1
  Mo  Mo193  1  0.00890363  0.58626330  0.25151190  1
  Mo  Mo194  1  0.68695357  0.89861580  0.12656211  1
  Mo  Mo195  1  0.39612260  -0.00201499  0.49831707  1
  Mo  Mo196  1  0.90611917  0.30343356  0.87656437  1
  Mo  Mo197  1  0.48951827  0.29567065  0.37169108  1
  Mo  Mo198  1  0.50078188  0.10628114  0.11807880  1
  Mo  Mo199  1  0.29923988  0.69520452  0.88187872  1
