# generated using pymatgen
data_HfZrTaTiMo
_symmetry_space_group_name_H-M   'P 1'
_cell_length_a   15.21661796
_cell_length_b   15.21159711
_cell_length_c   16.83449702
_cell_angle_alpha   90.01136885
_cell_angle_beta   89.99425920
_cell_angle_gamma   89.80713030
_symmetry_Int_Tables_number   1
_chemical_formula_structural   HfZrTaTiMo
_chemical_formula_sum   'Hf40 Zr40 Ta40 Ti40 Mo40'
_cell_volume   3896.64305927
_cell_formula_units_Z   40
loop_
 _symmetry_equiv_pos_site_id
 _symmetry_equiv_pos_as_xyz
  1  'x, y, z'
loop_
 _atom_site_type_symbol
 _atom_site_label
 _atom_site_symmetry_multiplicity
 _atom_site_fract_x
 _atom_site_fract_y
 _atom_site_fract_z
 _atom_site_occupancy
  Hf  Hf0  1  0.39004786  0.18082065  0.48689704  1
  Hf  Hf1  1  -0.01080223  0.19909740  0.00044937  1
  Hf  Hf2  1  0.29477537  0.11344273  0.87324026  1
  Hf  Hf3  1  -0.00623284  0.00443130  0.51279995  1
  Hf  Hf4  1  0.51445691  0.69768304  0.13871645  1
  Hf  Hf5  1  0.20263869  0.41289705  0.74088557  1
  Hf  Hf6  1  0.10636085  0.29879312  0.87835352  1
  Hf  Hf7  1  0.58902950  0.39078573  0.73569212  1
  Hf  Hf8  1  0.39468174  0.59775461  0.73345352  1
  Hf  Hf9  1  0.31502749  0.50773910  0.14696665  1
  Hf  Hf10  1  -0.00314188  0.60435924  0.00339995  1
  Hf  Hf11  1  0.79969611  0.80715767  0.49073807  1
  Hf  Hf12  1  0.10070227  0.10061141  0.86614008  1
  Hf  Hf13  1  0.00871487  0.00456667  0.00952567  1
  Hf  Hf14  1  0.89200688  0.30428770  0.38255490  1
  Hf  Hf15  1  0.30952482  0.69068427  0.87754352  1
  Hf  Hf16  1  0.88360368  0.51260327  0.60728426  1
  Hf  Hf17  1  0.10693967  0.70135582  0.12426572  1
  Hf  Hf18  1  0.48982055  0.28594365  0.61598067  1
  Hf  Hf19  1  0.31253995  0.70471366  0.13336794  1
  Hf  Hf20  1  -0.00182457  -0.00347364  0.73268855  1
  Hf  Hf21  1  0.59535714  -0.00735813  -0.00806251  1
  Hf  Hf22  1  0.79514858  -0.00429716  0.25130361  1
  Hf  Hf23  1  0.78977695  0.40745290  0.24924185  1
  Hf  Hf24  1  0.31074864  0.89995858  0.61010266  1
  Hf  Hf25  1  0.71078033  0.70058856  0.62520165  1
  Hf  Hf26  1  -0.00431166  0.59263189  0.24208254  1
  Hf  Hf27  1  0.50786625  0.29949367  0.87533213  1
  Hf  Hf28  1  0.40793029  0.00140687  -0.00789859  1
  Hf  Hf29  1  0.31417972  0.10186143  0.63301112  1
  Hf  Hf30  1  0.78962248  0.19853970  0.25405373  1
  Hf  Hf31  1  0.70185559  0.68771506  0.38198311  1
  Hf  Hf32  1  0.60063812  0.80710886  0.26970549  1
  Hf  Hf33  1  0.70430979  0.12599317  0.88753400  1
  Hf  Hf34  1  0.69500810  0.88332480  0.12385556  1
  Hf  Hf35  1  0.67878817  0.29533115  0.37653957  1
  Hf  Hf36  1  0.10916823  0.48583518  0.11762235  1
  Hf  Hf37  1  0.79692226  0.59885680  0.24774460  1
  Hf  Hf38  1  0.20999886  0.80207166  0.74192635  1
  Hf  Hf39  1  0.88052780  0.50940492  0.87574214  1
  Zr  Zr40  1  0.61427290  0.77499379  -0.00597509  1
  Zr  Zr41  1  0.79435769  0.18682571  0.50482818  1
  Zr  Zr42  1  0.80705736  -0.00563078  -0.00377060  1
  Zr  Zr43  1  0.20205434  0.61766578  0.26629903  1
  Zr  Zr44  1  0.89426981  0.30103821  0.61936401  1
  Zr  Zr45  1  0.59408037  0.58491057  0.72389669  1
  Zr  Zr46  1  0.08568664  0.50909801  0.38259658  1
  Zr  Zr47  1  0.10754153  0.90457760  0.37840234  1
  Zr  Zr48  1  0.01069554  0.39187131  0.50819385  1
  Zr  Zr49  1  0.30214627  0.09682980  0.13494891  1
  Zr  Zr50  1  0.30107906  0.30620977  0.13860125  1
  Zr  Zr51  1  0.59812446  0.00366921  0.76933878  1
  Zr  Zr52  1  0.40551695  -0.01073665  0.76595989  1
  Zr  Zr53  1  0.41631088  0.80511649  -0.00178539  1
  Zr  Zr54  1  0.10042094  0.89658502  0.87137595  1
  Zr  Zr55  1  -0.00097968  0.40508389  0.74631022  1
  Zr  Zr56  1  0.19058814  0.40297485  0.26032150  1
  Zr  Zr57  1  -0.00787727  0.20226504  0.74574449  1
  Zr  Zr58  1  0.20465076  -0.00108382  0.00663136  1
  Zr  Zr59  1  0.01419031  0.01092633  0.24310985  1
  Zr  Zr60  1  0.00882915  0.80333113  0.50538781  1
  Zr  Zr61  1  0.89165430  0.72605258  0.87328924  1
  Zr  Zr62  1  0.10845391  0.10793685  0.62894157  1
  Zr  Zr63  1  0.00170759  0.80878599  0.00391445  1
  Zr  Zr64  1  0.90369523  0.89834534  0.13511304  1
  Zr  Zr65  1  -0.00629326  0.39527988  0.00070896  1
  Zr  Zr66  1  0.00273805  0.80412937  0.73371311  1
  Zr  Zr67  1  0.39845338  0.20838624  -0.00112731  1
  Zr  Zr68  1  0.77786096  0.39021102  0.00327318  1
  Zr  Zr69  1  -0.00082056  0.60326028  0.74734729  1
  Zr  Zr70  1  0.70395514  0.67566280  0.84885889  1
  Zr  Zr71  1  0.78452160  0.40993487  0.74427762  1
  Zr  Zr72  1  0.79818419  0.00083830  0.75068022  1
  Zr  Zr73  1  0.29695490  0.28778379  0.36377833  1
  Zr  Zr74  1  0.51325964  0.48745915  0.13453409  1
  Zr  Zr75  1  0.77205635  0.60737369  0.01559007  1
  Zr  Zr76  1  0.20221381  0.60455909  0.74312581  1
  Zr  Zr77  1  0.29964314  0.31428312  0.61257391  1
  Zr  Zr78  1  0.18602563  0.21230512  0.49957414  1
  Zr  Zr79  1  0.11407605  0.50202343  0.88734640  1
  Ta  Ta80  1  0.17550732  0.19334192  0.24241837  1
  Ta  Ta81  1  0.42755705  0.38345924  0.26676803  1
  Ta  Ta82  1  0.88855600  0.70748682  0.12621919  1
  Ta  Ta83  1  0.59971065  0.59718764  0.50961370  1
  Ta  Ta84  1  0.59271398  0.18007497  0.50149696  1
  Ta  Ta85  1  0.41654550  0.59844785  0.00291305  1
  Ta  Ta86  1  -0.00972061  0.39035105  0.24330797  1
  Ta  Ta87  1  0.40345691  0.79309242  0.27636290  1
  Ta  Ta88  1  0.51242434  0.49342042  0.38308735  1
  Ta  Ta89  1  0.91436156  0.69174636  0.38183012  1
  Ta  Ta90  1  0.50287360  0.10687936  0.13361009  1
  Ta  Ta91  1  0.68831184  0.08681294  0.37379681  1
  Ta  Ta92  1  0.31434468  0.50456351  0.37296333  1
  Ta  Ta93  1  0.11331790  0.70321804  0.60950080  1
  Ta  Ta94  1  0.09922363  0.10666096  0.37825079  1
  Ta  Ta95  1  0.59618346  0.80516645  0.74735443  1
  Ta  Ta96  1  0.78699608  0.19899952  0.73674241  1
  Ta  Ta97  1  0.22070209  0.59205363  0.00460212  1
  Ta  Ta98  1  0.60116040  0.80230937  0.49161946  1
  Ta  Ta99  1  0.90318241  0.10009764  0.37386677  1
  Ta  Ta100  1  0.40864808  0.79797350  0.48026985  1
  Ta  Ta101  1  0.50244760  0.89797008  0.61119360  1
  Ta  Ta102  1  0.67395619  0.30446177  0.13693663  1
  Ta  Ta103  1  0.40922082  -0.00912486  0.25759957  1
  Ta  Ta104  1  0.48947399  0.50211168  0.87232346  1
  Ta  Ta105  1  0.69895478  0.10621673  0.11814806  1
  Ta  Ta106  1  0.50634762  0.08420218  0.62378901  1
  Ta  Ta107  1  0.21082221  0.79732627  0.00337486  1
  Ta  Ta108  1  0.21177058  0.01000119  0.49644154  1
  Ta  Ta109  1  0.39520787  0.40247889  0.74896993  1
  Ta  Ta110  1  0.20813746  0.21570995  0.74566555  1
  Ta  Ta111  1  0.40864675  0.20274521  0.75770117  1
  Ta  Ta112  1  0.80529497  0.79525951  0.26556653  1
  Ta  Ta113  1  0.90194129  0.90385945  0.37192225  1
  Ta  Ta114  1  0.71816385  0.87832785  0.87317638  1
  Ta  Ta115  1  0.88809844  0.29642191  0.12897516  1
  Ta  Ta116  1  0.00687929  0.79338964  0.25603603  1
  Ta  Ta117  1  0.89767899  0.10929330  0.12983697  1
  Ta  Ta118  1  0.87422378  0.28893266  0.87288813  1
  Ta  Ta119  1  0.59920724  0.00561984  0.24397676  1
  Ti  Ti120  1  0.20911781  0.80795201  0.26326717  1
  Ti  Ti121  1  0.50690088  0.69305258  0.86613651  1
  Ti  Ti122  1  0.10326789  0.50951302  0.60795231  1
  Ti  Ti123  1  0.58701860  0.40301719  0.00042145  1
  Ti  Ti124  1  0.20999772  -0.00025516  0.25399568  1
  Ti  Ti125  1  0.49754610  0.70966838  0.61545582  1
  Ti  Ti126  1  0.12077326  0.89703433  0.13416709  1
  Ti  Ti127  1  0.67942942  0.48879264  0.87282894  1
  Ti  Ti128  1  0.88220321  0.89613591  0.62338767  1
  Ti  Ti129  1  0.31902626  0.89486064  0.13472826  1
  Ti  Ti130  1  0.51450447  0.91806719  0.38897804  1
  Ti  Ti131  1  0.30556071  0.70406211  0.60200842  1
  Ti  Ti132  1  0.68766125  0.90788547  0.62433562  1
  Ti  Ti133  1  0.48136952  0.48755451  0.60380665  1
  Ti  Ti134  1  0.20341670  -0.00229326  0.74458068  1
  Ti  Ti135  1  0.30899733  0.91034952  0.38637725  1
  Ti  Ti136  1  0.60141443  0.19472922  0.74595106  1
  Ti  Ti137  1  0.59887704  0.20854843  0.00673715  1
  Ti  Ti138  1  0.89953277  0.09647777  0.87404906  1
  Ti  Ti139  1  0.20568785  0.40802790  0.48532784  1
  Ti  Ti140  1  0.89089468  0.49763680  0.11914417  1
  Ti  Ti141  1  0.29691310  0.51022640  0.59824420  1
  Ti  Ti142  1  0.49608564  0.10770430  0.36256102  1
  Ti  Ti143  1  0.90173077  0.69980787  0.61903418  1
  Ti  Ti144  1  0.39073688  0.40912178  0.00184770  1
  Ti  Ti145  1  0.78943912  0.00046884  0.50099384  1
  Ti  Ti146  1  0.40881390  0.79727555  0.74893303  1
  Ti  Ti147  1  0.70593150  0.49195912  0.39513611  1
  Ti  Ti148  1  0.89249313  0.50266858  0.39314259  1
  Ti  Ti149  1  0.30146324  0.89246075  0.87643457  1
  Ti  Ti150  1  0.40588396  0.60289267  0.48724252  1
  Ti  Ti151  1  0.69255380  0.29737541  0.61288642  1
  Ti  Ti152  1  0.19894993  0.61670706  0.48183894  1
  Ti  Ti153  1  0.18887379  0.21091299  0.01856974  1
  Ti  Ti154  1  0.60240864  0.58551601  0.26129825  1
  Ti  Ti155  1  0.29915309  0.31927438  0.87751958  1
  Ti  Ti156  1  0.08414720  0.29495531  0.36896485  1
  Ti  Ti157  1  0.59278119  0.39249924  0.50482665  1
  Ti  Ti158  1  -0.00442361  0.19493291  0.50838534  1
  Ti  Ti159  1  0.10952488  0.70086549  0.88384698  1
  Mo  Mo160  1  0.41054641  0.00196102  0.48899697  1
  Mo  Mo161  1  0.40041062  0.19106037  0.25589739  1
  Mo  Mo162  1  0.69268349  0.50125744  0.12896170  1
  Mo  Mo163  1  0.79481580  0.20311578  0.01159312  1
  Mo  Mo164  1  0.09874941  0.10271122  0.12626465  1
  Mo  Mo165  1  0.49629985  0.29589364  0.12502828  1
  Mo  Mo166  1  0.29110547  0.08940593  0.36018695  1
  Mo  Mo167  1  0.50423026  0.69069320  0.37954955  1
  Mo  Mo168  1  0.80469254  0.59782847  0.74248422  1
  Mo  Mo169  1  0.90031651  0.90809914  0.87142040  1
  Mo  Mo170  1  0.21452369  0.39607761  0.00490119  1
  Mo  Mo171  1  0.49954067  0.29324194  0.38907018  1
  Mo  Mo172  1  0.00439705  0.60539133  0.50539093  1
  Mo  Mo173  1  0.59057888  0.58619382  -0.00551250  1
  Mo  Mo174  1  0.09806801  0.70833317  0.37512648  1
  Mo  Mo175  1  0.30995366  0.49824259  0.87890756  1
  Mo  Mo176  1  0.08907855  0.29250340  0.12560340  1
  Mo  Mo177  1  -0.01044579  0.20607576  0.25261657  1
  Mo  Mo178  1  0.69241167  0.49196047  0.60303616  1
  Mo  Mo179  1  0.88963845  0.09399410  0.62103453  1
  Mo  Mo180  1  0.10519568  0.31188466  0.62882275  1
  Mo  Mo181  1  0.60475898  0.39874834  0.26348982  1
  Mo  Mo182  1  0.80047856  0.79882699  0.00456905  1
  Mo  Mo183  1  0.80058631  0.60701550  0.49352765  1
  Mo  Mo184  1  0.69541191  0.30438058  0.87013864  1
  Mo  Mo185  1  0.30124122  0.70706171  0.38487457  1
  Mo  Mo186  1  0.69853993  0.69635950  0.14717314  1
  Mo  Mo187  1  0.70496147  0.90332322  0.37651732  1
  Mo  Mo188  1  0.50710364  0.88312022  0.87139738  1
  Mo  Mo189  1  0.49359399  0.90499177  0.13825352  1
  Mo  Mo190  1  0.58407244  0.20283560  0.24699606  1
  Mo  Mo191  1  0.79680307  0.80510920  0.73566092  1
  Mo  Mo192  1  0.50338246  0.10634266  0.87776910  1
  Mo  Mo193  1  0.60561770  -0.00040344  0.49971238  1
  Mo  Mo194  1  0.39949580  0.40090569  0.48248782  1
  Mo  Mo195  1  0.69219376  0.09883110  0.62762344  1
  Mo  Mo196  1  0.78689476  0.39863505  0.49945119  1
  Mo  Mo197  1  0.11953874  0.90291475  0.61605219  1
  Mo  Mo198  1  0.41478904  0.59989890  0.27072470  1
  Mo  Mo199  1  0.21031926  0.80488230  0.49448342  1
