# generated using pymatgen
data_HfZrTaTiMo
_symmetry_space_group_name_H-M   'P 1'
_cell_length_a   15.21063852
_cell_length_b   15.22480334
_cell_length_c   16.85957650
_cell_angle_alpha   89.99394633
_cell_angle_beta   89.96651545
_cell_angle_gamma   89.92045357
_symmetry_Int_Tables_number   1
_chemical_formula_structural   HfZrTaTiMo
_chemical_formula_sum   'Hf40 Zr40 Ta40 Ti40 Mo40'
_cell_volume   3904.31907968
_cell_formula_units_Z   40
loop_
 _symmetry_equiv_pos_site_id
 _symmetry_equiv_pos_as_xyz
  1  'x, y, z'
loop_
 _atom_site_type_symbol
 _atom_site_label
 _atom_site_symmetry_multiplicity
 _atom_site_fract_x
 _atom_site_fract_y
 _atom_site_fract_z
 _atom_site_occupancy
  Hf  Hf0  1  0.08562881  0.48094665  0.36502803  1
  Hf  Hf1  1  0.20596756  0.00343176  0.23504902  1
  Hf  Hf2  1  0.30373980  0.71335677  0.13068369  1
  Hf  Hf3  1  0.19595395  0.79766540  0.49666983  1
  Hf  Hf4  1  0.11523695  0.89263498  0.11258877  1
  Hf  Hf5  1  0.29544355  0.08521185  0.62426652  1
  Hf  Hf6  1  0.48749699  0.30657541  0.87121402  1
  Hf  Hf7  1  0.10056080  0.90240439  0.62801473  1
  Hf  Hf8  1  0.39791363  0.39869300  0.73540332  1
  Hf  Hf9  1  0.50168502  0.10246120  0.87101798  1
  Hf  Hf10  1  0.58468792  0.00471361  0.50560273  1
  Hf  Hf11  1  0.48910163  0.29506532  0.12620442  1
  Hf  Hf12  1  0.08106702  0.31225162  0.11322609  1
  Hf  Hf13  1  0.00464511  0.59143625  0.49872248  1
  Hf  Hf14  1  0.69851277  0.09956937  0.38419169  1
  Hf  Hf15  1  0.10926415  0.51061477  0.87202038  1
  Hf  Hf16  1  0.70986134  0.91687194  0.87639637  1
  Hf  Hf17  1  0.09695627  0.91707924  0.37626979  1
  Hf  Hf18  1  0.30277004  0.28749736  0.61481263  1
  Hf  Hf19  1  0.78972783  0.39000530  0.75250457  1
  Hf  Hf20  1  -0.00655969  0.21878544  0.25702299  1
  Hf  Hf21  1  0.28488461  0.29348490  0.38744075  1
  Hf  Hf22  1  0.90615566  0.31759199  0.39623125  1
  Hf  Hf23  1  0.01059872  0.78266609  -0.00275607  1
  Hf  Hf24  1  0.29585914  0.69575213  0.88064396  1
  Hf  Hf25  1  0.58728201  0.58804167  0.49805758  1
  Hf  Hf26  1  0.90255097  0.29543864  0.61681272  1
  Hf  Hf27  1  0.80835861  -0.00500807  0.25120934  1
  Hf  Hf28  1  0.40057136  -0.00659173  0.24268150  1
  Hf  Hf29  1  0.59916953  0.20799785  0.74453643  1
  Hf  Hf30  1  0.59559437  0.80027412  0.73607929  1
  Hf  Hf31  1  0.50953773  0.88907269  0.87702589  1
  Hf  Hf32  1  0.00315261  0.01363988  0.24409075  1
  Hf  Hf33  1  0.07977940  0.10389164  0.10156530  1
  Hf  Hf34  1  0.89623612  0.51192858  0.63214378  1
  Hf  Hf35  1  0.69624827  0.30387144  0.61058724  1
  Hf  Hf36  1  0.90851652  0.09346788  0.38604147  1
  Hf  Hf37  1  0.90810422  0.49636729  0.86901750  1
  Hf  Hf38  1  0.49550888  0.31699895  0.38792542  1
  Hf  Hf39  1  0.30993234  0.49537305  0.37425499  1
  Zr  Zr40  1  0.89825165  0.08546183  0.88331040  1
  Zr  Zr41  1  0.90626631  0.28763093  0.87542535  1
  Zr  Zr42  1  0.30592674  0.91245148  0.38548763  1
  Zr  Zr43  1  0.39719936  0.19449899  0.25954032  1
  Zr  Zr44  1  0.60899639  0.60395990  0.25728547  1
  Zr  Zr45  1  0.58433300  0.40211497  0.24957512  1
  Zr  Zr46  1  0.10732947  0.90126594  0.88415618  1
  Zr  Zr47  1  0.58090776  0.41240742  0.00059067  1
  Zr  Zr48  1  0.59401204  0.00357405  0.25281085  1
  Zr  Zr49  1  0.69480676  0.11402140  0.13410341  1
  Zr  Zr50  1  0.01288071  0.39933892  0.73925803  1
  Zr  Zr51  1  0.00766415  0.59353771  0.00809404  1
  Zr  Zr52  1  0.80256444  0.60416816  -0.00227397  1
  Zr  Zr53  1  0.31248178  0.70459752  0.36570992  1
  Zr  Zr54  1  0.90430051  0.47969795  0.12338853  1
  Zr  Zr55  1  0.69068857  0.50407563  0.87481211  1
  Zr  Zr56  1  0.28720072  0.29483908  0.86713051  1
  Zr  Zr57  1  0.40254484  0.58450157  0.01190576  1
  Zr  Zr58  1  0.80108967  0.39440282  0.25250278  1
  Zr  Zr59  1  0.69875706  0.89814489  0.11956788  1
  Zr  Zr60  1  0.71550729  0.89506524  0.39136316  1
  Zr  Zr61  1  0.90643792  0.90834818  0.10625290  1
  Zr  Zr62  1  0.80557172  0.80636199  0.75275217  1
  Zr  Zr63  1  0.30528074  0.49256439  0.87211905  1
  Zr  Zr64  1  0.39961716  -0.00632320  0.75150278  1
  Zr  Zr65  1  -0.01779459  0.60605073  0.24916793  1
  Zr  Zr66  1  0.90185584  0.71596942  0.62439083  1
  Zr  Zr67  1  0.69039714  0.50487693  0.12001164  1
  Zr  Zr68  1  0.60846879  0.01231711  -0.00125570  1
  Zr  Zr69  1  0.19895363  0.38752478  0.24766130  1
  Zr  Zr70  1  0.71831488  0.89865445  0.60877899  1
  Zr  Zr71  1  0.09838488  0.70259704  0.36837475  1
  Zr  Zr72  1  0.79091479  0.38274082  -0.00795011  1
  Zr  Zr73  1  0.40370393  0.16810559  0.48402865  1
  Zr  Zr74  1  0.41312739  0.58850893  0.24068988  1
  Zr  Zr75  1  0.10175710  0.11505524  0.88259822  1
  Zr  Zr76  1  0.70252977  0.68124163  0.61711791  1
  Zr  Zr77  1  0.19473766  0.18992795  0.24024876  1
  Zr  Zr78  1  0.17420684  0.39759663  0.51030620  1
  Zr  Zr79  1  0.09998386  0.69707544  0.62629056  1
  Ta  Ta80  1  0.79719757  0.19955408  0.26088104  1
  Ta  Ta81  1  0.30528062  0.70022380  0.62442924  1
  Ta  Ta82  1  0.21204513  0.21314655  0.01063325  1
  Ta  Ta83  1  0.68902890  0.71012882  0.87384853  1
  Ta  Ta84  1  0.80431547  0.78984601  0.25146445  1
  Ta  Ta85  1  0.30716832  0.89875392  0.89103628  1
  Ta  Ta86  1  0.20960187  0.59570180  0.49990747  1
  Ta  Ta87  1  0.19623714  0.41476557  0.01064302  1
  Ta  Ta88  1  0.90936865  0.69705457  0.86541952  1
  Ta  Ta89  1  0.41622508  0.78801449  -0.00545104  1
  Ta  Ta90  1  0.40139912  0.60792793  0.74353182  1
  Ta  Ta91  1  0.70751028  0.69336852  0.38929186  1
  Ta  Ta92  1  0.59402034  0.79418197  0.50479378  1
  Ta  Ta93  1  0.61282219  0.00574719  0.73874882  1
  Ta  Ta94  1  0.20126721  0.59952707  0.24802091  1
  Ta  Ta95  1  0.59670270  0.40687621  0.74438562  1
  Ta  Ta96  1  0.29824839  0.89299643  0.62052038  1
  Ta  Ta97  1  0.50011801  0.89369123  0.38040453  1
  Ta  Ta98  1  0.10015336  0.70300742  0.14103565  1
  Ta  Ta99  1  0.30657186  0.10059036  0.88341824  1
  Ta  Ta100  1  -0.00233710  -0.00418402  0.74898982  1
  Ta  Ta101  1  0.49751513  0.30189496  0.61243721  1
  Ta  Ta102  1  0.80708054  0.00486725  0.73992038  1
  Ta  Ta103  1  0.70544659  0.70818475  0.12190905  1
  Ta  Ta104  1  0.19923633  0.60083832  0.74277412  1
  Ta  Ta105  1  0.88382169  0.51178990  0.38281177  1
  Ta  Ta106  1  0.90729387  0.89749124  0.88523517  1
  Ta  Ta107  1  0.79595452  0.18948469  0.74653684  1
  Ta  Ta108  1  0.10333095  0.50434220  0.13695626  1
  Ta  Ta109  1  0.50319001  0.50765500  0.62881789  1
  Ta  Ta110  1  0.21052464  0.80170244  0.75338895  1
  Ta  Ta111  1  0.51166944  0.70962719  0.12782096  1
  Ta  Ta112  1  0.69359797  0.49266664  0.38169741  1
  Ta  Ta113  1  0.70130075  0.30334585  0.39225837  1
  Ta  Ta114  1  0.21225666  0.00717297  0.00301636  1
  Ta  Ta115  1  -0.00689478  0.81113598  0.24820370  1
  Ta  Ta116  1  0.60019068  0.80079933  0.25785122  1
  Ta  Ta117  1  0.40695328  0.79128343  0.50671438  1
  Ta  Ta118  1  0.78195542  0.18357741  -0.00801475  1
  Ta  Ta119  1  0.80205981  0.79528605  -0.00841010  1
  Ti  Ti120  1  0.48492841  0.09791993  0.10809239  1
  Ti  Ti121  1  0.70517040  0.10050008  0.61445732  1
  Ti  Ti122  1  0.69660135  0.29886933  0.12828593  1
  Ti  Ti123  1  0.79118356  0.42196397  0.50952720  1
  Ti  Ti124  1  0.88884044  0.27693193  0.11487502  1
  Ti  Ti125  1  0.50353962  0.89299191  0.11489698  1
  Ti  Ti126  1  0.40538927  0.42272884  0.50956575  1
  Ti  Ti127  1  0.01336787  0.20513393  0.49749726  1
  Ti  Ti128  1  0.80471093  0.19325960  0.49989898  1
  Ti  Ti129  1  0.49592679  0.51491535  0.86480513  1
  Ti  Ti130  1  0.59026131  0.62202367  -0.00404525  1
  Ti  Ti131  1  0.20319036  0.19539329  0.74696052  1
  Ti  Ti132  1  0.59795233  0.20419928  0.26748063  1
  Ti  Ti133  1  0.39992318  0.79370864  0.75256962  1
  Ti  Ti134  1  0.38301064  0.38147390  0.00771397  1
  Ti  Ti135  1  -0.00059702  0.19140877  0.74586954  1
  Ti  Ti136  1  0.79422570  0.60128746  0.75774867  1
  Ti  Ti137  1  0.29587344  0.50621993  0.62165806  1
  Ti  Ti138  1  0.59589775  0.60485169  0.74703888  1
  Ti  Ti139  1  -0.01679600  0.81955294  0.49501530  1
  Ti  Ti140  1  0.79653106  0.60398047  0.24985784  1
  Ti  Ti141  1  0.20902641  0.80878200  0.25238640  1
  Ti  Ti142  1  0.59713212  0.21361902  -0.00926495  1
  Ti  Ti143  1  0.19981116  0.39898325  0.73442939  1
  Ti  Ti144  1  0.10004860  0.28698103  0.62602273  1
  Ti  Ti145  1  0.10063920  0.09734197  0.63160548  1
  Ti  Ti146  1  0.59666491  0.20062960  0.49715849  1
  Ti  Ti147  1  0.31761789  0.90358466  0.10419431  1
  Ti  Ti148  1  0.00887968  0.00819835  0.50548509  1
  Ti  Ti149  1  0.49393507  0.10690665  0.63417012  1
  Ti  Ti150  1  0.01160379  0.79809079  0.76029288  1
  Ti  Ti151  1  0.19198189  0.17634455  0.49509254  1
  Ti  Ti152  1  0.90467382  0.09461166  0.61974472  1
  Ti  Ti153  1  0.50050350  0.69814153  0.37476602  1
  Ti  Ti154  1  0.19842468  0.61281490  0.01467249  1
  Ti  Ti155  1  0.30471956  0.48574972  0.13573797  1
  Ti  Ti156  1  0.89335050  0.71093274  0.38511794  1
  Ti  Ti157  1  0.09657863  0.31108896  0.88877384  1
  Ti  Ti158  1  0.49167293  0.89996506  0.62473787  1
  Ti  Ti159  1  0.20088551  -0.00222629  0.76087298  1
  Mo  Mo160  1  0.91382897  0.91058729  0.62680454  1
  Mo  Mo161  1  0.10449577  0.50242802  0.63213498  1
  Mo  Mo162  1  0.79943571  0.60030018  0.49611394  1
  Mo  Mo163  1  -0.00822545  0.40017696  0.51686670  1
  Mo  Mo164  1  0.49662914  0.50433246  0.38155044  1
  Mo  Mo165  1  0.68864910  0.28860792  0.87039241  1
  Mo  Mo166  1  0.28968835  0.08806419  0.37628972  1
  Mo  Mo167  1  0.59813327  0.39867416  0.50733823  1
  Mo  Mo168  1  0.10533542  0.69917111  0.86546603  1
  Mo  Mo169  1  0.40151531  0.19530605  -0.00085409  1
  Mo  Mo170  1  0.49441475  0.70359476  0.62669701  1
  Mo  Mo171  1  0.29704405  0.29924669  0.12180425  1
  Mo  Mo172  1  0.21299051  0.79495366  0.00247460  1
  Mo  Mo173  1  -0.00862771  0.39955154  0.25272404  1
  Mo  Mo174  1  0.60654237  0.79485367  -0.00175329  1
  Mo  Mo175  1  0.89384905  0.70718644  0.12997321  1
  Mo  Mo176  1  0.41712038  0.80691944  0.24527661  1
  Mo  Mo177  1  0.40551319  -0.00442004  -0.00345691  1
  Mo  Mo178  1  0.39270473  0.60322388  0.50555758  1
  Mo  Mo179  1  0.49993604  0.69420455  0.86858056  1
  Mo  Mo180  1  0.81795051  0.00234750  0.51014051  1
  Mo  Mo181  1  0.49530831  0.50191178  0.12074210  1
  Mo  Mo182  1  0.69737460  0.49971557  0.63647586  1
  Mo  Mo183  1  0.50024197  0.08994622  0.37270716  1
  Mo  Mo184  1  0.30605370  0.10053617  0.10821827  1
  Mo  Mo185  1  0.88784105  0.10785944  0.11813106  1
  Mo  Mo186  1  0.80418010  0.79797697  0.49798742  1
  Mo  Mo187  1  0.80327255  0.00061590  0.00118016  1
  Mo  Mo188  1  0.39512979  0.39227054  0.24926833  1
  Mo  Mo189  1  0.19706560  0.00135897  0.50608659  1
  Mo  Mo190  1  0.10770191  0.10604264  0.37787855  1
  Mo  Mo191  1  0.09448515  0.28930764  0.38407253  1
  Mo  Mo192  1  0.40387423  -0.01687060  0.50967293  1
  Mo  Mo193  1  0.00199151  0.60821346  0.75396878  1
  Mo  Mo194  1  0.00515857  0.40025788  -0.00592918  1
  Mo  Mo195  1  0.69934800  0.10702244  0.86299770  1
  Mo  Mo196  1  -0.01016848  0.20768826  -0.00334532  1
  Mo  Mo197  1  0.90695326  0.89596546  0.37232392  1
  Mo  Mo198  1  0.39643346  0.19907490  0.73915384  1
  Mo  Mo199  1  0.00426025  -0.00260576  -0.00268620  1
