# generated using pymatgen
data_HfZrTaTiMo
_symmetry_space_group_name_H-M   'P 1'
_cell_length_a   15.20818304
_cell_length_b   15.21211936
_cell_length_c   16.85119967
_cell_angle_alpha   90.04709859
_cell_angle_beta   89.98100897
_cell_angle_gamma   89.94799480
_symmetry_Int_Tables_number   1
_chemical_formula_structural   HfZrTaTiMo
_chemical_formula_sum   'Hf40 Zr40 Ta40 Ti40 Mo40'
_cell_volume   3898.49992552
_cell_formula_units_Z   40
loop_
 _symmetry_equiv_pos_site_id
 _symmetry_equiv_pos_as_xyz
  1  'x, y, z'
loop_
 _atom_site_type_symbol
 _atom_site_label
 _atom_site_symmetry_multiplicity
 _atom_site_fract_x
 _atom_site_fract_y
 _atom_site_fract_z
 _atom_site_occupancy
  Hf  Hf0  1  0.10402666  0.08990510  0.36971633  1
  Hf  Hf1  1  0.28723407  0.50541082  0.12738661  1
  Hf  Hf2  1  0.67766256  0.48958994  0.10715575  1
  Hf  Hf3  1  0.70629300  0.09810407  0.12428075  1
  Hf  Hf4  1  0.50680466  0.90325984  0.11666858  1
  Hf  Hf5  1  0.21177818  0.78008358  0.51020979  1
  Hf  Hf6  1  0.30093856  0.09891328  0.87754669  1
  Hf  Hf7  1  0.20201494  0.40285417  0.75145788  1
  Hf  Hf8  1  0.60521539  0.60045728  0.74878228  1
  Hf  Hf9  1  0.89131526  0.28926660  0.88026851  1
  Hf  Hf10  1  0.80927561  0.20095157  0.24145527  1
  Hf  Hf11  1  0.08824639  0.29703241  0.62435796  1
  Hf  Hf12  1  0.48533880  0.49770411  0.62972207  1
  Hf  Hf13  1  0.50103966  0.30556353  0.36793449  1
  Hf  Hf14  1  0.80523625  0.00045821  0.50469445  1
  Hf  Hf15  1  0.51627110  0.90524601  0.87241562  1
  Hf  Hf16  1  0.49308060  0.49859146  0.88286514  1
  Hf  Hf17  1  0.70499718  0.11385401  0.64146938  1
  Hf  Hf18  1  0.18761257  0.61186372  0.73763154  1
  Hf  Hf19  1  0.29933655  0.09212683  0.12496807  1
  Hf  Hf20  1  0.91520695  0.68609693  0.62830216  1
  Hf  Hf21  1  0.20361966  0.17972182  0.51362599  1
  Hf  Hf22  1  0.08142779  0.49974468  0.63222505  1
  Hf  Hf23  1  0.19919480  -0.01437862  -0.00407123  1
  Hf  Hf24  1  0.90086245  0.50443009  0.88283564  1
  Hf  Hf25  1  0.19306317  -0.01060868  0.74822846  1
  Hf  Hf26  1  0.28214218  0.71232060  0.87857903  1
  Hf  Hf27  1  0.19094570  0.19359166  0.74986718  1
  Hf  Hf28  1  0.59846841  0.00772847  0.25351002  1
  Hf  Hf29  1  0.70351812  0.69479777  0.62262878  1
  Hf  Hf30  1  0.39509013  -0.00541933  0.75488472  1
  Hf  Hf31  1  0.60743609  0.80395436  0.50406441  1
  Hf  Hf32  1  0.81514417  0.81387171  0.74091837  1
  Hf  Hf33  1  0.39161089  0.81459521  -0.01117894  1
  Hf  Hf34  1  0.29156082  0.52129106  0.36833239  1
  Hf  Hf35  1  0.89373187  0.29316399  0.63670828  1
  Hf  Hf36  1  -0.01466877  0.17853729  0.75878646  1
  Hf  Hf37  1  0.50472877  0.30166624  0.63523079  1
  Hf  Hf38  1  0.48008005  0.70322370  0.38369863  1
  Hf  Hf39  1  0.59783077  0.78837504  0.24965177  1
  Zr  Zr40  1  0.78440736  0.40446335  0.24657717  1
  Zr  Zr41  1  0.80134121  0.20055917  0.49814778  1
  Zr  Zr42  1  0.40211561  0.20681234  0.00412113  1
  Zr  Zr43  1  0.49921031  0.89972402  0.62070087  1
  Zr  Zr44  1  0.00703480  0.80147302  0.50340427  1
  Zr  Zr45  1  0.41031509  0.19636132  0.24625296  1
  Zr  Zr46  1  0.49943974  0.91277532  0.38394304  1
  Zr  Zr47  1  0.19974060  0.19751414  0.24074307  1
  Zr  Zr48  1  0.19329744  0.20455209  -0.00119349  1
  Zr  Zr49  1  0.41122359  0.19418534  0.50265574  1
  Zr  Zr50  1  0.89283185  0.48584559  0.10730659  1
  Zr  Zr51  1  0.88984183  0.49468708  0.63602276  1
  Zr  Zr52  1  0.78766257  0.40257018  0.75919034  1
  Zr  Zr53  1  0.38870704  0.59947149  0.74809773  1
  Zr  Zr54  1  0.50491994  0.09719561  0.64063381  1
  Zr  Zr55  1  0.02210553  0.80329931  0.73524545  1
  Zr  Zr56  1  0.48595199  0.50919734  0.12116052  1
  Zr  Zr57  1  0.11192654  0.68751457  0.36528990  1
  Zr  Zr58  1  0.29492781  0.30656404  0.37923388  1
  Zr  Zr59  1  0.30209688  0.31306418  0.62107356  1
  Zr  Zr60  1  0.69396073  0.49709393  0.89966608  1
  Zr  Zr61  1  0.30330629  0.89583370  0.13104576  1
  Zr  Zr62  1  0.11156021  0.89799024  0.36366972  1
  Zr  Zr63  1  0.71043703  0.89477783  0.12432766  1
  Zr  Zr64  1  -0.00934444  0.38996339  0.24408339  1
  Zr  Zr65  1  0.09893224  0.29358439  0.38116895  1
  Zr  Zr66  1  0.31162522  0.08270078  0.37545632  1
  Zr  Zr67  1  0.90497140  0.09591669  0.36838743  1
  Zr  Zr68  1  0.70594731  0.71340078  0.87243614  1
  Zr  Zr69  1  0.49116046  0.30300486  0.86929192  1
  Zr  Zr70  1  0.69770537  0.30172823  0.36766525  1
  Zr  Zr71  1  0.00856776  0.60379563  0.01007306  1
  Zr  Zr72  1  0.78829059  0.60398106  0.23876864  1
  Zr  Zr73  1  0.30124410  0.69922675  0.11752423  1
  Zr  Zr74  1  0.10017565  0.91105036  0.14595013  1
  Zr  Zr75  1  0.79333989  0.62534563  0.01195899  1
  Zr  Zr76  1  0.79116123  0.40356241  0.49677805  1
  Zr  Zr77  1  0.81034285  0.80328757  0.50500285  1
  Zr  Zr78  1  0.50363976  0.70261701  0.87797152  1
  Zr  Zr79  1  0.69905022  0.69442586  0.37933646  1
  Ta  Ta80  1  0.60656775  0.20636558  0.00184483  1
  Ta  Ta81  1  0.50664888  0.10040970  0.11699172  1
  Ta  Ta82  1  0.11441865  0.87900650  0.87750198  1
  Ta  Ta83  1  0.70860431  0.90534727  0.37101512  1
  Ta  Ta84  1  0.60350350  0.01622933  0.49640867  1
  Ta  Ta85  1  0.91143174  0.08299865  0.11873838  1
  Ta  Ta86  1  0.90613529  0.30095199  0.37290356  1
  Ta  Ta87  1  0.91042313  0.71294804  0.87312377  1
  Ta  Ta88  1  -0.00808911  0.40022657  0.49420979  1
  Ta  Ta89  1  0.59271505  0.40039186  0.49925033  1
  Ta  Ta90  1  0.39070929  0.60352844  -0.00571921  1
  Ta  Ta91  1  0.08810782  0.08089850  0.62472462  1
  Ta  Ta92  1  0.72027037  0.91664518  0.86916847  1
  Ta  Ta93  1  -0.00431805  0.59531205  0.24181428  1
  Ta  Ta94  1  0.31124793  0.88515040  0.38667683  1
  Ta  Ta95  1  0.60571327  0.20380401  0.49994490  1
  Ta  Ta96  1  0.51623604  0.10767758  0.86286992  1
  Ta  Ta97  1  0.19403960  0.40532791  0.24794388  1
  Ta  Ta98  1  0.82574248  0.01508736  0.74585440  1
  Ta  Ta99  1  0.09065885  0.49467933  0.37107903  1
  Ta  Ta100  1  0.38936111  0.20348280  0.74861542  1
  Ta  Ta101  1  0.58809689  0.58684970  0.49643848  1
  Ta  Ta102  1  0.70195086  0.91515436  0.63464035  1
  Ta  Ta103  1  0.60557790  0.80756864  0.74300267  1
  Ta  Ta104  1  0.09677106  0.30225998  0.12000354  1
  Ta  Ta105  1  0.61542822  0.01091026  -0.01064083  1
  Ta  Ta106  1  0.37732033  0.61112498  0.51055381  1
  Ta  Ta107  1  0.92091976  0.91172870  0.87922540  1
  Ta  Ta108  1  0.51265297  0.31048194  0.12696976  1
  Ta  Ta109  1  0.80096535  0.59493299  0.49378877  1
  Ta  Ta110  1  0.80442382  0.80076093  0.25379915  1
  Ta  Ta111  1  0.08045977  0.07878048  0.87840634  1
  Ta  Ta112  1  0.10605870  0.70046200  0.13791216  1
  Ta  Ta113  1  0.00683791  0.38367210  -0.01035459  1
  Ta  Ta114  1  0.19445313  0.40468077  -0.00386510  1
  Ta  Ta115  1  0.29076461  0.50503692  0.88162050  1
  Ta  Ta116  1  0.90575280  0.69439661  0.36980146  1
  Ta  Ta117  1  0.00022785  0.18378964  -0.00099567  1
  Ta  Ta118  1  0.40115517  0.41787415  0.49213027  1
  Ta  Ta119  1  0.09413229  0.69141155  0.87667440  1
  Ti  Ti120  1  0.69608681  0.10122209  0.36962061  1
  Ti  Ti121  1  0.00595210  -0.00385823  0.50125127  1
  Ti  Ti122  1  -0.00488229  0.79766254  0.25118814  1
  Ti  Ti123  1  0.69463172  0.30638123  0.63424690  1
  Ti  Ti124  1  0.79598024  0.18567355  -0.00109130  1
  Ti  Ti125  1  0.89398676  0.50239894  0.37162043  1
  Ti  Ti126  1  0.80403734  0.60701370  0.75879506  1
  Ti  Ti127  1  0.89932386  0.71247240  0.13017627  1
  Ti  Ti128  1  0.69105853  0.49839089  0.62234107  1
  Ti  Ti129  1  0.19494566  0.41683688  0.50360953  1
  Ti  Ti130  1  0.09798907  0.49741512  0.12414458  1
  Ti  Ti131  1  0.50676709  0.70145663  0.11472631  1
  Ti  Ti132  1  0.89495490  0.28924497  0.10621325  1
  Ti  Ti133  1  0.49755688  0.70207952  0.62151048  1
  Ti  Ti134  1  0.61579656  0.79931309  0.00125381  1
  Ti  Ti135  1  0.29323509  0.30869062  0.87255170  1
  Ti  Ti136  1  0.00924440  0.80510677  0.00777083  1
  Ti  Ti137  1  0.30031007  0.31042701  0.12890399  1
  Ti  Ti138  1  0.40252826  0.41071080  0.25299489  1
  Ti  Ti139  1  0.21440049  0.80227393  0.72774204  1
  Ti  Ti140  1  0.90594672  0.89798775  0.36862524  1
  Ti  Ti141  1  0.09656990  0.49581700  0.87065996  1
  Ti  Ti142  1  0.00359524  0.18976971  0.23431753  1
  Ti  Ti143  1  0.39077049  0.39940116  0.00371196  1
  Ti  Ti144  1  0.60579474  0.20889996  0.23949887  1
  Ti  Ti145  1  0.39561485  0.62140679  0.24970505  1
  Ti  Ti146  1  0.59058515  0.57939152  0.26250797  1
  Ti  Ti147  1  0.30297949  0.91363142  0.60643961  1
  Ti  Ti148  1  0.39942358  0.80069030  0.75092929  1
  Ti  Ti149  1  0.68860320  0.29534722  0.87664843  1
  Ti  Ti150  1  0.40223926  -0.00999031  0.24936669  1
  Ti  Ti151  1  -0.00417801  0.19398621  0.50237319  1
  Ti  Ti152  1  0.41232773  0.00757415  -0.01008973  1
  Ti  Ti153  1  0.22582597  0.79033612  0.25741948  1
  Ti  Ti154  1  0.90455707  0.90106339  0.12720753  1
  Ti  Ti155  1  0.59258320  0.40454074  0.75425989  1
  Ti  Ti156  1  0.81283001  0.81604706  -0.00231487  1
  Ti  Ti157  1  0.71000897  0.10802080  0.86336047  1
  Ti  Ti158  1  0.80932189  -0.00460781  0.25249465  1
  Ti  Ti159  1  0.00358311  0.59459585  0.49320270  1
  Mo  Mo160  1  0.11047493  0.89997101  0.61448296  1
  Mo  Mo161  1  0.61483318  -0.00228908  0.76019936  1
  Mo  Mo162  1  0.39589992  0.00689717  0.50391703  1
  Mo  Mo163  1  0.29773511  0.09786250  0.62978418  1
  Mo  Mo164  1  0.58883619  0.40148225  0.24790001  1
  Mo  Mo165  1  0.79327382  0.20342432  0.75639871  1
  Mo  Mo166  1  0.00412447  -0.01135454  0.00376094  1
  Mo  Mo167  1  0.88906936  0.08704474  0.88782258  1
  Mo  Mo168  1  0.60255455  0.20908878  0.75722063  1
  Mo  Mo169  1  -0.00556765  0.59782833  0.76347119  1
  Mo  Mo170  1  0.68738869  0.50139347  0.38062118  1
  Mo  Mo171  1  0.00282745  -0.01128753  0.75092994  1
  Mo  Mo172  1  0.58844454  0.61200560  0.00221929  1
  Mo  Mo173  1  0.31085589  0.70644466  0.63229869  1
  Mo  Mo174  1  0.30159925  0.89895550  0.87064327  1
  Mo  Mo175  1  0.49145807  0.50381005  0.37599287  1
  Mo  Mo176  1  0.58607449  0.39094509  -0.00249536  1
  Mo  Mo177  1  0.80533238  -0.00224887  -0.00205473  1
  Mo  Mo178  1  -0.00405821  -0.00062244  0.24960913  1
  Mo  Mo179  1  0.90596756  0.09971887  0.61954220  1
  Mo  Mo180  1  0.19305303  0.59404769  -0.00338466  1
  Mo  Mo181  1  0.30046973  0.70356113  0.37378106  1
  Mo  Mo182  1  0.51585124  0.10733158  0.37551252  1
  Mo  Mo183  1  0.19014610  0.59683743  0.24561705  1
  Mo  Mo184  1  0.09708816  0.29594430  0.87375032  1
  Mo  Mo185  1  0.29066864  0.50245685  0.61695469  1
  Mo  Mo186  1  0.18279132  0.79089936  0.00359674  1
  Mo  Mo187  1  0.19199577  0.59040048  0.51087013  1
  Mo  Mo188  1  0.09676347  0.10317014  0.12485658  1
  Mo  Mo189  1  0.40455784  0.80128165  0.50886210  1
  Mo  Mo190  1  0.70263112  0.29628655  0.11749720  1
  Mo  Mo191  1  0.00565239  0.39102143  0.77469578  1
  Mo  Mo192  1  0.19627261  -0.00895093  0.50679335  1
  Mo  Mo193  1  0.40862901  0.80052996  0.24829720  1
  Mo  Mo194  1  0.38948367  0.40138035  0.75613725  1
  Mo  Mo195  1  0.21093368  -0.00319898  0.25315336  1
  Mo  Mo196  1  0.91417946  0.91955496  0.62456543  1
  Mo  Mo197  1  0.69257051  0.70194482  0.12619214  1
  Mo  Mo198  1  0.10256330  0.69085888  0.61808532  1
  Mo  Mo199  1  0.78972794  0.37334802  0.00095230  1
