# generated using pymatgen
data_HfZrTaTiMo
_symmetry_space_group_name_H-M   'P 1'
_cell_length_a   15.21169158
_cell_length_b   15.22001855
_cell_length_c   16.85977932
_cell_angle_alpha   89.91976446
_cell_angle_beta   90.06220246
_cell_angle_gamma   90.19614265
_symmetry_Int_Tables_number   1
_chemical_formula_structural   HfZrTaTiMo
_chemical_formula_sum   'Hf40 Zr40 Ta40 Ti40 Mo40'
_cell_volume   3903.38469153
_cell_formula_units_Z   40
loop_
 _symmetry_equiv_pos_site_id
 _symmetry_equiv_pos_as_xyz
  1  'x, y, z'
loop_
 _atom_site_type_symbol
 _atom_site_label
 _atom_site_symmetry_multiplicity
 _atom_site_fract_x
 _atom_site_fract_y
 _atom_site_fract_z
 _atom_site_occupancy
  Hf  Hf0  1  0.68943432  0.29541657  0.37359160  1
  Hf  Hf1  1  0.60576488  0.00008845  0.73828201  1
  Hf  Hf2  1  0.91814632  0.89013830  0.62597800  1
  Hf  Hf3  1  0.20824075  0.62044585  0.50396407  1
  Hf  Hf4  1  0.52046834  0.90319438  0.88100260  1
  Hf  Hf5  1  0.80697899  0.19451024  0.00597340  1
  Hf  Hf6  1  0.68815412  0.68584882  0.37898372  1
  Hf  Hf7  1  0.59562134  0.41997209  -0.01026922  1
  Hf  Hf8  1  0.69951065  0.49148466  0.38154829  1
  Hf  Hf9  1  0.00659859  0.79515790  0.75547163  1
  Hf  Hf10  1  0.29787733  0.70293869  0.86333737  1
  Hf  Hf11  1  0.81252253  0.38876249  0.52278992  1
  Hf  Hf12  1  0.70598927  0.70942097  0.86123531  1
  Hf  Hf13  1  0.10234444  0.09772605  0.14343558  1
  Hf  Hf14  1  0.00311044  0.39960625  0.00406133  1
  Hf  Hf15  1  0.09320743  0.69032174  0.88568854  1
  Hf  Hf16  1  0.60173656  0.20358420  -0.00872419  1
  Hf  Hf17  1  0.91267112  0.70566865  0.37786666  1
  Hf  Hf18  1  0.19345845  0.60864968  0.73986558  1
  Hf  Hf19  1  0.71415454  0.89400613  0.62575571  1
  Hf  Hf20  1  0.19876335  0.21262051  0.74527121  1
  Hf  Hf21  1  0.48494546  0.30068742  0.87074119  1
  Hf  Hf22  1  0.00455677  0.00015499  0.00229747  1
  Hf  Hf23  1  0.50347394  0.49384065  0.64123777  1
  Hf  Hf24  1  0.20707466  0.00586512  0.00532032  1
  Hf  Hf25  1  0.78791920  0.59245651  0.00230442  1
  Hf  Hf26  1  0.28062890  0.30438137  0.87902078  1
  Hf  Hf27  1  0.90665373  0.50124761  0.38221230  1
  Hf  Hf28  1  0.20271379  0.40479019  0.26770804  1
  Hf  Hf29  1  0.10710752  0.90088217  0.87349651  1
  Hf  Hf30  1  0.29980712  0.30474051  0.13160364  1
  Hf  Hf31  1  0.42708963  0.00494905  0.25656628  1
  Hf  Hf32  1  0.30980647  0.11053628  0.62123779  1
  Hf  Hf33  1  0.48879093  0.68754805  0.65268508  1
  Hf  Hf34  1  0.58949362  0.80561581  0.25060580  1
  Hf  Hf35  1  0.91079459  0.29588711  0.86899097  1
  Hf  Hf36  1  0.10440892  0.50203433  0.12439607  1
  Hf  Hf37  1  0.68534264  0.08341149  0.13452944  1
  Hf  Hf38  1  0.40880805  0.78856298  -0.01598065  1
  Hf  Hf39  1  0.30631960  0.51516191  0.62215385  1
  Zr  Zr40  1  0.47597236  0.69888687  0.12914645  1
  Zr  Zr41  1  0.28601001  0.31064866  0.60637566  1
  Zr  Zr42  1  0.81132127  0.79210377  0.50516202  1
  Zr  Zr43  1  0.78786725  0.18776163  0.51095267  1
  Zr  Zr44  1  0.40612564  0.40473887  0.48856972  1
  Zr  Zr45  1  0.79744221  -0.01185459  0.00256429  1
  Zr  Zr46  1  0.10640290  0.11732036  0.87586183  1
  Zr  Zr47  1  0.60269687  0.39428879  0.51349923  1
  Zr  Zr48  1  0.31601604  0.52492533  0.37527054  1
  Zr  Zr49  1  0.48395012  0.88767266  0.38900145  1
  Zr  Zr50  1  0.21226538  -0.00583838  0.25941719  1
  Zr  Zr51  1  0.60301397  0.00158665  0.51476420  1
  Zr  Zr52  1  0.00116809  0.40819129  0.25491685  1
  Zr  Zr53  1  0.90406704  0.10080071  0.14212797  1
  Zr  Zr54  1  0.19851752  0.82434087  0.49797030  1
  Zr  Zr55  1  0.70929489  0.30262455  0.86296285  1
  Zr  Zr56  1  -0.00940924  0.59599960  0.73448343  1
  Zr  Zr57  1  0.51941788  0.90586787  0.10490061  1
  Zr  Zr58  1  0.90080601  0.09477156  0.87138750  1
  Zr  Zr59  1  -0.00010403  0.19635815  0.49351120  1
  Zr  Zr60  1  0.49087598  0.10941639  0.10896688  1
  Zr  Zr61  1  0.58919437  0.18861722  0.74606590  1
  Zr  Zr62  1  0.80702610  0.78687096  0.24223820  1
  Zr  Zr63  1  0.69963031  0.88961331  0.38317103  1
  Zr  Zr64  1  0.20371580  0.59258264  0.00028419  1
  Zr  Zr65  1  0.89409417  0.29285862  0.36878828  1
  Zr  Zr66  1  0.80386512  -0.02067091  0.25262487  1
  Zr  Zr67  1  0.68776467  0.29868973  0.12928669  1
  Zr  Zr68  1  0.79577980  0.59343962  0.24034438  1
  Zr  Zr69  1  0.56683357  0.19873899  0.25044186  1
  Zr  Zr70  1  0.79572464  0.59347768  0.51868232  1
  Zr  Zr71  1  0.20493890  0.61567173  0.24387543  1
  Zr  Zr72  1  0.31053391  0.73055006  0.36772779  1
  Zr  Zr73  1  0.17362845  0.41079228  0.47204118  1
  Zr  Zr74  1  -0.00369158  0.39483029  0.73947903  1
  Zr  Zr75  1  0.58939652  0.77231782  0.51664835  1
  Zr  Zr76  1  0.31484568  0.89391703  0.12470011  1
  Zr  Zr77  1  0.41751326  0.40088622  0.26511500  1
  Zr  Zr78  1  0.68994835  0.09509704  0.36521488  1
  Zr  Zr79  1  0.79692663  0.39429096  0.00934829  1
  Ta  Ta80  1  0.00219433  0.61306798  0.24557599  1
  Ta  Ta81  1  0.10570622  0.09961140  0.62055580  1
  Ta  Ta82  1  0.20290638  0.80319401  0.00560867  1
  Ta  Ta83  1  0.31885968  0.50878795  0.13090402  1
  Ta  Ta84  1  0.59169722  0.58959818  0.24606722  1
  Ta  Ta85  1  0.90132609  0.50391089  0.12401780  1
  Ta  Ta86  1  0.48944930  0.50566071  0.85583589  1
  Ta  Ta87  1  0.79834141  0.79370762  0.00210031  1
  Ta  Ta88  1  0.68132099  0.69523248  0.11646256  1
  Ta  Ta89  1  -0.00432913  0.79928853  -0.00331425  1
  Ta  Ta90  1  0.59652937  0.39450498  0.75063797  1
  Ta  Ta91  1  0.58674231  0.61576912  -0.01985710  1
  Ta  Ta92  1  0.09856685  0.71903245  0.62012820  1
  Ta  Ta93  1  0.91387266  0.08200571  0.36269192  1
  Ta  Ta94  1  0.80264486  0.19174224  0.73621673  1
  Ta  Ta95  1  0.00360348  0.60254648  0.51267975  1
  Ta  Ta96  1  0.40774806  0.01227767  0.75223910  1
  Ta  Ta97  1  0.00172306  0.19512317  0.73595706  1
  Ta  Ta98  1  0.39761935  0.81006467  0.75398029  1
  Ta  Ta99  1  0.89263161  0.49829704  0.87210029  1
  Ta  Ta100  1  0.60238533  0.80510170  0.74648741  1
  Ta  Ta101  1  0.79368718  0.40130632  0.23806992  1
  Ta  Ta102  1  0.20022067  0.01795950  0.48879122  1
  Ta  Ta103  1  0.30500707  0.90932541  0.86963591  1
  Ta  Ta104  1  0.29819582  0.90885702  0.63566539  1
  Ta  Ta105  1  0.40145701  0.59152072  -0.01272152  1
  Ta  Ta106  1  0.89328969  0.88615452  0.86932615  1
  Ta  Ta107  1  0.81592719  -0.00181972  0.49519361  1
  Ta  Ta108  1  0.30302341  0.11024144  0.13418395  1
  Ta  Ta109  1  0.31800081  0.10814027  0.37754581  1
  Ta  Ta110  1  0.20519414  0.00710220  0.75129266  1
  Ta  Ta111  1  0.08660382  0.90576306  0.37129195  1
  Ta  Ta112  1  0.48124136  0.28505804  0.63217417  1
  Ta  Ta113  1  0.00885085  0.20695527  0.00875326  1
  Ta  Ta114  1  0.69801930  0.08777181  0.87301176  1
  Ta  Ta115  1  0.10112793  0.29221087  0.14215697  1
  Ta  Ta116  1  0.70470609  0.68934691  0.65156231  1
  Ta  Ta117  1  0.00616688  0.00286814  0.74918078  1
  Ta  Ta118  1  0.09333087  0.70727327  0.11293857  1
  Ta  Ta119  1  0.09019448  0.29956410  0.61021889  1
  Ti  Ti120  1  0.70423443  0.49842896  0.64861285  1
  Ti  Ti121  1  0.39100987  0.40895931  -0.00425344  1
  Ti  Ti122  1  0.39839176  0.00080126  0.50166771  1
  Ti  Ti123  1  0.38671042  0.79573180  0.52108265  1
  Ti  Ti124  1  0.69619755  0.29636923  0.63960433  1
  Ti  Ti125  1  0.49650476  0.10010233  0.88159753  1
  Ti  Ti126  1  0.10738065  0.11338125  0.36049343  1
  Ti  Ti127  1  0.10842495  0.91206839  0.62913864  1
  Ti  Ti128  1  0.91605042  0.89289529  0.12299185  1
  Ti  Ti129  1  0.89746671  0.68878459  0.87827643  1
  Ti  Ti130  1  0.19539846  0.20425573  0.00769184  1
  Ti  Ti131  1  0.49105895  0.90020676  0.62736656  1
  Ti  Ti132  1  0.90763467  0.29780278  0.13778354  1
  Ti  Ti133  1  0.38345735  0.39188164  0.74787316  1
  Ti  Ti134  1  0.39943641  0.00508563  -0.00728445  1
  Ti  Ti135  1  0.80571840  -0.00662801  0.74853202  1
  Ti  Ti136  1  0.28946003  0.28722335  0.38372194  1
  Ti  Ti137  1  0.38693884  0.20558374  -0.00251124  1
  Ti  Ti138  1  0.00693892  -0.00840916  0.49744020  1
  Ti  Ti139  1  0.90255153  0.69612284  0.11413370  1
  Ti  Ti140  1  0.09292399  0.48924961  0.87639186  1
  Ti  Ti141  1  0.70234950  0.50352868  0.85452706  1
  Ti  Ti142  1  0.00722303  0.80659207  0.24237419  1
  Ti  Ti143  1  0.10138009  0.70541737  0.37683987  1
  Ti  Ti144  1  0.42428536  0.61040320  0.50314671  1
  Ti  Ti145  1  0.18877911  0.40636422  0.74561514  1
  Ti  Ti146  1  0.19799593  0.39522719  0.00606475  1
  Ti  Ti147  1  0.29142186  0.49819524  0.86616450  1
  Ti  Ti148  1  0.30750081  0.10622948  0.87066301  1
  Ti  Ti149  1  0.70280561  0.88801410  0.12131935  1
  Ti  Ti150  1  0.58588588  0.18974390  0.51985153  1
  Ti  Ti151  1  0.10039288  0.49652995  0.61503535  1
  Ti  Ti152  1  0.50610762  0.50402817  0.12003471  1
  Ti  Ti153  1  0.60264996  0.40597661  0.24902349  1
  Ti  Ti154  1  0.49360615  0.68566248  0.36558691  1
  Ti  Ti155  1  0.48868478  0.31062023  0.11671766  1
  Ti  Ti156  1  0.90433682  0.09021323  0.62492442  1
  Ti  Ti157  1  0.19576438  0.80589040  0.23895829  1
  Ti  Ti158  1  0.79586196  0.20073548  0.24838661  1
  Ti  Ti159  1  0.48711443  0.27261169  0.38807229  1
  Mo  Mo160  1  0.00725487  -0.01152096  0.25118810  1
  Mo  Mo161  1  0.90416644  0.49464953  0.61974674  1
  Mo  Mo162  1  0.90128808  0.28721166  0.62867196  1
  Mo  Mo163  1  0.29160857  0.69689467  0.11817928  1
  Mo  Mo164  1  0.51736818  0.51369676  0.38003226  1
  Mo  Mo165  1  0.09956345  0.89411406  0.11924984  1
  Mo  Mo166  1  0.61564055  0.79544925  -0.00525776  1
  Mo  Mo167  1  0.71252304  0.90200409  0.86498906  1
  Mo  Mo168  1  0.80043207  0.39682121  0.73856651  1
  Mo  Mo169  1  0.09572449  0.29596732  0.36598302  1
  Mo  Mo170  1  0.19499116  0.19702545  0.49217848  1
  Mo  Mo171  1  0.40569665  0.59988883  0.24560308  1
  Mo  Mo172  1  0.90323130  0.69926919  0.62602372  1
  Mo  Mo173  1  0.39819098  0.19488460  0.50063781  1
  Mo  Mo174  1  0.71100544  0.09608358  0.62768896  1
  Mo  Mo175  1  0.50010921  0.70030511  0.85720923  1
  Mo  Mo176  1  0.08965006  0.53104301  0.37535052  1
  Mo  Mo177  1  0.81120874  0.79696182  0.74739564  1
  Mo  Mo178  1  0.29726272  0.91607998  0.37849325  1
  Mo  Mo179  1  -0.00307085  0.40439292  0.50268931  1
  Mo  Mo180  1  0.38759797  0.80603285  0.24767048  1
  Mo  Mo181  1  0.60265399  -0.00855168  0.25147804  1
  Mo  Mo182  1  0.49450033  0.09334702  0.62364942  1
  Mo  Mo183  1  0.50141716  0.09775685  0.38908157  1
  Mo  Mo184  1  -0.01113569  0.59660380  -0.00193372  1
  Mo  Mo185  1  0.29737353  0.71718914  0.63596718  1
  Mo  Mo186  1  0.39273217  0.20087819  0.75680797  1
  Mo  Mo187  1  0.09860255  0.30729211  0.87749315  1
  Mo  Mo188  1  0.38748427  0.59311040  0.75754571  1
  Mo  Mo189  1  0.38934589  0.20437010  0.25435392  1
  Mo  Mo190  1  0.60000138  0.59681273  0.76492541  1
  Mo  Mo191  1  0.80625891  0.59366739  0.74877194  1
  Mo  Mo192  1  0.01146903  0.79985291  0.50073869  1
  Mo  Mo193  1  0.59698269  0.59501699  0.51268226  1
  Mo  Mo194  1  0.91027205  0.89703067  0.37934727  1
  Mo  Mo195  1  0.60736800  0.00439914  -0.01097535  1
  Mo  Mo196  1  0.00275909  0.20013740  0.26029753  1
  Mo  Mo197  1  0.20126364  0.81231943  0.74689365  1
  Mo  Mo198  1  0.20705466  0.20467356  0.25560805  1
  Mo  Mo199  1  0.68645793  0.50533475  0.12184668  1
