# generated using pymatgen
data_HfZrTaTiMo
_symmetry_space_group_name_H-M   'P 1'
_cell_length_a   15.19554054
_cell_length_b   15.20414195
_cell_length_c   16.84817683
_cell_angle_alpha   89.95347866
_cell_angle_beta   90.00161735
_cell_angle_gamma   89.99907581
_symmetry_Int_Tables_number   1
_chemical_formula_structural   HfZrTaTiMo
_chemical_formula_sum   'Hf40 Zr40 Ta40 Ti40 Mo40'
_cell_volume   3892.51986725
_cell_formula_units_Z   40
loop_
 _symmetry_equiv_pos_site_id
 _symmetry_equiv_pos_as_xyz
  1  'x, y, z'
loop_
 _atom_site_type_symbol
 _atom_site_label
 _atom_site_symmetry_multiplicity
 _atom_site_fract_x
 _atom_site_fract_y
 _atom_site_fract_z
 _atom_site_occupancy
  Hf  Hf0  1  0.87506430  0.29754973  0.11373023  1
  Hf  Hf1  1  0.88997741  0.48055163  0.37775224  1
  Hf  Hf2  1  0.60560819  0.59352026  0.73141051  1
  Hf  Hf3  1  0.48210126  0.70266922  0.61654668  1
  Hf  Hf4  1  0.89107534  0.69926267  0.39455410  1
  Hf  Hf5  1  0.80543857  0.79044319  0.25509514  1
  Hf  Hf6  1  0.19335906  0.59463102  0.01932879  1
  Hf  Hf7  1  0.28577976  0.10761654  0.88889718  1
  Hf  Hf8  1  0.69263350  0.28955803  0.85680082  1
  Hf  Hf9  1  0.39387479  0.58303552  0.48749665  1
  Hf  Hf10  1  0.11999981  0.90584209  0.87366014  1
  Hf  Hf11  1  0.00489913  0.41357005  0.00887312  1
  Hf  Hf12  1  0.70048509  0.11993213  0.12243759  1
  Hf  Hf13  1  0.70568002  0.70532494  0.60898545  1
  Hf  Hf14  1  -0.00320898  0.20861159  0.23059169  1
  Hf  Hf15  1  0.19364238  0.20595595  0.49102166  1
  Hf  Hf16  1  0.10424727  0.90962422  0.36169933  1
  Hf  Hf17  1  0.29690669  0.88871662  0.35189327  1
  Hf  Hf18  1  0.39024324  0.39836600  0.75066988  1
  Hf  Hf19  1  0.10633591  0.91208155  0.13208790  1
  Hf  Hf20  1  0.38452551  -0.01059769  -0.00066701  1
  Hf  Hf21  1  0.09503644  0.11275759  0.37005718  1
  Hf  Hf22  1  0.09226113  0.11521969  0.63023232  1
  Hf  Hf23  1  0.71185994  0.90645993  0.12482509  1
  Hf  Hf24  1  0.19126458  0.21264264  0.75040803  1
  Hf  Hf25  1  0.51030317  0.49553127  0.87163619  1
  Hf  Hf26  1  0.90396693  0.69002228  0.60879138  1
  Hf  Hf27  1  0.12675588  0.88647596  0.63681530  1
  Hf  Hf28  1  0.70585933  0.90283315  0.39089718  1
  Hf  Hf29  1  0.00973878  0.39103419  0.75963491  1
  Hf  Hf30  1  0.02482553  0.79685570  0.50405840  1
  Hf  Hf31  1  0.60353983  0.21911191  -0.00012064  1
  Hf  Hf32  1  0.48213413  0.09641506  0.62394131  1
  Hf  Hf33  1  0.29889631  0.30158288  0.60840175  1
  Hf  Hf34  1  0.29709140  0.49958706  0.88369090  1
  Hf  Hf35  1  0.49941111  0.69968322  0.37353775  1
  Hf  Hf36  1  0.10678799  0.70974509  0.35707032  1
  Hf  Hf37  1  0.09280398  0.69893503  0.13344300  1
  Hf  Hf38  1  0.51442599  0.89910532  0.88068497  1
  Hf  Hf39  1  -0.00710290  0.01176390  0.24096075  1
  Zr  Zr40  1  0.49233893  0.69036940  0.87559410  1
  Zr  Zr41  1  0.40469849  0.57992277  0.02180976  1
  Zr  Zr42  1  0.90962822  0.89889212  0.87408648  1
  Zr  Zr43  1  0.39957313  -0.00140238  0.76314957  1
  Zr  Zr44  1  -0.00341733  0.00291099  0.74427461  1
  Zr  Zr45  1  0.69696678  0.70370129  0.86383586  1
  Zr  Zr46  1  0.00772243  0.57885982  0.49241478  1
  Zr  Zr47  1  -0.00811968  0.59081935  0.74267179  1
  Zr  Zr48  1  0.69023361  0.10985259  0.36860734  1
  Zr  Zr49  1  0.80120873  0.60667747  -0.01066518  1
  Zr  Zr50  1  0.39677680  0.78445821  0.00701889  1
  Zr  Zr51  1  0.60593572  0.79465299  0.00621072  1
  Zr  Zr52  1  0.21705958  -0.00058939  0.50304704  1
  Zr  Zr53  1  0.20177858  0.41320300  0.47377425  1
  Zr  Zr54  1  0.19251146  0.61064191  0.74868191  1
  Zr  Zr55  1  0.60404654  0.80700917  0.25163847  1
  Zr  Zr56  1  0.39797058  0.37498448  0.00420885  1
  Zr  Zr57  1  0.80177273  -0.00332876  0.25061207  1
  Zr  Zr58  1  0.61736965  0.40896941  0.50104451  1
  Zr  Zr59  1  0.80836864  0.80556061  0.74349000  1
  Zr  Zr60  1  0.49844147  0.29861700  0.61859118  1
  Zr  Zr61  1  0.88933972  0.51213026  0.12603527  1
  Zr  Zr62  1  0.59019322  0.01309604  0.50474416  1
  Zr  Zr63  1  -0.01662659  0.59935013  0.25829772  1
  Zr  Zr64  1  0.80560596  0.80929781  -0.00606440  1
  Zr  Zr65  1  0.00428781  0.00791415  0.50878985  1
  Zr  Zr66  1  0.78707718  0.40189488  -0.01856874  1
  Zr  Zr67  1  0.69947806  0.69583979  0.39319829  1
  Zr  Zr68  1  0.49050131  0.11052930  0.11317222  1
  Zr  Zr69  1  0.01492887  0.20603384  0.01534748  1
  Zr  Zr70  1  0.08304828  0.69938875  0.88733254  1
  Zr  Zr71  1  0.39233956  0.59733814  0.74261588  1
  Zr  Zr72  1  0.38963132  0.20120816  0.75196815  1
  Zr  Zr73  1  0.20022388  0.61344307  0.48640300  1
  Zr  Zr74  1  0.50713439  0.10786359  0.88351189  1
  Zr  Zr75  1  0.37888695  0.80266622  0.75657689  1
  Zr  Zr76  1  0.80731804  0.40960762  0.76559041  1
  Zr  Zr77  1  0.38484747  0.80571373  0.49269606  1
  Zr  Zr78  1  0.71445683  0.29369657  0.63835394  1
  Zr  Zr79  1  0.59580193  0.81453830  0.73239823  1
  Ta  Ta80  1  0.20033285  0.40718034  0.74951813  1
  Ta  Ta81  1  0.79730536  0.20079105  0.50083700  1
  Ta  Ta82  1  0.59094863  0.81080835  0.50802896  1
  Ta  Ta83  1  0.71370856  0.30669730  0.37820387  1
  Ta  Ta84  1  0.60536109  0.59275292  0.00846678  1
  Ta  Ta85  1  0.70711835  0.68576405  0.13279667  1
  Ta  Ta86  1  0.59643456  0.40938566  0.00152684  1
  Ta  Ta87  1  -0.00971820  0.81214266  0.24874361  1
  Ta  Ta88  1  0.51133005  0.30930925  0.13688849  1
  Ta  Ta89  1  0.40330128  0.39250573  0.26771840  1
  Ta  Ta90  1  0.71254903  0.92123964  0.61083697  1
  Ta  Ta91  1  0.59796938  0.40099373  0.74177643  1
  Ta  Ta92  1  0.90286040  0.90218219  0.39015831  1
  Ta  Ta93  1  0.60838492  0.01374093  0.74154806  1
  Ta  Ta94  1  0.89098816  0.08821815  0.10323900  1
  Ta  Ta95  1  0.30389126  0.08965285  0.35942976  1
  Ta  Ta96  1  0.91258083  0.28282612  0.63610094  1
  Ta  Ta97  1  0.89338388  0.10115567  0.37968367  1
  Ta  Ta98  1  0.87601690  0.09872177  0.62730764  1
  Ta  Ta99  1  0.30068854  0.89487154  0.13909448  1
  Ta  Ta100  1  0.40521989  -0.00114127  0.24125225  1
  Ta  Ta101  1  0.50263218  0.90097789  0.12385683  1
  Ta  Ta102  1  0.49675937  0.91452914  0.37090024  1
  Ta  Ta103  1  0.50784338  0.68925354  0.13504636  1
  Ta  Ta104  1  0.79501669  0.39800419  0.24799441  1
  Ta  Ta105  1  0.19803973  0.19895255  0.24402505  1
  Ta  Ta106  1  0.19812123  0.58447065  0.25045395  1
  Ta  Ta107  1  0.59606808  0.39603247  0.26689792  1
  Ta  Ta108  1  0.29522720  0.47657177  0.14430860  1
  Ta  Ta109  1  0.89777533  0.10111139  0.88914212  1
  Ta  Ta110  1  0.59623452  0.20783115  0.49653568  1
  Ta  Ta111  1  0.20467544  0.81080539  0.01239338  1
  Ta  Ta112  1  0.28802761  0.09095141  0.12863798  1
  Ta  Ta113  1  0.60190853  0.59276198  0.25170898  1
  Ta  Ta114  1  0.59199357  0.01466190  0.24581071  1
  Ta  Ta115  1  0.10413654  0.49713271  0.88296119  1
  Ta  Ta116  1  0.27365820  0.71830449  0.62005614  1
  Ta  Ta117  1  0.19937162  0.39359530  0.01440658  1
  Ta  Ta118  1  0.89630738  0.47382699  0.61694412  1
  Ta  Ta119  1  0.09137265  0.10604618  0.87674050  1
  Ti  Ti120  1  0.32293733  0.91620405  0.62319712  1
  Ti  Ti121  1  0.00540972  0.39947473  0.24135118  1
  Ti  Ti122  1  0.41186369  0.38971504  0.46721775  1
  Ti  Ti123  1  0.41946211  0.19554799  0.25983697  1
  Ti  Ti124  1  0.49219339  0.29789276  0.86931463  1
  Ti  Ti125  1  -0.01020831  0.20612606  0.49955938  1
  Ti  Ti126  1  0.00147258  0.79971983  0.00839051  1
  Ti  Ti127  1  0.78938912  0.56813865  0.50952147  1
  Ti  Ti128  1  0.31271351  0.28538558  0.14105062  1
  Ti  Ti129  1  0.61199860  -0.00120284  0.00181775  1
  Ti  Ti130  1  0.28433536  0.70572281  0.88447201  1
  Ti  Ti131  1  0.90466872  0.29015579  0.36903844  1
  Ti  Ti132  1  0.90751064  0.28483197  0.87853335  1
  Ti  Ti133  1  0.79410827  0.00379876  0.75355050  1
  Ti  Ti134  1  0.59291835  0.59563387  0.50655250  1
  Ti  Ti135  1  0.00476522  0.38551983  0.49253058  1
  Ti  Ti136  1  0.70574492  0.09467797  0.87816790  1
  Ti  Ti137  1  0.21247574  0.00705169  0.74721261  1
  Ti  Ti138  1  0.39847245  0.18213272  0.48496951  1
  Ti  Ti139  1  0.30034167  0.69384468  0.14102539  1
  Ti  Ti140  1  0.00616836  -0.00328706  0.00539721  1
  Ti  Ti141  1  0.79658389  0.20255253  0.24920073  1
  Ti  Ti142  1  0.80054973  0.59840569  0.74782690  1
  Ti  Ti143  1  0.00934513  0.78842359  0.74190810  1
  Ti  Ti144  1  0.11220095  0.30066412  0.88383841  1
  Ti  Ti145  1  0.09800396  0.31309997  0.62277981  1
  Ti  Ti146  1  0.30176535  0.69301288  0.35285520  1
  Ti  Ti147  1  0.30055686  0.28559968  0.36746672  1
  Ti  Ti148  1  0.68823835  0.48956367  0.13409990  1
  Ti  Ti149  1  0.40768595  0.58248407  0.24876917  1
  Ti  Ti150  1  0.19349346  0.39014251  0.26452494  1
  Ti  Ti151  1  0.20965322  0.20507500  0.01602938  1
  Ti  Ti152  1  0.10305449  0.50053979  0.62156390  1
  Ti  Ti153  1  0.29506412  0.50293334  0.62011875  1
  Ti  Ti154  1  0.69965862  0.50382125  0.36996308  1
  Ti  Ti155  1  0.41006380  0.79395198  0.24211531  1
  Ti  Ti156  1  0.49209790  0.49152855  0.61858848  1
  Ti  Ti157  1  0.91167871  0.52001084  0.88198703  1
  Ti  Ti158  1  0.89692195  0.70912104  0.12482997  1
  Ti  Ti159  1  0.90189375  0.89866131  0.61307919  1
  Mo  Mo160  1  0.29705262  0.89729710  0.88492257  1
  Mo  Mo161  1  0.19129624  0.00699159  0.00426378  1
  Mo  Mo162  1  0.50371291  0.90069123  0.62477025  1
  Mo  Mo163  1  0.80609520  0.80946053  0.50968420  1
  Mo  Mo164  1  0.59866070  0.19604608  0.75168667  1
  Mo  Mo165  1  0.50093901  0.49211701  0.13466330  1
  Mo  Mo166  1  0.12192308  0.31256058  0.13318377  1
  Mo  Mo167  1  0.90755514  0.89700955  0.11923804  1
  Mo  Mo168  1  0.28562801  0.30612404  0.87974619  1
  Mo  Mo169  1  -0.00176946  0.60656898  0.00589294  1
  Mo  Mo170  1  0.20344366  0.79199827  0.23361150  1
  Mo  Mo171  1  0.69875854  0.91834062  0.87037761  1
  Mo  Mo172  1  0.20218503  0.00824227  0.24870904  1
  Mo  Mo173  1  0.09446993  0.49184696  0.35951801  1
  Mo  Mo174  1  0.80456203  0.01132691  0.49927282  1
  Mo  Mo175  1  0.70476904  0.49946476  0.62725568  1
  Mo  Mo176  1  -0.00472740  0.19913060  0.75991590  1
  Mo  Mo177  1  0.50758187  0.50120330  0.37461140  1
  Mo  Mo178  1  0.90348107  0.70099658  0.86611395  1
  Mo  Mo179  1  0.79876010  0.00331986  -0.00443016  1
  Mo  Mo180  1  0.20373465  0.80538159  0.49215242  1
  Mo  Mo181  1  0.30527576  0.49760878  0.35458282  1
  Mo  Mo182  1  0.80908016  0.18507833  0.76007966  1
  Mo  Mo183  1  0.08870383  0.30061691  0.36646899  1
  Mo  Mo184  1  0.10153955  0.10617102  0.12182048  1
  Mo  Mo185  1  0.81706884  0.38188679  0.50289329  1
  Mo  Mo186  1  0.20111505  0.80570199  0.75799552  1
  Mo  Mo187  1  0.39773835  0.00162839  0.49102899  1
  Mo  Mo188  1  0.10198065  0.49481172  0.13924421  1
  Mo  Mo189  1  0.79860400  0.19911839  -0.01001908  1
  Mo  Mo190  1  0.69482080  0.11045722  0.62827191  1
  Mo  Mo191  1  0.29138013  0.10393138  0.62062332  1
  Mo  Mo192  1  0.60406002  0.21087423  0.25148901  1
  Mo  Mo193  1  0.50940759  0.29010509  0.38049769  1
  Mo  Mo194  1  0.69587932  0.31198862  0.12976546  1
  Mo  Mo195  1  0.69600750  0.50223352  0.86976532  1
  Mo  Mo196  1  0.39499121  0.20115806  0.00571616  1
  Mo  Mo197  1  0.49339456  0.10108792  0.37060483  1
  Mo  Mo198  1  0.09974811  0.69436634  0.62561887  1
  Mo  Mo199  1  0.78814899  0.59440094  0.25383599  1
