# generated using pymatgen
data_HfZrTaTiMo
_symmetry_space_group_name_H-M   'P 1'
_cell_length_a   15.19957971
_cell_length_b   15.21718828
_cell_length_c   16.85984488
_cell_angle_alpha   89.95295111
_cell_angle_beta   90.03496468
_cell_angle_gamma   89.97938080
_symmetry_Int_Tables_number   1
_chemical_formula_structural   HfZrTaTiMo
_chemical_formula_sum   'Hf40 Zr40 Ta40 Ti40 Mo40'
_cell_volume   3899.59327109
_cell_formula_units_Z   40
loop_
 _symmetry_equiv_pos_site_id
 _symmetry_equiv_pos_as_xyz
  1  'x, y, z'
loop_
 _atom_site_type_symbol
 _atom_site_label
 _atom_site_symmetry_multiplicity
 _atom_site_fract_x
 _atom_site_fract_y
 _atom_site_fract_z
 _atom_site_occupancy
  Hf  Hf0  1  0.49033424  0.90552357  0.37259713  1
  Hf  Hf1  1  0.61004578  0.40387184  0.26234459  1
  Hf  Hf2  1  0.59741608  0.58324114  0.49327757  1
  Hf  Hf3  1  0.40574215  0.37462017  0.74794443  1
  Hf  Hf4  1  0.30145238  0.50464015  0.61900169  1
  Hf  Hf5  1  0.68853979  0.71710554  0.88573612  1
  Hf  Hf6  1  0.00638921  0.39586418  0.75719909  1
  Hf  Hf7  1  0.29694812  0.50072318  0.86473774  1
  Hf  Hf8  1  0.89944230  0.30708572  0.62777602  1
  Hf  Hf9  1  0.70055563  0.88650814  0.60772611  1
  Hf  Hf10  1  0.90869125  0.09783340  0.88259786  1
  Hf  Hf11  1  0.29400426  0.09406551  0.87150979  1
  Hf  Hf12  1  0.60726772  -0.01434674  0.74768583  1
  Hf  Hf13  1  0.68747122  0.31707848  0.63140356  1
  Hf  Hf14  1  0.49444686  0.69252131  0.61489772  1
  Hf  Hf15  1  0.00034333  0.20169302  0.01227228  1
  Hf  Hf16  1  0.50009160  0.89320975  0.12913009  1
  Hf  Hf17  1  0.08713732  0.71540313  0.12166160  1
  Hf  Hf18  1  0.78934785  0.80859869  0.75237308  1
  Hf  Hf19  1  0.70646849  0.31502247  0.11862736  1
  Hf  Hf20  1  0.61616267  0.00813767  0.25486511  1
  Hf  Hf21  1  0.80900276  0.40311201  -0.01590569  1
  Hf  Hf22  1  0.71720621  0.89565379  0.37972580  1
  Hf  Hf23  1  0.59818563  0.21148479  0.23665024  1
  Hf  Hf24  1  0.79588314  0.60729159  0.75541962  1
  Hf  Hf25  1  0.89229350  0.10011216  0.12801576  1
  Hf  Hf26  1  0.01415776  -0.00422615  0.48962430  1
  Hf  Hf27  1  0.19382165  0.80449288  0.49250220  1
  Hf  Hf28  1  0.58905921  0.38554324  0.48556577  1
  Hf  Hf29  1  0.88731128  0.70157653  0.37400224  1
  Hf  Hf30  1  -0.00567016  0.59774648  0.00770048  1
  Hf  Hf31  1  0.31711297  0.89664068  0.86708221  1
  Hf  Hf32  1  0.49598130  0.09349497  0.13120980  1
  Hf  Hf33  1  0.59230507  0.59763503  0.25177141  1
  Hf  Hf34  1  0.10727098  0.50817066  0.13189268  1
  Hf  Hf35  1  0.40898370  0.59903718  0.74694622  1
  Hf  Hf36  1  0.22363782  0.41522886  0.25613619  1
  Hf  Hf37  1  0.58543657  0.78378274  0.74306632  1
  Hf  Hf38  1  0.49198716  0.08978181  0.87961306  1
  Hf  Hf39  1  0.20586228  0.00205442  0.74266828  1
  Zr  Zr40  1  0.80665058  0.01272160  0.49432107  1
  Zr  Zr41  1  0.48871485  0.69348667  0.89036756  1
  Zr  Zr42  1  0.29634556  0.69817841  0.87769275  1
  Zr  Zr43  1  0.08734617  0.50035374  0.61655041  1
  Zr  Zr44  1  -0.00066609  0.01158168  0.74745257  1
  Zr  Zr45  1  0.19984384  0.61657425  0.26229336  1
  Zr  Zr46  1  0.10943926  0.29739468  0.36698580  1
  Zr  Zr47  1  0.39734832  0.19202352  0.00862810  1
  Zr  Zr48  1  0.59969298  0.79398562  0.26026941  1
  Zr  Zr49  1  0.50291456  0.47587395  0.12125618  1
  Zr  Zr50  1  -0.00272882  0.79107975  0.75443547  1
  Zr  Zr51  1  0.18914972  0.21398124  0.74551532  1
  Zr  Zr52  1  0.19194925  0.20888304  0.01387519  1
  Zr  Zr53  1  0.10898339  0.89493163  0.62797006  1
  Zr  Zr54  1  0.48749203  0.69535994  0.11368052  1
  Zr  Zr55  1  0.10657433  0.51261968  0.38191303  1
  Zr  Zr56  1  0.28787420  0.68813692  0.11142616  1
  Zr  Zr57  1  0.79882369  0.79884856  0.01192488  1
  Zr  Zr58  1  0.30729720  0.09662809  0.35688356  1
  Zr  Zr59  1  0.60219777  0.58800549  0.00918374  1
  Zr  Zr60  1  0.09545554  0.69653137  0.88004495  1
  Zr  Zr61  1  0.57767097  0.20465204  0.74778299  1
  Zr  Zr62  1  -0.01107901  0.39035812  0.47917084  1
  Zr  Zr63  1  0.38743909  0.78162916  0.25873686  1
  Zr  Zr64  1  0.10322293  0.29880060  0.60961503  1
  Zr  Zr65  1  0.80703462  0.20420058  0.75421957  1
  Zr  Zr66  1  0.70267564  0.10357062  0.62426517  1
  Zr  Zr67  1  0.32104228  0.11732261  0.63031213  1
  Zr  Zr68  1  0.33162444  0.30704657  0.38210605  1
  Zr  Zr69  1  0.50244343  0.11518649  0.36808795  1
  Zr  Zr70  1  0.59716490  0.79103823  0.48847646  1
  Zr  Zr71  1  0.90572737  0.89434360  0.61389048  1
  Zr  Zr72  1  0.20144093  0.81621798  -0.00340575  1
  Zr  Zr73  1  -0.02189403  0.59696841  0.49885301  1
  Zr  Zr74  1  0.69922131  0.10012235  0.87445339  1
  Zr  Zr75  1  0.79606152  0.41741176  0.49922872  1
  Zr  Zr76  1  0.29119935  0.29631373  0.87709133  1
  Zr  Zr77  1  0.20982222  0.19448890  0.49286099  1
  Zr  Zr78  1  0.91331002  0.90280546  0.12362344  1
  Zr  Zr79  1  0.79950032  0.59527940  0.00935727  1
  Ta  Ta80  1  0.40139085  0.00673249  0.50239915  1
  Ta  Ta81  1  0.09943888  0.91890510  0.87688083  1
  Ta  Ta82  1  0.19107478  0.80669589  0.25820157  1
  Ta  Ta83  1  0.89642194  0.90160602  0.88188761  1
  Ta  Ta84  1  0.09807257  0.10205887  0.61711279  1
  Ta  Ta85  1  0.79562468  0.40553815  0.76542904  1
  Ta  Ta86  1  0.49456193  0.90099565  0.61345124  1
  Ta  Ta87  1  -0.00816062  0.20662750  0.25209200  1
  Ta  Ta88  1  0.89357786  0.10630610  0.36451690  1
  Ta  Ta89  1  0.51479771  0.88783270  0.88715403  1
  Ta  Ta90  1  0.60577511  0.39088802  -0.02327404  1
  Ta  Ta91  1  0.70436982  0.91193031  0.13004239  1
  Ta  Ta92  1  0.00243141  0.80921156  0.25507196  1
  Ta  Ta93  1  0.01250258  0.39776207  -0.00026936  1
  Ta  Ta94  1  0.80441069  -0.00313443  0.74938589  1
  Ta  Ta95  1  0.50917968  0.48064508  0.62878114  1
  Ta  Ta96  1  0.20849044  0.41382909  0.00915196  1
  Ta  Ta97  1  0.09847254  0.09309673  0.35769830  1
  Ta  Ta98  1  0.21056318  0.00076402  0.49807585  1
  Ta  Ta99  1  0.89685657  0.69977403  0.87693091  1
  Ta  Ta100  1  0.70639608  0.28210421  0.37508809  1
  Ta  Ta101  1  0.31329571  0.30864789  0.12863741  1
  Ta  Ta102  1  0.30006965  0.90031575  0.13248674  1
  Ta  Ta103  1  0.60120929  0.20122711  0.00439609  1
  Ta  Ta104  1  0.47634581  0.67645795  0.38408507  1
  Ta  Ta105  1  0.80405390  0.79554494  0.24030957  1
  Ta  Ta106  1  0.10465318  0.91489790  0.12701261  1
  Ta  Ta107  1  0.09350927  0.10046422  0.14542175  1
  Ta  Ta108  1  0.08968167  0.69928534  0.61738701  1
  Ta  Ta109  1  0.80046356  0.00272127  0.00049504  1
  Ta  Ta110  1  0.29007118  0.70574282  0.62482526  1
  Ta  Ta111  1  0.29367639  0.09170294  0.14079751  1
  Ta  Ta112  1  0.10155179  0.30927620  0.14133134  1
  Ta  Ta113  1  0.60612836  -0.00374137  0.00545118  1
  Ta  Ta114  1  0.40965059  0.39150844  -0.01216777  1
  Ta  Ta115  1  0.18293890  0.60348674  0.74184375  1
  Ta  Ta116  1  0.39191077  0.57514195  0.25170910  1
  Ta  Ta117  1  0.88181169  0.69191692  0.61949987  1
  Ta  Ta118  1  -0.00696171  0.19113631  0.48417533  1
  Ta  Ta119  1  -0.00099400  0.40539915  0.25722538  1
  Ti  Ti120  1  0.31790727  0.51870706  0.39940075  1
  Ti  Ti121  1  -0.00168805  0.81264981  -0.00628557  1
  Ti  Ti122  1  0.30995525  0.89648738  0.62582706  1
  Ti  Ti123  1  0.70047193  0.51461865  0.63548987  1
  Ti  Ti124  1  0.80729394  0.39123814  0.25617070  1
  Ti  Ti125  1  0.29586867  0.90087829  0.37156478  1
  Ti  Ti126  1  0.70182283  0.69301589  0.37331029  1
  Ti  Ti127  1  0.41520175  -0.00505723  0.74183297  1
  Ti  Ti128  1  0.09796398  0.11830124  0.87544605  1
  Ti  Ti129  1  0.80272858  0.21066157  0.49680065  1
  Ti  Ti130  1  0.79387700  0.20526444  -0.00313044  1
  Ti  Ti131  1  0.38317496  0.57596486  0.00114356  1
  Ti  Ti132  1  0.08810936  0.71129640  0.38446668  1
  Ti  Ti133  1  0.91385361  0.29612976  0.87468068  1
  Ti  Ti134  1  0.89875656  0.49270240  0.13312862  1
  Ti  Ti135  1  0.39315890  -0.01393022  0.00562640  1
  Ti  Ti136  1  0.20693267  0.20780768  0.24562354  1
  Ti  Ti137  1  0.21028729  0.40561116  0.49686171  1
  Ti  Ti138  1  0.59913005  0.19340083  0.50421886  1
  Ti  Ti139  1  0.80952776  -0.00200562  0.25530219  1
  Ti  Ti140  1  0.70787207  0.50457537  0.37184272  1
  Ti  Ti141  1  0.91217430  0.50787355  0.86920820  1
  Ti  Ti142  1  0.59878084  0.00537931  0.49349911  1
  Ti  Ti143  1  0.38894962  0.79765540  0.49297587  1
  Ti  Ti144  1  0.19212902  0.01294555  0.00647097  1
  Ti  Ti145  1  -0.01052111  0.60977048  0.24748646  1
  Ti  Ti146  1  0.10397790  0.49720491  0.87611725  1
  Ti  Ti147  1  0.59587592  0.40532131  0.77248142  1
  Ti  Ti148  1  0.79104094  0.19370114  0.24747943  1
  Ti  Ti149  1  0.91285887  0.89589693  0.37601078  1
  Ti  Ti150  1  0.69126972  0.51295120  0.86846473  1
  Ti  Ti151  1  0.90510953  0.30591498  0.12813788  1
  Ti  Ti152  1  0.69285201  0.70535208  0.12677834  1
  Ti  Ti153  1  0.20194853  0.40514829  0.74037254  1
  Ti  Ti154  1  0.79195981  0.59549162  0.23430724  1
  Ti  Ti155  1  0.89265683  0.50483450  0.36163506  1
  Ti  Ti156  1  0.19564098  -0.00845312  0.25251905  1
  Ti  Ti157  1  0.20440681  0.79908879  0.75162014  1
  Ti  Ti158  1  0.90880395  0.10908301  0.62308030  1
  Ti  Ti159  1  0.42071721  0.38292601  0.24962176  1
  Mo  Mo160  1  0.39877065  0.60086029  0.51286649  1
  Mo  Mo161  1  0.41972741  0.20378547  0.50266705  1
  Mo  Mo162  1  0.39800720  0.20321241  0.23410066  1
  Mo  Mo163  1  -0.00086371  0.00091091  0.25838474  1
  Mo  Mo164  1  0.09694001  0.31077647  0.88219817  1
  Mo  Mo165  1  0.49008227  0.28644017  0.61832404  1
  Mo  Mo166  1  0.69708385  0.69282851  0.61981905  1
  Mo  Mo167  1  0.19216660  0.59044436  -0.00245464  1
  Mo  Mo168  1  0.40033676  0.81175166  0.00494074  1
  Mo  Mo169  1  0.80518018  0.78823095  0.49506198  1
  Mo  Mo170  1  0.89829482  0.69621828  0.13996431  1
  Mo  Mo171  1  0.19837512  0.61008147  0.50366606  1
  Mo  Mo172  1  0.39830858  0.18886840  0.75501918  1
  Mo  Mo173  1  0.88888500  0.50041507  0.64284411  1
  Mo  Mo174  1  0.29111097  0.69797108  0.38550703  1
  Mo  Mo175  1  0.71026754  0.49390960  0.13095471  1
  Mo  Mo176  1  0.39605781  0.80763854  0.73901435  1
  Mo  Mo177  1  0.50328292  0.28965910  0.88119532  1
  Mo  Mo178  1  -0.00589459  0.59762704  0.74600210  1
  Mo  Mo179  1  -0.00500312  0.79668246  0.49759639  1
  Mo  Mo180  1  0.48825075  0.48998212  0.37200049  1
  Mo  Mo181  1  0.50873359  0.29470061  0.37345123  1
  Mo  Mo182  1  0.70149767  0.90625082  0.87940031  1
  Mo  Mo183  1  0.30531069  0.49384971  0.12643676  1
  Mo  Mo184  1  0.59719601  0.58824639  0.74952290  1
  Mo  Mo185  1  0.70529174  0.10456291  0.37912651  1
  Mo  Mo186  1  0.49563507  0.49506383  0.87647400  1
  Mo  Mo187  1  0.39439540  -0.00816747  0.24642502  1
  Mo  Mo188  1  0.60250756  0.80854979  0.01123117  1
  Mo  Mo189  1  0.89303104  0.29762082  0.36300383  1
  Mo  Mo190  1  0.00189681  0.20132190  0.74814198  1
  Mo  Mo191  1  0.01222490  0.00327712  -0.00292443  1
  Mo  Mo192  1  0.78524209  0.60246844  0.50205745  1
  Mo  Mo193  1  0.10369834  0.90336165  0.37225036  1
  Mo  Mo194  1  0.70568434  0.30186760  0.87416281  1
  Mo  Mo195  1  0.30831303  0.31070948  0.61270284  1
  Mo  Mo196  1  0.50529852  0.29872408  0.11441207  1
  Mo  Mo197  1  0.40547958  0.40211772  0.51128816  1
  Mo  Mo198  1  0.50894134  0.08638399  0.61808565  1
  Mo  Mo199  1  0.70564882  0.10114030  0.11631227  1
