# generated using pymatgen
data_HfZrTaTiMo
_symmetry_space_group_name_H-M   'P 1'
_cell_length_a   15.20990097
_cell_length_b   15.21371909
_cell_length_c   16.81966980
_cell_angle_alpha   89.92497666
_cell_angle_beta   90.02215284
_cell_angle_gamma   89.89036121
_symmetry_Int_Tables_number   1
_chemical_formula_structural   HfZrTaTiMo
_chemical_formula_sum   'Hf40 Zr40 Ta40 Ti40 Mo40'
_cell_volume   3892.04671581
_cell_formula_units_Z   40
loop_
 _symmetry_equiv_pos_site_id
 _symmetry_equiv_pos_as_xyz
  1  'x, y, z'
loop_
 _atom_site_type_symbol
 _atom_site_label
 _atom_site_symmetry_multiplicity
 _atom_site_fract_x
 _atom_site_fract_y
 _atom_site_fract_z
 _atom_site_occupancy
  Hf  Hf0  1  0.11029063  0.50225728  0.63351054  1
  Hf  Hf1  1  0.01385881  0.21098411  0.26968438  1
  Hf  Hf2  1  0.70534239  0.69595786  0.62674449  1
  Hf  Hf3  1  0.40318579  0.59880504  0.24579001  1
  Hf  Hf4  1  0.28202632  0.09391454  0.37348937  1
  Hf  Hf5  1  0.91074751  0.50250775  0.12321938  1
  Hf  Hf6  1  0.89422616  0.31488662  0.38882305  1
  Hf  Hf7  1  0.79929848  0.40426916  0.24068521  1
  Hf  Hf8  1  0.00045423  0.61110701  0.49421290  1
  Hf  Hf9  1  -0.01544484  0.00162417  0.75587412  1
  Hf  Hf10  1  0.38805197  -0.01601969  0.00538380  1
  Hf  Hf11  1  0.91365997  0.69795433  0.11434669  1
  Hf  Hf12  1  0.69468889  0.30622133  0.87984321  1
  Hf  Hf13  1  0.79932126  0.79487605  0.25731715  1
  Hf  Hf14  1  0.58999835  0.80620237  0.24949563  1
  Hf  Hf15  1  0.69045561  0.11215328  0.12257525  1
  Hf  Hf16  1  0.31066645  0.90565313  0.85531015  1
  Hf  Hf17  1  0.09765960  0.91254808  0.38835851  1
  Hf  Hf18  1  0.49734012  0.09406495  0.87533522  1
  Hf  Hf19  1  0.60074406  0.00521469  0.74269634  1
  Hf  Hf20  1  0.30192620  0.88642861  0.37708765  1
  Hf  Hf21  1  0.00752229  0.40640968  -0.01084238  1
  Hf  Hf22  1  0.79191876  0.40323519  0.74290825  1
  Hf  Hf23  1  0.30621440  0.32468277  0.87491504  1
  Hf  Hf24  1  0.89044868  0.30176156  0.86962427  1
  Hf  Hf25  1  0.28445078  0.09278706  0.11835853  1
  Hf  Hf26  1  0.70248513  0.89961905  0.86926415  1
  Hf  Hf27  1  0.20169035  0.79750061  0.23528970  1
  Hf  Hf28  1  0.29822560  0.49467558  0.37232421  1
  Hf  Hf29  1  0.69914496  0.69573737  0.12148580  1
  Hf  Hf30  1  0.49034048  0.09379801  0.38313098  1
  Hf  Hf31  1  0.12790493  0.29908613  0.61000298  1
  Hf  Hf32  1  0.80415755  0.19892265  0.26456776  1
  Hf  Hf33  1  0.49670615  0.48890714  0.89162792  1
  Hf  Hf34  1  0.08800293  0.90691784  0.62449776  1
  Hf  Hf35  1  0.29575061  0.10645921  0.86754920  1
  Hf  Hf36  1  0.79931559  0.61183205  0.48796655  1
  Hf  Hf37  1  0.20162044  0.40325922  0.01132169  1
  Hf  Hf38  1  0.90016258  0.50992400  0.62445543  1
  Hf  Hf39  1  0.00381498  0.60649546  0.76479753  1
  Zr  Zr40  1  0.60492242  0.39332177  0.24626088  1
  Zr  Zr41  1  -0.00025469  0.19341788  0.75488820  1
  Zr  Zr42  1  0.20298845  0.80213858  0.51123774  1
  Zr  Zr43  1  0.09405082  0.70242707  0.62842124  1
  Zr  Zr44  1  0.51829884  0.28757510  0.11466630  1
  Zr  Zr45  1  0.18941698  0.60302390  0.01162683  1
  Zr  Zr46  1  0.00077464  0.20516564  -0.01557203  1
  Zr  Zr47  1  0.29716803  0.28919039  0.37109357  1
  Zr  Zr48  1  0.61554376  0.59736774  0.25936631  1
  Zr  Zr49  1  0.30173153  0.67932748  0.87238457  1
  Zr  Zr50  1  0.18512944  0.40098793  0.24915077  1
  Zr  Zr51  1  0.50557070  0.69334101  0.87108319  1
  Zr  Zr52  1  0.50280041  0.90330116  0.62592386  1
  Zr  Zr53  1  -0.01357178  0.01149559  0.25409458  1
  Zr  Zr54  1  0.40607533  0.79274789  0.73838306  1
  Zr  Zr55  1  0.39898019  -0.01919332  0.23972468  1
  Zr  Zr56  1  0.08965455  0.11255266  0.11589745  1
  Zr  Zr57  1  0.49227713  0.70479207  0.37678288  1
  Zr  Zr58  1  0.68805746  0.90453656  0.38253407  1
  Zr  Zr59  1  0.42787695  0.78850782  0.01103966  1
  Zr  Zr60  1  0.89554027  0.90337276  0.88737035  1
  Zr  Zr61  1  0.01581519  0.39228439  0.75516805  1
  Zr  Zr62  1  0.39460895  0.20067471  0.00446025  1
  Zr  Zr63  1  0.18593199  0.00126606  0.24730575  1
  Zr  Zr64  1  0.30281377  0.46875935  0.61452109  1
  Zr  Zr65  1  0.90006300  0.90329539  0.11126097  1
  Zr  Zr66  1  0.78784354  0.00335688  0.25303716  1
  Zr  Zr67  1  0.61112511  0.39413331  0.49576876  1
  Zr  Zr68  1  0.58876469  0.20502701  0.49266355  1
  Zr  Zr69  1  0.29716069  0.67796592  0.63617120  1
  Zr  Zr70  1  0.50196477  0.49713974  0.61320945  1
  Zr  Zr71  1  0.60425383  0.79260632  0.50403319  1
  Zr  Zr72  1  0.60184297  0.20708842  0.74452442  1
  Zr  Zr73  1  0.21578152  0.81083547  -0.00650133  1
  Zr  Zr74  1  0.90431909  0.29637128  0.61246142  1
  Zr  Zr75  1  0.88582875  0.70032630  0.88266649  1
  Zr  Zr76  1  0.00482661  0.80730140  0.24874009  1
  Zr  Zr77  1  0.60308555  0.58928569  0.75223489  1
  Zr  Zr78  1  0.38003866  -0.00315976  0.51412752  1
  Zr  Zr79  1  0.40561523  0.19121688  0.24209517  1
  Ta  Ta80  1  0.39531474  0.78896308  0.51482052  1
  Ta  Ta81  1  0.71511099  0.48719351  0.38187623  1
  Ta  Ta82  1  0.60819821  0.19561140  0.26911375  1
  Ta  Ta83  1  0.90451887  0.29487769  0.12634294  1
  Ta  Ta84  1  0.40575068  0.39686532  0.24120291  1
  Ta  Ta85  1  -0.01375667  0.80575597  0.49606364  1
  Ta  Ta86  1  0.71625640  0.90190389  0.62813755  1
  Ta  Ta87  1  0.29468705  0.69520146  0.37315883  1
  Ta  Ta88  1  0.18169592  0.00972421  0.75704044  1
  Ta  Ta89  1  0.19751468  0.58935503  0.49123424  1
  Ta  Ta90  1  0.89264129  0.49859846  0.87504015  1
  Ta  Ta91  1  -0.00359218  0.80545527  0.76384441  1
  Ta  Ta92  1  0.61396722  0.79607350  0.74374625  1
  Ta  Ta93  1  0.28480683  0.10981389  0.63995396  1
  Ta  Ta94  1  0.10491216  0.90968888  0.10325988  1
  Ta  Ta95  1  0.89580195  0.71661317  0.63323821  1
  Ta  Ta96  1  0.48344680  0.11520505  0.62373650  1
  Ta  Ta97  1  0.12955106  0.49914682  0.86266382  1
  Ta  Ta98  1  0.89389648  0.10719000  0.11479398  1
  Ta  Ta99  1  0.49884793  0.48794068  0.37737038  1
  Ta  Ta100  1  0.18617864  0.79969976  0.76095980  1
  Ta  Ta101  1  0.00965279  0.19121467  0.48704442  1
  Ta  Ta102  1  0.59135622  0.39717904  0.74629719  1
  Ta  Ta103  1  0.70356874  0.09840158  0.61670953  1
  Ta  Ta104  1  0.90750329  0.50803302  0.37499312  1
  Ta  Ta105  1  0.19460044  0.21706072  0.75876290  1
  Ta  Ta106  1  0.68636630  0.90443617  0.12085789  1
  Ta  Ta107  1  0.50492549  0.29795112  0.88998271  1
  Ta  Ta108  1  0.29037168  0.29364196  0.13363126  1
  Ta  Ta109  1  0.39855229  0.59577353  0.49253054  1
  Ta  Ta110  1  0.10469802  0.70442561  0.37688498  1
  Ta  Ta111  1  0.01707366  0.41009608  0.49286573  1
  Ta  Ta112  1  0.30537388  0.69362382  0.12109303  1
  Ta  Ta113  1  0.78774335  0.00757913  0.00501032  1
  Ta  Ta114  1  0.79246590  0.19705552  0.48765821  1
  Ta  Ta115  1  0.79112213  0.20864930  0.00246836  1
  Ta  Ta116  1  0.00819145  0.60453828  0.25595178  1
  Ta  Ta117  1  0.01872976  0.79390333  -0.01165883  1
  Ta  Ta118  1  0.50613612  0.08490564  0.11678573  1
  Ta  Ta119  1  0.88357748  0.09776696  0.88343685  1
  Ti  Ti120  1  0.18247803  0.01785919  0.51001364  1
  Ti  Ti121  1  0.60137767  0.00507907  0.50850180  1
  Ti  Ti122  1  0.29146616  0.90853163  0.64683679  1
  Ti  Ti123  1  0.70082842  0.50119190  0.88078475  1
  Ti  Ti124  1  0.19276796  0.20750751  -0.01368671  1
  Ti  Ti125  1  0.29765469  0.49736074  0.13435949  1
  Ti  Ti126  1  0.08923822  0.10633480  0.62526937  1
  Ti  Ti127  1  0.81036922  0.60177471  0.25918631  1
  Ti  Ti128  1  0.39855156  0.79554873  0.23088347  1
  Ti  Ti129  1  -0.00010134  0.40959727  0.25843542  1
  Ti  Ti130  1  0.50639306  0.89468529  0.86384326  1
  Ti  Ti131  1  0.59093072  0.00408108  0.25319928  1
  Ti  Ti132  1  0.78918506  0.80015429  0.00485968  1
  Ti  Ti133  1  0.69754977  0.70177347  0.87921054  1
  Ti  Ti134  1  0.79807948  0.60708261  0.75537053  1
  Ti  Ti135  1  0.00600562  0.59815970  -0.01621588  1
  Ti  Ti136  1  0.70415349  0.29783152  0.62060187  1
  Ti  Ti137  1  0.09419278  0.30739560  0.12702239  1
  Ti  Ti138  1  0.79465494  0.58980754  0.00108306  1
  Ti  Ti139  1  0.50857493  0.51080318  0.12134661  1
  Ti  Ti140  1  0.79767590  0.18457833  0.74522482  1
  Ti  Ti141  1  0.40165894  0.21375358  0.75134558  1
  Ti  Ti142  1  0.61761802  0.40179639  0.01641604  1
  Ti  Ti143  1  0.59606210  0.60723474  0.00517762  1
  Ti  Ti144  1  0.89359759  0.90360773  0.62571294  1
  Ti  Ti145  1  0.69737105  0.10183088  0.87872964  1
  Ti  Ti146  1  0.70408728  0.49848126  0.61520500  1
  Ti  Ti147  1  0.59354092  -0.01273432  -0.00380095  1
  Ti  Ti148  1  0.89912145  0.90593874  0.38100130  1
  Ti  Ti149  1  0.80259883  0.80138124  0.49019600  1
  Ti  Ti150  1  0.49132837  0.89892267  0.39013495  1
  Ti  Ti151  1  0.50291503  0.68799280  0.62331670  1
  Ti  Ti152  1  0.80271613  0.40233656  0.01082066  1
  Ti  Ti153  1  0.40115932  0.40543074  0.02195914  1
  Ti  Ti154  1  0.89449159  0.09317768  0.61389816  1
  Ti  Ti155  1  0.80191285  0.00146988  0.49334393  1
  Ti  Ti156  1  0.60093797  0.59916180  0.48563373  1
  Ti  Ti157  1  0.39295010  0.56276468  0.75324677  1
  Ti  Ti158  1  0.40772638  0.37457491  0.49114167  1
  Ti  Ti159  1  0.19108801  0.60282805  0.24128279  1
  Mo  Mo160  1  0.10114312  0.50880536  0.37374195  1
  Mo  Mo161  1  0.60323590  0.18862829  -0.00886654  1
  Mo  Mo162  1  0.20429019  0.39663809  0.48935567  1
  Mo  Mo163  1  0.71425926  0.29745145  0.12129631  1
  Mo  Mo164  1  0.10511070  0.30664336  0.39050998  1
  Mo  Mo165  1  0.50653714  0.69536321  0.12945128  1
  Mo  Mo166  1  0.89919469  0.09626364  0.38988251  1
  Mo  Mo167  1  0.49417697  0.30313431  0.36401866  1
  Mo  Mo168  1  0.22225449  0.40172576  0.74935716  1
  Mo  Mo169  1  0.49531521  0.30187044  0.62482745  1
  Mo  Mo170  1  0.10103728  0.10589419  0.38209006  1
  Mo  Mo171  1  0.70504021  0.50241624  0.11627126  1
  Mo  Mo172  1  0.79525664  0.01156734  0.74577072  1
  Mo  Mo173  1  0.80287458  0.80360967  0.74767766  1
  Mo  Mo174  1  0.08836321  0.50664890  0.12835988  1
  Mo  Mo175  1  0.29501375  0.89601933  0.11874819  1
  Mo  Mo176  1  0.09675538  0.70204076  0.12221999  1
  Mo  Mo177  1  0.80944796  0.40388665  0.50865467  1
  Mo  Mo178  1  0.10212829  0.90670777  0.87941596  1
  Mo  Mo179  1  0.61243667  0.80161287  -0.00228505  1
  Mo  Mo180  1  0.09588822  0.09839482  0.87793997  1
  Mo  Mo181  1  0.39345978  0.01323670  0.73826190  1
  Mo  Mo182  1  0.70130773  0.30133685  0.37659677  1
  Mo  Mo183  1  0.70526637  0.69365252  0.37183302  1
  Mo  Mo184  1  0.18979900  0.00813289  -0.01915507  1
  Mo  Mo185  1  0.50691599  0.90046786  0.12456833  1
  Mo  Mo186  1  0.69526963  0.09673515  0.38405981  1
  Mo  Mo187  1  0.10080269  0.70127012  0.86893720  1
  Mo  Mo188  1  0.31341255  0.50109854  0.88757320  1
  Mo  Mo189  1  -0.00421505  0.00148652  -0.00503746  1
  Mo  Mo190  1  0.41669856  0.39128263  0.75292217  1
  Mo  Mo191  1  0.19432609  0.20333571  0.24353996  1
  Mo  Mo192  1  -0.01083054  0.00200216  0.50581646  1
  Mo  Mo193  1  0.40177830  0.58831233  0.02039324  1
  Mo  Mo194  1  0.90535148  0.71008112  0.37154821  1
  Mo  Mo195  1  0.10926293  0.30515077  0.87201622  1
  Mo  Mo196  1  0.20680005  0.59557771  0.75244139  1
  Mo  Mo197  1  0.32112095  0.28303008  0.62187841  1
  Mo  Mo198  1  0.39241108  0.19365261  0.50111129  1
  Mo  Mo199  1  0.20554577  0.19184082  0.50512617  1
