# generated using pymatgen
data_HfZrTaTiMo
_symmetry_space_group_name_H-M   'P 1'
_cell_length_a   15.21108183
_cell_length_b   15.22264715
_cell_length_c   16.81445370
_cell_angle_alpha   90.06218243
_cell_angle_beta   89.95166750
_cell_angle_gamma   89.87055667
_symmetry_Int_Tables_number   1
_chemical_formula_structural   HfZrTaTiMo
_chemical_formula_sum   'Hf40 Zr40 Ta40 Ti40 Mo40'
_cell_volume   3893.42242354
_cell_formula_units_Z   40
loop_
 _symmetry_equiv_pos_site_id
 _symmetry_equiv_pos_as_xyz
  1  'x, y, z'
loop_
 _atom_site_type_symbol
 _atom_site_label
 _atom_site_symmetry_multiplicity
 _atom_site_fract_x
 _atom_site_fract_y
 _atom_site_fract_z
 _atom_site_occupancy
  Hf  Hf0  1  0.90429367  0.49938368  0.11237279  1
  Hf  Hf1  1  0.89725147  0.28847474  0.35975117  1
  Hf  Hf2  1  0.49574212  0.32180854  0.60895114  1
  Hf  Hf3  1  0.49859979  0.71599569  0.13593200  1
  Hf  Hf4  1  0.28891154  0.69713659  0.61414460  1
  Hf  Hf5  1  0.50307217  0.50962674  0.88257580  1
  Hf  Hf6  1  0.18937519  0.78824986  0.23923206  1
  Hf  Hf7  1  0.18956155  0.18287361  0.48743663  1
  Hf  Hf8  1  0.79556278  0.40983230  0.75201545  1
  Hf  Hf9  1  0.30989801  0.48897354  0.38267822  1
  Hf  Hf10  1  0.71640318  0.12349803  0.35455908  1
  Hf  Hf11  1  0.50778773  0.29108963  0.87795838  1
  Hf  Hf12  1  0.89684358  0.50603770  0.89152372  1
  Hf  Hf13  1  0.60584692  0.40984028  0.74916746  1
  Hf  Hf14  1  0.80198594  0.41748701  0.50672069  1
  Hf  Hf15  1  0.71052136  0.50725038  0.10491336  1
  Hf  Hf16  1  0.79666010  0.00186348  0.01815725  1
  Hf  Hf17  1  0.60475882  0.81450692  0.00017730  1
  Hf  Hf18  1  0.19402044  -0.01116771  0.24411438  1
  Hf  Hf19  1  0.20657274  -0.01268386  0.77156080  1
  Hf  Hf20  1  0.79263168  0.22170633  0.01566502  1
  Hf  Hf21  1  0.60147134  0.79252897  0.50313428  1
  Hf  Hf22  1  0.90152828  0.30129199  0.63845312  1
  Hf  Hf23  1  0.20779119  0.38056264  0.77223295  1
  Hf  Hf24  1  0.81153015  0.81841247  0.76187482  1
  Hf  Hf25  1  0.59454911  0.20364979  0.74022353  1
  Hf  Hf26  1  0.80637955  0.00605719  0.48310645  1
  Hf  Hf27  1  0.09498203  0.70096026  0.38181458  1
  Hf  Hf28  1  0.10798603  0.68813224  0.89072501  1
  Hf  Hf29  1  0.39271317  0.80657708  0.50232330  1
  Hf  Hf30  1  0.49209412  0.71407665  0.87146104  1
  Hf  Hf31  1  0.60918499  0.80007653  0.75023215  1
  Hf  Hf32  1  0.92155730  0.89812406  0.35983699  1
  Hf  Hf33  1  0.89375960  0.70604469  0.62441615  1
  Hf  Hf34  1  0.19529683  0.19899700  -0.01801503  1
  Hf  Hf35  1  0.59298147  0.01589518  0.26606985  1
  Hf  Hf36  1  0.38167422  0.19879889  0.75780981  1
  Hf  Hf37  1  0.20705003  0.78258368  0.76215456  1
  Hf  Hf38  1  0.00237761  0.39895659  0.49710372  1
  Hf  Hf39  1  0.31422223  0.88697915  0.12502508  1
  Zr  Zr40  1  0.41431890  0.59703894  0.50117964  1
  Zr  Zr41  1  -0.00724828  0.18724067  0.00651330  1
  Zr  Zr42  1  0.20293418  0.19398610  0.25092785  1
  Zr  Zr43  1  0.80163444  0.80015459  0.48759146  1
  Zr  Zr44  1  0.12062414  0.89281048  0.63055625  1
  Zr  Zr45  1  0.50848641  0.91196277  0.14124840  1
  Zr  Zr46  1  -0.00335849  0.60301830  0.75683001  1
  Zr  Zr47  1  0.80010872  0.20337810  0.50366075  1
  Zr  Zr48  1  0.11071750  0.49917871  0.11020860  1
  Zr  Zr49  1  0.40910835  0.40010236  0.24044205  1
  Zr  Zr50  1  0.29225219  0.28647600  0.62473320  1
  Zr  Zr51  1  -0.00577284  0.19657489  0.49724144  1
  Zr  Zr52  1  0.00592903  0.00428547  0.50400161  1
  Zr  Zr53  1  0.20510852  -0.00345191  0.00049112  1
  Zr  Zr54  1  0.88636462  0.09113922  0.87372391  1
  Zr  Zr55  1  0.90434586  0.90169830  0.62220025  1
  Zr  Zr56  1  0.00632096  0.40310595  0.76102249  1
  Zr  Zr57  1  0.60406304  0.00386363  0.48031261  1
  Zr  Zr58  1  0.09590681  0.68863475  0.61427528  1
  Zr  Zr59  1  0.20067536  0.58912583  0.25029928  1
  Zr  Zr60  1  0.50671114  0.49706438  0.11497921  1
  Zr  Zr61  1  0.39915506  0.20055658  0.26394251  1
  Zr  Zr62  1  0.79269030  0.40454518  0.24447605  1
  Zr  Zr63  1  0.39859975  0.00367013  0.47839928  1
  Zr  Zr64  1  0.39441792  0.61696535  0.00289231  1
  Zr  Zr65  1  0.49277871  0.10476634  0.61995891  1
  Zr  Zr66  1  0.78322847  0.61434144  0.75463382  1
  Zr  Zr67  1  0.49539015  0.32427313  0.39138416  1
  Zr  Zr68  1  0.61408625  0.60198269  0.24258555  1
  Zr  Zr69  1  -0.00570786  -0.01455790  0.76665136  1
  Zr  Zr70  1  0.19985017  -0.02151979  0.48369207  1
  Zr  Zr71  1  0.49893171  0.88009135  0.35716362  1
  Zr  Zr72  1  0.69398516  0.10349901  0.14000533  1
  Zr  Zr73  1  0.07315415  0.08816804  0.35505053  1
  Zr  Zr74  1  0.69212331  0.32066595  0.38098939  1
  Zr  Zr75  1  0.70915590  0.91671286  0.87684076  1
  Zr  Zr76  1  0.40126665  0.40861889  0.75676117  1
  Zr  Zr77  1  0.38658930  0.20093239  0.48344328  1
  Zr  Zr78  1  0.10255501  0.29503645  0.63408361  1
  Zr  Zr79  1  0.89804493  0.10091690  0.64408475  1
  Ta  Ta80  1  0.50131291  0.70284173  0.63315024  1
  Ta  Ta81  1  0.78596570  0.20442574  0.75191947  1
  Ta  Ta82  1  0.09829629  0.88739969  0.89705365  1
  Ta  Ta83  1  0.10342658  0.10375773  0.65142792  1
  Ta  Ta84  1  -0.00252479  0.38179967  -0.00415790  1
  Ta  Ta85  1  0.28765493  0.07961570  0.63075413  1
  Ta  Ta86  1  0.40246050  0.39124762  -0.00407551  1
  Ta  Ta87  1  0.79937460  0.79101753  0.25332975  1
  Ta  Ta88  1  0.39816309  0.80788494  0.73987036  1
  Ta  Ta89  1  0.00637172  0.79541777  0.76492694  1
  Ta  Ta90  1  0.10364132  0.30169755  0.12317012  1
  Ta  Ta91  1  0.59253558  0.20381112  0.01392453  1
  Ta  Ta92  1  0.68824628  0.12089894  0.88170251  1
  Ta  Ta93  1  0.59469627  0.23421558  0.23979406  1
  Ta  Ta94  1  0.39985680  0.19044185  -0.00158339  1
  Ta  Ta95  1  0.71801517  0.71608444  0.11610927  1
  Ta  Ta96  1  0.59489205  0.01415844  0.00431427  1
  Ta  Ta97  1  0.38843508  0.00516081  0.26538100  1
  Ta  Ta98  1  0.50191181  0.90702759  0.62580017  1
  Ta  Ta99  1  -0.00191651  -0.01032235  0.01392005  1
  Ta  Ta100  1  0.40371155  -0.00498477  0.75113840  1
  Ta  Ta101  1  0.61427158  0.39031813  -0.00713183  1
  Ta  Ta102  1  0.70497159  0.51576004  0.37937930  1
  Ta  Ta103  1  0.10198255  0.49756618  0.37778750  1
  Ta  Ta104  1  -0.00868478  0.20042482  0.22642185  1
  Ta  Ta105  1  0.38947159  0.60771603  0.74855449  1
  Ta  Ta106  1  -0.01271558  0.59366377  0.49627940  1
  Ta  Ta107  1  0.20661611  0.39252630  0.24855909  1
  Ta  Ta108  1  0.50130125  0.91127120  0.87302956  1
  Ta  Ta109  1  0.10147500  0.49449968  0.89301705  1
  Ta  Ta110  1  0.00723860  0.40472647  0.24573221  1
  Ta  Ta111  1  -0.00046876  -0.01474864  0.21287412  1
  Ta  Ta112  1  0.30130221  0.29442510  0.11312129  1
  Ta  Ta113  1  0.31588642  0.88070505  0.88799746  1
  Ta  Ta114  1  0.29795928  0.49300594  0.61708920  1
  Ta  Ta115  1  0.09862801  0.30362291  0.36338168  1
  Ta  Ta116  1  0.69748710  0.09874848  0.62175803  1
  Ta  Ta117  1  0.29597026  0.50948539  0.88650460  1
  Ta  Ta118  1  0.19994291  0.57950756  0.75201868  1
  Ta  Ta119  1  0.70181413  0.90623134  0.62488289  1
  Ti  Ti120  1  0.01004595  0.80644039  0.49652257  1
  Ti  Ti121  1  0.00292647  0.60370450  0.24322416  1
  Ti  Ti122  1  0.29627916  0.69309629  0.38263492  1
  Ti  Ti123  1  0.89175043  0.29562118  0.87042252  1
  Ti  Ti124  1  0.90434633  0.50252655  0.36871691  1
  Ti  Ti125  1  0.20492255  0.38929262  0.49378020  1
  Ti  Ti126  1  0.89585581  0.69079015  0.37518302  1
  Ti  Ti127  1  0.70468888  0.89476299  0.35983231  1
  Ti  Ti128  1  0.80804016  -0.00335688  0.24314534  1
  Ti  Ti129  1  0.20436910  0.39098515  -0.01153970  1
  Ti  Ti130  1  0.10574682  0.09880497  0.12291931  1
  Ti  Ti131  1  0.29784001  0.68914983  0.13042865  1
  Ti  Ti132  1  0.60614695  0.61591764  -0.00106399  1
  Ti  Ti133  1  0.30281620  0.49146789  0.11518701  1
  Ti  Ti134  1  0.21309641  0.78144959  0.00641597  1
  Ti  Ti135  1  0.60836932  0.59688540  0.51727049  1
  Ti  Ti136  1  0.90319683  0.50768570  0.62931538  1
  Ti  Ti137  1  -0.00151306  0.79469276  0.01835337  1
  Ti  Ti138  1  0.00116445  0.60698616  0.00739889  1
  Ti  Ti139  1  0.88085483  0.87885626  0.12259609  1
  Ti  Ti140  1  0.50232912  0.09466082  0.87504592  1
  Ti  Ti141  1  0.39791265  0.60001626  0.25099353  1
  Ti  Ti142  1  0.79068456  0.60758372  0.50950446  1
  Ti  Ti143  1  0.69469388  0.69878784  0.37188938  1
  Ti  Ti144  1  0.59570699  0.60202483  0.74358891  1
  Ti  Ti145  1  0.28859807  0.87978955  0.36195908  1
  Ti  Ti146  1  0.60544879  0.00571277  0.74885982  1
  Ti  Ti147  1  0.69626911  0.30640015  0.61585315  1
  Ti  Ti148  1  0.81212571  0.60528204  0.24664787  1
  Ti  Ti149  1  0.41073023  -0.00429774  0.00130733  1
  Ti  Ti150  1  0.59973103  0.20101017  0.49659433  1
  Ti  Ti151  1  0.51896391  0.50636118  0.37559061  1
  Ti  Ti152  1  0.48861065  0.10921911  0.13146605  1
  Ti  Ti153  1  -0.00163075  0.79082400  0.22841956  1
  Ti  Ti154  1  0.70103351  0.50867014  0.88984008  1
  Ti  Ti155  1  0.30419369  0.09651734  0.12232669  1
  Ti  Ti156  1  0.89456971  0.71155785  0.88998295  1
  Ti  Ti157  1  0.30892161  0.08996576  0.87894576  1
  Ti  Ti158  1  0.50085980  0.69392343  0.36287500  1
  Ti  Ti159  1  0.10494560  0.49710230  0.61652290  1
  Mo  Mo160  1  0.19260381  0.58269850  0.49516136  1
  Mo  Mo161  1  0.30129436  0.69565647  0.87159422  1
  Mo  Mo162  1  0.69640971  0.71071434  0.62597507  1
  Mo  Mo163  1  0.20371075  0.59418942  0.00525143  1
  Mo  Mo164  1  0.30810586  0.90018946  0.62761362  1
  Mo  Mo165  1  0.80044203  0.20904494  0.22791385  1
  Mo  Mo166  1  0.39117166  0.78564813  0.25873317  1
  Mo  Mo167  1  0.80559438  0.80523880  -0.00346469  1
  Mo  Mo168  1  0.70225643  0.30201602  0.87319450  1
  Mo  Mo169  1  0.50611089  0.11392797  0.37036428  1
  Mo  Mo170  1  0.29160618  0.09083142  0.36835083  1
  Mo  Mo171  1  0.49421321  0.29786982  0.11368109  1
  Mo  Mo172  1  0.10327097  0.88970127  0.10609052  1
  Mo  Mo173  1  0.49375464  0.51443798  0.63410996  1
  Mo  Mo174  1  0.89785289  0.09545377  0.13275463  1
  Mo  Mo175  1  0.20174146  0.79213537  0.49048682  1
  Mo  Mo176  1  0.89888094  0.09564153  0.34290219  1
  Mo  Mo177  1  0.69768291  0.89769963  0.13946778  1
  Mo  Mo178  1  0.61225815  0.79829913  0.24956552  1
  Mo  Mo179  1  0.79967618  0.61360264  -0.00740389  1
  Mo  Mo180  1  0.69713504  0.50626394  0.62513108  1
  Mo  Mo181  1  0.60040610  0.41416560  0.24700071  1
  Mo  Mo182  1  0.90303329  0.30829774  0.12886637  1
  Mo  Mo183  1  0.09557824  0.88557819  0.36019851  1
  Mo  Mo184  1  0.91005791  0.89299347  0.89867376  1
  Mo  Mo185  1  0.09566287  0.09147874  0.86919842  1
  Mo  Mo186  1  0.00071695  0.19860148  0.76960767  1
  Mo  Mo187  1  0.77953851  0.01050855  0.74727402  1
  Mo  Mo188  1  0.30441294  0.29771134  0.89047553  1
  Mo  Mo189  1  0.39590924  0.40841500  0.50679829  1
  Mo  Mo190  1  0.69914688  0.69830361  0.88654518  1
  Mo  Mo191  1  0.08923518  0.29373909  0.87854892  1
  Mo  Mo192  1  0.40552655  0.80960668  0.00305776  1
  Mo  Mo193  1  0.60419480  0.42544317  0.51065999  1
  Mo  Mo194  1  0.19393194  0.18440548  0.77583746  1
  Mo  Mo195  1  0.68942478  0.31699416  0.12536763  1
  Mo  Mo196  1  0.28375838  0.30530511  0.37713838  1
  Mo  Mo197  1  0.89982335  0.69275461  0.12527467  1
  Mo  Mo198  1  0.09961127  0.69600877  0.11530340  1
  Mo  Mo199  1  0.80468488  0.40096392  -0.01045023  1
