# generated using pymatgen
data_HfZrTaTiMo
_symmetry_space_group_name_H-M   'P 1'
_cell_length_a   15.21672060
_cell_length_b   15.21651089
_cell_length_c   16.81129703
_cell_angle_alpha   89.96547277
_cell_angle_beta   90.05587777
_cell_angle_gamma   89.92109984
_symmetry_Int_Tables_number   1
_chemical_formula_structural   HfZrTaTiMo
_chemical_formula_sum   'Hf40 Zr40 Ta40 Ti40 Mo40'
_cell_volume   3892.57215304
_cell_formula_units_Z   40
loop_
 _symmetry_equiv_pos_site_id
 _symmetry_equiv_pos_as_xyz
  1  'x, y, z'
loop_
 _atom_site_type_symbol
 _atom_site_label
 _atom_site_symmetry_multiplicity
 _atom_site_fract_x
 _atom_site_fract_y
 _atom_site_fract_z
 _atom_site_occupancy
  Hf  Hf0  1  -0.00053592  0.18287565  -0.01548821  1
  Hf  Hf1  1  0.81310802  -0.00586037  0.52301086  1
  Hf  Hf2  1  0.50260716  0.51334222  0.11667287  1
  Hf  Hf3  1  0.90939216  0.50856693  0.11092783  1
  Hf  Hf4  1  0.18786766  0.39577185  0.76572281  1
  Hf  Hf5  1  -0.02392720  0.39925617  0.74825194  1
  Hf  Hf6  1  0.09443810  0.70197896  0.38229874  1
  Hf  Hf7  1  0.60579356  0.40542612  0.24767123  1
  Hf  Hf8  1  0.30757496  0.49534892  0.10068570  1
  Hf  Hf9  1  0.19584598  0.39162074  0.51886603  1
  Hf  Hf10  1  0.80225196  0.39924343  0.23967054  1
  Hf  Hf11  1  0.49505333  0.30320416  0.37155048  1
  Hf  Hf12  1  0.10133913  0.89539071  0.14444745  1
  Hf  Hf13  1  0.38785578  0.80687808  0.49704692  1
  Hf  Hf14  1  0.09289485  0.28265906  0.64091171  1
  Hf  Hf15  1  0.89632766  0.30226047  0.88651346  1
  Hf  Hf16  1  0.59448481  0.80788294  -0.01361797  1
  Hf  Hf17  1  0.80284112  0.81668569  0.00010422  1
  Hf  Hf18  1  0.59527915  0.20195680  0.50499871  1
  Hf  Hf19  1  0.41182555  0.00844891  0.23816405  1
  Hf  Hf20  1  -0.00138806  0.79157002  0.74559034  1
  Hf  Hf21  1  0.59081662  0.61362688  0.25268266  1
  Hf  Hf22  1  0.68271184  0.71661885  0.12873324  1
  Hf  Hf23  1  0.10899342  0.29276721  0.11321584  1
  Hf  Hf24  1  0.49440816  0.30497159  0.10985218  1
  Hf  Hf25  1  0.90266893  0.90362413  0.86745524  1
  Hf  Hf26  1  0.41123171  0.78466194  0.23838113  1
  Hf  Hf27  1  0.59747874  0.18743864  0.25537047  1
  Hf  Hf28  1  0.19663141  -0.01821746  0.00145335  1
  Hf  Hf29  1  0.50470630  0.49961815  0.62106110  1
  Hf  Hf30  1  0.79194057  0.61659319  0.00699798  1
  Hf  Hf31  1  0.49700726  0.29480058  0.87404127  1
  Hf  Hf32  1  0.48683031  0.70391869  0.87018468  1
  Hf  Hf33  1  0.89366693  0.90288503  0.37566887  1
  Hf  Hf34  1  0.21060960  0.38424700  -0.02019933  1
  Hf  Hf35  1  0.70187056  0.27862858  0.12215408  1
  Hf  Hf36  1  0.90700895  0.10061183  0.37466088  1
  Hf  Hf37  1  0.70143299  0.92613311  0.12161146  1
  Hf  Hf38  1  0.89910040  0.50971564  0.89258056  1
  Hf  Hf39  1  0.80612414  0.20573163  0.50701538  1
  Zr  Zr40  1  0.70696485  0.51630490  0.62047722  1
  Zr  Zr41  1  0.59858793  0.40254176  -0.01079624  1
  Zr  Zr42  1  0.39819372  0.59893247  0.50041597  1
  Zr  Zr43  1  0.49696286  0.69843238  0.62702626  1
  Zr  Zr44  1  0.50334210  0.89771841  0.62647580  1
  Zr  Zr45  1  0.70675522  0.10244349  0.64263663  1
  Zr  Zr46  1  0.29133229  0.29599098  0.37353612  1
  Zr  Zr47  1  0.20163093  0.17850540  -0.01568313  1
  Zr  Zr48  1  0.70249942  0.30882590  0.63716572  1
  Zr  Zr49  1  0.87397158  0.69675566  0.38711504  1
  Zr  Zr50  1  0.37987101  0.20417014  0.22842389  1
  Zr  Zr51  1  0.70140486  0.91117155  0.86317300  1
  Zr  Zr52  1  0.01016323  0.60250928  0.24277004  1
  Zr  Zr53  1  0.09577871  0.29737574  0.37698480  1
  Zr  Zr54  1  0.19851353  0.60589878  0.75873175  1
  Zr  Zr55  1  -0.00866506  0.58493180  0.50343060  1
  Zr  Zr56  1  0.40158843  0.00929960  0.50537569  1
  Zr  Zr57  1  0.11443785  0.49371223  0.37315468  1
  Zr  Zr58  1  -0.00878154  0.20711829  0.24719455  1
  Zr  Zr59  1  0.31181622  0.08070012  0.85694378  1
  Zr  Zr60  1  0.29261327  0.69239125  0.37089290  1
  Zr  Zr61  1  0.00856583  0.40203766  0.23582913  1
  Zr  Zr62  1  0.51252914  0.89803600  0.12527576  1
  Zr  Zr63  1  0.88469546  0.10763617  0.12977747  1
  Zr  Zr64  1  0.88884560  0.69079681  0.61817885  1
  Zr  Zr65  1  0.29228154  0.90091711  0.35246593  1
  Zr  Zr66  1  0.50983811  0.90724868  0.37791459  1
  Zr  Zr67  1  0.39568171  0.40835508  0.75335102  1
  Zr  Zr68  1  0.39667197  0.39497771  0.51320091  1
  Zr  Zr69  1  0.59889887  0.40947021  0.75474311  1
  Zr  Zr70  1  0.01867126  0.00438363  0.51037781  1
  Zr  Zr71  1  0.10112596  0.90578995  0.35744444  1
  Zr  Zr72  1  0.19923638  0.18299311  0.51068221  1
  Zr  Zr73  1  0.78724866  0.40487170  0.01037246  1
  Zr  Zr74  1  0.89893907  0.49195386  0.37205106  1
  Zr  Zr75  1  0.39678995  0.19844358  0.51618413  1
  Zr  Zr76  1  -0.01180079  0.79413826  0.24903795  1
  Zr  Zr77  1  0.20180125  0.59650232  0.50916226  1
  Zr  Zr78  1  0.09018351  0.50574273  0.89057039  1
  Zr  Zr79  1  0.59954869  0.60509339  -0.01110773  1
  Ta  Ta80  1  0.29106699  0.71131819  0.62953307  1
  Ta  Ta81  1  0.61353035  -0.00492251  0.51124644  1
  Ta  Ta82  1  0.09900324  0.70011821  0.62150307  1
  Ta  Ta83  1  0.79985488  0.02674385  -0.00937901  1
  Ta  Ta84  1  0.29209430  0.90502178  0.63506118  1
  Ta  Ta85  1  0.91792324  0.10914474  0.64503617  1
  Ta  Ta86  1  0.39004721  0.79688948  0.01140343  1
  Ta  Ta87  1  0.70918574  0.70616332  0.86099094  1
  Ta  Ta88  1  0.09010779  0.49849795  0.63372890  1
  Ta  Ta89  1  0.21562758  0.39434252  0.23139892  1
  Ta  Ta90  1  0.40009096  -0.00200861  0.00689712  1
  Ta  Ta91  1  0.79278361  0.60476328  0.23838692  1
  Ta  Ta92  1  0.09762564  0.08972624  0.13509888  1
  Ta  Ta93  1  0.51642778  0.10118063  0.11165414  1
  Ta  Ta94  1  -0.00724937  0.80799153  0.51089942  1
  Ta  Ta95  1  0.00369110  0.80618919  0.00665556  1
  Ta  Ta96  1  0.61679685  0.18661226  -0.01762182  1
  Ta  Ta97  1  0.11253880  0.09845882  0.35684511  1
  Ta  Ta98  1  0.70340365  0.30679096  0.38008082  1
  Ta  Ta99  1  0.39957755  0.19446091  0.00076858  1
  Ta  Ta100  1  0.78541578  0.00387503  0.25831656  1
  Ta  Ta101  1  0.00849744  0.19417963  0.77414680  1
  Ta  Ta102  1  0.38613407  0.59480971  0.24503994  1
  Ta  Ta103  1  0.11062728  0.50577602  0.10012710  1
  Ta  Ta104  1  0.59985210  0.00013520  0.75101893  1
  Ta  Ta105  1  0.38379054  0.80362500  0.75264697  1
  Ta  Ta106  1  0.01282604  -0.00816028  0.75449613  1
  Ta  Ta107  1  0.21038523  -0.00410081  0.50067978  1
  Ta  Ta108  1  0.60343600  0.40500173  0.49453064  1
  Ta  Ta109  1  0.70000167  0.51621961  0.38026967  1
  Ta  Ta110  1  0.68840393  0.70853406  0.63264248  1
  Ta  Ta111  1  -0.00084007  -0.00564385  -0.00501815  1
  Ta  Ta112  1  0.49768191  0.50204150  0.37538796  1
  Ta  Ta113  1  0.69851954  0.09035633  0.38733840  1
  Ta  Ta114  1  0.19077668  0.80899382  0.50438567  1
  Ta  Ta115  1  0.90140204  0.91553581  0.13095977  1
  Ta  Ta116  1  0.80525655  0.59902616  0.75396128  1
  Ta  Ta117  1  0.00181852  0.19603907  0.50522153  1
  Ta  Ta118  1  0.70656864  0.29710909  0.86043317  1
  Ta  Ta119  1  0.29938872  0.28599125  0.65105702  1
  Ti  Ti120  1  0.79703423  0.80729306  0.73730693  1
  Ti  Ti121  1  0.29446966  0.88683643  0.87709843  1
  Ti  Ti122  1  0.90265701  0.70215044  0.87750111  1
  Ti  Ti123  1  0.60756051  0.79539874  0.49406250  1
  Ti  Ti124  1  0.78974415  0.20065375  0.26368994  1
  Ti  Ti125  1  0.60052689  0.00635613  -0.01727747  1
  Ti  Ti126  1  0.09460595  0.70644992  0.88745709  1
  Ti  Ti127  1  0.80449915  0.40987814  0.50218634  1
  Ti  Ti128  1  0.10547323  0.89659983  0.62878147  1
  Ti  Ti129  1  0.50241049  0.10802098  0.64437491  1
  Ti  Ti130  1  0.50427143  0.09920742  0.86387799  1
  Ti  Ti131  1  0.70566101  0.50342393  0.86741131  1
  Ti  Ti132  1  0.29210280  0.50411538  0.63564914  1
  Ti  Ti133  1  0.89785631  0.30176703  0.38081385  1
  Ti  Ti134  1  0.29294412  0.70010982  0.88460841  1
  Ti  Ti135  1  0.72275710  0.10948296  0.84782485  1
  Ti  Ti136  1  0.78755995  0.80519015  0.51133282  1
  Ti  Ti137  1  -0.01007987  0.38584830  0.51891770  1
  Ti  Ti138  1  0.90557674  0.29994181  0.10260478  1
  Ti  Ti139  1  0.59233385  0.80386306  0.75602520  1
  Ti  Ti140  1  0.61170908  0.81809606  0.26574543  1
  Ti  Ti141  1  0.29842587  0.09945059  0.36775762  1
  Ti  Ti142  1  0.48271434  0.90919429  0.87109005  1
  Ti  Ti143  1  0.31912353  0.50937882  0.88874870  1
  Ti  Ti144  1  0.20123199  0.75767731  0.23082750  1
  Ti  Ti145  1  0.19668058  0.78637830  0.01325152  1
  Ti  Ti146  1  -0.00333024  0.59800953  0.74655865  1
  Ti  Ti147  1  0.60012508  0.60584059  0.75987906  1
  Ti  Ti148  1  0.49867719  0.10087503  0.37894489  1
  Ti  Ti149  1  0.79273426  0.80521443  0.25039154  1
  Ti  Ti150  1  0.11897080  0.08888110  0.64792888  1
  Ti  Ti151  1  0.30362385  0.09102194  0.65334366  1
  Ti  Ti152  1  0.50303496  0.69738665  0.38235638  1
  Ti  Ti153  1  0.30327405  0.49090329  0.36854834  1
  Ti  Ti154  1  0.30403064  0.28156728  0.85851391  1
  Ti  Ti155  1  0.29826376  0.89706725  0.13480143  1
  Ti  Ti156  1  0.40227075  0.40536255  0.24298210  1
  Ti  Ti157  1  0.18986371  0.80145165  0.75654623  1
  Ti  Ti158  1  0.39733534  0.60426409  0.74998623  1
  Ti  Ti159  1  0.90012428  0.71289297  0.12276429  1
  Mo  Mo160  1  -0.00610163  0.00360463  0.24962223  1
  Mo  Mo161  1  0.60085727  0.60516884  0.48842886  1
  Mo  Mo162  1  0.21250808  0.01927290  0.23601105  1
  Mo  Mo163  1  0.41077511  0.19796990  0.74364830  1
  Mo  Mo164  1  0.50157147  0.29578852  0.63382092  1
  Mo  Mo165  1  0.89620037  0.49440423  0.62477364  1
  Mo  Mo166  1  0.30111760  0.09158055  0.11254849  1
  Mo  Mo167  1  0.09830351  0.69112477  0.11343216  1
  Mo  Mo168  1  0.30296726  0.29744019  0.10968685  1
  Mo  Mo169  1  0.81220759  -0.00243242  0.73441007  1
  Mo  Mo170  1  0.20275599  -0.02107619  0.75585222  1
  Mo  Mo171  1  0.69309480  0.10023698  0.12112874  1
  Mo  Mo172  1  0.19958769  0.18873309  0.76223516  1
  Mo  Mo173  1  0.40904863  -0.01126976  0.74887914  1
  Mo  Mo174  1  0.19801038  0.20105080  0.23965651  1
  Mo  Mo175  1  0.60398616  0.19795101  0.76249208  1
  Mo  Mo176  1  0.29876321  0.68969127  0.11694263  1
  Mo  Mo177  1  0.80010722  0.41279227  0.75683357  1
  Mo  Mo178  1  0.49285927  0.70251833  0.12131890  1
  Mo  Mo179  1  0.89995485  0.29590249  0.62660705  1
  Mo  Mo180  1  0.90660780  0.90132692  0.63497042  1
  Mo  Mo181  1  0.70227430  0.50899446  0.13439945  1
  Mo  Mo182  1  0.78243200  0.60421346  0.49938138  1
  Mo  Mo183  1  0.69737829  0.89126622  0.63448085  1
  Mo  Mo184  1  0.09828448  0.07598417  0.86941507  1
  Mo  Mo185  1  0.69264708  0.71096796  0.37060045  1
  Mo  Mo186  1  0.20524335  0.60620257  -0.01255941  1
  Mo  Mo187  1  0.20461891  0.57947309  0.24126624  1
  Mo  Mo188  1  0.40046100  0.60923526  -0.00384738  1
  Mo  Mo189  1  -0.00007971  0.61953846  0.00546277  1
  Mo  Mo190  1  0.10025170  0.29355012  0.87144149  1
  Mo  Mo191  1  0.60448593  0.00796977  0.25855846  1
  Mo  Mo192  1  0.89699832  0.09337033  0.85881324  1
  Mo  Mo193  1  0.70789519  0.90117470  0.38503288  1
  Mo  Mo194  1  0.81846169  0.21487482  0.74451700  1
  Mo  Mo195  1  0.79661976  0.19847389  -0.00982239  1
  Mo  Mo196  1  0.49881257  0.51008677  0.87018162  1
  Mo  Mo197  1  0.00571048  0.39619724  0.00639342  1
  Mo  Mo198  1  0.40234195  0.39496720  -0.02009462  1
  Mo  Mo199  1  0.10215886  0.88335169  0.88215977  1
