# generated using pymatgen
data_HfZrTaTiMo
_symmetry_space_group_name_H-M   'P 1'
_cell_length_a   15.20514142
_cell_length_b   15.22557607
_cell_length_c   16.86109862
_cell_angle_alpha   89.95971049
_cell_angle_beta   90.01468457
_cell_angle_gamma   90.08707702
_symmetry_Int_Tables_number   1
_chemical_formula_structural   HfZrTaTiMo
_chemical_formula_sum   'Hf40 Zr40 Ta40 Ti40 Mo40'
_cell_volume   3903.45738917
_cell_formula_units_Z   40
loop_
 _symmetry_equiv_pos_site_id
 _symmetry_equiv_pos_as_xyz
  1  'x, y, z'
loop_
 _atom_site_type_symbol
 _atom_site_label
 _atom_site_symmetry_multiplicity
 _atom_site_fract_x
 _atom_site_fract_y
 _atom_site_fract_z
 _atom_site_occupancy
  Hf  Hf0  1  0.41541718  -0.02113537  0.24011570  1
  Hf  Hf1  1  0.40931362  -0.01061798  0.00758584  1
  Hf  Hf2  1  0.90035538  0.50210818  0.62272091  1
  Hf  Hf3  1  0.20292508  0.20137960  -0.00659942  1
  Hf  Hf4  1  0.49544433  0.08995457  0.37231459  1
  Hf  Hf5  1  0.50101119  0.50700309  0.38346235  1
  Hf  Hf6  1  0.60021582  0.40909212  0.25458150  1
  Hf  Hf7  1  0.19717300  -0.02389682  0.75203702  1
  Hf  Hf8  1  0.69445057  0.89946509  0.36307008  1
  Hf  Hf9  1  0.49479497  0.69550419  0.87268208  1
  Hf  Hf10  1  0.41274638  0.60349765  0.24135889  1
  Hf  Hf11  1  0.21047400  0.00776699  0.48723194  1
  Hf  Hf12  1  0.40077066  0.00329111  0.74684616  1
  Hf  Hf13  1  0.50798431  0.50504316  0.11776425  1
  Hf  Hf14  1  0.90252935  0.89353069  0.13727413  1
  Hf  Hf15  1  0.70881751  0.11567249  0.15048514  1
  Hf  Hf16  1  -0.02581156  0.58748971  0.24954295  1
  Hf  Hf17  1  0.90539070  0.51418265  0.86213186  1
  Hf  Hf18  1  0.08464807  0.70411212  0.13318753  1
  Hf  Hf19  1  0.78786119  0.60557111  0.50912906  1
  Hf  Hf20  1  0.29952386  0.88176146  0.88760145  1
  Hf  Hf21  1  0.61155057  0.00591425  0.75842752  1
  Hf  Hf22  1  0.90291011  0.11050343  0.86926022  1
  Hf  Hf23  1  0.50852885  0.10777064  0.87968168  1
  Hf  Hf24  1  0.90853586  0.11196988  0.61870325  1
  Hf  Hf25  1  0.70316207  0.11748375  0.35714551  1
  Hf  Hf26  1  0.50284806  0.90474680  0.62590678  1
  Hf  Hf27  1  0.60993563  0.20294746  0.74345211  1
  Hf  Hf28  1  0.30293995  0.09428589  0.87632796  1
  Hf  Hf29  1  0.60430443  0.79624843  0.75048909  1
  Hf  Hf30  1  0.52163896  0.08899235  0.12998971  1
  Hf  Hf31  1  0.77953163  0.79940552  -0.00093858  1
  Hf  Hf32  1  0.88225682  0.69261369  0.37359955  1
  Hf  Hf33  1  0.60139128  0.58311783  0.73213870  1
  Hf  Hf34  1  0.50961515  0.29900656  0.12608648  1
  Hf  Hf35  1  0.90915569  0.90146152  0.62392891  1
  Hf  Hf36  1  0.10396050  0.30215302  0.37910592  1
  Hf  Hf37  1  0.19443279  0.43738213  0.74422705  1
  Hf  Hf38  1  0.49634825  0.49720207  0.88013734  1
  Hf  Hf39  1  0.89768976  0.89961287  0.87257545  1
  Zr  Zr40  1  0.29343746  0.49576160  0.38116881  1
  Zr  Zr41  1  0.10531271  0.29448611  0.13863980  1
  Zr  Zr42  1  0.68745774  0.91126247  0.14461966  1
  Zr  Zr43  1  0.09975194  0.09497954  0.13667326  1
  Zr  Zr44  1  0.29691449  0.10054490  0.12711718  1
  Zr  Zr45  1  0.19512845  0.40960447  -0.01452226  1
  Zr  Zr46  1  0.59799105  0.00241842  0.49769892  1
  Zr  Zr47  1  0.20214044  0.59710961  0.24474025  1
  Zr  Zr48  1  0.39741569  0.60377184  0.52115592  1
  Zr  Zr49  1  0.08248530  0.28937794  0.63055822  1
  Zr  Zr50  1  -0.00943851  0.78733175  -0.00467765  1
  Zr  Zr51  1  0.40850081  0.19985019  0.25190004  1
  Zr  Zr52  1  0.09123003  0.48506422  0.13351980  1
  Zr  Zr53  1  0.67514109  0.70565308  0.13781922  1
  Zr  Zr54  1  0.32137209  0.89948114  0.37838197  1
  Zr  Zr55  1  0.29024780  0.88703401  0.11944015  1
  Zr  Zr56  1  0.80814075  0.20685319  0.74323236  1
  Zr  Zr57  1  0.29390675  0.29590494  0.63067171  1
  Zr  Zr58  1  0.09749231  0.90026437  0.12819266  1
  Zr  Zr59  1  0.81142315  0.01250257  0.48387419  1
  Zr  Zr60  1  0.30650126  0.30615954  0.85818091  1
  Zr  Zr61  1  0.80050394  0.20971116  0.00860870  1
  Zr  Zr62  1  0.09079354  0.30250376  0.85519192  1
  Zr  Zr63  1  0.28062869  0.68124093  0.87330283  1
  Zr  Zr64  1  0.80965407  0.00895458  0.00483448  1
  Zr  Zr65  1  0.41504967  0.40537792  0.73608139  1
  Zr  Zr66  1  0.00644158  0.79578164  0.75242056  1
  Zr  Zr67  1  0.81399613  0.41652666  0.00659958  1
  Zr  Zr68  1  0.69970867  0.49609993  0.87615115  1
  Zr  Zr69  1  0.08747912  0.70229947  0.36763644  1
  Zr  Zr70  1  0.00221315  0.20646110  -0.00070757  1
  Zr  Zr71  1  0.70923533  0.31069114  0.37673316  1
  Zr  Zr72  1  0.51399414  0.29601137  0.61609808  1
  Zr  Zr73  1  0.71212717  0.91055021  0.62387561  1
  Zr  Zr74  1  0.38604766  0.79864834  0.73897371  1
  Zr  Zr75  1  0.30936678  0.29455921  0.38556663  1
  Zr  Zr76  1  0.61892489  -0.01229315  -0.01504265  1
  Zr  Zr77  1  0.40738085  0.20435154  0.00429991  1
  Zr  Zr78  1  0.38645558  0.59606718  0.72936105  1
  Zr  Zr79  1  0.29827452  0.69568192  0.37891492  1
  Ta  Ta80  1  0.39692448  0.39936784  -0.00129673  1
  Ta  Ta81  1  0.89622982  0.48723751  0.38669381  1
  Ta  Ta82  1  0.20728327  0.00383357  0.27155617  1
  Ta  Ta83  1  0.80101421  0.40000251  0.50736845  1
  Ta  Ta84  1  0.80921626  0.41614420  0.24832617  1
  Ta  Ta85  1  0.39527504  0.40244759  0.25078519  1
  Ta  Ta86  1  0.19829893  0.17731080  0.74499752  1
  Ta  Ta87  1  0.19337851  0.80215584  0.49277473  1
  Ta  Ta88  1  0.89624938  0.31556866  0.87093559  1
  Ta  Ta89  1  0.38868383  0.59094316  0.00482679  1
  Ta  Ta90  1  0.19632661  0.40511511  0.51364066  1
  Ta  Ta91  1  0.60678030  0.41182204  0.50179563  1
  Ta  Ta92  1  -0.01443878  0.58247306  0.00504897  1
  Ta  Ta93  1  0.67913999  0.70009244  0.36728008  1
  Ta  Ta94  1  0.19673624  0.19601769  0.50456225  1
  Ta  Ta95  1  0.60117383  0.79199273  0.50329305  1
  Ta  Ta96  1  0.60396292  0.61408829  -0.00179793  1
  Ta  Ta97  1  0.82746030  0.22246519  0.24880587  1
  Ta  Ta98  1  -0.00921234  0.38293935  0.26490575  1
  Ta  Ta99  1  0.19383410  -0.00491089  -0.00639406  1
  Ta  Ta100  1  0.40236589  0.39777414  0.51185523  1
  Ta  Ta101  1  0.29880604  0.31035747  0.13147016  1
  Ta  Ta102  1  0.08970547  0.70214486  0.61674296  1
  Ta  Ta103  1  0.09295741  0.49622770  0.37775772  1
  Ta  Ta104  1  0.18543191  0.60165330  0.00686136  1
  Ta  Ta105  1  0.10507959  0.89561333  0.61495733  1
  Ta  Ta106  1  0.51304343  0.30532769  0.87353713  1
  Ta  Ta107  1  -0.00494390  0.59875238  0.50106257  1
  Ta  Ta108  1  0.71052710  0.51563931  0.12623596  1
  Ta  Ta109  1  -0.00637488  0.79947646  0.49793756  1
  Ta  Ta110  1  0.40213917  0.80408324  0.51385918  1
  Ta  Ta111  1  0.09889944  0.08935152  0.87079937  1
  Ta  Ta112  1  0.70397402  0.51465213  0.37549536  1
  Ta  Ta113  1  0.39811671  0.17540809  0.51117323  1
  Ta  Ta114  1  0.78689455  0.40671816  0.73864161  1
  Ta  Ta115  1  0.70983047  0.69652152  0.86849105  1
  Ta  Ta116  1  0.79734127  0.80288938  0.49471896  1
  Ta  Ta117  1  0.40636614  0.19166818  0.73931582  1
  Ta  Ta118  1  0.56557333  0.80298414  0.25369292  1
  Ta  Ta119  1  0.01321738  0.59464630  0.73893581  1
  Ti  Ti120  1  0.20566277  0.20163840  0.26094200  1
  Ti  Ti121  1  0.00290558  0.00129257  -0.00046353  1
  Ti  Ti122  1  0.50440497  0.89229810  0.87452745  1
  Ti  Ti123  1  0.40807075  0.78685849  0.00618579  1
  Ti  Ti124  1  0.27704061  0.71214735  0.62291765  1
  Ti  Ti125  1  0.70514875  0.31219864  0.13473288  1
  Ti  Ti126  1  0.91220309  0.10335911  0.13761395  1
  Ti  Ti127  1  0.79950102  0.79335565  0.25194957  1
  Ti  Ti128  1  0.91099217  0.89147751  0.36751252  1
  Ti  Ti129  1  0.80836910  0.61232065  0.73693575  1
  Ti  Ti130  1  0.90621716  0.28227418  0.39449585  1
  Ti  Ti131  1  0.80439312  0.80094402  0.75225148  1
  Ti  Ti132  1  0.60518918  0.39718358  0.00313868  1
  Ti  Ti133  1  0.18737903  0.59945646  0.50626135  1
  Ti  Ti134  1  0.81736689  0.00738655  0.26123875  1
  Ti  Ti135  1  0.00922445  -0.00115614  0.48521256  1
  Ti  Ti136  1  0.87671696  0.68319979  0.12717168  1
  Ti  Ti137  1  0.91390588  0.31377982  0.12549150  1
  Ti  Ti138  1  0.29632080  0.49291426  0.12730813  1
  Ti  Ti139  1  0.10366475  0.08868897  0.62003676  1
  Ti  Ti140  1  0.61286266  0.19471099  0.50581687  1
  Ti  Ti141  1  0.08579807  0.68591062  0.87583052  1
  Ti  Ti142  1  0.38609197  0.78947034  0.23801888  1
  Ti  Ti143  1  0.61373705  0.20092628  -0.00210030  1
  Ti  Ti144  1  0.09635941  0.10755681  0.37437886  1
  Ti  Ti145  1  0.00104088  0.39428993  0.50402150  1
  Ti  Ti146  1  0.00425989  0.00620911  0.74755210  1
  Ti  Ti147  1  0.29092125  0.69522493  0.11464676  1
  Ti  Ti148  1  0.10441372  0.88648388  0.88525912  1
  Ti  Ti149  1  0.29426741  0.90780564  0.61459409  1
  Ti  Ti150  1  0.49134724  0.70858346  0.38166388  1
  Ti  Ti151  1  0.00959607  -0.00566708  0.26640242  1
  Ti  Ti152  1  0.59538201  0.60511300  0.51711148  1
  Ti  Ti153  1  0.70475328  0.70771104  0.62807987  1
  Ti  Ti154  1  0.18776991  0.81119459  0.26264153  1
  Ti  Ti155  1  0.70203939  0.29816350  0.87436272  1
  Ti  Ti156  1  0.71315703  0.29871481  0.61525605  1
  Ti  Ti157  1  0.79972865  0.00711348  0.75309170  1
  Ti  Ti158  1  0.50859162  0.29554451  0.38659359  1
  Ti  Ti159  1  -0.01324253  0.39635539  0.73890410  1
  Mo  Mo160  1  -0.01241583  0.80126206  0.25218809  1
  Mo  Mo161  1  0.29464927  0.09509676  0.62899294  1
  Mo  Mo162  1  0.89830193  0.30306008  0.61288713  1
  Mo  Mo163  1  0.59252074  0.60369381  0.25570312  1
  Mo  Mo164  1  0.69865365  0.49670557  0.62278223  1
  Mo  Mo165  1  0.00047577  0.19412352  0.25907269  1
  Mo  Mo166  1  0.60222609  -0.00177969  0.25760741  1
  Mo  Mo167  1  0.40183520  -0.00058732  0.50843251  1
  Mo  Mo168  1  0.90725672  0.10055880  0.36726152  1
  Mo  Mo169  1  0.00556794  0.18617734  0.49480792  1
  Mo  Mo170  1  0.89838195  0.49915788  0.12841486  1
  Mo  Mo171  1  0.10004239  0.90144835  0.37763550  1
  Mo  Mo172  1  0.00517403  0.19473614  0.75207194  1
  Mo  Mo173  1  0.69981488  0.10810297  0.61764165  1
  Mo  Mo174  1  0.50354338  0.88382387  0.38340636  1
  Mo  Mo175  1  0.30064531  0.10486667  0.37310757  1
  Mo  Mo176  1  0.29047442  0.50425106  0.61173225  1
  Mo  Mo177  1  0.80001636  0.61290684  -0.00098700  1
  Mo  Mo178  1  0.18869455  0.79505990  0.74464682  1
  Mo  Mo179  1  0.60723609  0.21361459  0.25449699  1
  Mo  Mo180  1  0.29986558  0.50488037  0.87766428  1
  Mo  Mo181  1  0.70760356  0.10875051  0.87601248  1
  Mo  Mo182  1  0.48723838  0.70029400  0.11555873  1
  Mo  Mo183  1  0.50358294  0.49722288  0.61271449  1
  Mo  Mo184  1  0.09426395  0.50355941  0.61143542  1
  Mo  Mo185  1  0.10103995  0.51561608  0.87478828  1
  Mo  Mo186  1  0.18815632  0.61795713  0.73981579  1
  Mo  Mo187  1  0.61058890  0.39164819  0.74791849  1
  Mo  Mo188  1  0.50370159  0.10009341  0.62494518  1
  Mo  Mo189  1  0.80292226  0.20407173  0.50197207  1
  Mo  Mo190  1  0.50416998  0.88003966  0.11822954  1
  Mo  Mo191  1  0.89572894  0.70921802  0.61850764  1
  Mo  Mo192  1  0.20502571  0.39720844  0.25520965  1
  Mo  Mo193  1  0.70790768  0.89652510  0.86360543  1
  Mo  Mo194  1  0.59208880  0.79659337  -0.01447824  1
  Mo  Mo195  1  0.78508173  0.59895276  0.25587638  1
  Mo  Mo196  1  -0.00021914  0.40025758  -0.00725681  1
  Mo  Mo197  1  0.50628156  0.70808488  0.62335559  1
  Mo  Mo198  1  0.19363737  0.78736153  0.00073429  1
  Mo  Mo199  1  0.89381944  0.69512195  0.87019938  1
