# generated using pymatgen
data_HfZrTaTiMo
_symmetry_space_group_name_H-M   'P 1'
_cell_length_a   15.20770083
_cell_length_b   15.21806900
_cell_length_c   16.83347267
_cell_angle_alpha   90.01948483
_cell_angle_beta   90.05690842
_cell_angle_gamma   90.03019778
_symmetry_Int_Tables_number   1
_chemical_formula_structural   HfZrTaTiMo
_chemical_formula_sum   'Hf40 Zr40 Ta40 Ti40 Mo40'
_cell_volume   3895.79887382
_cell_formula_units_Z   40
loop_
 _symmetry_equiv_pos_site_id
 _symmetry_equiv_pos_as_xyz
  1  'x, y, z'
loop_
 _atom_site_type_symbol
 _atom_site_label
 _atom_site_symmetry_multiplicity
 _atom_site_fract_x
 _atom_site_fract_y
 _atom_site_fract_z
 _atom_site_occupancy
  Hf  Hf0  1  -0.00316059  -0.00189598  0.01142052  1
  Hf  Hf1  1  0.49924371  0.69697182  0.87607020  1
  Hf  Hf2  1  0.58752670  0.59178079  0.51108260  1
  Hf  Hf3  1  0.69267535  0.69867373  0.86746040  1
  Hf  Hf4  1  0.19125345  0.39973365  0.48551788  1
  Hf  Hf5  1  0.19993915  0.59130854  0.02256622  1
  Hf  Hf6  1  0.79204500  0.39680719  0.24334197  1
  Hf  Hf7  1  0.49603205  0.27475591  0.86117984  1
  Hf  Hf8  1  0.70065637  0.32688880  0.64476622  1
  Hf  Hf9  1  0.00453894  -0.01274861  0.74418817  1
  Hf  Hf10  1  0.30925021  0.30858998  0.12626205  1
  Hf  Hf11  1  0.40521315  0.41703910  0.49858340  1
  Hf  Hf12  1  0.28576555  0.49357524  0.88025535  1
  Hf  Hf13  1  -0.00701630  0.58755796  -0.00699802  1
  Hf  Hf14  1  0.39570867  0.60981513  0.23262795  1
  Hf  Hf15  1  0.20342556  0.00758336  0.01903587  1
  Hf  Hf16  1  0.69530742  0.70606307  0.61978185  1
  Hf  Hf17  1  0.08748191  0.29950088  0.62762544  1
  Hf  Hf18  1  0.08804690  0.27796021  0.35116589  1
  Hf  Hf19  1  0.20817991  0.79781310  0.01234039  1
  Hf  Hf20  1  0.30687231  0.51064442  0.36294594  1
  Hf  Hf21  1  0.08687840  0.49793090  0.35648007  1
  Hf  Hf22  1  0.18290446  0.19776220  0.49597844  1
  Hf  Hf23  1  0.10173425  0.91899364  0.36975047  1
  Hf  Hf24  1  0.30237964  0.70235877  0.87416408  1
  Hf  Hf25  1  -0.01173007  0.19205699  0.76986076  1
  Hf  Hf26  1  0.39988328  0.80938379  0.74941621  1
  Hf  Hf27  1  0.50597831  0.90205821  0.12627712  1
  Hf  Hf28  1  0.60169514  0.39199169  -0.00837402  1
  Hf  Hf29  1  0.81402752  0.02475682  0.51394049  1
  Hf  Hf30  1  0.80209808  0.81404859  0.48846028  1
  Hf  Hf31  1  0.41132976  -0.00822734  0.48755174  1
  Hf  Hf32  1  0.68927245  0.30007585  0.37125421  1
  Hf  Hf33  1  0.71030335  0.89211345  0.13438364  1
  Hf  Hf34  1  0.30522107  0.10139832  0.61613380  1
  Hf  Hf35  1  0.60146874  -0.00311558  0.74327242  1
  Hf  Hf36  1  0.21031251  0.60045329  0.49146466  1
  Hf  Hf37  1  -0.00466004  0.80097101  -0.00350938  1
  Hf  Hf38  1  0.69187347  0.69035948  0.38124587  1
  Hf  Hf39  1  0.79144155  0.59424561  0.00239525  1
  Zr  Zr40  1  0.58994042  0.79585559  0.26301586  1
  Zr  Zr41  1  -0.00172340  0.79970376  0.75204737  1
  Zr  Zr42  1  0.11600692  0.30592412  0.88351717  1
  Zr  Zr43  1  0.79730440  0.80399937  -0.00326439  1
  Zr  Zr44  1  0.51260910  0.50103509  0.36621798  1
  Zr  Zr45  1  0.80804212  0.00505032  0.00068301  1
  Zr  Zr46  1  0.11470433  0.09145017  0.88170977  1
  Zr  Zr47  1  -0.00104795  0.58633114  0.75230270  1
  Zr  Zr48  1  0.79466976  0.60153455  0.25134410  1
  Zr  Zr49  1  0.40732897  -0.00037026  0.25897073  1
  Zr  Zr50  1  0.40674663  0.21357885  0.48632999  1
  Zr  Zr51  1  0.68780912  0.10919059  0.86833402  1
  Zr  Zr52  1  0.10253383  0.70241356  0.61963508  1
  Zr  Zr53  1  0.00034369  0.58985323  0.49332058  1
  Zr  Zr54  1  0.52664244  0.10702703  0.37464568  1
  Zr  Zr55  1  0.10666837  0.68918177  0.87622339  1
  Zr  Zr56  1  0.21133253  0.20557381  0.75074024  1
  Zr  Zr57  1  0.29815276  0.31511969  0.62026520  1
  Zr  Zr58  1  0.30378251  0.91118040  0.88397511  1
  Zr  Zr59  1  0.09126329  0.69428361  0.13558339  1
  Zr  Zr60  1  0.18856723  0.01963467  0.23040773  1
  Zr  Zr61  1  0.89241374  0.28492984  0.62761072  1
  Zr  Zr62  1  0.79771492  0.20993750  -0.00481264  1
  Zr  Zr63  1  0.28122821  0.10173965  0.37195185  1
  Zr  Zr64  1  0.89966213  0.70274920  0.61368543  1
  Zr  Zr65  1  -0.00521980  0.79655713  0.26830390  1
  Zr  Zr66  1  0.50037353  0.48564662  0.11990888  1
  Zr  Zr67  1  0.58730899  0.80848817  0.48998112  1
  Zr  Zr68  1  0.40984362  0.02049278  0.00584953  1
  Zr  Zr69  1  0.81394805  0.01089852  0.74683527  1
  Zr  Zr70  1  0.08265976  0.48676038  0.14732926  1
  Zr  Zr71  1  0.39540098  0.59680984  0.01071375  1
  Zr  Zr72  1  0.79861561  0.59541640  0.73912664  1
  Zr  Zr73  1  0.50602381  0.10163664  0.62482868  1
  Zr  Zr74  1  0.89126462  0.70544066  0.13315164  1
  Zr  Zr75  1  0.20816308  0.80155575  0.25321854  1
  Zr  Zr76  1  0.20780821  -0.00605558  0.74055988  1
  Zr  Zr77  1  0.61868218  0.20695843  0.51011951  1
  Zr  Zr78  1  0.30550389  0.69085908  0.62552535  1
  Zr  Zr79  1  0.60784057  0.00181794  0.00391791  1
  Ta  Ta80  1  0.60040901  0.80125391  0.74550831  1
  Ta  Ta81  1  0.19788963  0.80272016  0.74551542  1
  Ta  Ta82  1  0.30165219  0.89350214  0.61385849  1
  Ta  Ta83  1  0.50630935  0.90060195  0.87816007  1
  Ta  Ta84  1  0.89138712  0.70187530  0.87132940  1
  Ta  Ta85  1  0.49259625  0.49386664  0.63803664  1
  Ta  Ta86  1  0.10193905  0.49035497  0.62061669  1
  Ta  Ta87  1  0.00357594  0.80825099  0.48616492  1
  Ta  Ta88  1  0.61516023  0.00696453  0.25064573  1
  Ta  Ta89  1  0.79603560  0.80987613  0.26907885  1
  Ta  Ta90  1  0.09163203  0.10021809  0.62612494  1
  Ta  Ta91  1  0.19354852  -0.00572604  0.50776125  1
  Ta  Ta92  1  -0.00730613  0.39435635  -0.00652761  1
  Ta  Ta93  1  0.09747991  0.28610411  0.13363951  1
  Ta  Ta94  1  -0.01295567  0.38165683  0.48861516  1
  Ta  Ta95  1  0.69564136  0.50034636  0.86895894  1
  Ta  Ta96  1  0.70385849  0.89682637  0.86808515  1
  Ta  Ta97  1  0.80173916  0.81103498  0.74726710  1
  Ta  Ta98  1  0.49533666  0.69983518  0.62916999  1
  Ta  Ta99  1  0.20506827  0.39511552  0.24975725  1
  Ta  Ta100  1  0.50124067  0.30220180  0.64551571  1
  Ta  Ta101  1  0.70158364  0.49391510  0.37876869  1
  Ta  Ta102  1  0.69555790  0.30592789  0.12044311  1
  Ta  Ta103  1  0.61693560  0.00099035  0.50322428  1
  Ta  Ta104  1  0.20147771  0.59055952  0.74521115  1
  Ta  Ta105  1  0.40720878  0.39697912  0.25216051  1
  Ta  Ta106  1  0.38802174  0.39477368  0.75995909  1
  Ta  Ta107  1  0.41042566  0.20961226  0.25753099  1
  Ta  Ta108  1  -0.00194624  0.19759832  -0.00390718  1
  Ta  Ta109  1  0.69782329  0.30720141  0.85705210  1
  Ta  Ta110  1  0.79400536  0.58034561  0.50480060  1
  Ta  Ta111  1  -0.00184566  0.39986290  0.76649618  1
  Ta  Ta112  1  0.89339432  0.49187942  0.12890022  1
  Ta  Ta113  1  0.49887699  0.89566497  0.62211880  1
  Ta  Ta114  1  0.90002858  0.92877726  0.37310644  1
  Ta  Ta115  1  0.88871038  0.28386883  0.36785995  1
  Ta  Ta116  1  0.73300751  0.10723458  0.37075287  1
  Ta  Ta117  1  0.68432283  0.69556199  0.12589487  1
  Ta  Ta118  1  0.81517920  0.01065481  0.23958517  1
  Ta  Ta119  1  0.31333446  0.89342297  0.12455342  1
  Ti  Ti120  1  0.89999485  0.68924657  0.38071853  1
  Ti  Ti121  1  0.49939391  0.49454713  0.87114665  1
  Ti  Ti122  1  0.19763573  0.61005881  0.25305723  1
  Ti  Ti123  1  0.09154754  0.89760885  0.13221113  1
  Ti  Ti124  1  0.89701992  0.47862946  0.61748822  1
  Ti  Ti125  1  0.21458842  0.20448706  0.00569647  1
  Ti  Ti126  1  0.47951574  0.69243900  0.37884421  1
  Ti  Ti127  1  0.58154396  0.19495605  0.00828949  1
  Ti  Ti128  1  0.69864252  0.10547895  0.12568567  1
  Ti  Ti129  1  0.30454342  0.89426204  0.37992030  1
  Ti  Ti130  1  0.59657291  0.39305010  0.24064863  1
  Ti  Ti131  1  0.80429663  0.19853508  0.23568160  1
  Ti  Ti132  1  0.81340497  0.40547036  0.76391557  1
  Ti  Ti133  1  0.00347783  -0.00371716  0.51281798  1
  Ti  Ti134  1  0.60313096  0.20436013  0.23963125  1
  Ti  Ti135  1  0.70516660  0.90466486  0.62341430  1
  Ti  Ti136  1  0.59911882  0.79734691  -0.00244152  1
  Ti  Ti137  1  -0.01455115  0.18227747  0.49495204  1
  Ti  Ti138  1  0.40267333  0.00722063  0.75193735  1
  Ti  Ti139  1  0.19261807  0.40815578  0.75059079  1
  Ti  Ti140  1  0.89209089  0.48466987  0.37196586  1
  Ti  Ti141  1  0.59578185  0.59366269  0.74119330  1
  Ti  Ti142  1  0.71805131  0.12586967  0.63826030  1
  Ti  Ti143  1  0.60055137  0.59018088  0.23799473  1
  Ti  Ti144  1  0.10528762  0.89338237  0.88031125  1
  Ti  Ti145  1  0.90716204  0.29967668  0.12660555  1
  Ti  Ti146  1  0.49161447  0.71245108  0.11425591  1
  Ti  Ti147  1  0.39733932  0.38512880  -0.01018654  1
  Ti  Ti148  1  0.32183797  0.12348687  0.87708615  1
  Ti  Ti149  1  0.39310304  0.78789249  0.49416754  1
  Ti  Ti150  1  0.39822455  0.79989680  0.25872598  1
  Ti  Ti151  1  0.19438380  0.40214162  0.01479345  1
  Ti  Ti152  1  0.39732681  0.58993460  0.75193059  1
  Ti  Ti153  1  0.19620276  0.80063491  0.48931932  1
  Ti  Ti154  1  0.60439132  0.40205858  0.50716870  1
  Ti  Ti155  1  0.59929574  0.59416197  0.00273777  1
  Ti  Ti156  1  0.31572143  0.11414082  0.13209075  1
  Ti  Ti157  1  0.80140880  0.40406869  -0.00559355  1
  Ti  Ti158  1  0.69808707  0.91745726  0.37329971  1
  Ti  Ti159  1  0.30048186  0.30231608  0.36648634  1
  Mo  Mo160  1  0.39709701  0.19660409  0.74434521  1
  Mo  Mo161  1  0.69930175  0.50125063  0.62802747  1
  Mo  Mo162  1  0.90176956  0.89988287  0.14008661  1
  Mo  Mo163  1  0.80170404  0.20882826  0.76556928  1
  Mo  Mo164  1  0.30142785  0.30307478  0.88446172  1
  Mo  Mo165  1  0.09870327  0.70103940  0.37660008  1
  Mo  Mo166  1  -0.01280349  0.59500170  0.26334953  1
  Mo  Mo167  1  0.50099322  0.30730185  0.37440452  1
  Mo  Mo168  1  0.50778122  0.10727697  0.14217106  1
  Mo  Mo169  1  0.79808379  0.39779459  0.49480288  1
  Mo  Mo170  1  0.89944109  0.89622572  0.87287289  1
  Mo  Mo171  1  0.80619929  0.21428876  0.49835972  1
  Mo  Mo172  1  0.91433705  0.10432657  0.36981060  1
  Mo  Mo173  1  0.30486820  0.70719479  0.12789482  1
  Mo  Mo174  1  0.29569507  0.49627803  0.63270939  1
  Mo  Mo175  1  0.90526768  0.09685498  0.88162477  1
  Mo  Mo176  1  -0.01595608  0.38607457  0.25079956  1
  Mo  Mo177  1  0.09941634  0.49477621  0.88000529  1
  Mo  Mo178  1  0.90182684  0.89475869  0.61435247  1
  Mo  Mo179  1  0.08390165  0.09199482  0.37690404  1
  Mo  Mo180  1  0.59108477  0.41211663  0.76230593  1
  Mo  Mo181  1  0.90155854  0.11231691  0.12091339  1
  Mo  Mo182  1  0.29102950  0.49730779  0.14313068  1
  Mo  Mo183  1  -0.00575175  0.18056840  0.23548551  1
  Mo  Mo184  1  0.69941798  0.49683671  0.11883645  1
  Mo  Mo185  1  0.20817077  0.20472485  0.24323837  1
  Mo  Mo186  1  0.29974662  0.70408706  0.37712918  1
  Mo  Mo187  1  0.50290116  0.90095718  0.37525175  1
  Mo  Mo188  1  0.49520489  0.08849417  0.86459989  1
  Mo  Mo189  1  0.40487618  0.60338636  0.50454273  1
  Mo  Mo190  1  0.90981573  0.10335953  0.62895550  1
  Mo  Mo191  1  0.60434783  0.20120686  0.74035934  1
  Mo  Mo192  1  0.40974574  0.80626261  0.00082014  1
  Mo  Mo193  1  0.10304465  0.11178280  0.11080404  1
  Mo  Mo194  1  0.40371300  0.20327405  0.00574063  1
  Mo  Mo195  1  0.89258721  0.49676558  0.87803657  1
  Mo  Mo196  1  -0.00449624  0.00262907  0.23166129  1
  Mo  Mo197  1  0.50259723  0.28869812  0.12130047  1
  Mo  Mo198  1  0.10573659  0.89527448  0.61303459  1
  Mo  Mo199  1  0.89628507  0.30254056  0.88091336  1
