# generated using pymatgen
data_HfZrTaTiMo
_symmetry_space_group_name_H-M   'P 1'
_cell_length_a   15.20096365
_cell_length_b   15.21857440
_cell_length_c   16.83860587
_cell_angle_alpha   90.00896039
_cell_angle_beta   89.98506336
_cell_angle_gamma   90.03297544
_symmetry_Int_Tables_number   1
_chemical_formula_structural   HfZrTaTiMo
_chemical_formula_sum   'Hf40 Zr40 Ta40 Ti40 Mo40'
_cell_volume   3895.39167887
_cell_formula_units_Z   40
loop_
 _symmetry_equiv_pos_site_id
 _symmetry_equiv_pos_as_xyz
  1  'x, y, z'
loop_
 _atom_site_type_symbol
 _atom_site_label
 _atom_site_symmetry_multiplicity
 _atom_site_fract_x
 _atom_site_fract_y
 _atom_site_fract_z
 _atom_site_occupancy
  Hf  Hf0  1  0.20993216  0.80149159  0.24425667  1
  Hf  Hf1  1  0.79844657  0.18740091  0.00145849  1
  Hf  Hf2  1  0.70852322  0.92267445  0.88684975  1
  Hf  Hf3  1  -0.00158044  0.59100008  -0.01009288  1
  Hf  Hf4  1  0.70933220  0.30057005  0.12475164  1
  Hf  Hf5  1  0.60871151  0.78706468  -0.00455222  1
  Hf  Hf6  1  0.31966979  0.91771766  0.37169099  1
  Hf  Hf7  1  0.49921118  0.71172207  0.62062189  1
  Hf  Hf8  1  0.81903586  0.79551828  -0.01642535  1
  Hf  Hf9  1  0.40114456  0.17515648  0.49229937  1
  Hf  Hf10  1  0.09912115  0.69959582  0.37828487  1
  Hf  Hf11  1  0.20166394  0.80512914  0.50753940  1
  Hf  Hf12  1  0.88731979  0.90574124  0.64013051  1
  Hf  Hf13  1  0.79630005  0.59210952  0.75617684  1
  Hf  Hf14  1  0.59904481  0.61247683  0.75337836  1
  Hf  Hf15  1  0.10805911  0.30077745  0.64224909  1
  Hf  Hf16  1  0.27467200  0.50160113  0.12024209  1
  Hf  Hf17  1  0.78863458  0.78737248  0.76413023  1
  Hf  Hf18  1  0.41976544  0.80273197  0.23561774  1
  Hf  Hf19  1  0.10353677  0.10732589  0.12096557  1
  Hf  Hf20  1  0.29637797  0.28521325  0.37146515  1
  Hf  Hf21  1  0.21321159  0.21641936  -0.01532943  1
  Hf  Hf22  1  0.30217234  0.09952863  0.12770039  1
  Hf  Hf23  1  0.41863526  0.19447383  0.00045673  1
  Hf  Hf24  1  0.59217125  0.39399558  0.01653055  1
  Hf  Hf25  1  0.69392767  0.09953723  0.14077079  1
  Hf  Hf26  1  0.39908904  0.40717974  0.25268767  1
  Hf  Hf27  1  0.59029216  0.80871629  0.76770368  1
  Hf  Hf28  1  0.79104092  0.38398240  0.74312770  1
  Hf  Hf29  1  0.00518862  0.21046919  -0.01322834  1
  Hf  Hf30  1  0.10338949  0.09838773  0.85614209  1
  Hf  Hf31  1  0.49647745  0.09403421  0.63603899  1
  Hf  Hf32  1  0.79571009  0.60285529  -0.01492474  1
  Hf  Hf33  1  0.10069320  0.90131249  0.12760197  1
  Hf  Hf34  1  0.39634489  0.59470032  0.74222141  1
  Hf  Hf35  1  0.00084791  0.00635929  0.51317397  1
  Hf  Hf36  1  0.81496815  0.21360365  0.25156346  1
  Hf  Hf37  1  0.00176554  0.39178250  0.50365381  1
  Hf  Hf38  1  0.61120439  0.21556743  0.74039221  1
  Hf  Hf39  1  0.70858005  0.90630302  0.10977565  1
  Zr  Zr40  1  0.48994697  0.92038414  0.89561269  1
  Zr  Zr41  1  0.68084619  0.10558185  0.36553629  1
  Zr  Zr42  1  0.79064430  -0.00900892  0.49754534  1
  Zr  Zr43  1  0.11020042  0.49966566  0.63801761  1
  Zr  Zr44  1  -0.01736522  0.40492456  0.25475272  1
  Zr  Zr45  1  0.89004640  0.49577621  0.38216713  1
  Zr  Zr46  1  0.59173636  0.60191195  0.24711908  1
  Zr  Zr47  1  0.20130469  0.40312947  0.49084130  1
  Zr  Zr48  1  0.71366156  0.31082417  0.37343087  1
  Zr  Zr49  1  0.59523028  0.60400276  0.49368271  1
  Zr  Zr50  1  -0.01272282  0.20598867  0.74991410  1
  Zr  Zr51  1  0.80290811  -0.02394427  0.26052593  1
  Zr  Zr52  1  0.47491622  0.69983137  0.89114803  1
  Zr  Zr53  1  0.48292711  0.50428937  0.89811521  1
  Zr  Zr54  1  -0.00696358  0.79622332  0.24874571  1
  Zr  Zr55  1  0.30019029  0.87600913  0.87745331  1
  Zr  Zr56  1  0.58788411  0.41232550  0.74834107  1
  Zr  Zr57  1  0.18572673  0.39462123  0.25968264  1
  Zr  Zr58  1  0.91980206  0.88884479  0.85145310  1
  Zr  Zr59  1  0.60363659  0.40712860  0.24182342  1
  Zr  Zr60  1  0.10553319  0.70571981  0.86577821  1
  Zr  Zr61  1  -0.01036302  -0.00609386  -0.00656831  1
  Zr  Zr62  1  0.68934762  0.49269096  0.88586026  1
  Zr  Zr63  1  0.21105679  0.77091497  0.01202772  1
  Zr  Zr64  1  0.39750438  0.59795909  0.49853799  1
  Zr  Zr65  1  0.88386122  0.08819089  0.85865127  1
  Zr  Zr66  1  0.39448175  0.21450400  0.76057015  1
  Zr  Zr67  1  0.20919022  0.01396527  0.50515329  1
  Zr  Zr68  1  0.31783680  0.08909033  0.87139998  1
  Zr  Zr69  1  0.51072686  0.28008254  0.36595468  1
  Zr  Zr70  1  0.09751656  0.90849778  0.37431741  1
  Zr  Zr71  1  0.61689379  0.79673375  0.23932734  1
  Zr  Zr72  1  0.00594527  0.59802189  0.51593166  1
  Zr  Zr73  1  0.90140288  0.09452009  0.12917681  1
  Zr  Zr74  1  0.89984720  0.69455527  0.38081770  1
  Zr  Zr75  1  0.49265345  0.31136096  0.61598794  1
  Zr  Zr76  1  0.20074115  -0.00785778  -0.00903280  1
  Zr  Zr77  1  0.30591560  0.70822689  0.37804316  1
  Zr  Zr78  1  0.91105524  0.09184900  0.37070956  1
  Zr  Zr79  1  0.80821398  0.19236304  0.50090676  1
  Ta  Ta80  1  0.49931805  0.10320361  0.14455561  1
  Ta  Ta81  1  0.39495398  0.60479977  0.24574621  1
  Ta  Ta82  1  0.79650299  0.60003092  0.51362175  1
  Ta  Ta83  1  0.69909184  0.50697625  0.37727075  1
  Ta  Ta84  1  0.68568367  0.89914802  0.62562184  1
  Ta  Ta85  1  0.89912816  0.88648090  0.12255298  1
  Ta  Ta86  1  0.00873816  0.79089585  0.00260643  1
  Ta  Ta87  1  0.31371161  0.90438691  0.62535640  1
  Ta  Ta88  1  0.22141331  0.40014742  0.75867577  1
  Ta  Ta89  1  0.09903297  0.31356250  0.85792090  1
  Ta  Ta90  1  0.10328978  0.90139122  0.63761500  1
  Ta  Ta91  1  -0.00149822  0.60818663  0.74555522  1
  Ta  Ta92  1  0.69823322  0.29368795  0.88669957  1
  Ta  Ta93  1  0.59583969  0.40726239  0.49466643  1
  Ta  Ta94  1  0.30006876  0.29809020  0.61895598  1
  Ta  Ta95  1  0.58419419  -0.01279969  0.25781997  1
  Ta  Ta96  1  0.70804109  0.09445287  0.63185488  1
  Ta  Ta97  1  0.11109194  0.11193596  0.37076680  1
  Ta  Ta98  1  0.30000711  0.10519486  0.63857066  1
  Ta  Ta99  1  -0.00353134  0.80348548  0.51892270  1
  Ta  Ta100  1  0.71182627  0.70303342  0.37834313  1
  Ta  Ta101  1  0.21517688  -0.00639644  0.74776532  1
  Ta  Ta102  1  0.80256752  0.59479061  0.24539189  1
  Ta  Ta103  1  0.49914960  0.90367510  0.62437366  1
  Ta  Ta104  1  0.10117912  0.50257726  0.85837381  1
  Ta  Ta105  1  0.40628261  0.40073161  0.48146605  1
  Ta  Ta106  1  0.68836246  0.50149987  0.62170386  1
  Ta  Ta107  1  0.57896267  0.00638075  0.49043192  1
  Ta  Ta108  1  0.01496505  0.21053142  0.24835044  1
  Ta  Ta109  1  0.89658965  0.70148503  0.62827560  1
  Ta  Ta110  1  0.90480268  0.68563613  0.12678426  1
  Ta  Ta111  1  0.38096809  0.39165717  0.00751314  1
  Ta  Ta112  1  0.50491139  0.30397452  0.88328743  1
  Ta  Ta113  1  0.91295773  0.31322401  0.11604077  1
  Ta  Ta114  1  0.10645878  0.10248956  0.64296453  1
  Ta  Ta115  1  0.69423392  0.88895195  0.38095662  1
  Ta  Ta116  1  0.79411682  0.40142550  0.51527953  1
  Ta  Ta117  1  0.19115884  0.59802597  0.25216918  1
  Ta  Ta118  1  0.10561865  0.30832952  0.11828122  1
  Ta  Ta119  1  0.89579689  0.29363199  0.62535868  1
  Ti  Ti120  1  0.20261211  0.79110332  0.73616193  1
  Ti  Ti121  1  0.18003050  0.40834011  -0.00994805  1
  Ti  Ti122  1  0.71118002  0.69729503  0.12050030  1
  Ti  Ti123  1  0.89817378  0.49514408  0.63334084  1
  Ti  Ti124  1  0.00927641  0.00460194  0.24852428  1
  Ti  Ti125  1  0.90994773  0.48752654  0.86322990  1
  Ti  Ti126  1  0.91262994  0.29367191  0.38425304  1
  Ti  Ti127  1  0.29846083  0.50798477  0.37199291  1
  Ti  Ti128  1  0.60077427  0.00176251  0.75393303  1
  Ti  Ti129  1  0.29927370  0.29712206  0.13230592  1
  Ti  Ti130  1  0.70195296  0.70853378  0.62026777  1
  Ti  Ti131  1  0.07223261  0.49652755  0.12399280  1
  Ti  Ti132  1  0.40051915  0.79402794  0.02399600  1
  Ti  Ti133  1  0.39285116  0.80083238  0.74929299  1
  Ti  Ti134  1  0.89265678  0.88118323  0.38760668  1
  Ti  Ti135  1  0.60836864  0.20339039  0.51273857  1
  Ti  Ti136  1  0.19692115  0.20137528  0.50102371  1
  Ti  Ti137  1  0.59832979  0.03208036  0.00207336  1
  Ti  Ti138  1  0.19993509  0.59965452  0.50444207  1
  Ti  Ti139  1  0.81741069  0.40041482  -0.00308153  1
  Ti  Ti140  1  0.50318906  0.71506834  0.37848558  1
  Ti  Ti141  1  0.50693482  0.91209646  0.11061605  1
  Ti  Ti142  1  0.20082205  0.19553883  0.24876242  1
  Ti  Ti143  1  0.09246882  0.50501636  0.37453016  1
  Ti  Ti144  1  0.89331911  0.30068784  0.87113187  1
  Ti  Ti145  1  0.31351879  0.48638271  0.61860550  1
  Ti  Ti146  1  0.71020080  0.50448962  0.11767498  1
  Ti  Ti147  1  0.00980348  0.19591526  0.51044967  1
  Ti  Ti148  1  0.10349690  0.89826541  0.85365415  1
  Ti  Ti149  1  0.60089035  0.80854703  0.49805422  1
  Ti  Ti150  1  0.49718543  0.29050201  0.13686551  1
  Ti  Ti151  1  0.30035330  0.70322468  0.61750223  1
  Ti  Ti152  1  0.10126231  0.68355321  0.12927569  1
  Ti  Ti153  1  0.48234172  0.51296636  0.11121075  1
  Ti  Ti154  1  0.39996231  0.40542336  0.75711824  1
  Ti  Ti155  1  0.51339440  0.10895567  0.86783033  1
  Ti  Ti156  1  0.69787993  0.11082713  0.86569539  1
  Ti  Ti157  1  0.20926399  0.60258150  0.74317827  1
  Ti  Ti158  1  0.30406422  0.90645159  0.12701626  1
  Ti  Ti159  1  0.29103825  0.51483333  0.89020415  1
  Mo  Mo160  1  0.80058025  0.78851638  0.24562810  1
  Mo  Mo161  1  0.79778731  0.40966340  0.24290931  1
  Mo  Mo162  1  0.60127416  0.19734152  0.25075483  1
  Mo  Mo163  1  0.50529145  0.89495844  0.37695866  1
  Mo  Mo164  1  0.90932993  0.68770175  0.86543164  1
  Mo  Mo165  1  0.29725377  0.09932408  0.35952055  1
  Mo  Mo166  1  0.79293619  0.79348577  0.50993753  1
  Mo  Mo167  1  0.19553198  0.00452107  0.24872457  1
  Mo  Mo168  1  0.40931917  -0.00924811  0.74957738  1
  Mo  Mo169  1  0.39609680  0.20233065  0.24533135  1
  Mo  Mo170  1  0.79086916  0.20188553  0.74568799  1
  Mo  Mo171  1  0.30567474  0.31993374  0.88311818  1
  Mo  Mo172  1  0.59459038  0.59872359  0.01966711  1
  Mo  Mo173  1  0.29675372  0.68630324  0.86675159  1
  Mo  Mo174  1  0.40977065  0.81101886  0.50314754  1
  Mo  Mo175  1  0.00477444  0.59699008  0.24578694  1
  Mo  Mo176  1  0.00622548  0.00017777  0.73631595  1
  Mo  Mo177  1  0.18601963  0.59172465  0.00216060  1
  Mo  Mo178  1  0.47425673  0.08286684  0.34928445  1
  Mo  Mo179  1  0.90198785  0.10157545  0.63119444  1
  Mo  Mo180  1  -0.00396215  0.40737424  0.74972838  1
  Mo  Mo181  1  0.60159707  0.20289775  0.00176101  1
  Mo  Mo182  1  0.00652080  0.79341851  0.73121156  1
  Mo  Mo183  1  0.09330253  0.29166711  0.38001067  1
  Mo  Mo184  1  0.50238373  0.69582294  0.11498566  1
  Mo  Mo185  1  0.49540543  0.50137464  0.62047382  1
  Mo  Mo186  1  0.20742324  0.20542633  0.75650318  1
  Mo  Mo187  1  0.88943444  0.50012811  0.11934286  1
  Mo  Mo188  1  0.39629522  -0.00869719  0.23401027  1
  Mo  Mo189  1  0.40146944  -0.00062363  0.50292480  1
  Mo  Mo190  1  0.30139251  0.69097402  0.13716308  1
  Mo  Mo191  1  0.40584100  -0.00118697  0.01696825  1
  Mo  Mo192  1  0.69821201  0.30193531  0.61141089  1
  Mo  Mo193  1  0.49405809  0.50234886  0.36906912  1
  Mo  Mo194  1  0.00002311  0.39734930  -0.01074130  1
  Mo  Mo195  1  0.80024183  -0.00306933  0.00247912  1
  Mo  Mo196  1  0.78675585  -0.00145094  0.74243525  1
  Mo  Mo197  1  0.69450913  0.70049310  0.87921602  1
  Mo  Mo198  1  0.10603803  0.70405304  0.62833088  1
  Mo  Mo199  1  0.37586101  0.60649232  0.01529714  1
