# generated using pymatgen
data_HfZrTaTiMo
_symmetry_space_group_name_H-M   'P 1'
_cell_length_a   15.23313228
_cell_length_b   15.21203803
_cell_length_c   16.84022502
_cell_angle_alpha   90.02312010
_cell_angle_beta   90.05551772
_cell_angle_gamma   90.05059801
_symmetry_Int_Tables_number   1
_chemical_formula_structural   HfZrTaTiMo
_chemical_formula_sum   'Hf40 Zr40 Ta40 Ti40 Mo40'
_cell_volume   3902.33094188
_cell_formula_units_Z   40
loop_
 _symmetry_equiv_pos_site_id
 _symmetry_equiv_pos_as_xyz
  1  'x, y, z'
loop_
 _atom_site_type_symbol
 _atom_site_label
 _atom_site_symmetry_multiplicity
 _atom_site_fract_x
 _atom_site_fract_y
 _atom_site_fract_z
 _atom_site_occupancy
  Hf  Hf0  1  0.29600140  0.10669648  0.11690882  1
  Hf  Hf1  1  0.39660505  0.40127344  0.74881077  1
  Hf  Hf2  1  0.90091979  0.10371128  0.87117956  1
  Hf  Hf3  1  0.71441124  0.49548489  0.86655073  1
  Hf  Hf4  1  0.29487766  0.92444872  0.37284887  1
  Hf  Hf5  1  0.10726844  0.49515239  0.14482254  1
  Hf  Hf6  1  0.89223432  0.49129884  0.35574302  1
  Hf  Hf7  1  0.20501044  0.59292647  0.01298145  1
  Hf  Hf8  1  0.09594324  0.69489885  0.87281509  1
  Hf  Hf9  1  0.41003005  0.00040619  0.00476400  1
  Hf  Hf10  1  0.69910079  0.29135949  0.88313019  1
  Hf  Hf11  1  0.00824345  0.17985669  0.26154480  1
  Hf  Hf12  1  0.59268300  0.19072295  0.23552840  1
  Hf  Hf13  1  0.80572500  0.00435229  0.73288991  1
  Hf  Hf14  1  0.79804208  0.20957516  0.74293006  1
  Hf  Hf15  1  0.80930507  0.61217730  0.00446655  1
  Hf  Hf16  1  0.20491970  0.20082592  0.25761175  1
  Hf  Hf17  1  0.89759746  0.30869811  0.61086142  1
  Hf  Hf18  1  0.80036389  0.19038081  0.00542077  1
  Hf  Hf19  1  0.00091205  0.79030670  0.49300508  1
  Hf  Hf20  1  0.60299649  0.39769441  0.50344825  1
  Hf  Hf21  1  0.41262492  0.19838326  0.50439078  1
  Hf  Hf22  1  0.19747269  0.79932438  0.74890401  1
  Hf  Hf23  1  0.50048826  0.88845768  0.86543262  1
  Hf  Hf24  1  0.30854230  0.70252459  0.13900839  1
  Hf  Hf25  1  0.68139345  0.69322358  0.86112630  1
  Hf  Hf26  1  0.50085338  0.10575052  0.64747485  1
  Hf  Hf27  1  0.57877667  0.00182928  0.50834793  1
  Hf  Hf28  1  0.61373076  -0.01244402  -0.00334549  1
  Hf  Hf29  1  0.29981006  0.50862115  0.61440199  1
  Hf  Hf30  1  0.89733725  0.71859504  0.13150502  1
  Hf  Hf31  1  0.70773063  0.30147379  0.37782786  1
  Hf  Hf32  1  0.40025795  0.00666716  0.23846499  1
  Hf  Hf33  1  0.31678252  0.29474542  0.37661313  1
  Hf  Hf34  1  0.10229956  0.10713383  0.88311345  1
  Hf  Hf35  1  0.48886567  0.09569250  0.37344813  1
  Hf  Hf36  1  -0.01108174  0.80943233  0.74288764  1
  Hf  Hf37  1  0.40035213  0.21051020  -0.00279660  1
  Hf  Hf38  1  0.61591685  0.39048652  0.74454085  1
  Hf  Hf39  1  0.51107637  0.88858072  0.13435373  1
  Zr  Zr40  1  0.30951373  0.49933302  0.14207083  1
  Zr  Zr41  1  0.91573424  0.50519120  0.14916121  1
  Zr  Zr42  1  0.90770214  0.50360385  0.62050743  1
  Zr  Zr43  1  0.79920947  0.20333653  0.24767654  1
  Zr  Zr44  1  0.19544089  0.79648727  0.00731451  1
  Zr  Zr45  1  0.88354543  0.90621961  0.40337175  1
  Zr  Zr46  1  0.17716542  0.00227495  0.24116964  1
  Zr  Zr47  1  0.90054083  0.10233345  0.39507041  1
  Zr  Zr48  1  0.19650153  0.61189273  0.47750307  1
  Zr  Zr49  1  0.49443103  0.30267615  0.86800144  1
  Zr  Zr50  1  0.79330979  0.82707573  -0.01336019  1
  Zr  Zr51  1  0.19985972  0.41449828  0.74824314  1
  Zr  Zr52  1  0.49547979  0.09648396  0.85652085  1
  Zr  Zr53  1  0.09057682  0.90378122  0.86986418  1
  Zr  Zr54  1  0.10069694  0.30195611  0.61673938  1
  Zr  Zr55  1  0.51082333  0.49440716  0.36256436  1
  Zr  Zr56  1  0.40988008  0.61039977  0.48829306  1
  Zr  Zr57  1  0.50079598  0.30188713  0.63215624  1
  Zr  Zr58  1  0.89827951  0.90351697  0.60781618  1
  Zr  Zr59  1  0.07144420  0.89613366  0.12314184  1
  Zr  Zr60  1  0.09668168  0.49920417  0.34840652  1
  Zr  Zr61  1  0.39546563  0.60554932  0.75073809  1
  Zr  Zr62  1  -0.01620737  0.81266241  0.27366573  1
  Zr  Zr63  1  0.61339625  -0.01234093  0.25895456  1
  Zr  Zr64  1  0.09001629  0.11403745  0.10050268  1
  Zr  Zr65  1  0.57929180  0.77952172  0.73469954  1
  Zr  Zr66  1  0.30204402  0.69539252  0.88080753  1
  Zr  Zr67  1  0.20390620  -0.00494756  -0.00263834  1
  Zr  Zr68  1  0.88533478  0.69633979  0.62552635  1
  Zr  Zr69  1  0.71131006  0.50456870  0.14542811  1
  Zr  Zr70  1  0.20069734  0.39712415  0.48458148  1
  Zr  Zr71  1  0.61089546  0.59481188  0.01360661  1
  Zr  Zr72  1  0.90002312  0.07883290  0.12895154  1
  Zr  Zr73  1  0.59130111  0.78682355  0.00080840  1
  Zr  Zr74  1  0.09795616  0.30518749  0.89016140  1
  Zr  Zr75  1  0.57828102  0.78045137  0.50845458  1
  Zr  Zr76  1  0.19001993  0.79621151  0.26106349  1
  Zr  Zr77  1  0.80660448  0.40614222  0.00896289  1
  Zr  Zr78  1  0.89082034  0.69616532  0.86098304  1
  Zr  Zr79  1  0.11068739  0.50379585  0.88137225  1
  Ta  Ta80  1  0.69695520  0.09125417  0.86817536  1
  Ta  Ta81  1  0.79240181  0.60179768  0.48451465  1
  Ta  Ta82  1  0.90929743  0.11467908  0.61086255  1
  Ta  Ta83  1  0.51512728  0.51554066  0.62627733  1
  Ta  Ta84  1  0.70137794  0.07998471  0.12487856  1
  Ta  Ta85  1  0.00689541  0.01257412  0.73588033  1
  Ta  Ta86  1  -0.01240123  0.79500872  -0.00598159  1
  Ta  Ta87  1  0.20557737  0.20791338  0.75671098  1
  Ta  Ta88  1  0.30712759  0.50134950  0.35796717  1
  Ta  Ta89  1  0.41560361  0.60150461  0.00707737  1
  Ta  Ta90  1  0.50968868  0.50919376  0.87617480  1
  Ta  Ta91  1  0.01243486  0.59547710  0.74403128  1
  Ta  Ta92  1  0.21191270  0.18421418  0.49270954  1
  Ta  Ta93  1  0.69613366  0.10314988  0.38948735  1
  Ta  Ta94  1  0.00309678  0.20383278  0.74491380  1
  Ta  Ta95  1  -0.00354417  0.39635701  0.75047155  1
  Ta  Ta96  1  0.19773882  0.81488092  0.49019316  1
  Ta  Ta97  1  0.38694132  0.80381586  0.74627249  1
  Ta  Ta98  1  0.29482549  0.71371383  0.61657811  1
  Ta  Ta99  1  0.78100598  0.81025613  0.74933102  1
  Ta  Ta100  1  0.58909341  0.39260943  0.01095800  1
  Ta  Ta101  1  0.71560335  0.49239971  0.63186123  1
  Ta  Ta102  1  -0.00609016  0.59779362  0.47988389  1
  Ta  Ta103  1  0.91063915  0.49923608  0.86859292  1
  Ta  Ta104  1  0.69493394  0.88748046  0.61053444  1
  Ta  Ta105  1  0.09951231  0.69587299  0.61956261  1
  Ta  Ta106  1  0.50306755  0.49595644  0.13812090  1
  Ta  Ta107  1  0.29756235  0.30768910  0.11659277  1
  Ta  Ta108  1  0.61095796  -0.01341599  0.73711157  1
  Ta  Ta109  1  0.60579439  0.38482483  0.24014709  1
  Ta  Ta110  1  0.91380400  0.29370061  0.12375409  1
  Ta  Ta111  1  0.47930237  0.90086716  0.63016753  1
  Ta  Ta112  1  0.69123348  0.89872552  0.40001809  1
  Ta  Ta113  1  0.10768220  0.90139661  0.62344926  1
  Ta  Ta114  1  0.29919755  0.29429429  0.62058523  1
  Ta  Ta115  1  0.59498108  0.18880315  0.01375079  1
  Ta  Ta116  1  0.68886123  0.67637793  0.63027563  1
  Ta  Ta117  1  0.80425919  0.62324297  0.26241198  1
  Ta  Ta118  1  0.68475257  0.70185012  0.37065869  1
  Ta  Ta119  1  -0.02681148  -0.01252320  -0.01017969  1
  Ti  Ti120  1  0.31349572  0.48354235  0.89298528  1
  Ti  Ti121  1  0.11608237  0.08272396  0.38477526  1
  Ti  Ti122  1  0.40418666  0.20336129  0.23434824  1
  Ti  Ti123  1  0.49357265  0.88199004  0.36700729  1
  Ti  Ti124  1  0.20453585  0.00940478  0.75392180  1
  Ti  Ti125  1  0.70106885  0.49894378  0.35503053  1
  Ti  Ti126  1  0.70348336  0.29770195  0.12196083  1
  Ti  Ti127  1  0.30406888  0.10298199  0.63843816  1
  Ti  Ti128  1  0.38050953  0.00712738  0.50567378  1
  Ti  Ti129  1  0.78506872  0.81802148  0.26173855  1
  Ti  Ti130  1  0.51309082  0.29205647  0.37562568  1
  Ti  Ti131  1  0.40981546  0.38501594  0.24874629  1
  Ti  Ti132  1  0.70091978  0.28299269  0.61198119  1
  Ti  Ti133  1  0.39767823  0.79910236  0.00188301  1
  Ti  Ti134  1  0.01636394  0.20394930  0.49161574  1
  Ti  Ti135  1  0.02191984  0.00286885  0.50911004  1
  Ti  Ti136  1  0.39066930  0.81046065  0.49891175  1
  Ti  Ti137  1  0.00461731  0.36772509  0.25310533  1
  Ti  Ti138  1  0.10014374  0.50512312  0.61456735  1
  Ti  Ti139  1  0.40928050  0.60764512  0.26133872  1
  Ti  Ti140  1  0.00543375  0.40423525  0.48478946  1
  Ti  Ti141  1  0.90398500  0.29836071  0.38282156  1
  Ti  Ti142  1  0.00117955  0.60216753  0.00550471  1
  Ti  Ti143  1  0.90108162  0.30695627  0.87854620  1
  Ti  Ti144  1  0.30433696  0.91471975  0.87019924  1
  Ti  Ti145  1  0.50517762  0.69496766  0.14850214  1
  Ti  Ti146  1  0.29239535  0.91013215  0.62677444  1
  Ti  Ti147  1  0.30956891  0.71342187  0.36546404  1
  Ti  Ti148  1  0.78304400  0.01632906  0.51716241  1
  Ti  Ti149  1  0.40556768  0.40628776  0.50034896  1
  Ti  Ti150  1  0.30006560  0.89505753  0.13014565  1
  Ti  Ti151  1  0.69612868  0.71769821  0.14256763  1
  Ti  Ti152  1  0.20625813  0.38648815  0.25734840  1
  Ti  Ti153  1  0.80034054  0.40874945  0.49336677  1
  Ti  Ti154  1  0.60616732  0.59012468  0.49482421  1
  Ti  Ti155  1  0.09271185  0.68905165  0.14025340  1
  Ti  Ti156  1  0.00218968  0.40690741  0.00755174  1
  Ti  Ti157  1  0.10690251  0.30069315  0.11153578  1
  Ti  Ti158  1  0.11308910  0.10488570  0.62588647  1
  Ti  Ti159  1  0.80784546  -0.00099198  0.26394018  1
  Mo  Mo160  1  0.00370807  0.62097275  0.26427051  1
  Mo  Mo161  1  0.29975009  0.10557427  0.86774582  1
  Mo  Mo162  1  0.09999297  0.70336905  0.37531080  1
  Mo  Mo163  1  0.61271074  0.19004387  0.75129227  1
  Mo  Mo164  1  0.81429464  0.39668162  0.75152118  1
  Mo  Mo165  1  0.79312636  0.00353781  -0.00879669  1
  Mo  Mo166  1  0.48867269  0.69262992  0.88127363  1
  Mo  Mo167  1  -0.00687576  -0.00146854  0.26553157  1
  Mo  Mo168  1  0.19457866  0.60721677  0.73307835  1
  Mo  Mo169  1  0.60581562  0.19358374  0.49689259  1
  Mo  Mo170  1  0.20642960  0.20824492  -0.00709712  1
  Mo  Mo171  1  0.60491580  0.79584078  0.25928035  1
  Mo  Mo172  1  0.39164528  -0.00755458  0.74921594  1
  Mo  Mo173  1  0.20916410  0.60198218  0.26059138  1
  Mo  Mo174  1  0.79980925  0.59603830  0.74774271  1
  Mo  Mo175  1  0.38253871  0.20211436  0.75369038  1
  Mo  Mo176  1  0.50433471  0.09713535  0.12083360  1
  Mo  Mo177  1  0.60467308  0.59906105  0.24520123  1
  Mo  Mo178  1  -0.00876067  0.20729511  -0.00033483  1
  Mo  Mo179  1  0.10019817  0.28873586  0.38043055  1
  Mo  Mo180  1  0.59506264  0.58454982  0.74820776  1
  Mo  Mo181  1  0.20684787  0.00343312  0.51374636  1
  Mo  Mo182  1  0.40733171  0.41241694  0.00415956  1
  Mo  Mo183  1  0.89589912  0.90804319  0.85897811  1
  Mo  Mo184  1  0.69832373  0.10015719  0.62165358  1
  Mo  Mo185  1  0.30501740  0.10254233  0.37156888  1
  Mo  Mo186  1  0.48116459  0.69584211  0.62029897  1
  Mo  Mo187  1  0.49753785  0.30337709  0.12253998  1
  Mo  Mo188  1  0.09626569  0.90944457  0.38976550  1
  Mo  Mo189  1  0.71577227  0.89881807  0.13220027  1
  Mo  Mo190  1  0.88317024  0.90239101  0.13071008  1
  Mo  Mo191  1  0.69579802  0.90263735  0.85661042  1
  Mo  Mo192  1  0.80090482  0.20661585  0.50325871  1
  Mo  Mo193  1  0.29337774  0.30114178  0.88335285  1
  Mo  Mo194  1  0.40171185  0.80582668  0.25251598  1
  Mo  Mo195  1  0.20894078  0.40003815  0.00935017  1
  Mo  Mo196  1  0.78028398  0.78750490  0.50275138  1
  Mo  Mo197  1  0.88626635  0.69908680  0.38195067  1
  Mo  Mo198  1  0.80624496  0.38942256  0.24721415  1
  Mo  Mo199  1  0.49690561  0.70275755  0.36358737  1
