# generated using pymatgen
data_HfZrTaTiMo
_symmetry_space_group_name_H-M   'P 1'
_cell_length_a   15.21133469
_cell_length_b   15.20737472
_cell_length_c   16.84096561
_cell_angle_alpha   89.99948918
_cell_angle_beta   89.98975401
_cell_angle_gamma   90.00848012
_symmetry_Int_Tables_number   1
_chemical_formula_structural   HfZrTaTiMo
_chemical_formula_sum   'Hf40 Zr40 Ta40 Ti40 Mo40'
_cell_volume   3895.72728371
_cell_formula_units_Z   40
loop_
 _symmetry_equiv_pos_site_id
 _symmetry_equiv_pos_as_xyz
  1  'x, y, z'
loop_
 _atom_site_type_symbol
 _atom_site_label
 _atom_site_symmetry_multiplicity
 _atom_site_fract_x
 _atom_site_fract_y
 _atom_site_fract_z
 _atom_site_occupancy
  Hf  Hf0  1  0.60000785  0.59636659  0.01374454  1
  Hf  Hf1  1  0.88966436  0.30767657  0.65209592  1
  Hf  Hf2  1  0.50652400  0.28276620  0.62310832  1
  Hf  Hf3  1  0.80315684  0.60116769  0.48429741  1
  Hf  Hf4  1  0.18083520  -0.00441687  0.50706079  1
  Hf  Hf5  1  0.50264352  0.49128189  0.36727045  1
  Hf  Hf6  1  0.49249040  0.90078747  0.37199415  1
  Hf  Hf7  1  0.21431230  0.41785466  0.73506989  1
  Hf  Hf8  1  0.30127163  0.90804932  0.87236497  1
  Hf  Hf9  1  0.00307998  0.19784395  0.51784634  1
  Hf  Hf10  1  0.87777537  0.11548645  0.39117219  1
  Hf  Hf11  1  0.61074312  0.79733050  0.49144848  1
  Hf  Hf12  1  0.07762924  0.08780059  0.37779139  1
  Hf  Hf13  1  0.20910523  0.59752183  0.25014169  1
  Hf  Hf14  1  0.80516729  0.61193981  0.00108394  1
  Hf  Hf15  1  0.71704218  0.69963844  0.62860064  1
  Hf  Hf16  1  0.49321360  0.30432314  0.87702891  1
  Hf  Hf17  1  0.19272550  0.00945879  0.00016744  1
  Hf  Hf18  1  0.19637619  0.00323975  0.73842652  1
  Hf  Hf19  1  0.09617053  0.69926413  0.12300491  1
  Hf  Hf20  1  0.08879084  0.89935073  0.88549527  1
  Hf  Hf21  1  0.41574131  0.80488243  0.00909535  1
  Hf  Hf22  1  0.18576751  -0.00489873  0.25458308  1
  Hf  Hf23  1  0.49757175  0.68904671  0.62324872  1
  Hf  Hf24  1  0.40218413  0.39409241  0.23918539  1
  Hf  Hf25  1  0.70221815  0.30028579  0.86108103  1
  Hf  Hf26  1  0.78436115  0.22492948  0.51375751  1
  Hf  Hf27  1  0.30875032  0.50173204  0.88078037  1
  Hf  Hf28  1  0.20523351  0.79725266  0.00162951  1
  Hf  Hf29  1  0.59685111  0.59775270  0.49299954  1
  Hf  Hf30  1  0.39151655  -0.01290051  0.24822617  1
  Hf  Hf31  1  0.09948550  0.49278616  0.13007043  1
  Hf  Hf32  1  0.30935517  0.09547589  0.39122162  1
  Hf  Hf33  1  0.91670371  0.70709241  0.61869853  1
  Hf  Hf34  1  0.18577977  0.79325932  0.75461604  1
  Hf  Hf35  1  0.07887419  0.88968322  0.62632572  1
  Hf  Hf36  1  0.90335993  0.70865462  0.12721141  1
  Hf  Hf37  1  0.71357066  0.49576540  0.13421808  1
  Hf  Hf38  1  0.70407482  0.91636556  0.37869839  1
  Hf  Hf39  1  0.80479850  0.60600803  0.25825948  1
  Zr  Zr40  1  0.40117831  0.20054307  0.24738846  1
  Zr  Zr41  1  0.59948894  0.19997424  -0.00206625  1
  Zr  Zr42  1  0.49753274  0.90385037  0.86483659  1
  Zr  Zr43  1  0.40829266  0.40100923  0.02011195  1
  Zr  Zr44  1  0.19444478  0.20185033  0.26123334  1
  Zr  Zr45  1  0.30871990  0.49848720  0.38008039  1
  Zr  Zr46  1  0.92206152  0.91630827  0.36602577  1
  Zr  Zr47  1  0.10088589  0.50023904  0.37365049  1
  Zr  Zr48  1  0.07201973  0.10433499  0.12927878  1
  Zr  Zr49  1  0.50036998  0.09393264  0.12381732  1
  Zr  Zr50  1  0.59457647  -0.01027915  0.00468907  1
  Zr  Zr51  1  0.19891390  0.39928672  0.50766484  1
  Zr  Zr52  1  0.61244357  0.78900669  -0.00393316  1
  Zr  Zr53  1  0.70541489  0.91091980  0.61301017  1
  Zr  Zr54  1  0.09386027  0.31173850  0.63725205  1
  Zr  Zr55  1  0.90166179  0.29438987  0.12147268  1
  Zr  Zr56  1  0.29075469  0.68145838  0.61839894  1
  Zr  Zr57  1  0.48978565  0.91278866  0.62926901  1
  Zr  Zr58  1  0.62189333  0.39076723  0.50529184  1
  Zr  Zr59  1  0.08162430  0.30001302  0.37779192  1
  Zr  Zr60  1  0.40949699  0.60384825  0.01551934  1
  Zr  Zr61  1  0.88780108  0.07996381  0.61504751  1
  Zr  Zr62  1  0.39121257  0.78754366  0.74842616  1
  Zr  Zr63  1  0.70381167  0.50428831  0.86654246  1
  Zr  Zr64  1  0.80330807  0.02427836  0.24514096  1
  Zr  Zr65  1  0.28514443  0.10112939  0.12391698  1
  Zr  Zr66  1  0.70785091  0.49649504  0.64140227  1
  Zr  Zr67  1  0.90513327  0.29622021  0.84983589  1
  Zr  Zr68  1  0.40135105  0.79132758  0.50014762  1
  Zr  Zr69  1  0.20919698  0.80538448  0.24378781  1
  Zr  Zr70  1  0.70330964  0.49150315  0.36124641  1
  Zr  Zr71  1  0.58645407  0.59516763  0.75213639  1
  Zr  Zr72  1  0.90550756  0.50789784  0.63635667  1
  Zr  Zr73  1  0.10265058  0.30737140  0.85170558  1
  Zr  Zr74  1  0.60825102  0.80040990  0.75144827  1
  Zr  Zr75  1  0.29862383  0.29989965  0.87333727  1
  Zr  Zr76  1  -0.01453173  -0.01404289  0.75571649  1
  Zr  Zr77  1  0.90092334  0.90760389  0.12200470  1
  Zr  Zr78  1  0.58194881  0.18838404  0.76228716  1
  Zr  Zr79  1  0.80926100  0.40032330  -0.00807425  1
  Ta  Ta80  1  0.59791109  0.00156530  0.24729753  1
  Ta  Ta81  1  0.80176745  0.80493401  0.26211312  1
  Ta  Ta82  1  0.20560899  0.60417462  0.75796536  1
  Ta  Ta83  1  0.70740766  0.90133845  0.87455955  1
  Ta  Ta84  1  0.69969904  0.09306606  0.87391779  1
  Ta  Ta85  1  0.90750557  0.48502686  0.37008820  1
  Ta  Ta86  1  0.29253960  0.89742048  0.61692962  1
  Ta  Ta87  1  0.01591862  0.80286776  0.48975929  1
  Ta  Ta88  1  -0.01146891  0.78666537  0.76351011  1
  Ta  Ta89  1  0.20058513  0.59384472  0.00145276  1
  Ta  Ta90  1  0.31408643  0.69968550  0.37174751  1
  Ta  Ta91  1  0.78874323  -0.00014204  0.75223226  1
  Ta  Ta92  1  0.81740964  0.81037307  0.48682335  1
  Ta  Ta93  1  -0.00091587  0.20372256  -0.01242182  1
  Ta  Ta94  1  0.30648015  0.70006633  0.12711486  1
  Ta  Ta95  1  0.68143841  0.10989483  0.62517410  1
  Ta  Ta96  1  0.51078116  0.28257186  0.38062601  1
  Ta  Ta97  1  0.08875594  0.89752645  0.11761617  1
  Ta  Ta98  1  0.67769567  0.11430069  0.37931501  1
  Ta  Ta99  1  0.91261327  0.50012807  0.13046262  1
  Ta  Ta100  1  0.10802875  0.52494093  0.61826020  1
  Ta  Ta101  1  0.41139738  0.40476945  0.74068521  1
  Ta  Ta102  1  0.00872728  0.40229369  -0.01033873  1
  Ta  Ta103  1  0.09502645  0.30185470  0.12687615  1
  Ta  Ta104  1  0.60213759  0.40109314  0.01384234  1
  Ta  Ta105  1  0.80625836  0.18953264  -0.00978950  1
  Ta  Ta106  1  0.39075291  0.19772979  0.00703218  1
  Ta  Ta107  1  0.29684178  0.10574185  0.87273527  1
  Ta  Ta108  1  0.71021912  0.29730723  0.36445740  1
  Ta  Ta109  1  0.69520684  0.89642343  0.13615942  1
  Ta  Ta110  1  0.09869574  0.10773237  0.86884959  1
  Ta  Ta111  1  0.00660580  0.60490756  0.48886190  1
  Ta  Ta112  1  0.28660807  0.30146574  0.11939755  1
  Ta  Ta113  1  0.01720240  0.60460367  0.75934823  1
  Ta  Ta114  1  0.59998513  0.60712282  0.24342775  1
  Ta  Ta115  1  0.40958839  0.39259944  0.50229266  1
  Ta  Ta116  1  0.20179892  0.39222918  0.25101598  1
  Ta  Ta117  1  0.57486339  0.02153560  0.49776469  1
  Ta  Ta118  1  0.10808238  0.71328247  0.36648016  1
  Ta  Ta119  1  0.21165443  0.19247465  0.73005848  1
  Ti  Ti120  1  0.79369914  -0.00283944  0.00055199  1
  Ti  Ti121  1  0.91094161  0.50919584  0.86323616  1
  Ti  Ti122  1  0.39439034  0.00035779  0.00601363  1
  Ti  Ti123  1  0.32050426  0.09567407  0.61202994  1
  Ti  Ti124  1  0.72002568  0.70422431  0.86675929  1
  Ti  Ti125  1  0.00209238  0.60093334  0.25580854  1
  Ti  Ti126  1  0.40765781  0.60188499  0.23633821  1
  Ti  Ti127  1  0.59445494  0.00135737  0.75025506  1
  Ti  Ti128  1  0.81544885  0.38639561  0.24741247  1
  Ti  Ti129  1  0.50529273  0.69770657  0.36265890  1
  Ti  Ti130  1  0.88953920  0.88627656  0.89368768  1
  Ti  Ti131  1  0.30587728  0.29720076  0.38693043  1
  Ti  Ti132  1  0.30234631  0.89799070  0.12174984  1
  Ti  Ti133  1  0.70285061  0.71243119  0.13524919  1
  Ti  Ti134  1  0.18827939  0.20789109  -0.00389363  1
  Ti  Ti135  1  0.49289471  0.49393187  0.61954593  1
  Ti  Ti136  1  0.60294347  0.19948650  0.24096343  1
  Ti  Ti137  1  0.30528548  0.69767476  0.88100857  1
  Ti  Ti138  1  0.31409095  0.29802704  0.61906222  1
  Ti  Ti139  1  0.00651942  0.17606606  0.73436655  1
  Ti  Ti140  1  0.59813144  0.38809838  0.23523356  1
  Ti  Ti141  1  0.28805560  0.89043975  0.38922404  1
  Ti  Ti142  1  -0.01608845  0.40422799  0.50631588  1
  Ti  Ti143  1  0.29600523  0.49894674  0.12551303  1
  Ti  Ti144  1  0.70909168  0.10141255  0.11991667  1
  Ti  Ti145  1  0.49537172  0.68969868  0.87190466  1
  Ti  Ti146  1  0.70294110  0.29186602  0.12341500  1
  Ti  Ti147  1  0.09678544  0.69433525  0.88946915  1
  Ti  Ti148  1  0.20446969  0.19860574  0.51409531  1
  Ti  Ti149  1  0.19385871  0.40039185  -0.00057801  1
  Ti  Ti150  1  0.00206622  0.59362887  -0.00482655  1
  Ti  Ti151  1  -0.01239065  0.01109303  -0.00736396  1
  Ti  Ti152  1  0.20270369  0.61328671  0.48901101  1
  Ti  Ti153  1  0.89363214  0.09497993  0.86749362  1
  Ti  Ti154  1  -0.02986260  0.19942353  0.25439529  1
  Ti  Ti155  1  0.91133552  0.70577516  0.36968508  1
  Ti  Ti156  1  0.69942318  0.30419805  0.65976672  1
  Ti  Ti157  1  0.81088196  0.80947500  0.75078389  1
  Ti  Ti158  1  0.50259904  0.49631783  0.87589250  1
  Ti  Ti159  1  0.48141368  0.09565112  0.87965063  1
  Mo  Mo160  1  0.40575566  0.58933990  0.49079052  1
  Mo  Mo161  1  0.89357171  0.30546473  0.37982115  1
  Mo  Mo162  1  0.59268196  0.39981922  0.74927624  1
  Mo  Mo163  1  0.38710829  0.19676591  0.74810910  1
  Mo  Mo164  1  0.38926075  0.02106866  0.74908842  1
  Mo  Mo165  1  0.09786301  0.69612588  0.62241381  1
  Mo  Mo166  1  0.78153326  0.00628657  0.49573267  1
  Mo  Mo167  1  0.61124896  0.80046421  0.26234816  1
  Mo  Mo168  1  -0.01762936  -0.01072002  0.50536959  1
  Mo  Mo169  1  0.31058397  0.49790174  0.61321199  1
  Mo  Mo170  1  0.50541768  0.29623197  0.12172216  1
  Mo  Mo171  1  0.10439611  0.89697601  0.37483716  1
  Mo  Mo172  1  0.50447178  0.88924311  0.14026554  1
  Mo  Mo173  1  0.81031287  0.40545495  0.49895260  1
  Mo  Mo174  1  0.50181221  0.09777241  0.36415895  1
  Mo  Mo175  1  0.01221669  0.42185478  0.75230546  1
  Mo  Mo176  1  0.40654812  0.79073085  0.24734418  1
  Mo  Mo177  1  0.89080800  0.10593713  0.11012793  1
  Mo  Mo178  1  0.00498522  0.79932091  0.25142421  1
  Mo  Mo179  1  -0.00396023  0.79554596  -0.00385803  1
  Mo  Mo180  1  0.90580906  0.70194063  0.88339210  1
  Mo  Mo181  1  0.50907009  0.70994216  0.14163005  1
  Mo  Mo182  1  0.10723183  0.50536246  0.88083436  1
  Mo  Mo183  1  0.88818673  0.88677761  0.61982717  1
  Mo  Mo184  1  0.49357775  0.09589143  0.62756363  1
  Mo  Mo185  1  0.79525786  0.18360988  0.74851115  1
  Mo  Mo186  1  0.82036974  0.62454078  0.76119133  1
  Mo  Mo187  1  0.59780958  0.20372687  0.50165697  1
  Mo  Mo188  1  0.80398938  0.41055184  0.76472384  1
  Mo  Mo189  1  0.19943384  0.79517180  0.49686720  1
  Mo  Mo190  1  0.70337365  0.70749669  0.36782903  1
  Mo  Mo191  1  0.10298373  0.09859130  0.62416147  1
  Mo  Mo192  1  0.78434838  0.20560813  0.24660170  1
  Mo  Mo193  1  0.38869957  0.58526803  0.75540647  1
  Mo  Mo194  1  0.79314918  0.80556206  0.00380285  1
  Mo  Mo195  1  0.40920997  0.19494409  0.49551414  1
  Mo  Mo196  1  0.50991924  0.49900638  0.14061406  1
  Mo  Mo197  1  -0.00123530  0.00383790  0.24261346  1
  Mo  Mo198  1  0.39091153  -0.00487687  0.49735149  1
  Mo  Mo199  1  0.00156384  0.39545817  0.24771707  1
