# generated using pymatgen
data_HfZrTaTiMo
_symmetry_space_group_name_H-M   'P 1'
_cell_length_a   15.19381565
_cell_length_b   15.20643446
_cell_length_c   16.86375431
_cell_angle_alpha   89.99161414
_cell_angle_beta   89.96458633
_cell_angle_gamma   89.81250363
_symmetry_Int_Tables_number   1
_chemical_formula_structural   HfZrTaTiMo
_chemical_formula_sum   'Hf40 Zr40 Ta40 Ti40 Mo40'
_cell_volume   3896.24358895
_cell_formula_units_Z   40
loop_
 _symmetry_equiv_pos_site_id
 _symmetry_equiv_pos_as_xyz
  1  'x, y, z'
loop_
 _atom_site_type_symbol
 _atom_site_label
 _atom_site_symmetry_multiplicity
 _atom_site_fract_x
 _atom_site_fract_y
 _atom_site_fract_z
 _atom_site_occupancy
  Hf  Hf0  1  0.08658304  0.10545276  0.63321686  1
  Hf  Hf1  1  0.51090010  0.89629219  0.88216583  1
  Hf  Hf2  1  0.89460335  0.48326009  0.62223423  1
  Hf  Hf3  1  0.80913243  0.80111312  0.51098113  1
  Hf  Hf4  1  0.11478938  0.48500283  0.87185645  1
  Hf  Hf5  1  0.49531138  0.89513047  0.38012704  1
  Hf  Hf6  1  0.18780800  0.21721318  0.75428452  1
  Hf  Hf7  1  0.79653242  0.21604806  0.00548313  1
  Hf  Hf8  1  0.39321592  0.79425953  0.49866177  1
  Hf  Hf9  1  0.59995482  0.19836314  0.75575423  1
  Hf  Hf10  1  0.60317267  -0.00039838  0.24716781  1
  Hf  Hf11  1  0.79941739  0.42784487  0.25766718  1
  Hf  Hf12  1  0.30820565  0.09979630  0.63098892  1
  Hf  Hf13  1  0.20237484  0.39196540  0.01100444  1
  Hf  Hf14  1  0.87996428  0.69531163  0.11597041  1
  Hf  Hf15  1  0.90624512  0.32432502  0.13378801  1
  Hf  Hf16  1  0.20365638  0.00358004  0.75874987  1
  Hf  Hf17  1  0.52553722  0.47946945  0.36957163  1
  Hf  Hf18  1  0.51183561  0.89865375  0.11531487  1
  Hf  Hf19  1  0.20695432  0.61078064  0.49941777  1
  Hf  Hf20  1  0.79287194  0.20610498  0.47283094  1
  Hf  Hf21  1  0.61870618  0.41453115  0.00011774  1
  Hf  Hf22  1  0.79661277  0.00939623  0.48721575  1
  Hf  Hf23  1  -0.01465105  0.78792784  -0.00980023  1
  Hf  Hf24  1  0.61194390  0.00696237  0.75507168  1
  Hf  Hf25  1  0.10849834  0.07868753  0.35898530  1
  Hf  Hf26  1  0.79569885  0.80351847  0.73554229  1
  Hf  Hf27  1  0.30492277  0.89058221  0.87618617  1
  Hf  Hf28  1  0.09684525  0.89900716  0.64213670  1
  Hf  Hf29  1  0.70817855  0.51674307  0.85375194  1
  Hf  Hf30  1  0.60229144  0.22342671  0.49034667  1
  Hf  Hf31  1  0.88862871  0.09407746  0.88188015  1
  Hf  Hf32  1  -0.00610066  -0.02012706  0.48908242  1
  Hf  Hf33  1  0.20539223  0.38129435  0.23955731  1
  Hf  Hf34  1  0.71247557  0.31426895  0.86466258  1
  Hf  Hf35  1  0.29286147  0.31417164  0.87371915  1
  Hf  Hf36  1  0.19154868  0.79501819  -0.00318717  1
  Hf  Hf37  1  0.78592568  0.21924075  0.26565445  1
  Hf  Hf38  1  -0.00352745  0.79418430  0.74929459  1
  Hf  Hf39  1  0.30538186  0.49604845  0.13085673  1
  Zr  Zr40  1  0.29992785  0.49428285  0.36831552  1
  Zr  Zr41  1  0.01257714  0.58945630  0.51388512  1
  Zr  Zr42  1  0.50326995  0.10471584  0.37377480  1
  Zr  Zr43  1  0.39012425  0.20794133  0.24813138  1
  Zr  Zr44  1  0.31020093  0.30407769  0.38658558  1
  Zr  Zr45  1  0.69170841  0.88942905  0.37955185  1
  Zr  Zr46  1  0.19715074  0.20101885  0.50860127  1
  Zr  Zr47  1  0.40402913  0.79153847  0.00489650  1
  Zr  Zr48  1  0.48720809  0.11625739  0.11189181  1
  Zr  Zr49  1  0.41425272  0.59692950  0.25179770  1
  Zr  Zr50  1  0.80453342  0.20169127  0.75354481  1
  Zr  Zr51  1  0.69809880  0.11402901  0.13623227  1
  Zr  Zr52  1  0.38852677  0.00522504  0.24260162  1
  Zr  Zr53  1  0.19627358  -0.00721954  0.50993793  1
  Zr  Zr54  1  0.49593148  0.30144052  0.63613367  1
  Zr  Zr55  1  0.89737557  0.28378736  0.61184347  1
  Zr  Zr56  1  0.18091383  0.80308462  0.23993749  1
  Zr  Zr57  1  0.90810567  0.09368054  0.14673149  1
  Zr  Zr58  1  0.41333919  -0.00414481  0.75450249  1
  Zr  Zr59  1  -0.00543765  0.18816781  0.48435139  1
  Zr  Zr60  1  0.17901241  0.59422334  0.24481015  1
  Zr  Zr61  1  0.41719291  0.59459736  0.49466861  1
  Zr  Zr62  1  0.80904708  -0.01290337  0.01675805  1
  Zr  Zr63  1  0.00505447  0.19446871  0.00685561  1
  Zr  Zr64  1  0.52012978  0.50456356  0.12509694  1
  Zr  Zr65  1  0.19259492  0.59616921  0.00458970  1
  Zr  Zr66  1  0.30287607  0.70317886  0.36361737  1
  Zr  Zr67  1  0.61404809  0.00631647  -0.00037814  1
  Zr  Zr68  1  0.41018484  0.80099176  0.24038819  1
  Zr  Zr69  1  0.80014934  0.79030264  0.25841683  1
  Zr  Zr70  1  0.50036285  0.31574433  0.86797625  1
  Zr  Zr71  1  0.10579342  0.30470006  0.37644498  1
  Zr  Zr72  1  0.28853953  0.90970483  0.11333387  1
  Zr  Zr73  1  0.28069718  0.90558666  0.37233287  1
  Zr  Zr74  1  0.29518915  0.31005524  0.62670737  1
  Zr  Zr75  1  0.69414416  0.91211496  0.61711464  1
  Zr  Zr76  1  0.00825308  -0.01016665  0.00313099  1
  Zr  Zr77  1  0.00025698  0.58953687  0.75125299  1
  Zr  Zr78  1  0.00530072  0.20914101  0.25598398  1
  Zr  Zr79  1  -0.00787189  0.37928653  0.76474270  1
  Ta  Ta80  1  0.77573657  0.41021582  0.49265434  1
  Ta  Ta81  1  0.39384720  0.19473209  0.76375578  1
  Ta  Ta82  1  0.39979978  0.00110783  0.50579650  1
  Ta  Ta83  1  0.09872959  0.69336244  0.87231893  1
  Ta  Ta84  1  0.18582930  0.41829011  0.50753263  1
  Ta  Ta85  1  0.59691333  0.78516781  0.50891936  1
  Ta  Ta86  1  0.30195127  0.50903920  0.62589346  1
  Ta  Ta87  1  0.40619830  0.19539491  0.50118068  1
  Ta  Ta88  1  0.30330589  0.88982885  0.63578256  1
  Ta  Ta89  1  0.29995897  0.69568870  0.12796070  1
  Ta  Ta90  1  0.29819808  0.10135586  0.37892313  1
  Ta  Ta91  1  0.00998080  0.79178168  0.51575538  1
  Ta  Ta92  1  0.68635831  0.70751931  0.85446686  1
  Ta  Ta93  1  0.61967396  0.78748933  -0.00462409  1
  Ta  Ta94  1  0.81709224  0.42232692  -0.00528334  1
  Ta  Ta95  1  0.07536082  0.48171956  0.12560733  1
  Ta  Ta96  1  0.50216314  0.51523699  0.87387406  1
  Ta  Ta97  1  0.49575517  0.89733309  0.61841742  1
  Ta  Ta98  1  0.71300484  0.90138014  0.87227911  1
  Ta  Ta99  1  0.59916946  0.21572898  -0.00430692  1
  Ta  Ta100  1  0.59043795  0.23102287  0.25258563  1
  Ta  Ta101  1  0.49788879  0.10732440  0.88742177  1
  Ta  Ta102  1  0.70304145  0.11736560  0.61766287  1
  Ta  Ta103  1  0.00235529  0.38991601  -0.01341030  1
  Ta  Ta104  1  0.88974785  0.51823836  0.39327533  1
  Ta  Ta105  1  0.09831587  0.09815036  0.87095915  1
  Ta  Ta106  1  0.49928870  0.69574308  0.63229073  1
  Ta  Ta107  1  0.63052520  0.60473632  0.25293596  1
  Ta  Ta108  1  0.40923608  0.40199267  0.00061303  1
  Ta  Ta109  1  0.52987312  0.69806288  0.37140486  1
  Ta  Ta110  1  0.11145781  0.28199153  0.12626845  1
  Ta  Ta111  1  -0.00138453  -0.04305560  0.25899185  1
  Ta  Ta112  1  0.30614358  0.70131957  0.63347346  1
  Ta  Ta113  1  0.80814318  0.00307562  0.74567042  1
  Ta  Ta114  1  0.89598909  0.08789785  0.35568841  1
  Ta  Ta115  1  0.91438503  0.70608095  0.38619180  1
  Ta  Ta116  1  0.20901936  0.78575414  0.76196933  1
  Ta  Ta117  1  0.89974048  0.89422073  0.86753769  1
  Ta  Ta118  1  0.70244347  0.31612074  0.63172883  1
  Ta  Ta119  1  0.39989993  0.59859124  -0.00324721  1
  Ti  Ti120  1  0.51664883  0.69764684  0.12354729  1
  Ti  Ti121  1  0.61133513  0.58500472  0.50899581  1
  Ti  Ti122  1  0.70998415  0.87669570  0.12759508  1
  Ti  Ti123  1  -0.02241128  0.59031929  0.25008374  1
  Ti  Ti124  1  0.90490680  0.32566957  0.37759295  1
  Ti  Ti125  1  0.42642570  0.38744059  0.23908021  1
  Ti  Ti126  1  0.58654934  0.80543216  0.74253990  1
  Ti  Ti127  1  0.19371030  0.80055647  0.50716415  1
  Ti  Ti128  1  0.08010637  0.68473634  0.12072314  1
  Ti  Ti129  1  0.08452201  0.49679415  0.37132048  1
  Ti  Ti130  1  0.41183154  0.40080729  0.50847643  1
  Ti  Ti131  1  0.38955097  0.01446338  -0.00758058  1
  Ti  Ti132  1  0.69506702  0.69311825  0.63221146  1
  Ti  Ti133  1  0.49375148  0.70297823  0.86935343  1
  Ti  Ti134  1  0.59822495  0.01100066  0.49562378  1
  Ti  Ti135  1  0.08125641  0.88850913  0.12325160  1
  Ti  Ti136  1  0.09454171  0.89734052  0.86611459  1
  Ti  Ti137  1  0.50899995  0.09865812  0.62153527  1
  Ti  Ti138  1  0.69817795  0.50907151  0.63955505  1
  Ti  Ti139  1  0.79974772  -0.01052149  0.25225351  1
  Ti  Ti140  1  0.40012998  0.60597388  0.75709693  1
  Ti  Ti141  1  0.10580249  0.08454233  0.14089879  1
  Ti  Ti142  1  0.31764748  0.28769655  0.10992222  1
  Ti  Ti143  1  0.08695636  0.31880572  0.61802421  1
  Ti  Ti144  1  0.19592167  0.00389744  -0.01302427  1
  Ti  Ti145  1  0.20496383  0.19299545  -0.01226006  1
  Ti  Ti146  1  -0.00768497  0.18852636  0.76152946  1
  Ti  Ti147  1  0.38684137  0.41744910  0.75196928  1
  Ti  Ti148  1  0.77523798  0.61580906  -0.00983085  1
  Ti  Ti149  1  0.89833301  0.69028404  0.62620817  1
  Ti  Ti150  1  0.72108959  0.51848373  0.12233224  1
  Ti  Ti151  1  -0.01949396  0.58173215  -0.01219232  1
  Ti  Ti152  1  0.11453846  0.69060557  0.63789292  1
  Ti  Ti153  1  0.59064920  0.41894456  0.74170254  1
  Ti  Ti154  1  0.71948119  0.68116321  0.39325484  1
  Ti  Ti155  1  0.21249191  0.59062175  0.75791206  1
  Ti  Ti156  1  0.89674965  0.08329771  0.62333956  1
  Ti  Ti157  1  0.88042615  0.69010246  0.86839355  1
  Ti  Ti158  1  0.28275875  0.10734370  0.11843882  1
  Ti  Ti159  1  0.09635046  0.69886347  0.37418032  1
  Mo  Mo160  1  0.81028072  0.60991608  0.25754649  1
  Mo  Mo161  1  0.09978256  0.28800379  0.88064244  1
  Mo  Mo162  1  0.29899627  0.10178991  0.87738093  1
  Mo  Mo163  1  0.59073501  0.61087999  0.74496653  1
  Mo  Mo164  1  0.60106321  0.79380120  0.24753556  1
  Mo  Mo165  1  0.90165496  0.30097671  0.88283999  1
  Mo  Mo166  1  0.89948087  0.88916877  0.13025098  1
  Mo  Mo167  1  0.39477123  0.20659760  -0.01380223  1
  Mo  Mo168  1  -0.00388391  0.77013927  0.24558623  1
  Mo  Mo169  1  0.59393013  0.41265479  0.52001515  1
  Mo  Mo170  1  0.79743008  0.40307831  0.74450563  1
  Mo  Mo171  1  0.90037366  0.88829907  0.37784323  1
  Mo  Mo172  1  0.49569857  0.30707546  0.37839394  1
  Mo  Mo173  1  0.29879078  0.68784068  0.87445874  1
  Mo  Mo174  1  0.40204829  0.79431333  0.75014669  1
  Mo  Mo175  1  0.19696797  0.40993578  0.74188981  1
  Mo  Mo176  1  0.68457326  0.32517338  0.37459735  1
  Mo  Mo177  1  0.68941427  0.69666134  0.12294259  1
  Mo  Mo178  1  0.70055418  0.51229346  0.38223607  1
  Mo  Mo179  1  0.79764583  0.60401890  0.51909435  1
  Mo  Mo180  1  0.80228193  0.60787712  0.73866541  1
  Mo  Mo181  1  0.11025689  0.49688755  0.63583532  1
  Mo  Mo182  1  0.08758256  0.87013910  0.37971861  1
  Mo  Mo183  1  -0.00492913  0.39824222  0.49485863  1
  Mo  Mo184  1  0.70013524  0.10413014  0.35716288  1
  Mo  Mo185  1  0.79640303  0.79833556  -0.01266176  1
  Mo  Mo186  1  0.89718666  0.50178707  0.87355794  1
  Mo  Mo187  1  0.20878293  0.18848225  0.24465441  1
  Mo  Mo188  1  0.90325731  0.51038408  0.11596284  1
  Mo  Mo189  1  0.19207717  -0.00377452  0.24279154  1
  Mo  Mo190  1  0.49372683  0.50493637  0.63348954  1
  Mo  Mo191  1  0.69488408  0.10066063  0.88250618  1
  Mo  Mo192  1  0.31367279  0.50305620  0.87795819  1
  Mo  Mo193  1  0.59311737  0.60881361  -0.01061659  1
  Mo  Mo194  1  -0.00621897  0.00316129  0.75564712  1
  Mo  Mo195  1  0.90411744  0.90261155  0.62875629  1
  Mo  Mo196  1  0.69896795  0.31963847  0.12119649  1
  Mo  Mo197  1  0.50623512  0.30507078  0.11133728  1
  Mo  Mo198  1  0.00421571  0.41182797  0.25619548  1
  Mo  Mo199  1  0.61648243  0.40147584  0.23636865  1
