# generated using pymatgen
data_HfZrTaTiMo
_symmetry_space_group_name_H-M   'P 1'
_cell_length_a   15.20683662
_cell_length_b   15.21161783
_cell_length_c   16.84648420
_cell_angle_alpha   89.92461679
_cell_angle_beta   90.06326632
_cell_angle_gamma   90.04869991
_symmetry_Int_Tables_number   1
_chemical_formula_structural   HfZrTaTiMo
_chemical_formula_sum   'Hf40 Zr40 Ta40 Ti40 Mo40'
_cell_volume   3896.93146478
_cell_formula_units_Z   40
loop_
 _symmetry_equiv_pos_site_id
 _symmetry_equiv_pos_as_xyz
  1  'x, y, z'
loop_
 _atom_site_type_symbol
 _atom_site_label
 _atom_site_symmetry_multiplicity
 _atom_site_fract_x
 _atom_site_fract_y
 _atom_site_fract_z
 _atom_site_occupancy
  Hf  Hf0  1  0.80597518  -0.01570603  0.26412058  1
  Hf  Hf1  1  0.20436529  0.82271285  0.73879987  1
  Hf  Hf2  1  0.30653768  0.10991363  0.35994918  1
  Hf  Hf3  1  0.71186080  0.89468193  0.13107920  1
  Hf  Hf4  1  0.79916905  0.40565252  0.00852943  1
  Hf  Hf5  1  0.00557281  0.19415654  0.75298786  1
  Hf  Hf6  1  0.10065808  0.70019360  0.61679020  1
  Hf  Hf7  1  0.30299398  0.50709580  0.87439124  1
  Hf  Hf8  1  -0.00002908  0.77880164  0.00745537  1
  Hf  Hf9  1  0.11749148  0.49905732  0.36475484  1
  Hf  Hf10  1  0.89236936  0.08851286  0.88278603  1
  Hf  Hf11  1  0.00224053  0.79623791  0.75445073  1
  Hf  Hf12  1  0.39513378  0.81543765  0.01096041  1
  Hf  Hf13  1  0.40824727  0.41407576  0.49192642  1
  Hf  Hf14  1  0.80079954  0.81840174  -0.01483630  1
  Hf  Hf15  1  0.39067728  0.81004685  0.24012462  1
  Hf  Hf16  1  0.29630800  0.50896588  0.63163004  1
  Hf  Hf17  1  0.89695989  0.29741615  0.37717695  1
  Hf  Hf18  1  0.39990211  0.61409346  0.74190665  1
  Hf  Hf19  1  -0.01265339  -0.02209042  -0.00266331  1
  Hf  Hf20  1  0.70545832  0.09379119  0.39681359  1
  Hf  Hf21  1  0.29520153  0.90876742  0.37391458  1
  Hf  Hf22  1  0.91038628  0.30642064  0.62283592  1
  Hf  Hf23  1  0.79824405  0.19415289  0.74063529  1
  Hf  Hf24  1  0.90277371  0.28567196  0.11721041  1
  Hf  Hf25  1  0.50064318  0.12094388  0.62697402  1
  Hf  Hf26  1  0.68611172  0.09898016  0.86330846  1
  Hf  Hf27  1  0.29070645  0.71881573  0.87889067  1
  Hf  Hf28  1  -0.01025434  0.58491414  0.74775576  1
  Hf  Hf29  1  0.00153348  0.18806917  0.25477676  1
  Hf  Hf30  1  0.91095904  0.07862547  0.39242194  1
  Hf  Hf31  1  0.30647549  0.12297827  0.13522113  1
  Hf  Hf32  1  0.59728987  0.38465005  -0.00305047  1
  Hf  Hf33  1  0.71022782  0.50110097  0.87294508  1
  Hf  Hf34  1  0.60492278  0.60082910  0.74733018  1
  Hf  Hf35  1  0.90758766  0.51214323  0.36259269  1
  Hf  Hf36  1  0.49165219  0.91089739  0.86802296  1
  Hf  Hf37  1  0.18786558  0.61332318  0.75467523  1
  Hf  Hf38  1  0.77849796  0.19304960  0.00098900  1
  Hf  Hf39  1  0.69272806  0.69204179  0.61277708  1
  Zr  Zr40  1  0.32331257  0.30862561  0.64739848  1
  Zr  Zr41  1  0.00709744  0.39524304  0.25066797  1
  Zr  Zr42  1  0.61258711  -0.00500090  -0.00885396  1
  Zr  Zr43  1  0.29056659  0.70831443  0.38291925  1
  Zr  Zr44  1  0.88759101  0.69425461  0.62724793  1
  Zr  Zr45  1  0.11072500  0.29690210  0.12326115  1
  Zr  Zr46  1  0.50694286  0.90974349  0.12650040  1
  Zr  Zr47  1  0.39928445  0.21486401  0.49499528  1
  Zr  Zr48  1  0.70085226  0.49623954  0.36628871  1
  Zr  Zr49  1  0.89874533  0.68300309  0.87721764  1
  Zr  Zr50  1  0.38913532  0.39294826  0.00127163  1
  Zr  Zr51  1  0.49322961  0.70165372  0.88015789  1
  Zr  Zr52  1  0.20153524  0.60255952  0.01340904  1
  Zr  Zr53  1  -0.00336145  0.59493925  0.50231408  1
  Zr  Zr54  1  0.09386532  0.10611730  0.11191701  1
  Zr  Zr55  1  0.60085092  0.39489185  0.49674257  1
  Zr  Zr56  1  0.59824828  -0.00101231  0.73656666  1
  Zr  Zr57  1  0.79737552  0.19202450  0.25675749  1
  Zr  Zr58  1  0.21210244  0.61334903  0.23182181  1
  Zr  Zr59  1  0.11239264  0.09129066  0.36785190  1
  Zr  Zr60  1  0.68115575  0.29839483  0.13254346  1
  Zr  Zr61  1  0.50192705  0.71797951  0.37573137  1
  Zr  Zr62  1  0.70281375  0.88765291  0.61211147  1
  Zr  Zr63  1  0.08535264  0.70727055  0.36832852  1
  Zr  Zr64  1  0.50244320  0.49573696  0.87645278  1
  Zr  Zr65  1  0.20935922  0.39656800  0.49756648  1
  Zr  Zr66  1  0.10356772  0.09647636  0.88709510  1
  Zr  Zr67  1  0.78879051  0.79245855  0.76151137  1
  Zr  Zr68  1  0.57990944  -0.01387727  0.50152994  1
  Zr  Zr69  1  0.01724170  0.19657997  0.49940784  1
  Zr  Zr70  1  0.59963307  0.60523969  0.25048834  1
  Zr  Zr71  1  0.00009522  0.58161662  0.01705395  1
  Zr  Zr72  1  0.59334739  -0.01178578  0.27216226  1
  Zr  Zr73  1  0.91276573  0.07767691  0.61497775  1
  Zr  Zr74  1  0.09527384  0.89407784  0.13431674  1
  Zr  Zr75  1  0.80622676  0.40241530  0.49858991  1
  Zr  Zr76  1  0.28737895  0.10789612  0.63597069  1
  Zr  Zr77  1  0.21768001  -0.00024993  0.00895442  1
  Zr  Zr78  1  0.68665817  0.09467733  0.13300919  1
  Zr  Zr79  1  0.89787189  0.29402917  0.88267109  1
  Ta  Ta80  1  0.19947930  0.79767512  0.01924669  1
  Ta  Ta81  1  0.70062579  0.50433800  0.13146697  1
  Ta  Ta82  1  0.69378434  0.29345313  0.62767133  1
  Ta  Ta83  1  0.29802080  0.71314448  0.61032104  1
  Ta  Ta84  1  0.00737305  0.39291660  0.75787434  1
  Ta  Ta85  1  0.09336203  0.48649571  0.62698395  1
  Ta  Ta86  1  0.90234734  0.48861042  0.87997633  1
  Ta  Ta87  1  0.20278362  0.20839905  0.77096540  1
  Ta  Ta88  1  0.19666421  0.40396379  0.76268411  1
  Ta  Ta89  1  0.49908760  0.70640305  0.61589521  1
  Ta  Ta90  1  0.21170954  0.22714272  -0.01744231  1
  Ta  Ta91  1  0.10853902  0.88202089  0.88278356  1
  Ta  Ta92  1  -0.01362064  0.81167931  0.50572172  1
  Ta  Ta93  1  0.60371893  0.59661622  0.00898599  1
  Ta  Ta94  1  0.49659810  0.30617756  0.36302846  1
  Ta  Ta95  1  -0.03001600  0.78863881  0.23724333  1
  Ta  Ta96  1  0.18680448  0.82073283  0.50481228  1
  Ta  Ta97  1  0.69267832  0.87751474  0.38999221  1
  Ta  Ta98  1  0.71105011  0.49632366  0.62837388  1
  Ta  Ta99  1  0.40202429  0.81952376  0.50776466  1
  Ta  Ta100  1  0.79606657  0.39953973  0.24526851  1
  Ta  Ta101  1  0.31515189  0.10564695  0.86853310  1
  Ta  Ta102  1  0.01409996  0.39641125  0.49232302  1
  Ta  Ta103  1  0.58845479  0.79858563  0.74860624  1
  Ta  Ta104  1  0.50534680  0.49213354  0.12272974  1
  Ta  Ta105  1  0.81015898  0.61510264  0.24181079  1
  Ta  Ta106  1  0.20922188  -0.00334239  0.23666904  1
  Ta  Ta107  1  0.70053872  0.70496386  0.12159264  1
  Ta  Ta108  1  0.38665770  0.00695552  0.50955736  1
  Ta  Ta109  1  0.60018456  0.39262466  0.74500181  1
  Ta  Ta110  1  0.40371296  0.60582750  0.01984278  1
  Ta  Ta111  1  0.29241026  0.30996747  0.35175180  1
  Ta  Ta112  1  0.70606927  0.09806413  0.60949344  1
  Ta  Ta113  1  0.88912625  0.08027322  0.11502224  1
  Ta  Ta114  1  0.80691220  -0.01264102  0.74610281  1
  Ta  Ta115  1  0.41208917  0.02209820  0.00036179  1
  Ta  Ta116  1  0.11648915  0.29635013  0.63283874  1
  Ta  Ta117  1  0.29806698  0.31654144  0.14179989  1
  Ta  Ta118  1  0.59146571  0.59035654  0.49560107  1
  Ta  Ta119  1  0.40250234  0.60657682  0.50344210  1
  Ti  Ti120  1  0.29687844  0.91450014  0.87397760  1
  Ti  Ti121  1  0.40049872  0.20537368  -0.00399935  1
  Ti  Ti122  1  0.49279823  0.09859722  0.37656411  1
  Ti  Ti123  1  0.39738189  0.81216997  0.73280153  1
  Ti  Ti124  1  0.49495714  0.28504671  0.85831487  1
  Ti  Ti125  1  0.20530021  0.20755324  0.49482288  1
  Ti  Ti126  1  0.19391668  0.00788219  0.50136525  1
  Ti  Ti127  1  0.80853157  0.40498560  0.74552883  1
  Ti  Ti128  1  0.50213683  0.49606964  0.63031947  1
  Ti  Ti129  1  0.38598514  0.00011406  0.73858029  1
  Ti  Ti130  1  0.69448080  0.29912253  0.86312518  1
  Ti  Ti131  1  0.59917191  0.19985190  0.26877855  1
  Ti  Ti132  1  0.31540626  0.51240296  0.36803823  1
  Ti  Ti133  1  0.50934505  0.70654971  0.12563349  1
  Ti  Ti134  1  0.59536043  0.39978187  0.25567796  1
  Ti  Ti135  1  0.82018960  -0.02998812  0.50384302  1
  Ti  Ti136  1  0.09379992  0.89593475  0.35991248  1
  Ti  Ti137  1  0.57621874  0.18943076  -0.00294006  1
  Ti  Ti138  1  0.80030005  0.60572444  0.01139119  1
  Ti  Ti139  1  -0.00550791  -0.00825071  0.24391780  1
  Ti  Ti140  1  0.00320117  0.60248701  0.22859768  1
  Ti  Ti141  1  0.70797931  0.69817667  0.38206155  1
  Ti  Ti142  1  0.69190158  0.69582204  0.88070717  1
  Ti  Ti143  1  0.89878148  0.87410981  0.37413157  1
  Ti  Ti144  1  0.01600662  0.38451502  -0.00471530  1
  Ti  Ti145  1  0.40343029  0.41611709  0.24966578  1
  Ti  Ti146  1  0.60171460  0.79769534  -0.00775046  1
  Ti  Ti147  1  0.40570103  0.60303506  0.23403554  1
  Ti  Ti148  1  0.49798936  0.10721581  0.14058934  1
  Ti  Ti149  1  0.09255649  0.91594841  0.62634891  1
  Ti  Ti150  1  0.48896269  0.29391230  0.13855320  1
  Ti  Ti151  1  0.79975956  0.20384887  0.50375220  1
  Ti  Ti152  1  0.59999767  0.20730562  0.49190028  1
  Ti  Ti153  1  0.10535703  0.09990354  0.63344102  1
  Ti  Ti154  1  0.11945795  0.48505416  0.12788840  1
  Ti  Ti155  1  0.20162048  0.59821643  0.49955000  1
  Ti  Ti156  1  0.09749198  0.50232452  0.88212166  1
  Ti  Ti157  1  0.79988830  0.59608795  0.49504884  1
  Ti  Ti158  1  0.89771754  0.49318302  0.13208368  1
  Ti  Ti159  1  0.00659339  -0.01140301  0.76197596  1
  Mo  Mo160  1  0.78325540  0.79253130  0.25833592  1
  Mo  Mo161  1  0.89300674  0.89647396  0.13023606  1
  Mo  Mo162  1  0.40786220  0.40884347  0.75479913  1
  Mo  Mo163  1  0.88546712  0.69744731  0.11913895  1
  Mo  Mo164  1  0.60522907  0.79622512  0.25230669  1
  Mo  Mo165  1  0.09941657  0.30762995  0.87839341  1
  Mo  Mo166  1  0.80152944  0.78714177  0.49526748  1
  Mo  Mo167  1  0.49164557  0.50770441  0.36912973  1
  Mo  Mo168  1  0.40817281  0.19782580  0.75513566  1
  Mo  Mo169  1  0.19874185  0.40691848  -0.00743837  1
  Mo  Mo170  1  0.28782119  0.90931081  0.61682813  1
  Mo  Mo171  1  0.31249336  0.49917466  0.12594240  1
  Mo  Mo172  1  0.69491951  0.89259875  0.86291406  1
  Mo  Mo173  1  0.50962358  0.30942700  0.62934783  1
  Mo  Mo174  1  0.10558982  0.69909479  0.87791761  1
  Mo  Mo175  1  0.19106755  0.80647346  0.24024394  1
  Mo  Mo176  1  0.79547372  -0.00220850  -0.00560974  1
  Mo  Mo177  1  0.69542765  0.29268496  0.36891242  1
  Mo  Mo178  1  0.30867684  0.71051531  0.12297364  1
  Mo  Mo179  1  0.79502826  0.58536718  0.75160345  1
  Mo  Mo180  1  0.59067157  0.78792252  0.49868946  1
  Mo  Mo181  1  0.49252491  0.10288796  0.86666122  1
  Mo  Mo182  1  -0.00325121  0.19399064  0.00211768  1
  Mo  Mo183  1  0.09625756  0.69881951  0.13670950  1
  Mo  Mo184  1  0.90487873  0.89896996  0.86534145  1
  Mo  Mo185  1  0.19177460  0.00652397  0.75968748  1
  Mo  Mo186  1  0.90194886  0.49090610  0.62564755  1
  Mo  Mo187  1  0.60658553  0.20274263  0.74282587  1
  Mo  Mo188  1  0.40120657  0.00956880  0.25007151  1
  Mo  Mo189  1  0.19743521  0.20807711  0.24956941  1
  Mo  Mo190  1  0.30406513  0.91544932  0.12633723  1
  Mo  Mo191  1  0.48577084  0.90656006  0.37682397  1
  Mo  Mo192  1  0.30796889  0.30699930  0.86263407  1
  Mo  Mo193  1  0.90555683  0.89659116  0.63274530  1
  Mo  Mo194  1  0.48764632  0.90091672  0.63070148  1
  Mo  Mo195  1  0.41112884  0.21259126  0.25449535  1
  Mo  Mo196  1  0.02123963  -0.02028731  0.49597347  1
  Mo  Mo197  1  0.89319589  0.69968599  0.37644263  1
  Mo  Mo198  1  0.20912637  0.41245947  0.25337992  1
  Mo  Mo199  1  0.10666113  0.29762267  0.37214279  1
