# generated using pymatgen
data_HfZrTaTiMo
_symmetry_space_group_name_H-M   'P 1'
_cell_length_a   15.21508919
_cell_length_b   15.22259137
_cell_length_c   16.83683806
_cell_angle_alpha   89.94925859
_cell_angle_beta   90.03176002
_cell_angle_gamma   90.11429948
_symmetry_Int_Tables_number   1
_chemical_formula_structural   HfZrTaTiMo
_chemical_formula_sum   'Hf40 Zr40 Ta40 Ti40 Mo40'
_cell_volume   3899.62212861
_cell_formula_units_Z   40
loop_
 _symmetry_equiv_pos_site_id
 _symmetry_equiv_pos_as_xyz
  1  'x, y, z'
loop_
 _atom_site_type_symbol
 _atom_site_label
 _atom_site_symmetry_multiplicity
 _atom_site_fract_x
 _atom_site_fract_y
 _atom_site_fract_z
 _atom_site_occupancy
  Hf  Hf0  1  0.60473090  0.60562389  0.50238286  1
  Hf  Hf1  1  0.18788539  -0.01863833  0.50831012  1
  Hf  Hf2  1  0.19872091  0.79454964  0.00776044  1
  Hf  Hf3  1  0.70261229  0.92768591  0.62257741  1
  Hf  Hf4  1  0.80199772  0.59559897  -0.01295272  1
  Hf  Hf5  1  0.39593343  0.19755696  0.00101382  1
  Hf  Hf6  1  0.80592101  0.00510088  0.25668608  1
  Hf  Hf7  1  0.48941683  0.90807495  0.87101146  1
  Hf  Hf8  1  0.71114044  0.28896574  0.63219400  1
  Hf  Hf9  1  0.10344682  0.71759815  0.86879037  1
  Hf  Hf10  1  0.01403747  0.40556269  0.49582089  1
  Hf  Hf11  1  0.90349467  0.70327823  0.63533123  1
  Hf  Hf12  1  0.19883396  0.19722997  0.73582465  1
  Hf  Hf13  1  0.60599840  0.00946499  -0.00429079  1
  Hf  Hf14  1  0.10367994  0.90140041  0.36092735  1
  Hf  Hf15  1  0.20666679  0.41433656  0.73890939  1
  Hf  Hf16  1  0.50332170  0.29845992  0.86632625  1
  Hf  Hf17  1  0.82313704  0.60580812  0.24921802  1
  Hf  Hf18  1  0.70692531  0.49608182  0.37608134  1
  Hf  Hf19  1  0.09510859  0.89010169  0.13972399  1
  Hf  Hf20  1  0.39561208  0.59995829  -0.00301073  1
  Hf  Hf21  1  0.59989670  0.80609909  0.49569207  1
  Hf  Hf22  1  0.80573494  0.80426402  0.50737496  1
  Hf  Hf23  1  0.40192756  0.18997139  0.73941843  1
  Hf  Hf24  1  0.81165121  0.39973123  0.49595401  1
  Hf  Hf25  1  0.09785592  0.29971438  0.12354565  1
  Hf  Hf26  1  0.70085974  0.49938200  0.12836048  1
  Hf  Hf27  1  0.90636998  0.28669082  0.63574382  1
  Hf  Hf28  1  0.10842491  0.50409774  0.13126284  1
  Hf  Hf29  1  0.49777137  0.70165433  0.87222056  1
  Hf  Hf30  1  0.79903126  0.19886201  0.00375042  1
  Hf  Hf31  1  0.69175175  0.90624503  0.13707530  1
  Hf  Hf32  1  0.30992089  0.28235121  0.39456900  1
  Hf  Hf33  1  0.89411179  0.28724423  0.86240342  1
  Hf  Hf34  1  0.59688719  0.80555602  0.73691316  1
  Hf  Hf35  1  0.31768225  0.70790364  0.61445116  1
  Hf  Hf36  1  0.20111251  0.00204841  0.01901788  1
  Hf  Hf37  1  0.79315890  0.00266197  0.47784752  1
  Hf  Hf38  1  0.68854397  0.70236208  0.12950387  1
  Hf  Hf39  1  0.20794525  0.40260721  -0.00162012  1
  Zr  Zr40  1  0.18234542  0.00978670  0.72906013  1
  Zr  Zr41  1  0.80589120  0.57639127  0.76551863  1
  Zr  Zr42  1  0.79949641  0.80283628  0.00556180  1
  Zr  Zr43  1  0.19173224  0.18462859  0.50720804  1
  Zr  Zr44  1  0.21548536  0.39073761  0.25756230  1
  Zr  Zr45  1  0.21060342  0.60790342  0.74712313  1
  Zr  Zr46  1  0.49768486  0.10170533  0.13944826  1
  Zr  Zr47  1  0.10039485  0.92392320  0.87970709  1
  Zr  Zr48  1  0.70602835  0.71090011  0.86457842  1
  Zr  Zr49  1  0.38616201  0.80012014  -0.00125889  1
  Zr  Zr50  1  0.00567897  0.60139293  -0.00693744  1
  Zr  Zr51  1  0.09641422  0.30267859  0.62478891  1
  Zr  Zr52  1  0.49934863  0.31194751  0.13024900  1
  Zr  Zr53  1  0.71665856  0.70722123  0.37568489  1
  Zr  Zr54  1  0.60080500  0.60013290  0.73997649  1
  Zr  Zr55  1  0.30462087  0.30455371  0.86813814  1
  Zr  Zr56  1  0.00522566  0.80617231  0.49218193  1
  Zr  Zr57  1  0.47604821  0.89868392  0.61829420  1
  Zr  Zr58  1  0.89803083  0.90290209  0.88632688  1
  Zr  Zr59  1  0.80344092  0.39581134  0.25313253  1
  Zr  Zr60  1  0.80482157  0.40012122  -0.00348682  1
  Zr  Zr61  1  0.39572809  0.00081450  0.01072117  1
  Zr  Zr62  1  0.59808747  0.60489185  0.25906701  1
  Zr  Zr63  1  0.10677429  0.71512708  0.62883819  1
  Zr  Zr64  1  0.49167746  0.87563245  0.14362532  1
  Zr  Zr65  1  0.48227323  0.12368868  0.37455229  1
  Zr  Zr66  1  0.60540787  0.39530352  0.50442867  1
  Zr  Zr67  1  -0.00195235  0.00643199  0.24756106  1
  Zr  Zr68  1  0.50209975  0.49168533  0.87028192  1
  Zr  Zr69  1  0.69485467  0.11026801  0.13915414  1
  Zr  Zr70  1  0.00708167  0.59781100  0.75484918  1
  Zr  Zr71  1  0.59532121  0.01059222  0.75403234  1
  Zr  Zr72  1  0.10094790  0.29105756  0.87033092  1
  Zr  Zr73  1  0.59454081  0.80039329  -0.00104259  1
  Zr  Zr74  1  0.40337226  0.58017024  0.26541330  1
  Zr  Zr75  1  0.38601638  -0.00748231  0.26767446  1
  Zr  Zr76  1  0.39512928  0.80273571  0.47158081  1
  Zr  Zr77  1  0.69882688  0.12096817  0.36366219  1
  Zr  Zr78  1  0.39554509  0.59466107  0.74796074  1
  Zr  Zr79  1  0.00190167  0.20119188  0.25352431  1
  Ta  Ta80  1  0.30827703  0.47990131  0.39500388  1
  Ta  Ta81  1  0.05771603  0.09499721  0.61413777  1
  Ta  Ta82  1  0.38409495  0.00294242  0.47990378  1
  Ta  Ta83  1  0.60816048  0.40287762  0.73746050  1
  Ta  Ta84  1  -0.00310361  0.40595149  0.75493102  1
  Ta  Ta85  1  0.10937580  0.49818358  0.87764751  1
  Ta  Ta86  1  0.29925827  0.29498302  0.12430371  1
  Ta  Ta87  1  0.58824844  0.00079738  0.47809931  1
  Ta  Ta88  1  0.40563550  0.59672607  0.49316960  1
  Ta  Ta89  1  0.69582722  0.30443181  0.12779442  1
  Ta  Ta90  1  0.37891601  -0.00887503  0.74797517  1
  Ta  Ta91  1  0.69844777  0.30599075  0.86040433  1
  Ta  Ta92  1  0.28726368  0.08975544  0.87183740  1
  Ta  Ta93  1  0.86973323  0.09349433  0.62283382  1
  Ta  Ta94  1  0.00365336  0.40523019  0.25995577  1
  Ta  Ta95  1  0.40306043  0.40323552  0.00064473  1
  Ta  Ta96  1  0.59513464  -0.00495578  0.27249595  1
  Ta  Ta97  1  0.60428181  0.40176096  -0.00286661  1
  Ta  Ta98  1  -0.00133431  0.18906370  0.00064675  1
  Ta  Ta99  1  0.28401753  0.67872232  0.37246308  1
  Ta  Ta100  1  0.11623758  0.50606248  0.36987136  1
  Ta  Ta101  1  0.71400094  0.50019149  0.62266859  1
  Ta  Ta102  1  0.19623520  0.58774655  0.50980674  1
  Ta  Ta103  1  0.49611324  0.49946982  0.61909435  1
  Ta  Ta104  1  -0.02315351  -0.01155173  0.74447496  1
  Ta  Ta105  1  0.30890110  0.69337634  0.14219629  1
  Ta  Ta106  1  0.31037546  0.49431491  0.12935047  1
  Ta  Ta107  1  0.21249068  0.82140329  0.74844219  1
  Ta  Ta108  1  0.30892931  0.30432116  0.60888580  1
  Ta  Ta109  1  0.19711113  0.19061835  0.00314531  1
  Ta  Ta110  1  0.70626050  0.70266352  0.62869567  1
  Ta  Ta111  1  0.60558229  0.19657500  0.74512717  1
  Ta  Ta112  1  0.60236546  0.20851350  -0.00560419  1
  Ta  Ta113  1  0.91917233  0.51494266  0.37667235  1
  Ta  Ta114  1  0.50601001  0.09552190  0.61150142  1
  Ta  Ta115  1  0.80754643  0.00893214  0.01216094  1
  Ta  Ta116  1  0.80419768  0.20316103  0.49091155  1
  Ta  Ta117  1  0.81417216  0.82610945  0.73793399  1
  Ta  Ta118  1  -0.01167656  0.78206645  0.25526987  1
  Ta  Ta119  1  0.90902942  0.69823962  0.12273624  1
  Ti  Ti120  1  0.49820452  0.31955553  0.38098007  1
  Ti  Ti121  1  0.89480601  0.88910565  0.36786727  1
  Ti  Ti122  1  0.71519649  0.10696533  0.87327486  1
  Ti  Ti123  1  0.19785215  0.01260098  0.24505825  1
  Ti  Ti124  1  -0.00621331  0.17245249  0.75968627  1
  Ti  Ti125  1  0.89765745  0.89719525  0.12827711  1
  Ti  Ti126  1  0.60322387  0.20064525  0.49638562  1
  Ti  Ti127  1  0.50244566  0.50960076  0.12106321  1
  Ti  Ti128  1  0.38361602  0.20567777  0.24734101  1
  Ti  Ti129  1  0.90941011  0.49397230  0.62509465  1
  Ti  Ti130  1  0.49600184  0.10485258  0.87406719  1
  Ti  Ti131  1  0.09109027  0.68575197  0.36812523  1
  Ti  Ti132  1  0.00460731  0.60330969  0.50589161  1
  Ti  Ti133  1  0.31119044  0.09011347  0.61388236  1
  Ti  Ti134  1  -0.01165624  0.00887682  0.48330666  1
  Ti  Ti135  1  0.91329972  0.49728866  0.12519765  1
  Ti  Ti136  1  0.40179573  0.40093555  0.73387769  1
  Ti  Ti137  1  0.90475667  0.71029407  0.86455056  1
  Ti  Ti138  1  0.20535241  0.78825645  0.25816017  1
  Ti  Ti139  1  -0.00043848  0.00951699  0.01930311  1
  Ti  Ti140  1  0.10368772  0.29607705  0.38256155  1
  Ti  Ti141  1  0.70461160  0.91061692  0.86932754  1
  Ti  Ti142  1  0.80887648  0.20608575  0.24701104  1
  Ti  Ti143  1  0.60179348  0.59665569  -0.00401808  1
  Ti  Ti144  1  0.58438301  0.79840518  0.27279323  1
  Ti  Ti145  1  0.00058169  0.80170305  0.00874436  1
  Ti  Ti146  1  0.29603743  0.89128396  0.14500518  1
  Ti  Ti147  1  -0.00029844  0.39609397  -0.00828339  1
  Ti  Ti148  1  0.10580352  0.69281756  0.13855594  1
  Ti  Ti149  1  0.79746208  0.80208881  0.24834105  1
  Ti  Ti150  1  0.81391057  0.60205993  0.50331486  1
  Ti  Ti151  1  0.58882779  0.40897934  0.25856661  1
  Ti  Ti152  1  0.20955611  0.60306450  -0.00508628  1
  Ti  Ti153  1  0.39182751  0.79692074  0.75398129  1
  Ti  Ti154  1  0.90149402  0.30080215  0.12466520  1
  Ti  Ti155  1  0.20011158  0.79209324  0.48936545  1
  Ti  Ti156  1  0.59698490  0.22181207  0.25781381  1
  Ti  Ti157  1  0.90070997  0.29918750  0.37471919  1
  Ti  Ti158  1  0.50385650  0.29333602  0.62234987  1
  Ti  Ti159  1  0.19688025  0.19024300  0.25483743  1
  Mo  Mo160  1  0.39541450  0.78277297  0.26857044  1
  Mo  Mo161  1  0.09565413  0.50290043  0.62333821  1
  Mo  Mo162  1  0.80287616  0.39684769  0.74758469  1
  Mo  Mo163  1  0.79462555  0.01146175  0.75376951  1
  Mo  Mo164  1  0.68924253  0.10613612  0.61045830  1
  Mo  Mo165  1  0.09994052  0.10348795  0.38121931  1
  Mo  Mo166  1  0.40907106  0.19251668  0.51121028  1
  Mo  Mo167  1  0.28452212  0.89160803  0.36243224  1
  Mo  Mo168  1  0.29775901  0.50036890  0.87781998  1
  Mo  Mo169  1  0.90623474  0.08986271  0.88245411  1
  Mo  Mo170  1  0.20538180  0.59551890  0.25345912  1
  Mo  Mo171  1  0.29605414  0.10891567  0.13301758  1
  Mo  Mo172  1  0.27626380  0.09413143  0.37873789  1
  Mo  Mo173  1  0.29512163  0.70821154  0.87415903  1
  Mo  Mo174  1  0.08597321  0.90182563  0.62427178  1
  Mo  Mo175  1  0.00838779  0.59459859  0.24568281  1
  Mo  Mo176  1  0.00357350  0.80995549  0.74804611  1
  Mo  Mo177  1  0.90151011  0.10768464  0.12250699  1
  Mo  Mo178  1  0.49710736  0.69409160  0.37887227  1
  Mo  Mo179  1  0.69791348  0.30244699  0.37107746  1
  Mo  Mo180  1  0.20060660  0.39860884  0.49751955  1
  Mo  Mo181  1  0.69966075  0.90118872  0.36577709  1
  Mo  Mo182  1  0.90469965  0.10853613  0.37727311  1
  Mo  Mo183  1  -0.01409790  0.19854055  0.49177404  1
  Mo  Mo184  1  0.30279686  0.49542813  0.60588156  1
  Mo  Mo185  1  0.49923464  0.49411855  0.38752559  1
  Mo  Mo186  1  0.10321663  0.10675347  0.12515696  1
  Mo  Mo187  1  0.50556836  0.69801543  0.61965554  1
  Mo  Mo188  1  0.49376476  0.68550758  0.12581656  1
  Mo  Mo189  1  0.29277157  0.89643588  0.61915324  1
  Mo  Mo190  1  0.79667767  0.18561267  0.75469358  1
  Mo  Mo191  1  0.69580478  0.48989180  0.87740047  1
  Mo  Mo192  1  0.40619239  0.38880630  0.25320541  1
  Mo  Mo193  1  0.29449000  0.90256459  0.87172658  1
  Mo  Mo194  1  0.09460969  0.09998173  0.87792680  1
  Mo  Mo195  1  0.90910619  0.69738032  0.38059870  1
  Mo  Mo196  1  0.90932640  0.91592559  0.61567084  1
  Mo  Mo197  1  0.91392202  0.48772480  0.87905253  1
  Mo  Mo198  1  0.49632279  0.90216499  0.37419296  1
  Mo  Mo199  1  0.40702659  0.39654507  0.51197855  1
