# generated using pymatgen
data_HfZrTaTiMo
_symmetry_space_group_name_H-M   'P 1'
_cell_length_a   15.22435291
_cell_length_b   15.20826116
_cell_length_c   16.81427616
_cell_angle_alpha   89.94096273
_cell_angle_beta   90.02939988
_cell_angle_gamma   90.03012505
_symmetry_Int_Tables_number   1
_chemical_formula_structural   HfZrTaTiMo
_chemical_formula_sum   'Hf40 Zr40 Ta40 Ti40 Mo40'
_cell_volume   3893.10603705
_cell_formula_units_Z   40
loop_
 _symmetry_equiv_pos_site_id
 _symmetry_equiv_pos_as_xyz
  1  'x, y, z'
loop_
 _atom_site_type_symbol
 _atom_site_label
 _atom_site_symmetry_multiplicity
 _atom_site_fract_x
 _atom_site_fract_y
 _atom_site_fract_z
 _atom_site_occupancy
  Hf  Hf0  1  0.90562247  0.10905208  0.86178699  1
  Hf  Hf1  1  0.22241016  -0.00221902  0.25500888  1
  Hf  Hf2  1  0.10092361  0.49816301  0.11536653  1
  Hf  Hf3  1  0.10191993  0.28831976  0.37957945  1
  Hf  Hf4  1  0.10669963  0.50358177  0.62795792  1
  Hf  Hf5  1  0.49682108  0.70780102  0.13454860  1
  Hf  Hf6  1  0.39339228  0.19840412  0.25300984  1
  Hf  Hf7  1  0.79599741  0.20336691  0.26189468  1
  Hf  Hf8  1  -0.00231107  0.59760034  0.74100814  1
  Hf  Hf9  1  0.50005069  0.28759193  0.64415086  1
  Hf  Hf10  1  0.89923484  0.89842023  0.86960078  1
  Hf  Hf11  1  -0.00333652  0.79535494  0.01699934  1
  Hf  Hf12  1  0.50193902  0.29690745  0.12090180  1
  Hf  Hf13  1  0.49150096  0.91211091  0.38731351  1
  Hf  Hf14  1  0.09491003  0.49346061  0.38007383  1
  Hf  Hf15  1  0.20680568  0.18260530  0.51260209  1
  Hf  Hf16  1  0.01126660  0.21493380  0.53347295  1
  Hf  Hf17  1  0.29831715  0.08998845  0.86666365  1
  Hf  Hf18  1  0.31456174  0.09702314  0.11435674  1
  Hf  Hf19  1  0.30227215  0.49355427  0.64121794  1
  Hf  Hf20  1  0.40524787  0.80482268  0.73822641  1
  Hf  Hf21  1  -0.00141127  0.61020371  0.50947851  1
  Hf  Hf22  1  0.09241675  0.69666249  0.87358901  1
  Hf  Hf23  1  0.11211146  0.90667225  0.12273027  1
  Hf  Hf24  1  0.20515573  0.39005116  0.24442725  1
  Hf  Hf25  1  0.00680528  0.00608143  0.73621836  1
  Hf  Hf26  1  0.89171992  0.48715347  0.11379786  1
  Hf  Hf27  1  0.08902566  0.29821951  0.12076019  1
  Hf  Hf28  1  0.19840276  0.79319916  0.75050606  1
  Hf  Hf29  1  0.29853167  0.70075184  0.12459663  1
  Hf  Hf30  1  0.49707061  0.12016063  0.84931459  1
  Hf  Hf31  1  0.79868968  0.41336983  0.72845492  1
  Hf  Hf32  1  0.10228671  0.90550503  0.88038958  1
  Hf  Hf33  1  0.89013068  0.50497594  0.39540919  1
  Hf  Hf34  1  0.00376746  0.00754939  0.00688025  1
  Hf  Hf35  1  0.20164284  0.60338421  -0.00185202  1
  Hf  Hf36  1  0.29948607  0.29795527  0.11105204  1
  Hf  Hf37  1  0.58255218  0.41206272  0.51882449  1
  Hf  Hf38  1  0.70212296  0.69737000  0.37859002  1
  Hf  Hf39  1  0.21015833  0.59845126  0.49535253  1
  Zr  Zr40  1  0.69036748  0.90419905  0.12741544  1
  Zr  Zr41  1  0.00719900  -0.00227473  0.26653468  1
  Zr  Zr42  1  0.09897038  0.71086899  0.37429602  1
  Zr  Zr43  1  0.49650958  0.49742769  0.37323433  1
  Zr  Zr44  1  0.90104819  0.91196132  0.60858368  1
  Zr  Zr45  1  0.38932802  0.79302808  0.50780057  1
  Zr  Zr46  1  0.90676069  0.50005013  0.88056229  1
  Zr  Zr47  1  0.79995495  0.58654734  0.24870581  1
  Zr  Zr48  1  -0.00462119  0.79844309  0.23497306  1
  Zr  Zr49  1  0.80406488  0.00526001  0.00338378  1
  Zr  Zr50  1  0.60188054  -0.01208380  0.74180991  1
  Zr  Zr51  1  -0.01519770  0.40042132  0.25208088  1
  Zr  Zr52  1  0.68789428  0.30034578  0.39732828  1
  Zr  Zr53  1  -0.00034296  0.19135205  0.26182178  1
  Zr  Zr54  1  0.68847924  0.10077954  0.62042404  1
  Zr  Zr55  1  0.40010315  0.60447460  0.75474637  1
  Zr  Zr56  1  0.29829831  0.29133535  0.37668355  1
  Zr  Zr57  1  0.70529762  0.10744733  0.86300726  1
  Zr  Zr58  1  0.70692269  0.50177779  0.87328629  1
  Zr  Zr59  1  0.80599093  0.79797187  0.01143200  1
  Zr  Zr60  1  0.20167894  0.59530888  0.24574311  1
  Zr  Zr61  1  0.59473072  0.19164305  0.25513637  1
  Zr  Zr62  1  0.79183419  0.80748347  0.74019439  1
  Zr  Zr63  1  0.88497783  0.30159144  0.87019860  1
  Zr  Zr64  1  0.80118563  0.79836850  0.24560976  1
  Zr  Zr65  1  0.19730849  0.40318100  0.76917197  1
  Zr  Zr66  1  0.30445072  0.89939336  0.87899244  1
  Zr  Zr67  1  0.59367153  0.80034306  -0.00434397  1
  Zr  Zr68  1  0.69728785  0.69919463  0.87422632  1
  Zr  Zr69  1  0.01371486  0.02242237  0.48473174  1
  Zr  Zr70  1  0.50036303  0.70095235  0.36710741  1
  Zr  Zr71  1  0.69074126  0.68038327  0.12318300  1
  Zr  Zr72  1  0.38661351  0.81929119  0.25509946  1
  Zr  Zr73  1  0.80845140  0.18241249  0.50450473  1
  Zr  Zr74  1  0.89883305  0.30659202  0.39624085  1
  Zr  Zr75  1  0.68703876  0.10735489  0.12208669  1
  Zr  Zr76  1  0.41278539  0.59293715  0.51023260  1
  Zr  Zr77  1  0.38381079  0.39343134  0.50891773  1
  Zr  Zr78  1  0.31435638  0.28862689  0.87560382  1
  Zr  Zr79  1  0.19337012  0.18998925  -0.00791227  1
  Ta  Ta80  1  0.70045701  0.30373249  0.61345074  1
  Ta  Ta81  1  0.40052359  -0.00547167  0.73037488  1
  Ta  Ta82  1  0.18477604  0.19553017  0.74589151  1
  Ta  Ta83  1  0.60709497  0.59997196  0.73296318  1
  Ta  Ta84  1  0.30648026  0.50340275  0.88487338  1
  Ta  Ta85  1  0.51218895  0.50239145  0.11989388  1
  Ta  Ta86  1  0.30046641  0.69589254  0.36879584  1
  Ta  Ta87  1  0.07951229  0.29631874  0.87681709  1
  Ta  Ta88  1  0.40563873  0.40351657  0.24362783  1
  Ta  Ta89  1  0.79892477  0.60682054  0.72719136  1
  Ta  Ta90  1  0.60414865  0.40074487  0.25237273  1
  Ta  Ta91  1  0.10975703  0.10493423  0.13201979  1
  Ta  Ta92  1  0.20011221  0.79967297  0.00234948  1
  Ta  Ta93  1  0.30876671  0.90418826  0.10921207  1
  Ta  Ta94  1  0.69778843  0.91414772  0.38522658  1
  Ta  Ta95  1  0.58910969  0.20979391  -0.01111482  1
  Ta  Ta96  1  0.69709818  0.50338681  0.39963472  1
  Ta  Ta97  1  0.89585617  0.69670874  0.86940038  1
  Ta  Ta98  1  0.20100652  -0.00609410  0.73577618  1
  Ta  Ta99  1  0.50064622  0.90469134  0.87208338  1
  Ta  Ta100  1  0.51002823  0.50270235  0.87128056  1
  Ta  Ta101  1  -0.00371338  0.38666218  0.73233297  1
  Ta  Ta102  1  -0.00415769  0.60318725  0.23983687  1
  Ta  Ta103  1  0.49729778  0.91782991  0.11969811  1
  Ta  Ta104  1  0.31803163  0.08478697  0.38677574  1
  Ta  Ta105  1  0.79662468  0.00066508  0.25302707  1
  Ta  Ta106  1  -0.01351009  0.20084691  0.00367093  1
  Ta  Ta107  1  0.40948486  0.19347530  0.51317956  1
  Ta  Ta108  1  0.89843786  0.89660421  0.38467147  1
  Ta  Ta109  1  0.40037621  0.00155439  0.52339619  1
  Ta  Ta110  1  -0.00242970  0.80162929  0.74235965  1
  Ta  Ta111  1  0.80229670  0.79624445  0.49809402  1
  Ta  Ta112  1  0.19711647  0.39895426  -0.01238217  1
  Ta  Ta113  1  0.41501050  0.60213490  -0.00483756  1
  Ta  Ta114  1  0.59855185  0.79847960  0.50203963  1
  Ta  Ta115  1  0.51236598  0.10186611  0.39139678  1
  Ta  Ta116  1  0.40201173  0.80079675  -0.00334161  1
  Ta  Ta117  1  0.31526524  0.49275314  0.10751937  1
  Ta  Ta118  1  0.09796172  0.10144843  0.86845337  1
  Ta  Ta119  1  0.60183587  0.58728435  0.25148065  1
  Ti  Ti120  1  0.01537788  0.81398004  0.49903464  1
  Ti  Ti121  1  0.30268965  0.69941928  0.87743941  1
  Ti  Ti122  1  0.69770875  0.90113242  0.87499366  1
  Ti  Ti123  1  0.30030810  0.49434503  0.37133548  1
  Ti  Ti124  1  0.18812133  0.38883056  0.50897492  1
  Ti  Ti125  1  0.89827557  0.70782831  0.61983463  1
  Ti  Ti126  1  0.59643276  0.81431105  0.25536312  1
  Ti  Ti127  1  0.79348539  0.59654171  0.00462400  1
  Ti  Ti128  1  0.59725468  0.01108608  -0.01311415  1
  Ti  Ti129  1  0.79042968  0.20142158  0.00008736  1
  Ti  Ti130  1  0.59876811  0.79742505  0.74048247  1
  Ti  Ti131  1  0.60497911  0.40831312  0.73819033  1
  Ti  Ti132  1  0.41542252  0.39444886  -0.01166656  1
  Ti  Ti133  1  0.69783613  0.30926601  0.12236093  1
  Ti  Ti134  1  0.50897624  0.69719216  0.62354695  1
  Ti  Ti135  1  0.78661672  0.39947078  0.25557937  1
  Ti  Ti136  1  0.49435775  0.29899827  0.37994462  1
  Ti  Ti137  1  0.80188513  0.00294840  0.74033458  1
  Ti  Ti138  1  0.40854929  0.39704461  0.76219904  1
  Ti  Ti139  1  0.19513183  0.80125972  0.24705923  1
  Ti  Ti140  1  0.30223357  0.10035410  0.63446852  1
  Ti  Ti141  1  0.10354084  0.71065584  0.62482524  1
  Ti  Ti142  1  0.88985691  0.29213167  0.12245731  1
  Ti  Ti143  1  0.09439281  0.49777288  0.88088601  1
  Ti  Ti144  1  0.80910500  0.20866359  0.72812285  1
  Ti  Ti145  1  0.90105581  0.69961637  0.37965211  1
  Ti  Ti146  1  0.28344688  0.89143828  0.61571088  1
  Ti  Ti147  1  0.41302663  0.01172732  -0.00803107  1
  Ti  Ti148  1  -0.00690813  0.60430739  0.00806696  1
  Ti  Ti149  1  0.39874091  0.59166290  0.24484633  1
  Ti  Ti150  1  0.69448934  0.89809233  0.60652398  1
  Ti  Ti151  1  0.90166812  0.09961754  0.13273266  1
  Ti  Ti152  1  0.42650354  0.01073877  0.24703793  1
  Ti  Ti153  1  0.29620534  0.29546347  0.64056799  1
  Ti  Ti154  1  0.79508977  0.38902736  -0.00044683  1
  Ti  Ti155  1  0.60390972  0.40520053  -0.00527178  1
  Ti  Ti156  1  0.27704862  0.89447067  0.39640300  1
  Ti  Ti157  1  0.28888670  0.69013336  0.63140467  1
  Ti  Ti158  1  0.68813468  0.30249230  0.86345726  1
  Ti  Ti159  1  0.50321483  0.70247503  0.87038787  1
  Mo  Mo160  1  0.11513991  0.30721976  0.63235148  1
  Mo  Mo161  1  0.89840895  0.91237492  0.12972349  1
  Mo  Mo162  1  0.59880183  -0.00682614  0.25615583  1
  Mo  Mo163  1  0.19965193  0.60031539  0.76635405  1
  Mo  Mo164  1  0.61458402  0.21283350  0.74838281  1
  Mo  Mo165  1  0.50193724  0.89391605  0.61594491  1
  Mo  Mo166  1  0.69937046  0.71005382  0.61797353  1
  Mo  Mo167  1  0.59347254  0.59321188  -0.00386637  1
  Mo  Mo168  1  0.59451396  -0.00094551  0.51038261  1
  Mo  Mo169  1  0.89880700  0.10331374  0.63536978  1
  Mo  Mo170  1  0.10544729  0.89973703  0.37410204  1
  Mo  Mo171  1  0.90166974  0.68460326  0.12254574  1
  Mo  Mo172  1  0.20533354  -0.00972103  0.51001545  1
  Mo  Mo173  1  0.79671566  0.61015381  0.51355391  1
  Mo  Mo174  1  -0.00076631  0.39240377  -0.00045303  1
  Mo  Mo175  1  0.59999459  0.60912434  0.51187440  1
  Mo  Mo176  1  0.19410098  0.79007441  0.50522218  1
  Mo  Mo177  1  0.49827321  0.49873830  0.64467420  1
  Mo  Mo178  1  0.00378685  0.40800173  0.51728869  1
  Mo  Mo179  1  0.41349978  0.20158332  -0.00682272  1
  Mo  Mo180  1  0.11001737  0.09318274  0.63008612  1
  Mo  Mo181  1  0.90112576  0.50691805  0.61351932  1
  Mo  Mo182  1  0.79887438  0.40597716  0.51886721  1
  Mo  Mo183  1  0.20337977  0.18883897  0.24967035  1
  Mo  Mo184  1  0.49566190  0.09763516  0.63546319  1
  Mo  Mo185  1  0.10073255  0.89357842  0.62273046  1
  Mo  Mo186  1  0.89712657  0.30851354  0.61833283  1
  Mo  Mo187  1  0.59165107  0.20352241  0.50088896  1
  Mo  Mo188  1  0.39169685  0.19698543  0.74013961  1
  Mo  Mo189  1  0.10236204  0.69602379  0.12386147  1
  Mo  Mo190  1  0.87200306  0.08352739  0.37302648  1
  Mo  Mo191  1  0.69653417  0.51111789  0.60959886  1
  Mo  Mo192  1  0.50506066  0.09855404  0.11559773  1
  Mo  Mo193  1  0.20287649  -0.00143182  0.00203061  1
  Mo  Mo194  1  0.51301186  0.31277833  0.86070220  1
  Mo  Mo195  1  -0.00035369  0.20504232  0.73436189  1
  Mo  Mo196  1  0.69375462  0.48219207  0.12047347  1
  Mo  Mo197  1  0.14121727  0.09659700  0.37140554  1
  Mo  Mo198  1  0.79971197  -0.00719435  0.49780066  1
  Mo  Mo199  1  0.69430061  0.09112790  0.38367689  1
