# generated using pymatgen
data_HfZrTaTiMo
_symmetry_space_group_name_H-M   'P 1'
_cell_length_a   15.22102922
_cell_length_b   15.22909812
_cell_length_c   16.84241916
_cell_angle_alpha   89.96200670
_cell_angle_beta   90.01469140
_cell_angle_gamma   89.88459880
_symmetry_Int_Tables_number   1
_chemical_formula_structural   HfZrTaTiMo
_chemical_formula_sum   'Hf40 Zr40 Ta40 Ti40 Mo40'
_cell_volume   3904.10676180
_cell_formula_units_Z   40
loop_
 _symmetry_equiv_pos_site_id
 _symmetry_equiv_pos_as_xyz
  1  'x, y, z'
loop_
 _atom_site_type_symbol
 _atom_site_label
 _atom_site_symmetry_multiplicity
 _atom_site_fract_x
 _atom_site_fract_y
 _atom_site_fract_z
 _atom_site_occupancy
  Hf  Hf0  1  0.51788780  0.49707923  0.63330938  1
  Hf  Hf1  1  0.79083849  0.79630657  0.00490438  1
  Hf  Hf2  1  0.10059044  0.49063344  0.63741741  1
  Hf  Hf3  1  0.90073573  0.29364188  0.62402099  1
  Hf  Hf4  1  0.30086101  0.70354010  0.61764075  1
  Hf  Hf5  1  -0.00737777  0.00035266  0.48573981  1
  Hf  Hf6  1  0.50067207  0.88327368  0.63406610  1
  Hf  Hf7  1  0.30458904  0.50364996  0.37437676  1
  Hf  Hf8  1  0.09954909  0.89222921  0.36655928  1
  Hf  Hf9  1  0.17733015  0.59442952  0.49755662  1
  Hf  Hf10  1  0.49940881  0.48492093  0.36719569  1
  Hf  Hf11  1  0.18679668  0.39579161  0.00519669  1
  Hf  Hf12  1  0.41122263  0.59699889  0.50961051  1
  Hf  Hf13  1  0.43068884  0.19586812  0.00183223  1
  Hf  Hf14  1  0.19687660  0.01047818  0.48810943  1
  Hf  Hf15  1  0.20182276  0.79965988  0.74969299  1
  Hf  Hf16  1  0.40979602  -0.01147268  0.00208141  1
  Hf  Hf17  1  0.68734711  0.69317296  0.62216107  1
  Hf  Hf18  1  0.89628447  0.90084806  0.12647434  1
  Hf  Hf19  1  0.28787938  0.70214897  0.37777327  1
  Hf  Hf20  1  0.51152531  0.08342424  0.13793839  1
  Hf  Hf21  1  0.09484362  0.69867321  0.87321064  1
  Hf  Hf22  1  0.50908322  0.09497091  0.62309859  1
  Hf  Hf23  1  0.00031966  0.21429141  0.00430451  1
  Hf  Hf24  1  -0.02235321  0.01598374  0.75572798  1
  Hf  Hf25  1  0.48616574  0.68642281  0.36234861  1
  Hf  Hf26  1  0.30982300  0.31334466  0.35934358  1
  Hf  Hf27  1  0.59889363  0.61379186  0.76509873  1
  Hf  Hf28  1  0.80928039  0.60228585  0.49578985  1
  Hf  Hf29  1  0.88975289  0.48414619  0.36409925  1
  Hf  Hf30  1  0.08056259  0.49428261  0.87055063  1
  Hf  Hf31  1  0.19536021  0.00805961  0.74839197  1
  Hf  Hf32  1  0.80309206  0.39685756  0.75442946  1
  Hf  Hf33  1  0.40975032  -0.01613054  0.26527862  1
  Hf  Hf34  1  0.31779095  0.30512708  0.89244459  1
  Hf  Hf35  1  0.49898119  0.88556203  0.85880820  1
  Hf  Hf36  1  0.89665683  0.90574434  0.88449184  1
  Hf  Hf37  1  0.09190589  0.69853021  0.12894424  1
  Hf  Hf38  1  0.20443610  0.00750038  0.25537255  1
  Hf  Hf39  1  0.00215650  0.22730157  0.77490480  1
  Zr  Zr40  1  0.80026216  0.18840364  0.76154798  1
  Zr  Zr41  1  0.88945607  0.91271000  0.62681159  1
  Zr  Zr42  1  0.09295171  0.89567948  0.62149940  1
  Zr  Zr43  1  0.69518420  0.89749548  0.62312547  1
  Zr  Zr44  1  0.29866413  0.50416269  0.89239512  1
  Zr  Zr45  1  0.53496950  0.29534499  0.86324699  1
  Zr  Zr46  1  0.72068907  0.30911519  0.35397001  1
  Zr  Zr47  1  0.19753637  0.22575327  0.48269822  1
  Zr  Zr48  1  0.10046251  0.09795775  0.88615748  1
  Zr  Zr49  1  0.49225892  0.29740914  0.64049406  1
  Zr  Zr50  1  0.90732972  0.51060081  0.62324112  1
  Zr  Zr51  1  0.10098663  0.89934800  0.13154334  1
  Zr  Zr52  1  0.61141444  0.38303699  0.01570122  1
  Zr  Zr53  1  0.30729154  0.29364704  0.11978543  1
  Zr  Zr54  1  0.29587724  0.89809747  0.87141465  1
  Zr  Zr55  1  0.10671787  0.30299837  0.62906730  1
  Zr  Zr56  1  0.79799996  0.01030786  0.47000155  1
  Zr  Zr57  1  0.77979281  0.80064197  0.76268844  1
  Zr  Zr58  1  0.20349259  0.59529360  0.75266962  1
  Zr  Zr59  1  0.08587368  0.10765650  0.62810459  1
  Zr  Zr60  1  0.30250644  0.11567485  0.62063089  1
  Zr  Zr61  1  0.50227931  0.51122807  0.10716272  1
  Zr  Zr62  1  0.49282919  0.50190059  0.89425534  1
  Zr  Zr63  1  0.30937343  0.89285602  0.13099987  1
  Zr  Zr64  1  0.89437714  0.68887222  0.87902337  1
  Zr  Zr65  1  0.58653508  0.80393033  0.25594921  1
  Zr  Zr66  1  0.60032278  -0.01161903  0.47915942  1
  Zr  Zr67  1  -0.00585294  0.77514053  0.48729675  1
  Zr  Zr68  1  0.68761818  0.30364712  0.63274616  1
  Zr  Zr69  1  0.41091433  0.21809855  0.49125000  1
  Zr  Zr70  1  -0.00607567  0.19962606  0.48715131  1
  Zr  Zr71  1  0.80064662  0.01446139  0.25353402  1
  Zr  Zr72  1  0.71980585  0.09795128  0.62085697  1
  Zr  Zr73  1  0.30378918  0.90905161  0.62239653  1
  Zr  Zr74  1  0.61298551  -0.00588697  0.27715819  1
  Zr  Zr75  1  0.31078308  0.09726923  0.88413379  1
  Zr  Zr76  1  0.07692840  0.68926160  0.63264130  1
  Zr  Zr77  1  0.70012186  0.49364526  0.88860282  1
  Zr  Zr78  1  0.00797188  0.40114595  0.48658165  1
  Zr  Zr79  1  0.58975830  0.38610557  0.49243400  1
  Ta  Ta80  1  0.40491165  0.19633772  0.75981594  1
  Ta  Ta81  1  0.58917850  0.80415170  0.00315601  1
  Ta  Ta82  1  0.39777288  0.40708255  0.75550879  1
  Ta  Ta83  1  0.81330174  0.40193145  0.02442679  1
  Ta  Ta84  1  0.79545316  0.59555814  0.75076147  1
  Ta  Ta85  1  0.00175910  0.79681593  0.00366715  1
  Ta  Ta86  1  0.20851426  0.20728773  0.76484908  1
  Ta  Ta87  1  0.40217989  0.00401385  0.48614449  1
  Ta  Ta88  1  0.68433699  0.69846370  0.12503871  1
  Ta  Ta89  1  0.69675562  0.49843964  0.36028624  1
  Ta  Ta90  1  0.79010007  0.01429461  0.00817446  1
  Ta  Ta91  1  0.88697816  0.70055780  0.35741633  1
  Ta  Ta92  1  0.31159255  0.69882667  0.87726661  1
  Ta  Ta93  1  0.40342671  0.60698125  0.74395997  1
  Ta  Ta94  1  0.10509302  0.48964427  0.36046820  1
  Ta  Ta95  1  -0.00177484  0.59728127  0.25728133  1
  Ta  Ta96  1  0.40653281  0.41058449  0.23009991  1
  Ta  Ta97  1  0.08984994  0.11585416  0.35744342  1
  Ta  Ta98  1  0.48471285  0.70811169  0.13471982  1
  Ta  Ta99  1  0.61170238  0.00571681  0.75772257  1
  Ta  Ta100  1  -0.00337552  0.00273775  0.00722452  1
  Ta  Ta101  1  0.20103724  0.59673041  0.24591206  1
  Ta  Ta102  1  0.18891473  0.60606436  0.00219364  1
  Ta  Ta103  1  0.50114850  0.11074531  0.37004512  1
  Ta  Ta104  1  0.09303201  0.89865151  0.88146599  1
  Ta  Ta105  1  0.69660617  0.68626864  0.36621490  1
  Ta  Ta106  1  0.68414848  0.91037047  0.12087375  1
  Ta  Ta107  1  0.59402809  0.78218578  0.48664795  1
  Ta  Ta108  1  0.61139559  0.58640418  0.49514120  1
  Ta  Ta109  1  0.29571522  0.69254514  0.12585757  1
  Ta  Ta110  1  0.40056020  0.79076715  0.00086972  1
  Ta  Ta111  1  0.79559508  0.59667058  0.23493642  1
  Ta  Ta112  1  0.69506024  0.90840811  0.88395173  1
  Ta  Ta113  1  0.79416638  0.79970656  0.49077964  1
  Ta  Ta114  1  0.59561436  0.58934990  0.24172437  1
  Ta  Ta115  1  0.80187561  0.21155789  0.01904936  1
  Ta  Ta116  1  0.10397079  0.10119931  0.12415226  1
  Ta  Ta117  1  0.19967160  0.79653127  -0.00155467  1
  Ta  Ta118  1  0.30228949  0.48897516  0.62354104  1
  Ta  Ta119  1  0.20036014  0.39011389  0.76604747  1
  Ti  Ti120  1  -0.01055292  0.59470707  0.01056779  1
  Ti  Ti121  1  0.79362743  0.59574796  0.01631989  1
  Ti  Ti122  1  -0.00820019  0.80266096  0.75520195  1
  Ti  Ti123  1  0.19934429  0.20442384  0.25003125  1
  Ti  Ti124  1  0.20538334  0.40425903  0.23604524  1
  Ti  Ti125  1  0.88788485  0.10977979  0.89367501  1
  Ti  Ti126  1  0.19387486  0.80224382  0.49947385  1
  Ti  Ti127  1  0.30175991  0.09660567  0.12226371  1
  Ti  Ti128  1  0.20098934  0.79506192  0.25142237  1
  Ti  Ti129  1  0.78316107  0.40917615  0.50971188  1
  Ti  Ti130  1  0.30233573  0.89511578  0.37894050  1
  Ti  Ti131  1  0.89486068  0.49473702  0.87947516  1
  Ti  Ti132  1  0.20265487  0.19492335  0.00072840  1
  Ti  Ti133  1  0.40006196  0.19286823  0.24607759  1
  Ti  Ti134  1  0.10135390  0.29723145  0.13450564  1
  Ti  Ti135  1  0.30112321  0.50521496  0.11174460  1
  Ti  Ti136  1  0.80570234  0.20929213  0.48867498  1
  Ti  Ti137  1  -0.00590579  0.40374338  0.01374199  1
  Ti  Ti138  1  0.61862400  0.18953708  0.24553247  1
  Ti  Ti139  1  0.19865156  -0.00675393  0.00524054  1
  Ti  Ti140  1  0.30255470  0.10842106  0.37312007  1
  Ti  Ti141  1  0.29855624  0.30845672  0.63066643  1
  Ti  Ti142  1  0.09955801  0.50445658  0.12952032  1
  Ti  Ti143  1  0.40535257  0.00457720  0.75157645  1
  Ti  Ti144  1  0.00202123  0.39939329  0.23708522  1
  Ti  Ti145  1  0.50921552  0.29462356  0.13982078  1
  Ti  Ti146  1  -0.00431247  0.01148386  0.24779180  1
  Ti  Ti147  1  0.88819142  0.70971299  0.63519258  1
  Ti  Ti148  1  0.89517572  0.69935932  0.13131455  1
  Ti  Ti149  1  0.51425945  0.29668217  0.34493116  1
  Ti  Ti150  1  0.89701880  0.89576717  0.36155624  1
  Ti  Ti151  1  0.40368102  0.80468595  0.49709075  1
  Ti  Ti152  1  -0.00578625  0.79547263  0.25174523  1
  Ti  Ti153  1  0.91923833  0.28173776  0.34048686  1
  Ti  Ti154  1  0.78740611  0.80222955  0.24342294  1
  Ti  Ti155  1  0.70918280  0.30408808  0.14613329  1
  Ti  Ti156  1  0.62063357  0.18949039  0.01492101  1
  Ti  Ti157  1  0.69104143  0.11162235  0.88036538  1
  Ti  Ti158  1  0.61244295  0.19511076  0.48785681  1
  Ti  Ti159  1  0.59613575  0.00476536  -0.00683169  1
  Mo  Mo160  1  0.49281879  0.88977245  0.38715677  1
  Mo  Mo161  1  0.38808905  0.39967878  0.50416642  1
  Mo  Mo162  1  0.91149850  0.51143322  0.12889618  1
  Mo  Mo163  1  0.69193712  0.70333927  0.89224759  1
  Mo  Mo164  1  0.90930360  0.30362995  0.13667856  1
  Mo  Mo165  1  0.09579702  0.69423835  0.35820049  1
  Mo  Mo166  1  0.10686414  0.30927975  0.34769772  1
  Mo  Mo167  1  0.60309748  0.40039833  0.23419589  1
  Mo  Mo168  1  0.70097583  0.10015751  0.12286612  1
  Mo  Mo169  1  0.70372445  0.50664448  0.12105724  1
  Mo  Mo170  1  0.81151005  0.19968425  0.22666343  1
  Mo  Mo171  1  0.49577017  0.69702416  0.88217088  1
  Mo  Mo172  1  0.70497706  0.50078574  0.62807594  1
  Mo  Mo173  1  0.51119558  0.09234722  0.87051512  1
  Mo  Mo174  1  -0.00384992  0.59406982  0.46450604  1
  Mo  Mo175  1  0.50482745  0.89493864  0.12397523  1
  Mo  Mo176  1  -0.00472291  0.40567903  0.75798699  1
  Mo  Mo177  1  0.38605742  0.79324082  0.25478375  1
  Mo  Mo178  1  0.71132330  0.86751191  0.37302116  1
  Mo  Mo179  1  0.40350766  0.78332036  0.74675643  1
  Mo  Mo180  1  0.38986189  0.59541671  0.24009514  1
  Mo  Mo181  1  0.49951670  0.69796282  0.61854065  1
  Mo  Mo182  1  0.89960757  0.10935113  0.36248963  1
  Mo  Mo183  1  0.80951457  0.40835731  0.22837869  1
  Mo  Mo184  1  0.60309377  0.62086612  -0.00140183  1
  Mo  Mo185  1  0.60183382  0.19136358  0.75121493  1
  Mo  Mo186  1  0.60735097  0.40632931  0.75701017  1
  Mo  Mo187  1  0.79374946  0.00413661  0.76951160  1
  Mo  Mo188  1  0.72405128  0.29350206  0.88785353  1
  Mo  Mo189  1  0.59810707  0.79732653  0.75645300  1
  Mo  Mo190  1  0.10929084  0.30516054  0.88686926  1
  Mo  Mo191  1  0.89676172  0.10657663  0.62163821  1
  Mo  Mo192  1  0.21098775  0.40190377  0.49660901  1
  Mo  Mo193  1  0.90671409  0.09812700  0.11403132  1
  Mo  Mo194  1  0.89687407  0.31760181  0.89160965  1
  Mo  Mo195  1  0.40414717  0.39325152  0.02223117  1
  Mo  Mo196  1  0.00862490  0.19428244  0.23094242  1
  Mo  Mo197  1  0.39119808  0.61070702  0.00718280  1
  Mo  Mo198  1  0.70107334  0.12979509  0.37271930  1
  Mo  Mo199  1  -0.01820943  0.60243540  0.75355698  1
