# generated using pymatgen
data_HfZrTaTiMo
_symmetry_space_group_name_H-M   'P 1'
_cell_length_a   15.21912397
_cell_length_b   15.21232345
_cell_length_c   16.81795854
_cell_angle_alpha   90.04913148
_cell_angle_beta   89.99790200
_cell_angle_gamma   90.08420444
_symmetry_Int_Tables_number   1
_chemical_formula_structural   HfZrTaTiMo
_chemical_formula_sum   'Hf40 Zr40 Ta40 Ti40 Mo40'
_cell_volume   3893.65846178
_cell_formula_units_Z   40
loop_
 _symmetry_equiv_pos_site_id
 _symmetry_equiv_pos_as_xyz
  1  'x, y, z'
loop_
 _atom_site_type_symbol
 _atom_site_label
 _atom_site_symmetry_multiplicity
 _atom_site_fract_x
 _atom_site_fract_y
 _atom_site_fract_z
 _atom_site_occupancy
  Hf  Hf0  1  0.20908504  0.00547916  -0.01806147  1
  Hf  Hf1  1  0.30226626  0.70175556  0.11555788  1
  Hf  Hf2  1  0.59620886  0.80474890  0.26045140  1
  Hf  Hf3  1  -0.01510105  0.39643021  0.49699665  1
  Hf  Hf4  1  0.89082015  0.47529715  0.63428993  1
  Hf  Hf5  1  -0.00262126  -0.00671796  0.24841169  1
  Hf  Hf6  1  0.09964527  0.89710963  0.12480280  1
  Hf  Hf7  1  0.72408469  0.30354102  0.62626497  1
  Hf  Hf8  1  0.89662729  0.71800435  0.62928087  1
  Hf  Hf9  1  0.39603323  0.80667418  0.50497242  1
  Hf  Hf10  1  -0.00620517  0.57893821  0.00350755  1
  Hf  Hf11  1  0.11929207  0.10341228  0.12500656  1
  Hf  Hf12  1  0.80584370  0.41282440  -0.01586928  1
  Hf  Hf13  1  0.51889864  0.11205286  0.37974489  1
  Hf  Hf14  1  0.31164694  0.49230150  0.11073979  1
  Hf  Hf15  1  0.30877793  0.90602265  0.12431476  1
  Hf  Hf16  1  0.20315522  0.59557576  0.74631379  1
  Hf  Hf17  1  0.59054074  0.40102141  0.24347348  1
  Hf  Hf18  1  0.30196988  0.29663376  0.37457456  1
  Hf  Hf19  1  0.79044731  0.39494427  0.24382113  1
  Hf  Hf20  1  -0.00336959  0.79357061  -0.00444248  1
  Hf  Hf21  1  0.39816609  0.80867757  0.74779630  1
  Hf  Hf22  1  0.49987254  0.10434923  0.86237750  1
  Hf  Hf23  1  0.50193112  0.51013436  0.85935483  1
  Hf  Hf24  1  0.19303745  0.39811838  0.23943478  1
  Hf  Hf25  1  0.88729055  0.69446324  0.12051138  1
  Hf  Hf26  1  -0.00056505  0.37434799  0.01071876  1
  Hf  Hf27  1  0.79741893  0.17908417  0.49398318  1
  Hf  Hf28  1  0.90866184  0.09666693  0.10567695  1
  Hf  Hf29  1  0.19039817  0.79834336  0.50322345  1
  Hf  Hf30  1  0.79493916  0.01564046  0.24946839  1
  Hf  Hf31  1  0.79937750  0.21803785  0.00761239  1
  Hf  Hf32  1  0.70092498  0.51290926  0.11930253  1
  Hf  Hf33  1  0.00399349  0.59266190  0.24028129  1
  Hf  Hf34  1  0.19749848  0.79055739  0.25266841  1
  Hf  Hf35  1  -0.00649612  -0.01326950  0.76803978  1
  Hf  Hf36  1  0.10025290  0.10942222  0.86811930  1
  Hf  Hf37  1  0.30546778  0.49455621  0.87955731  1
  Hf  Hf38  1  0.59097683  0.58716620  0.51727907  1
  Hf  Hf39  1  0.28970748  0.30148010  0.85807280  1
  Zr  Zr40  1  0.29355025  0.29056466  0.64077297  1
  Zr  Zr41  1  0.69268976  0.69469848  0.38577300  1
  Zr  Zr42  1  0.00121107  0.19714019  0.24568502  1
  Zr  Zr43  1  0.29747033  0.68968307  0.38949209  1
  Zr  Zr44  1  0.10620313  0.90198368  0.36846642  1
  Zr  Zr45  1  0.30980479  0.08776462  0.37083866  1
  Zr  Zr46  1  0.80109009  0.59007281  0.51008811  1
  Zr  Zr47  1  0.40448297  -0.00552482  -0.01500195  1
  Zr  Zr48  1  0.08397746  0.89422306  0.63118779  1
  Zr  Zr49  1  0.39598807  0.82208454  0.27177585  1
  Zr  Zr50  1  0.89480101  0.09871159  0.89032667  1
  Zr  Zr51  1  0.10994829  0.09986102  0.64194856  1
  Zr  Zr52  1  0.40089033  0.60434188  0.24844596  1
  Zr  Zr53  1  0.60047647  0.20227931  0.00267100  1
  Zr  Zr54  1  0.49102893  0.30355411  0.86210755  1
  Zr  Zr55  1  0.41904693  0.40479816  0.51615101  1
  Zr  Zr56  1  0.88233989  0.68071205  0.87996445  1
  Zr  Zr57  1  0.49598173  0.09613805  0.12386461  1
  Zr  Zr58  1  0.00675427  0.19454792  0.49800478  1
  Zr  Zr59  1  0.29258219  0.28352802  0.13088585  1
  Zr  Zr60  1  0.60757112  0.00731106  0.73834333  1
  Zr  Zr61  1  -0.00187429  0.60082663  0.74304819  1
  Zr  Zr62  1  0.89134692  0.29303384  0.36670692  1
  Zr  Zr63  1  0.29493349  0.49710204  0.39144226  1
  Zr  Zr64  1  0.79569308  0.80676904  0.25888814  1
  Zr  Zr65  1  0.49722193  0.50701358  0.37780877  1
  Zr  Zr66  1  0.20626052  0.80511266  -0.01481537  1
  Zr  Zr67  1  0.09034668  0.31045807  0.63878870  1
  Zr  Zr68  1  0.89328799  0.08522875  0.62960016  1
  Zr  Zr69  1  0.39994664  0.19835515  0.51556213  1
  Zr  Zr70  1  0.50090417  0.70917594  0.12200810  1
  Zr  Zr71  1  0.50238591  0.91559355  0.39958265  1
  Zr  Zr72  1  0.60407319  0.40450945  -0.01341108  1
  Zr  Zr73  1  0.09845494  0.49703675  0.37904489  1
  Zr  Zr74  1  0.50804254  0.90877397  0.61770704  1
  Zr  Zr75  1  0.61516806  0.20457144  0.23380588  1
  Zr  Zr76  1  0.60934835  0.61724143  -0.01305899  1
  Zr  Zr77  1  0.18848934  0.79429229  0.75797754  1
  Zr  Zr78  1  -0.00823824  0.80218953  0.49218082  1
  Zr  Zr79  1  0.09905325  0.49108612  0.87241499  1
  Ta  Ta80  1  0.50313549  0.70382964  0.62463735  1
  Ta  Ta81  1  0.00254297  0.60091592  0.50870066  1
  Ta  Ta82  1  0.51456308  0.31197039  0.64088113  1
  Ta  Ta83  1  0.09500120  0.68858001  0.37323655  1
  Ta  Ta84  1  0.29372307  0.70017523  0.61942023  1
  Ta  Ta85  1  0.87591708  0.88792662  0.89283658  1
  Ta  Ta86  1  0.60016768  0.21095689  0.51689860  1
  Ta  Ta87  1  0.40949998  0.20601421  0.25282977  1
  Ta  Ta88  1  0.38643946  0.20367802  -0.00557408  1
  Ta  Ta89  1  0.30999773  0.69345022  0.87541868  1
  Ta  Ta90  1  0.09335931  0.30139467  0.86070252  1
  Ta  Ta91  1  0.71696748  0.51892519  0.86036477  1
  Ta  Ta92  1  0.29547596  0.50051928  0.61617349  1
  Ta  Ta93  1  0.19630830  0.39205257  0.00652200  1
  Ta  Ta94  1  0.69840855  0.48570895  0.38138114  1
  Ta  Ta95  1  0.19927459  0.00375136  0.50378835  1
  Ta  Ta96  1  0.69839664  0.91972095  0.39073554  1
  Ta  Ta97  1  0.89021250  0.89598684  0.11374270  1
  Ta  Ta98  1  0.79541035  -0.01966067  0.75892846  1
  Ta  Ta99  1  0.20826254  -0.01327425  0.76725041  1
  Ta  Ta100  1  0.10029483  0.69197040  0.11842386  1
  Ta  Ta101  1  0.69249968  0.90791174  0.12473174  1
  Ta  Ta102  1  0.09977544  0.69292375  0.88240338  1
  Ta  Ta103  1  -0.02055740  0.20984628  0.75075060  1
  Ta  Ta104  1  0.69786161  0.71216996  0.12456744  1
  Ta  Ta105  1  0.89407646  0.50077855  0.36988542  1
  Ta  Ta106  1  0.62346385  0.80283832  0.73942282  1
  Ta  Ta107  1  -0.00520146  0.79090814  0.24765044  1
  Ta  Ta108  1  0.79702810  0.80383711  0.49362144  1
  Ta  Ta109  1  0.10666334  0.29503723  0.37134605  1
  Ta  Ta110  1  0.79146249  0.18824235  0.75848752  1
  Ta  Ta111  1  0.40751509  0.60192505  -0.00765389  1
  Ta  Ta112  1  0.90260740  0.69190960  0.37358934  1
  Ta  Ta113  1  0.60505392  0.60264881  0.25125750  1
  Ta  Ta114  1  0.48705434  0.31257287  0.11386744  1
  Ta  Ta115  1  0.40068841  0.60562312  0.73564645  1
  Ta  Ta116  1  -0.00499657  0.00344761  0.49109789  1
  Ta  Ta117  1  0.30831630  0.10888033  0.85180928  1
  Ta  Ta118  1  -0.00143583  0.39565570  0.23498138  1
  Ta  Ta119  1  0.59925653  0.00106885  0.25239756  1
  Ti  Ti120  1  0.10045975  0.50159195  0.62195615  1
  Ti  Ti121  1  0.19207224  0.20634193  -0.00750705  1
  Ti  Ti122  1  0.69223406  0.49198777  0.63323509  1
  Ti  Ti123  1  0.19977656  0.59448169  0.23976906  1
  Ti  Ti124  1  0.89686551  0.90346934  0.37225956  1
  Ti  Ti125  1  0.60707622  0.20410250  0.74113492  1
  Ti  Ti126  1  0.49999279  0.90233528  0.12672785  1
  Ti  Ti127  1  0.89516213  0.49464591  0.12821954  1
  Ti  Ti128  1  0.20027952  0.59599970  -0.00015301  1
  Ti  Ti129  1  0.39261473  0.01215876  0.51836615  1
  Ti  Ti130  1  0.70270826  0.72559323  0.87317857  1
  Ti  Ti131  1  0.69169572  0.29144268  0.38173331  1
  Ti  Ti132  1  0.39656021  0.41011001  0.73752618  1
  Ti  Ti133  1  0.78316954  -0.00290621  0.00296786  1
  Ti  Ti134  1  0.69701931  0.09979870  0.87774877  1
  Ti  Ti135  1  -0.01379969  0.79830596  0.76996131  1
  Ti  Ti136  1  0.00872808  -0.00840780  -0.00941247  1
  Ti  Ti137  1  0.40979675  0.79998409  -0.01762886  1
  Ti  Ti138  1  0.50050561  0.70088400  0.39550017  1
  Ti  Ti139  1  0.61892017  0.40095756  0.76217493  1
  Ti  Ti140  1  0.20189352  0.19109930  0.50214673  1
  Ti  Ti141  1  0.60213043  0.81604101  -0.00530572  1
  Ti  Ti142  1  0.72275663  0.89999114  0.61433039  1
  Ti  Ti143  1  0.50921627  0.90000021  0.86150542  1
  Ti  Ti144  1  0.10522487  0.10150686  0.36916464  1
  Ti  Ti145  1  0.30943397  0.09704984  0.13583797  1
  Ti  Ti146  1  0.29230530  0.90897664  0.63014461  1
  Ti  Ti147  1  0.50557356  0.30935635  0.38200410  1
  Ti  Ti148  1  0.79947671  0.20197810  0.22706377  1
  Ti  Ti149  1  0.79506048  0.60120741  0.25475104  1
  Ti  Ti150  1  0.21603044  -0.00365752  0.25422438  1
  Ti  Ti151  1  0.50609174  0.70720832  0.86063168  1
  Ti  Ti152  1  0.78924417  0.61252080  0.73586909  1
  Ti  Ti153  1  0.60397141  0.60919119  0.73926167  1
  Ti  Ti154  1  0.39907634  0.40207262  0.25032692  1
  Ti  Ti155  1  0.62101989  0.02349405  0.51632494  1
  Ti  Ti156  1  0.19315990  0.38940990  0.50382781  1
  Ti  Ti157  1  0.59887660  0.00038376  -0.00324122  1
  Ti  Ti158  1  0.50144354  0.50602397  0.11661833  1
  Ti  Ti159  1  0.81398105  0.38125895  0.77042905  1
  Mo  Mo160  1  0.80776868  -0.00674528  0.49416715  1
  Mo  Mo161  1  0.80005075  0.80414296  0.75177503  1
  Mo  Mo162  1  0.41138407  0.00365836  0.25093884  1
  Mo  Mo163  1  0.90408834  0.08919600  0.37207697  1
  Mo  Mo164  1  0.29726517  0.90864799  0.38964446  1
  Mo  Mo165  1  0.19998252  0.40914608  0.74276981  1
  Mo  Mo166  1  0.30146840  0.08776849  0.64511198  1
  Mo  Mo167  1  0.79495629  0.60091537  -0.00244557  1
  Mo  Mo168  1  0.70167027  0.09237297  0.11542556  1
  Mo  Mo169  1  0.10031586  0.29302240  0.12475625  1
  Mo  Mo170  1  0.08970476  0.89760646  0.87748763  1
  Mo  Mo171  1  0.78358336  0.80161628  0.00798403  1
  Mo  Mo172  1  0.40774289  0.19881436  0.73505134  1
  Mo  Mo173  1  0.40012563  -0.00036937  0.74545936  1
  Mo  Mo174  1  0.39966755  0.39616213  -0.00227710  1
  Mo  Mo175  1  0.61087725  0.39444173  0.50573019  1
  Mo  Mo176  1  0.69323769  0.31137360  0.12014547  1
  Mo  Mo177  1  0.20407345  0.19309702  0.25812981  1
  Mo  Mo178  1  0.01174023  0.19479468  0.00389765  1
  Mo  Mo179  1  0.79219268  0.39387794  0.48971997  1
  Mo  Mo180  1  0.69736227  0.70653781  0.61807927  1
  Mo  Mo181  1  0.31067876  0.89855592  0.86930475  1
  Mo  Mo182  1  0.09879669  0.69222087  0.62232108  1
  Mo  Mo183  1  0.10604831  0.49913831  0.11851407  1
  Mo  Mo184  1  0.70079378  0.10572384  0.37382682  1
  Mo  Mo185  1  0.19281579  0.19702630  0.75420372  1
  Mo  Mo186  1  0.69089161  0.90771978  0.87862319  1
  Mo  Mo187  1  0.70213048  0.09901174  0.63001401  1
  Mo  Mo188  1  0.50612289  0.49932756  0.64949313  1
  Mo  Mo189  1  0.90143576  0.49159222  0.86184973  1
  Mo  Mo190  1  0.89591670  0.30254502  0.13119136  1
  Mo  Mo191  1  0.89747186  0.29060325  0.62548633  1
  Mo  Mo192  1  0.18957892  0.59702507  0.51293301  1
  Mo  Mo193  1  -0.00340810  0.40115989  0.75117536  1
  Mo  Mo194  1  0.70220397  0.29528864  0.86319503  1
  Mo  Mo195  1  0.90703857  0.29213548  0.87564544  1
  Mo  Mo196  1  0.60838497  0.80101457  0.51242673  1
  Mo  Mo197  1  0.89835612  0.90245399  0.62749837  1
  Mo  Mo198  1  0.39851734  0.60499018  0.52423343  1
  Mo  Mo199  1  0.50103878  0.11177078  0.62890045  1
