# generated using pymatgen
data_HfZrTaTiMo
_symmetry_space_group_name_H-M   'P 1'
_cell_length_a   15.21017637
_cell_length_b   15.21068852
_cell_length_c   16.81845771
_cell_angle_alpha   89.98618888
_cell_angle_beta   89.96718737
_cell_angle_gamma   90.09765360
_symmetry_Int_Tables_number   1
_chemical_formula_structural   HfZrTaTiMo
_chemical_formula_sum   'Hf40 Zr40 Ta40 Ti40 Mo40'
_cell_volume   3891.06580676
_cell_formula_units_Z   40
loop_
 _symmetry_equiv_pos_site_id
 _symmetry_equiv_pos_as_xyz
  1  'x, y, z'
loop_
 _atom_site_type_symbol
 _atom_site_label
 _atom_site_symmetry_multiplicity
 _atom_site_fract_x
 _atom_site_fract_y
 _atom_site_fract_z
 _atom_site_occupancy
  Hf  Hf0  1  0.30219425  0.10753985  0.62302767  1
  Hf  Hf1  1  0.50487906  0.10190992  0.38242488  1
  Hf  Hf2  1  0.81092078  0.01672598  0.00063309  1
  Hf  Hf3  1  0.58941464  0.00611997  0.75794872  1
  Hf  Hf4  1  0.70343681  0.89351684  0.11105528  1
  Hf  Hf5  1  -0.01825529  0.20040410  0.00501108  1
  Hf  Hf6  1  0.90038575  0.29129524  0.86410379  1
  Hf  Hf7  1  0.29633871  0.91052937  0.62020928  1
  Hf  Hf8  1  0.89126941  0.48548080  0.86848100  1
  Hf  Hf9  1  0.60470554  0.80767001  0.74884099  1
  Hf  Hf10  1  0.02102732  0.18839640  0.76525122  1
  Hf  Hf11  1  0.91371454  0.08886528  0.64469294  1
  Hf  Hf12  1  0.61083391  -0.01613145  0.49497954  1
  Hf  Hf13  1  0.19157669  0.59986466  0.74875256  1
  Hf  Hf14  1  0.90461461  0.89990512  0.12405684  1
  Hf  Hf15  1  0.58919157  0.59523094  0.75498245  1
  Hf  Hf16  1  0.00149886  0.37787615  0.50145703  1
  Hf  Hf17  1  0.70823973  0.29559096  0.36876213  1
  Hf  Hf18  1  0.70590355  0.69966127  0.86872562  1
  Hf  Hf19  1  0.69003239  0.90483950  0.88922763  1
  Hf  Hf20  1  0.77696107  0.80806841  0.51659838  1
  Hf  Hf21  1  0.49927408  0.90139820  0.62011888  1
  Hf  Hf22  1  0.28935722  0.71584633  0.87181936  1
  Hf  Hf23  1  0.79268356  0.58959764  0.00274337  1
  Hf  Hf24  1  0.61058669  0.40684485  0.76771722  1
  Hf  Hf25  1  0.30466387  0.69812810  0.36798819  1
  Hf  Hf26  1  0.00154985  0.78869051  -0.00995021  1
  Hf  Hf27  1  0.38739751  0.80600599  0.01765262  1
  Hf  Hf28  1  0.89780239  0.69670646  0.62875870  1
  Hf  Hf29  1  0.51787515  0.50443302  0.13893134  1
  Hf  Hf30  1  0.49386760  0.69939330  0.61945451  1
  Hf  Hf31  1  0.19948712  0.22071422  0.49691313  1
  Hf  Hf32  1  0.82727854  0.20418454  0.51551967  1
  Hf  Hf33  1  0.60486273  0.59059499  0.48525370  1
  Hf  Hf34  1  0.21355305  0.20703687  0.76707512  1
  Hf  Hf35  1  0.39012695  -0.00880392  0.23950870  1
  Hf  Hf36  1  0.59772033  0.00818777  0.25496829  1
  Hf  Hf37  1  0.61918575  0.20637799  0.50210304  1
  Hf  Hf38  1  0.18718607  0.19645516  -0.00436326  1
  Hf  Hf39  1  0.20990976  0.80564982  0.24740875  1
  Zr  Zr40  1  -0.00629443  0.80789557  0.26952692  1
  Zr  Zr41  1  0.20381381  0.39159208  0.00321955  1
  Zr  Zr42  1  0.31242327  0.48962190  0.13168760  1
  Zr  Zr43  1  0.86549652  0.90330645  0.37519524  1
  Zr  Zr44  1  0.30798165  0.32163630  0.62701556  1
  Zr  Zr45  1  0.69099871  0.69420998  0.13834356  1
  Zr  Zr46  1  0.91479994  0.29145709  0.36880609  1
  Zr  Zr47  1  0.71870613  0.70654299  0.36216420  1
  Zr  Zr48  1  -0.00832676  0.59567560  0.26376395  1
  Zr  Zr49  1  0.48949158  0.70383345  0.87062531  1
  Zr  Zr50  1  0.10499247  0.69600751  0.37920150  1
  Zr  Zr51  1  0.89473406  0.47906441  0.62039254  1
  Zr  Zr52  1  0.11768662  0.49660103  0.61071753  1
  Zr  Zr53  1  0.51643116  0.30841025  0.61967513  1
  Zr  Zr54  1  0.70568849  0.30600604  0.12583029  1
  Zr  Zr55  1  0.01451947  0.00239720  -0.01726670  1
  Zr  Zr56  1  0.60543678  0.20594065  0.75618879  1
  Zr  Zr57  1  0.90093940  0.68532919  0.85949070  1
  Zr  Zr58  1  0.39958362  0.19548406  0.23206597  1
  Zr  Zr59  1  0.08148549  0.90880300  0.62752949  1
  Zr  Zr60  1  0.20117732  0.80347941  0.73884244  1
  Zr  Zr61  1  0.49738172  0.10308312  0.61814427  1
  Zr  Zr62  1  0.38226913  0.59040439  0.49432148  1
  Zr  Zr63  1  0.10079328  0.90586029  0.12826279  1
  Zr  Zr64  1  0.38730601  0.20568909  0.01298702  1
  Zr  Zr65  1  0.19488290  0.80330100  0.49935966  1
  Zr  Zr66  1  0.30184070  0.10980239  0.37476980  1
  Zr  Zr67  1  0.50566856  0.70330064  0.36398692  1
  Zr  Zr68  1  0.51028850  0.90656448  0.12082169  1
  Zr  Zr69  1  0.68705095  0.09936061  0.11037695  1
  Zr  Zr70  1  0.48937114  0.49402117  0.62044506  1
  Zr  Zr71  1  -0.00741714  0.00450307  0.49000608  1
  Zr  Zr72  1  0.19794702  0.60438362  0.01281088  1
  Zr  Zr73  1  0.61514400  0.41317339  -0.01068316  1
  Zr  Zr74  1  0.30935592  0.50560473  0.88029899  1
  Zr  Zr75  1  0.40983420  0.60825558  0.01338810  1
  Zr  Zr76  1  0.89075098  0.89076545  0.86568123  1
  Zr  Zr77  1  0.19518494  0.80411576  0.00583824  1
  Zr  Zr78  1  -0.00095251  0.59203826  0.00386085  1
  Zr  Zr79  1  0.09023839  0.12428720  0.36871693  1
  Ta  Ta80  1  0.10930453  0.10289554  0.62322054  1
  Ta  Ta81  1  0.79492370  -0.00205346  0.24069477  1
  Ta  Ta82  1  0.49516888  0.49227257  0.36237288  1
  Ta  Ta83  1  0.00324561  0.79334818  0.75068008  1
  Ta  Ta84  1  0.09370662  0.49898128  0.87530712  1
  Ta  Ta85  1  0.70777330  0.10896528  0.87781102  1
  Ta  Ta86  1  0.30620774  0.09170483  0.87802088  1
  Ta  Ta87  1  0.79048754  -0.01333902  0.74307531  1
  Ta  Ta88  1  0.01137473  0.39535216  0.74734438  1
  Ta  Ta89  1  -0.00369350  0.59725647  0.49316574  1
  Ta  Ta90  1  0.39349465  0.00638795  0.01475903  1
  Ta  Ta91  1  0.89294657  0.49816263  0.38200482  1
  Ta  Ta92  1  0.09342809  0.09992671  0.12941969  1
  Ta  Ta93  1  0.89155678  0.69916913  0.13367012  1
  Ta  Ta94  1  0.30391185  0.31170405  0.35952693  1
  Ta  Ta95  1  0.68991820  0.49098041  0.61779016  1
  Ta  Ta96  1  0.80379015  0.18894048  0.24006989  1
  Ta  Ta97  1  0.59080051  0.78919479  -0.00174100  1
  Ta  Ta98  1  0.71031509  0.50351687  0.14585651  1
  Ta  Ta99  1  0.49931758  0.29988328  0.37297778  1
  Ta  Ta100  1  0.10293123  0.29508482  0.62948190  1
  Ta  Ta101  1  0.81427707  0.40008804  0.25305055  1
  Ta  Ta102  1  0.19429905  0.59292746  0.23926631  1
  Ta  Ta103  1  0.59843337  0.20774745  -0.00788078  1
  Ta  Ta104  1  -0.01593544  0.80008610  0.49206845  1
  Ta  Ta105  1  0.50311976  0.30613013  0.12619884  1
  Ta  Ta106  1  0.90105858  0.49646695  0.12979765  1
  Ta  Ta107  1  0.19429581  0.00747517  0.48772733  1
  Ta  Ta108  1  0.60137261  0.20043785  0.24965496  1
  Ta  Ta109  1  0.20172284  0.39859606  0.76431681  1
  Ta  Ta110  1  0.01200865  0.40184076  0.24067958  1
  Ta  Ta111  1  0.79890751  0.59816646  0.50128202  1
  Ta  Ta112  1  0.49917067  0.09847877  0.88870878  1
  Ta  Ta113  1  0.78641028  0.58221758  0.73956872  1
  Ta  Ta114  1  -0.00999214  0.01276693  0.25686344  1
  Ta  Ta115  1  0.71512048  0.09258873  0.37657917  1
  Ta  Ta116  1  0.09047146  0.69842567  0.13705907  1
  Ta  Ta117  1  0.19015957  0.00536168  0.25912882  1
  Ta  Ta118  1  0.40182361  0.80337914  0.49741829  1
  Ta  Ta119  1  0.41250411  0.39962188  -0.00275286  1
  Ti  Ti120  1  0.10779547  0.49276081  0.38430158  1
  Ti  Ti121  1  0.19721142  0.20552260  0.23249563  1
  Ti  Ti122  1  0.40631646  0.20005076  0.76012539  1
  Ti  Ti123  1  0.49918336  0.70529311  0.14589659  1
  Ti  Ti124  1  0.00944020  0.39258996  0.01366037  1
  Ti  Ti125  1  0.09478639  0.69813596  0.61093065  1
  Ti  Ti126  1  0.19927839  0.39673010  0.23427466  1
  Ti  Ti127  1  0.29712358  0.90107565  0.37831728  1
  Ti  Ti128  1  0.39103361  0.00121524  0.75597790  1
  Ti  Ti129  1  0.79917607  0.00184447  0.51984388  1
  Ti  Ti130  1  0.11222476  0.89480683  0.86566695  1
  Ti  Ti131  1  0.47935532  0.90432841  0.88416703  1
  Ti  Ti132  1  0.70200852  0.10123174  0.63315332  1
  Ti  Ti133  1  0.49483599  0.89268890  0.37552402  1
  Ti  Ti134  1  0.29344721  0.49501813  0.36068525  1
  Ti  Ti135  1  0.38888865  0.59793925  0.74428774  1
  Ti  Ti136  1  0.39526758  0.00018288  0.49321117  1
  Ti  Ti137  1  0.81624848  0.38959263  0.00833092  1
  Ti  Ti138  1  0.19220201  0.00971701  0.75922989  1
  Ti  Ti139  1  0.39610519  0.39838637  0.48811201  1
  Ti  Ti140  1  0.71719295  0.30312909  0.87583094  1
  Ti  Ti141  1  0.72451434  0.30674183  0.63478615  1
  Ti  Ti142  1  0.00178920  0.59164562  0.74339824  1
  Ti  Ti143  1  0.40220873  0.20880409  0.49704556  1
  Ti  Ti144  1  -0.00468020  0.20881137  0.22893464  1
  Ti  Ti145  1  0.77855605  0.40322735  0.49071623  1
  Ti  Ti146  1  0.60380268  0.39823342  0.25909601  1
  Ti  Ti147  1  0.59948500  0.60033834  -0.00768513  1
  Ti  Ti148  1  0.39670714  0.80565122  0.74557793  1
  Ti  Ti149  1  0.11159973  0.31045414  0.36469149  1
  Ti  Ti150  1  0.40218687  0.40187137  0.76399135  1
  Ti  Ti151  1  0.20981210  -0.00148767  -0.00369305  1
  Ti  Ti152  1  0.89505484  0.09305375  0.85776289  1
  Ti  Ti153  1  0.29288071  0.69016166  0.61661228  1
  Ti  Ti154  1  0.68930798  0.69416634  0.62571055  1
  Ti  Ti155  1  0.89331090  0.10602401  0.37377211  1
  Ti  Ti156  1  0.60735572  0.81338037  0.25327385  1
  Ti  Ti157  1  0.80095944  0.78785037  0.00070208  1
  Ti  Ti158  1  0.39691429  0.60073235  0.24692731  1
  Ti  Ti159  1  0.49483902  0.30116605  0.87965908  1
  Mo  Mo160  1  0.49764875  0.50005374  0.87660377  1
  Mo  Mo161  1  0.80816741  0.59600341  0.25326859  1
  Mo  Mo162  1  0.79571764  0.20754108  -0.00448586  1
  Mo  Mo163  1  0.29503220  0.90810763  0.12943753  1
  Mo  Mo164  1  0.89493650  0.89278740  0.63480419  1
  Mo  Mo165  1  0.00927524  0.19623982  0.51109935  1
  Mo  Mo166  1  0.70373275  0.49694577  0.35934426  1
  Mo  Mo167  1  0.19781769  0.59590337  0.49834014  1
  Mo  Mo168  1  0.09752107  0.31173799  0.87877145  1
  Mo  Mo169  1  0.79982777  0.39525750  0.74741306  1
  Mo  Mo170  1  0.30261229  0.49981200  0.63494927  1
  Mo  Mo171  1  0.30041048  0.29767837  0.13353984  1
  Mo  Mo172  1  0.59246340  0.00171660  -0.01381097  1
  Mo  Mo173  1  0.09445127  0.69431945  0.86539272  1
  Mo  Mo174  1  0.10649461  0.09451067  0.87999428  1
  Mo  Mo175  1  0.89653588  0.69781984  0.39212882  1
  Mo  Mo176  1  0.79554012  0.79392458  0.73189791  1
  Mo  Mo177  1  0.50288671  0.10892813  0.11127725  1
  Mo  Mo178  1  0.28113751  0.08966685  0.12605237  1
  Mo  Mo179  1  0.30225549  0.70163733  0.14451023  1
  Mo  Mo180  1  0.69479534  0.90521480  0.63182429  1
  Mo  Mo181  1  0.40581424  0.39647078  0.25289130  1
  Mo  Mo182  1  0.70796168  0.50320050  0.87640341  1
  Mo  Mo183  1  0.89872844  0.09893648  0.12935772  1
  Mo  Mo184  1  0.00744152  -0.01074856  0.76441967  1
  Mo  Mo185  1  0.21212937  0.40665638  0.48628257  1
  Mo  Mo186  1  0.40397427  0.80110290  0.24346314  1
  Mo  Mo187  1  0.80098684  0.80436925  0.24211296  1
  Mo  Mo188  1  0.30461509  0.91002704  0.87025556  1
  Mo  Mo189  1  0.09992866  0.29876715  0.12932230  1
  Mo  Mo190  1  0.09729436  0.50116538  0.12879147  1
  Mo  Mo191  1  0.31094147  0.30015227  0.87335236  1
  Mo  Mo192  1  0.60177831  0.59444985  0.26265141  1
  Mo  Mo193  1  0.10100019  0.91250440  0.37419081  1
  Mo  Mo194  1  0.59921411  0.39927744  0.48286339  1
  Mo  Mo195  1  0.59078956  0.79400253  0.50088376  1
  Mo  Mo196  1  0.68699830  0.90388183  0.37069648  1
  Mo  Mo197  1  0.80087018  0.19216407  0.74532611  1
  Mo  Mo198  1  0.90009385  0.30317800  0.13062516  1
  Mo  Mo199  1  0.91235940  0.28782276  0.64895883  1
