# generated using pymatgen
data_HfZrTaTiMo
_symmetry_space_group_name_H-M   'P 1'
_cell_length_a   15.20688553
_cell_length_b   15.21131717
_cell_length_c   16.84914835
_cell_angle_alpha   90.03875301
_cell_angle_beta   90.00581017
_cell_angle_gamma   90.02801557
_symmetry_Int_Tables_number   1
_chemical_formula_structural   HfZrTaTiMo
_chemical_formula_sum   'Hf40 Zr40 Ta40 Ti40 Mo40'
_cell_volume   3897.48901058
_cell_formula_units_Z   40
loop_
 _symmetry_equiv_pos_site_id
 _symmetry_equiv_pos_as_xyz
  1  'x, y, z'
loop_
 _atom_site_type_symbol
 _atom_site_label
 _atom_site_symmetry_multiplicity
 _atom_site_fract_x
 _atom_site_fract_y
 _atom_site_fract_z
 _atom_site_occupancy
  Hf  Hf0  1  0.49072412  0.08641866  0.89087916  1
  Hf  Hf1  1  0.20240607  0.21007442  0.73867351  1
  Hf  Hf2  1  0.38774607  0.60748799  0.50289893  1
  Hf  Hf3  1  0.20047672  0.21452623  0.48667431  1
  Hf  Hf4  1  0.09464703  0.31828068  0.62600684  1
  Hf  Hf5  1  0.78705006  0.00033945  0.49689637  1
  Hf  Hf6  1  0.20275003  0.80345722  0.75781505  1
  Hf  Hf7  1  0.20311409  0.40296002  0.01112365  1
  Hf  Hf8  1  0.50308273  0.48734561  0.38609148  1
  Hf  Hf9  1  0.71015575  0.88080952  0.86367016  1
  Hf  Hf10  1  0.10228653  0.10401613  0.61880157  1
  Hf  Hf11  1  -0.01565446  0.81469196  -0.01735291  1
  Hf  Hf12  1  0.72076169  0.09888170  0.12400195  1
  Hf  Hf13  1  0.39312882  0.17287638  0.50906459  1
  Hf  Hf14  1  0.49969710  0.68213847  0.13211221  1
  Hf  Hf15  1  0.09697499  0.31579169  0.86491720  1
  Hf  Hf16  1  0.20322748  0.80708762  -0.00365515  1
  Hf  Hf17  1  0.42454474  0.39568187  0.24001477  1
  Hf  Hf18  1  0.71573692  0.88037641  0.13613106  1
  Hf  Hf19  1  0.79894446  0.19939957  -0.01145410  1
  Hf  Hf20  1  0.49218232  0.29057731  0.87862330  1
  Hf  Hf21  1  0.60905936  0.61329297  0.76182859  1
  Hf  Hf22  1  0.28630195  0.10034424  0.13965077  1
  Hf  Hf23  1  0.69852322  0.08938643  0.63725001  1
  Hf  Hf24  1  0.49537352  0.88101249  0.89800609  1
  Hf  Hf25  1  0.21110259  0.80590251  0.25551915  1
  Hf  Hf26  1  0.50526122  0.50304833  0.62363084  1
  Hf  Hf27  1  0.61413910  0.78105537  0.00761747  1
  Hf  Hf28  1  0.60421429  0.40352664  0.75937978  1
  Hf  Hf29  1  0.39369653  0.16488355  0.73322378  1
  Hf  Hf30  1  0.89742696  0.52143965  0.38990237  1
  Hf  Hf31  1  0.61011612  -0.00572438  0.01045981  1
  Hf  Hf32  1  0.20776778  0.60339807  0.23820100  1
  Hf  Hf33  1  -0.00609600  0.20721944  -0.01073076  1
  Hf  Hf34  1  0.71634360  0.69136717  0.38020780  1
  Hf  Hf35  1  0.19229179  0.20304410  0.00616780  1
  Hf  Hf36  1  0.57956336  -0.00764119  0.49217088  1
  Hf  Hf37  1  0.90722740  0.70388350  0.62859988  1
  Hf  Hf38  1  0.90647602  0.92432270  0.12569653  1
  Hf  Hf39  1  0.50366765  0.28477010  0.62810922  1
  Zr  Zr40  1  0.49599077  0.10286655  0.35609452  1
  Zr  Zr41  1  0.09087435  0.90095374  0.38286916  1
  Zr  Zr42  1  0.79115287  0.20181444  0.26860739  1
  Zr  Zr43  1  0.90011989  0.29051404  0.13107668  1
  Zr  Zr44  1  0.09846520  0.69623122  0.36643685  1
  Zr  Zr45  1  -0.00123013  0.80554143  0.76526424  1
  Zr  Zr46  1  0.09470496  0.49888440  0.12096038  1
  Zr  Zr47  1  0.20325009  0.79159636  0.49296389  1
  Zr  Zr48  1  0.61638326  0.39462850  -0.01823409  1
  Zr  Zr49  1  0.71655605  0.49580132  0.62213578  1
  Zr  Zr50  1  0.69622651  0.31446863  0.12211020  1
  Zr  Zr51  1  0.19977413  0.42054496  0.50107000  1
  Zr  Zr52  1  -0.01057488  0.60836225  0.23887481  1
  Zr  Zr53  1  0.71121350  0.29337522  0.63520850  1
  Zr  Zr54  1  0.74114339  0.50201542  0.86987889  1
  Zr  Zr55  1  0.39215747  0.59729859  0.75194068  1
  Zr  Zr56  1  0.60365793  0.00201603  0.24573792  1
  Zr  Zr57  1  0.57253400  -0.01813119  0.75091280  1
  Zr  Zr58  1  0.38905382  0.38806068  0.73800943  1
  Zr  Zr59  1  0.68799437  0.88179084  0.63188064  1
  Zr  Zr60  1  0.09629965  0.71319745  0.11497145  1
  Zr  Zr61  1  0.00073374  0.01382023  -0.01754534  1
  Zr  Zr62  1  0.40588517  0.80483979  0.75772379  1
  Zr  Zr63  1  0.60280272  0.57254981  0.25427432  1
  Zr  Zr64  1  0.31832851  0.90605901  0.61218287  1
  Zr  Zr65  1  0.59183930  0.79439516  0.47975012  1
  Zr  Zr66  1  -0.00313718  0.21141251  0.48486736  1
  Zr  Zr67  1  0.60235189  0.18874822  0.49820803  1
  Zr  Zr68  1  0.29955225  0.30221782  0.87939128  1
  Zr  Zr69  1  0.30609788  0.50946230  0.36258647  1
  Zr  Zr70  1  0.07598150  0.10445726  0.13575612  1
  Zr  Zr71  1  -0.00708597  0.40574340  0.25882768  1
  Zr  Zr72  1  0.39250605  0.38521504  0.51142933  1
  Zr  Zr73  1  0.70885781  0.48613752  0.39781855  1
  Zr  Zr74  1  -0.02003282  0.59942171  -0.00317459  1
  Zr  Zr75  1  0.00694648  0.00894163  0.74747940  1
  Zr  Zr76  1  0.59668422  0.18887753  0.75923176  1
  Zr  Zr77  1  0.29612384  0.09594599  0.88700408  1
  Zr  Zr78  1  0.49903249  0.71772834  0.62252591  1
  Zr  Zr79  1  -0.00642282  0.00086635  0.50754316  1
  Ta  Ta80  1  0.70508981  0.68985249  0.61751373  1
  Ta  Ta81  1  0.79700051  0.60686307  0.24022027  1
  Ta  Ta82  1  0.19359835  0.00199051  0.26466268  1
  Ta  Ta83  1  0.30096677  0.30048996  0.14001950  1
  Ta  Ta84  1  0.91144992  0.50101413  0.61263492  1
  Ta  Ta85  1  0.28160144  0.69350917  0.62538236  1
  Ta  Ta86  1  0.21363267  0.00287755  0.74420515  1
  Ta  Ta87  1  0.89880872  0.30567886  0.62618099  1
  Ta  Ta88  1  0.01884960  0.61764902  0.50583440  1
  Ta  Ta89  1  0.78565153  0.41482413  0.25178961  1
  Ta  Ta90  1  0.79886691  0.20130182  0.49285217  1
  Ta  Ta91  1  0.39805445  -0.00486947  0.02308429  1
  Ta  Ta92  1  0.40247237  0.59714569  -0.00191287  1
  Ta  Ta93  1  0.21096199  0.01134752  0.48407168  1
  Ta  Ta94  1  0.70186397  0.89692528  0.36538589  1
  Ta  Ta95  1  -0.00145978  0.20333895  0.27633390  1
  Ta  Ta96  1  0.89325475  0.31850493  0.86342306  1
  Ta  Ta97  1  0.10413865  0.91077845  0.12991169  1
  Ta  Ta98  1  0.59910478  0.19307320  -0.00090695  1
  Ta  Ta99  1  0.88805939  0.90601749  0.63869807  1
  Ta  Ta100  1  0.60489774  0.78563391  0.25502466  1
  Ta  Ta101  1  0.40037731  0.20044871  0.02238903  1
  Ta  Ta102  1  0.80923856  -0.00087028  0.26168724  1
  Ta  Ta103  1  0.59905584  0.59851099  0.49900147  1
  Ta  Ta104  1  0.48945818  0.49751213  0.87748915  1
  Ta  Ta105  1  0.29467672  0.50240004  0.88182857  1
  Ta  Ta106  1  0.89397376  0.89277878  0.37737774  1
  Ta  Ta107  1  0.87358232  0.69880711  0.86653555  1
  Ta  Ta108  1  0.20093251  0.39960969  0.24971421  1
  Ta  Ta109  1  0.19982614  0.42227268  0.74095284  1
  Ta  Ta110  1  -0.00869696  0.81378328  0.24517929  1
  Ta  Ta111  1  0.10072164  0.69528866  0.88575968  1
  Ta  Ta112  1  0.30996072  0.29702111  0.35658217  1
  Ta  Ta113  1  0.00309085  0.60191183  0.75787240  1
  Ta  Ta114  1  0.88022992  0.72124069  0.12141018  1
  Ta  Ta115  1  0.60069311  0.59188567  -0.01079640  1
  Ta  Ta116  1  0.49739470  0.88521132  0.12927932  1
  Ta  Ta117  1  0.31749710  0.50529037  0.12819375  1
  Ta  Ta118  1  0.29758155  0.89659815  0.12659334  1
  Ta  Ta119  1  0.10033780  0.29754886  0.13835615  1
  Ti  Ti120  1  0.90737014  0.71185089  0.38363019  1
  Ti  Ti121  1  0.11041338  0.91302984  0.87377883  1
  Ti  Ti122  1  0.68908706  0.29751989  0.37818673  1
  Ti  Ti123  1  0.09914820  0.89042685  0.61870699  1
  Ti  Ti124  1  0.70238819  0.08884460  0.86782773  1
  Ti  Ti125  1  0.00390059  0.40700158  0.49271232  1
  Ti  Ti126  1  0.18967526  0.20247467  0.26582104  1
  Ti  Ti127  1  0.30560212  0.90827068  0.88690894  1
  Ti  Ti128  1  0.88961999  0.10924676  0.63222963  1
  Ti  Ti129  1  0.60405132  0.38841183  0.50967783  1
  Ti  Ti130  1  0.58839534  0.21657372  0.24175411  1
  Ti  Ti131  1  0.88038290  0.49529003  0.11921924  1
  Ti  Ti132  1  0.10950403  0.53084163  0.62621878  1
  Ti  Ti133  1  0.80672205  0.80019771  0.50405341  1
  Ti  Ti134  1  0.40315254  0.39809248  0.00850650  1
  Ti  Ti135  1  0.78579031  0.61264840  0.00998286  1
  Ti  Ti136  1  0.89060126  0.10242273  0.85610653  1
  Ti  Ti137  1  -0.00257023  0.41922749  0.74638506  1
  Ti  Ti138  1  0.39273867  -0.00996274  0.24022684  1
  Ti  Ti139  1  0.71088487  0.29053567  0.86267568  1
  Ti  Ti140  1  0.10482898  0.10993762  0.86396072  1
  Ti  Ti141  1  0.49838523  0.29536800  0.37764084  1
  Ti  Ti142  1  -0.00631286  0.39924154  0.00052010  1
  Ti  Ti143  1  0.50099891  0.10326611  0.13008050  1
  Ti  Ti144  1  0.30602604  0.09922778  0.35910665  1
  Ti  Ti145  1  0.80992673  -0.01092909  -0.01336515  1
  Ti  Ti146  1  0.19605041  0.00381864  0.00599716  1
  Ti  Ti147  1  0.10311040  0.50524325  0.88096694  1
  Ti  Ti148  1  0.20546928  0.60182035  0.00478901  1
  Ti  Ti149  1  -0.00122421  0.01008567  0.26361710  1
  Ti  Ti150  1  0.48364037  0.88821405  0.35606230  1
  Ti  Ti151  1  0.89539990  0.09526025  0.38246426  1
  Ti  Ti152  1  0.88724018  0.31928926  0.38006635  1
  Ti  Ti153  1  0.48389100  0.68922051  0.36162348  1
  Ti  Ti154  1  0.51923059  0.48312897  0.11435080  1
  Ti  Ti155  1  0.19613948  0.60783078  0.76076042  1
  Ti  Ti156  1  0.10080786  0.50412134  0.37343713  1
  Ti  Ti157  1  -0.00711173  0.21126034  0.74905071  1
  Ti  Ti158  1  0.30912860  0.70144029  0.88758363  1
  Ti  Ti159  1  0.31042836  0.70550039  0.12018278  1
  Mo  Mo160  1  0.28990281  0.09274555  0.61402223  1
  Mo  Mo161  1  0.82005521  0.40407993  -0.00084770  1
  Mo  Mo162  1  0.89724548  0.10318210  0.13287651  1
  Mo  Mo163  1  0.10282651  0.31389233  0.36736889  1
  Mo  Mo164  1  0.40081211  0.79923626  0.48478591  1
  Mo  Mo165  1  0.81729435  0.59717184  0.74095130  1
  Mo  Mo166  1  0.29404470  0.50854176  0.63038996  1
  Mo  Mo167  1  0.49751677  0.68913882  0.88618001  1
  Mo  Mo168  1  0.60945497  0.38749783  0.25430143  1
  Mo  Mo169  1  0.31239482  0.70734214  0.36971838  1
  Mo  Mo170  1  0.39485772  -0.01151684  0.47758036  1
  Mo  Mo171  1  0.92141516  0.50343287  0.87449592  1
  Mo  Mo172  1  0.80536813  0.80093952  -0.00213999  1
  Mo  Mo173  1  0.79020014  0.78424366  0.74174104  1
  Mo  Mo174  1  0.81760444  0.39995980  0.74294545  1
  Mo  Mo175  1  0.19816880  0.60209333  0.49711435  1
  Mo  Mo176  1  0.10350818  0.70693502  0.63388308  1
  Mo  Mo177  1  0.50216663  0.29659363  0.11149674  1
  Mo  Mo178  1  0.81071343  0.60777606  0.50710855  1
  Mo  Mo179  1  0.81403617  0.38812744  0.50300474  1
  Mo  Mo180  1  0.39873360  0.19790862  0.23513264  1
  Mo  Mo181  1  0.40390897  0.79751516  0.24325702  1
  Mo  Mo182  1  0.70189063  0.09875043  0.37159393  1
  Mo  Mo183  1  0.80060626  -0.00439951  0.75003852  1
  Mo  Mo184  1  0.40304561  0.59816809  0.24247318  1
  Mo  Mo185  1  0.69917258  0.69429987  0.87641882  1
  Mo  Mo186  1  0.70247550  0.50697028  0.11656035  1
  Mo  Mo187  1  0.48899379  0.06961138  0.62120412  1
  Mo  Mo188  1  0.10093305  0.10356824  0.37435336  1
  Mo  Mo189  1  0.38672463  -0.01324615  0.75671840  1
  Mo  Mo190  1  0.59699183  0.78797943  0.75513177  1
  Mo  Mo191  1  0.69683709  0.69194877  0.13271972  1
  Mo  Mo192  1  0.80790567  0.79734158  0.25851948  1
  Mo  Mo193  1  0.80681415  0.19531090  0.75600187  1
  Mo  Mo194  1  0.49748626  0.89777926  0.61682265  1
  Mo  Mo195  1  0.89400334  0.90845070  0.85605746  1
  Mo  Mo196  1  0.28939092  0.29769720  0.62473424  1
  Mo  Mo197  1  0.39819883  0.79543238  0.00904462  1
  Mo  Mo198  1  0.30558478  0.90433498  0.37082213  1
  Mo  Mo199  1  -0.00822391  0.80625706  0.51062327  1
