# generated using pymatgen
data_HfZrTaTiMo
_symmetry_space_group_name_H-M   'P 1'
_cell_length_a   15.16657436
_cell_length_b   15.16898509
_cell_length_c   16.84101615
_cell_angle_alpha   89.91452339
_cell_angle_beta   89.99272678
_cell_angle_gamma   90.12310773
_symmetry_Int_Tables_number   1
_chemical_formula_structural   HfZrTaTiMo
_chemical_formula_sum   'Hf40 Zr40 Ta40 Ti40 Mo40'
_cell_volume   3874.45682931
_cell_formula_units_Z   40
loop_
 _symmetry_equiv_pos_site_id
 _symmetry_equiv_pos_as_xyz
  1  'x, y, z'
loop_
 _atom_site_type_symbol
 _atom_site_label
 _atom_site_symmetry_multiplicity
 _atom_site_fract_x
 _atom_site_fract_y
 _atom_site_fract_z
 _atom_site_occupancy
  Hf  Hf0  1  0.58767031  0.81510638  0.73953419  1
  Hf  Hf1  1  0.52435396  0.09533445  0.63503761  1
  Hf  Hf2  1  0.30420516  0.49004992  0.12462593  1
  Hf  Hf3  1  0.42759113  -0.00790010  0.50704297  1
  Hf  Hf4  1  0.38674057  0.59160495  0.74214811  1
  Hf  Hf5  1  0.70620229  0.51788472  0.37129065  1
  Hf  Hf6  1  0.11149365  0.10894008  0.38830858  1
  Hf  Hf7  1  0.80511733  0.61368896  0.50071663  1
  Hf  Hf8  1  0.70358297  0.32491756  0.88239706  1
  Hf  Hf9  1  0.89085243  0.68591884  0.35174135  1
  Hf  Hf10  1  0.78978082  -0.01893492  0.24874774  1
  Hf  Hf11  1  0.10111043  0.90600749  0.13150731  1
  Hf  Hf12  1  0.82396336  0.02190259  0.75946063  1
  Hf  Hf13  1  0.90373840  0.28969180  0.14125923  1
  Hf  Hf14  1  0.58836604  0.20067595  0.24163773  1
  Hf  Hf15  1  0.91658974  0.49146739  0.37012726  1
  Hf  Hf16  1  0.88409838  0.10492588  0.60498410  1
  Hf  Hf17  1  0.28375141  0.69330771  0.61190795  1
  Hf  Hf18  1  0.50290842  0.89163757  0.88266616  1
  Hf  Hf19  1  0.69975650  0.71811400  0.12735381  1
  Hf  Hf20  1  0.89651147  0.89217355  0.12257532  1
  Hf  Hf21  1  0.38422648  0.19058316  -0.00725162  1
  Hf  Hf22  1  0.59871250  0.61192518  0.50029011  1
  Hf  Hf23  1  0.30965234  0.88365366  0.61972407  1
  Hf  Hf24  1  0.70623083  0.92703638  0.62322072  1
  Hf  Hf25  1  0.60148643  0.40457184  0.25443655  1
  Hf  Hf26  1  0.50314148  0.10029066  0.87757347  1
  Hf  Hf27  1  0.40365273  0.20402371  0.74004779  1
  Hf  Hf28  1  0.70933823  0.11332122  0.88351634  1
  Hf  Hf29  1  0.70236906  0.31873454  0.11660332  1
  Hf  Hf30  1  0.48698038  0.70515222  0.62595086  1
  Hf  Hf31  1  0.31043644  0.50131307  0.88635989  1
  Hf  Hf32  1  0.60168386  0.40170013  0.49618341  1
  Hf  Hf33  1  0.92502103  0.91754763  0.88092470  1
  Hf  Hf34  1  0.70994917  0.10725467  0.11688845  1
  Hf  Hf35  1  -0.00671793  0.19045644  0.73844545  1
  Hf  Hf36  1  0.79711467  0.81775610  0.76287429  1
  Hf  Hf37  1  0.09483973  0.69352781  0.63527608  1
  Hf  Hf38  1  0.59918721  0.82048568  0.50530661  1
  Hf  Hf39  1  0.09311929  0.08895481  0.60062685  1
  Zr  Zr40  1  0.29095867  0.48452850  0.37459129  1
  Zr  Zr41  1  0.28840567  0.28041791  0.12548105  1
  Zr  Zr42  1  0.87954984  0.88265597  0.38844813  1
  Zr  Zr43  1  0.50223867  0.09825506  0.37151665  1
  Zr  Zr44  1  0.89742049  0.68836057  0.88001395  1
  Zr  Zr45  1  0.08956443  0.49221726  0.88675758  1
  Zr  Zr46  1  -0.00945339  0.22438705  0.48607275  1
  Zr  Zr47  1  0.49315826  0.09239409  0.11506180  1
  Zr  Zr48  1  0.68313822  0.70651430  0.87045894  1
  Zr  Zr49  1  0.19774518  0.38502637  0.00082808  1
  Zr  Zr50  1  0.70200053  0.30782252  0.62750776  1
  Zr  Zr51  1  0.50705353  0.51011028  0.13639054  1
  Zr  Zr52  1  0.48960680  0.30906222  0.11040563  1
  Zr  Zr53  1  0.39475040  0.37199135  0.51451791  1
  Zr  Zr54  1  0.79483262  0.19798918  0.26343932  1
  Zr  Zr55  1  -0.00905792  0.38280697  0.01183109  1
  Zr  Zr56  1  0.19356251  0.39827058  0.75562759  1
  Zr  Zr57  1  0.19540380  0.79246092  0.25416467  1
  Zr  Zr58  1  0.89798487  0.69733934  0.64156603  1
  Zr  Zr59  1  0.10271026  0.69715768  0.88094222  1
  Zr  Zr60  1  0.82060552  0.01827900  -0.00172101  1
  Zr  Zr61  1  0.20633579  0.00934004  0.26418995  1
  Zr  Zr62  1  0.78592662  0.81163431  -0.01285613  1
  Zr  Zr63  1  0.29542138  0.69140531  0.37242783  1
  Zr  Zr64  1  0.40497691  -0.02054943  0.74611837  1
  Zr  Zr65  1  0.19365601  0.18617082  0.73916248  1
  Zr  Zr66  1  0.90333347  0.08330443  0.38224328  1
  Zr  Zr67  1  0.10748936  0.11225749  0.13430313  1
  Zr  Zr68  1  0.29250664  0.29294179  0.87241531  1
  Zr  Zr69  1  0.28826839  0.07439643  0.86650220  1
  Zr  Zr70  1  0.49753844  0.31496300  0.88061341  1
  Zr  Zr71  1  0.08513786  0.49596607  0.62315731  1
  Zr  Zr72  1  0.91029501  0.90438409  0.60737997  1
  Zr  Zr73  1  0.49190540  0.49823400  0.37058474  1
  Zr  Zr74  1  0.21701372  -0.01109641  0.48981540  1
  Zr  Zr75  1  0.47982726  0.69279082  0.86545822  1
  Zr  Zr76  1  0.31268471  0.89733480  0.14019715  1
  Zr  Zr77  1  0.01658891  0.81846746  0.75569993  1
  Zr  Zr78  1  0.50238961  0.71094088  0.36373865  1
  Zr  Zr79  1  -0.00181702  0.76945423  0.49332769  1
  Ta  Ta80  1  0.30521432  0.09643224  0.61893978  1
  Ta  Ta81  1  -0.01409664  0.57175713  0.75983923  1
  Ta  Ta82  1  0.40069221  0.78710604  0.00656134  1
  Ta  Ta83  1  0.18197209  0.59800750  0.49338265  1
  Ta  Ta84  1  0.69071362  0.08604420  0.37456012  1
  Ta  Ta85  1  0.58768194  0.20386482  0.50495956  1
  Ta  Ta86  1  0.00721929  0.20281424  0.26798074  1
  Ta  Ta87  1  0.09127054  0.89769249  0.38102466  1
  Ta  Ta88  1  0.89126399  0.49621864  0.12722900  1
  Ta  Ta89  1  0.10238463  0.30467627  0.61659921  1
  Ta  Ta90  1  0.81707422  0.22293683  -0.00634442  1
  Ta  Ta91  1  0.18720038  -0.02010385  0.73602323  1
  Ta  Ta92  1  0.38853579  -0.01733303  -0.00086266  1
  Ta  Ta93  1  0.77961639  0.19991932  0.48886866  1
  Ta  Ta94  1  0.40400509  0.59839743  0.00957226  1
  Ta  Ta95  1  0.80193341  0.40406035  0.25668049  1
  Ta  Ta96  1  0.28596577  0.48980776  0.61499675  1
  Ta  Ta97  1  0.31890746  0.10952817  0.38462259  1
  Ta  Ta98  1  0.48502300  0.28933717  0.37322398  1
  Ta  Ta99  1  0.50178497  0.49518319  0.62320880  1
  Ta  Ta100  1  0.81002198  0.41885747  0.75308944  1
  Ta  Ta101  1  0.89341394  0.49709585  0.61696523  1
  Ta  Ta102  1  0.10208702  0.32360468  0.36848658  1
  Ta  Ta103  1  0.07909528  0.27878822  0.87279674  1
  Ta  Ta104  1  0.61033671  -0.01259269  -0.00189614  1
  Ta  Ta105  1  0.89492063  0.69326355  0.12524955  1
  Ta  Ta106  1  0.11092037  0.88506989  0.60306414  1
  Ta  Ta107  1  0.00760210  0.79777804  0.00436745  1
  Ta  Ta108  1  0.90269732  0.31262687  0.62291166  1
  Ta  Ta109  1  0.80594955  0.22119686  0.75860469  1
  Ta  Ta110  1  0.21130843  0.80468050  0.00579813  1
  Ta  Ta111  1  0.69836026  0.70792205  0.63161104  1
  Ta  Ta112  1  0.59643019  0.61714393  0.00548104  1
  Ta  Ta113  1  0.32126280  0.89722268  0.36681679  1
  Ta  Ta114  1  0.00409690  0.59533133  0.23216499  1
  Ta  Ta115  1  0.29619236  0.29264353  0.37296858  1
  Ta  Ta116  1  0.08718039  0.08147951  0.87021264  1
  Ta  Ta117  1  0.39535823  0.58886902  0.50407812  1
  Ta  Ta118  1  0.80896194  0.39306412  0.48714611  1
  Ta  Ta119  1  0.19581100  0.59670668  0.75657777  1
  Ti  Ti120  1  0.69021571  0.29818834  0.37462049  1
  Ti  Ti121  1  0.21678249  0.21601181  0.50644205  1
  Ti  Ti122  1  0.39215057  0.38018616  0.25016271  1
  Ti  Ti123  1  -0.00503331  0.59802578  0.01440702  1
  Ti  Ti124  1  0.60849844  0.61534415  0.24943742  1
  Ti  Ti125  1  0.10143136  0.50486741  0.36925448  1
  Ti  Ti126  1  0.79076602  0.59967806  0.75027884  1
  Ti  Ti127  1  0.51715669  0.90899829  0.36556128  1
  Ti  Ti128  1  0.40306192  0.39815845  0.73561633  1
  Ti  Ti129  1  0.09743344  0.70234786  0.12412690  1
  Ti  Ti130  1  0.91587437  0.08942083  0.14567213  1
  Ti  Ti131  1  0.49522820  0.71406036  0.13765572  1
  Ti  Ti132  1  0.19611731  0.58983537  0.24133677  1
  Ti  Ti133  1  0.60915834  0.21061572  0.75411186  1
  Ti  Ti134  1  0.30215214  0.69610907  0.13423012  1
  Ti  Ti135  1  0.21928874  0.79166062  0.76008366  1
  Ti  Ti136  1  0.20634811  0.20680990  0.25778250  1
  Ti  Ti137  1  0.60308142  0.20580610  -0.00019812  1
  Ti  Ti138  1  0.61933443  0.00575687  0.76370270  1
  Ti  Ti139  1  0.50887268  0.50307529  0.87462573  1
  Ti  Ti140  1  0.59892107  0.42480530  0.00225451  1
  Ti  Ti141  1  0.09956641  0.49084649  0.12552019  1
  Ti  Ti142  1  0.59865606  0.59586380  0.74140128  1
  Ti  Ti143  1  -0.00341898  0.18836708  0.00460305  1
  Ti  Ti144  1  0.39745560  0.79419967  0.48988595  1
  Ti  Ti145  1  0.70289130  0.50769550  0.62146628  1
  Ti  Ti146  1  0.70177161  0.51733175  0.88375521  1
  Ti  Ti147  1  0.18552692  0.18031740  -0.00547043  1
  Ti  Ti148  1  -0.00871544  0.80587327  0.24962548  1
  Ti  Ti149  1  0.60590311  0.83153505  0.24040250  1
  Ti  Ti150  1  0.41450175  0.00164745  0.24507599  1
  Ti  Ti151  1  0.01934675  0.00265868  0.00711261  1
  Ti  Ti152  1  0.88704210  0.49177602  0.89403092  1
  Ti  Ti153  1  0.20233650  0.60719495  0.01049257  1
  Ti  Ti154  1  0.70906605  0.51781190  0.12396765  1
  Ti  Ti155  1  0.70413375  0.72651318  0.36423730  1
  Ti  Ti156  1  0.60361906  0.40992520  0.74796719  1
  Ti  Ti157  1  0.12557394  0.90252325  0.88659256  1
  Ti  Ti158  1  0.39766315  0.60222206  0.24831341  1
  Ti  Ti159  1  0.09075114  0.69103597  0.36469136  1
  Mo  Mo160  1  0.40983860  0.80078248  0.25270717  1
  Mo  Mo161  1  0.38922639  0.19083144  0.24976214  1
  Mo  Mo162  1  0.79464973  0.41149919  0.00608891  1
  Mo  Mo163  1  0.40249689  0.19215476  0.51494540  1
  Mo  Mo164  1  0.40819222  0.40717265  -0.00103102  1
  Mo  Mo165  1  0.69564043  0.91169744  0.11809503  1
  Mo  Mo166  1  0.50765469  0.89494102  0.11688113  1
  Mo  Mo167  1  0.89405642  0.30033429  0.36250454  1
  Mo  Mo168  1  0.91809239  0.12174727  0.87845061  1
  Mo  Mo169  1  0.20097166  0.79136177  0.48015234  1
  Mo  Mo170  1  0.79629002  0.59574518  0.24279363  1
  Mo  Mo171  1  0.09667570  0.29955398  0.14297532  1
  Mo  Mo172  1  0.79629280  0.79384850  0.24168628  1
  Mo  Mo173  1  0.90190350  0.30976907  0.87250183  1
  Mo  Mo174  1  0.70821998  0.11865579  0.63420151  1
  Mo  Mo175  1  0.50773297  0.30406931  0.63917069  1
  Mo  Mo176  1  0.29388577  0.29810146  0.63182318  1
  Mo  Mo177  1  0.58615406  0.80000795  0.00572860  1
  Mo  Mo178  1  0.78463588  0.79035090  0.50579623  1
  Mo  Mo179  1  0.78809996  -0.00053230  0.49462583  1
  Mo  Mo180  1  -0.01205134  0.38832656  0.75259882  1
  Mo  Mo181  1  0.60231882  0.00576610  0.23839909  1
  Mo  Mo182  1  0.00167409  -0.00454798  0.25772785  1
  Mo  Mo183  1  -0.00174680  0.59222497  0.49411485  1
  Mo  Mo184  1  0.01323825  0.00019994  0.73954247  1
  Mo  Mo185  1  0.61554916  0.01756395  0.50242903  1
  Mo  Mo186  1  0.00422215  -0.00689335  0.49430292  1
  Mo  Mo187  1  0.29882789  0.09023203  0.12229154  1
  Mo  Mo188  1  0.19513305  0.40004671  0.24436451  1
  Mo  Mo189  1  0.79504787  0.59900012  0.00417090  1
  Mo  Mo190  1  0.19123356  0.39591548  0.49957691  1
  Mo  Mo191  1  0.20579420  -0.00119927  0.00397399  1
  Mo  Mo192  1  -0.00064554  0.40582352  0.49581494  1
  Mo  Mo193  1  0.00593437  0.40323590  0.23985760  1
  Mo  Mo194  1  0.68948008  0.89938751  0.37611918  1
  Mo  Mo195  1  0.30110835  0.87943111  0.87740003  1
  Mo  Mo196  1  0.50381286  0.90038631  0.62554066  1
  Mo  Mo197  1  0.38978556  0.78846923  0.75041074  1
  Mo  Mo198  1  0.70141117  0.91419767  0.87188810  1
  Mo  Mo199  1  0.29181526  0.69295105  0.88677131  1
