# generated using pymatgen
data_HfZrTaTiMo
_symmetry_space_group_name_H-M   'P 1'
_cell_length_a   15.19737189
_cell_length_b   15.20829926
_cell_length_c   16.85829063
_cell_angle_alpha   90.01231017
_cell_angle_beta   89.98242781
_cell_angle_gamma   90.16471943
_symmetry_Int_Tables_number   1
_chemical_formula_structural   HfZrTaTiMo
_chemical_formula_sum   'Hf40 Zr40 Ta40 Ti40 Mo40'
_cell_volume   3896.37593520
_cell_formula_units_Z   40
loop_
 _symmetry_equiv_pos_site_id
 _symmetry_equiv_pos_as_xyz
  1  'x, y, z'
loop_
 _atom_site_type_symbol
 _atom_site_label
 _atom_site_symmetry_multiplicity
 _atom_site_fract_x
 _atom_site_fract_y
 _atom_site_fract_z
 _atom_site_occupancy
  Hf  Hf0  1  -0.01141615  0.59172274  0.00726346  1
  Hf  Hf1  1  0.58953730  0.60727252  0.74077117  1
  Hf  Hf2  1  0.11958110  0.69938197  0.13836957  1
  Hf  Hf3  1  0.69257629  0.71192898  0.60671318  1
  Hf  Hf4  1  0.09623475  0.88724364  0.63479100  1
  Hf  Hf5  1  0.19945075  0.59564256  0.48663811  1
  Hf  Hf6  1  0.70661243  0.90573262  0.36449173  1
  Hf  Hf7  1  0.39835220  0.00204937  0.24130434  1
  Hf  Hf8  1  0.19666441  0.79507188  0.48542702  1
  Hf  Hf9  1  0.81597734  0.00264395  0.49917370  1
  Hf  Hf10  1  0.31398689  0.10787731  0.61871336  1
  Hf  Hf11  1  -0.00002004  0.80607637  0.49019014  1
  Hf  Hf12  1  0.08822911  0.49383801  0.13963332  1
  Hf  Hf13  1  0.89015076  0.71347477  0.60755785  1
  Hf  Hf14  1  0.91302271  0.10902254  0.36802667  1
  Hf  Hf15  1  0.88480453  0.27796861  0.63136723  1
  Hf  Hf16  1  0.89211303  0.69450813  0.13864780  1
  Hf  Hf17  1  0.09578584  0.29786062  0.87230118  1
  Hf  Hf18  1  0.42165199  0.40660363  0.23764137  1
  Hf  Hf19  1  0.30622744  0.28823440  0.11593232  1
  Hf  Hf20  1  0.50924303  0.90922233  0.37432797  1
  Hf  Hf21  1  0.80332857  0.40778771  -0.00783442  1
  Hf  Hf22  1  0.89143454  0.88487157  0.87432749  1
  Hf  Hf23  1  0.68752512  0.50174044  0.86714035  1
  Hf  Hf24  1  0.71306148  0.11518820  0.35787899  1
  Hf  Hf25  1  0.89710570  0.09771677  0.88109392  1
  Hf  Hf26  1  0.09823207  0.09652404  0.63553176  1
  Hf  Hf27  1  0.52159183  0.09589803  0.87739485  1
  Hf  Hf28  1  0.50774627  0.29780246  0.87142234  1
  Hf  Hf29  1  0.38970454  0.00174317  0.01278542  1
  Hf  Hf30  1  0.50739828  0.70239251  0.87833469  1
  Hf  Hf31  1  0.29986228  0.70685832  0.86886992  1
  Hf  Hf32  1  0.09582360  0.49099731  0.86889238  1
  Hf  Hf33  1  0.60545480  0.81959923  0.74217181  1
  Hf  Hf34  1  0.60940898  0.23125596  0.23563266  1
  Hf  Hf35  1  0.52799813  0.11296069  0.62687575  1
  Hf  Hf36  1  0.78623971  0.38382683  0.51122314  1
  Hf  Hf37  1  0.08134468  0.69745528  0.87127330  1
  Hf  Hf38  1  0.60127702  0.80033081  0.00608421  1
  Hf  Hf39  1  0.20401633  0.17972019  -0.01220269  1
  Zr  Zr40  1  0.79282994  0.00624972  0.75371939  1
  Zr  Zr41  1  0.80076059  0.41409326  0.74430096  1
  Zr  Zr42  1  0.20207896  -0.00483399  0.50524223  1
  Zr  Zr43  1  0.19452749  0.39427193  0.48634965  1
  Zr  Zr44  1  0.08701983  0.48982185  0.36844820  1
  Zr  Zr45  1  0.01117043  0.80682231  0.25436141  1
  Zr  Zr46  1  0.29495148  0.69468777  0.61816271  1
  Zr  Zr47  1  -0.00301176  0.59719171  0.72937141  1
  Zr  Zr48  1  0.88491527  0.48416224  0.37901153  1
  Zr  Zr49  1  0.27155650  0.08788841  0.13264883  1
  Zr  Zr50  1  0.40325108  0.80004037  0.73538572  1
  Zr  Zr51  1  0.49616234  0.70080218  0.12731239  1
  Zr  Zr52  1  0.10052083  0.89496367  0.86083084  1
  Zr  Zr53  1  0.39297276  0.60479487  0.00372256  1
  Zr  Zr54  1  0.18983221  0.19413604  0.26747871  1
  Zr  Zr55  1  0.21362185  0.20377012  0.75601148  1
  Zr  Zr56  1  0.51248712  0.11504181  0.36957107  1
  Zr  Zr57  1  0.48890711  0.49975844  0.87290129  1
  Zr  Zr58  1  0.30039564  0.30392622  0.61846169  1
  Zr  Zr59  1  0.90810873  0.90954299  0.36233319  1
  Zr  Zr60  1  0.40433594  0.40153529  0.01047003  1
  Zr  Zr61  1  0.40744149  0.79637451  0.25917540  1
  Zr  Zr62  1  0.58608428  0.59513588  0.26192948  1
  Zr  Zr63  1  0.02037335  0.00106858  0.01084923  1
  Zr  Zr64  1  0.70387643  0.88888581  0.13706052  1
  Zr  Zr65  1  0.20183567  0.39069123  0.26139551  1
  Zr  Zr66  1  0.30858204  0.10157885  0.38094069  1
  Zr  Zr67  1  0.09757057  0.28930166  0.11842201  1
  Zr  Zr68  1  0.67278621  0.29767438  0.64843201  1
  Zr  Zr69  1  0.41925704  0.00065604  0.50772111  1
  Zr  Zr70  1  0.10150949  0.09119223  0.85768478  1
  Zr  Zr71  1  -0.00226180  0.79663591  0.01248025  1
  Zr  Zr72  1  -0.00057187  0.59148882  0.50695553  1
  Zr  Zr73  1  0.79872397  0.62179815  0.74682377  1
  Zr  Zr74  1  0.28862065  0.51277675  0.13579297  1
  Zr  Zr75  1  0.48522649  0.90284106  0.87772613  1
  Zr  Zr76  1  0.71020336  0.11470054  0.12711711  1
  Zr  Zr77  1  0.79025170  0.61010522  -0.00690214  1
  Zr  Zr78  1  0.19604986  0.60074245  -0.00619393  1
  Zr  Zr79  1  0.23243909  -0.01362033  0.74789195  1
  Ta  Ta80  1  0.49196624  0.49565465  0.61935946  1
  Ta  Ta81  1  -0.00685190  0.59916470  0.25911933  1
  Ta  Ta82  1  0.20818453  0.79291756  0.27418354  1
  Ta  Ta83  1  0.68930383  0.92059279  0.88361585  1
  Ta  Ta84  1  0.38899638  0.80614777  0.01210034  1
  Ta  Ta85  1  0.90138874  0.30585823  0.86617745  1
  Ta  Ta86  1  0.40229479  0.21042025  0.24861294  1
  Ta  Ta87  1  0.89257323  0.69635809  0.37966961  1
  Ta  Ta88  1  -0.00593876  0.39731886  0.00226195  1
  Ta  Ta89  1  0.68813830  0.50656865  0.61892044  1
  Ta  Ta90  1  0.30736097  0.30328044  0.88158988  1
  Ta  Ta91  1  0.20029863  0.59118298  0.74779531  1
  Ta  Ta92  1  0.72551256  0.11080172  0.62582289  1
  Ta  Ta93  1  0.69932712  0.49527395  0.13345682  1
  Ta  Ta94  1  0.39528691  0.39867641  0.74962941  1
  Ta  Ta95  1  0.79084746  0.59332989  0.49813884  1
  Ta  Ta96  1  0.62177525  0.01376858  0.50032943  1
  Ta  Ta97  1  -0.00080987  0.39559304  0.73337690  1
  Ta  Ta98  1  0.69495412  0.69782253  0.38857309  1
  Ta  Ta99  1  0.60661070  0.39764037  0.00871564  1
  Ta  Ta100  1  0.09524709  0.29433448  0.62330378  1
  Ta  Ta101  1  0.59735904  0.00179016  0.02247261  1
  Ta  Ta102  1  0.30205702  0.49836293  0.62069163  1
  Ta  Ta103  1  0.42473356  0.22251270  0.50083355  1
  Ta  Ta104  1  0.58113441  0.39289896  0.50575632  1
  Ta  Ta105  1  0.69855150  0.29224928  0.86500867  1
  Ta  Ta106  1  -0.02389661  0.38228284  0.24926780  1
  Ta  Ta107  1  0.10607357  0.48952783  0.62174145  1
  Ta  Ta108  1  0.59670637  0.00411056  0.23090360  1
  Ta  Ta109  1  0.19545094  0.19989856  0.49153727  1
  Ta  Ta110  1  0.90542075  0.90486436  0.13315248  1
  Ta  Ta111  1  0.79864838  0.20848205  -0.00772323  1
  Ta  Ta112  1  0.80104084  -0.00184171  0.00837898  1
  Ta  Ta113  1  0.69879338  0.68846579  0.13561945  1
  Ta  Ta114  1  0.19451593  0.78425114  0.74349575  1
  Ta  Ta115  1  0.81393991  0.01104073  0.23830302  1
  Ta  Ta116  1  0.32264049  0.30692311  0.37969206  1
  Ta  Ta117  1  0.40518529  0.79631083  0.49147369  1
  Ta  Ta118  1  0.20170972  0.81274779  0.00184997  1
  Ta  Ta119  1  0.48099081  0.50658711  0.39060028  1
  Ti  Ti120  1  0.41185551  0.19749009  0.75105674  1
  Ti  Ti121  1  0.31658299  0.68343512  0.38260300  1
  Ti  Ti122  1  0.32193759  0.09110338  0.87180857  1
  Ti  Ti123  1  0.60111749  0.81240481  0.49434855  1
  Ti  Ti124  1  0.90368880  0.50818546  0.86883696  1
  Ti  Ti125  1  0.70414296  0.90782980  0.61690070  1
  Ti  Ti126  1  0.39157331  0.59448347  0.74810717  1
  Ti  Ti127  1  0.38705238  0.60354018  0.25164684  1
  Ti  Ti128  1  0.59781266  0.59254744  0.00854181  1
  Ti  Ti129  1  -0.01957101  0.79190277  0.74487943  1
  Ti  Ti130  1  -0.01228995  0.18935825  0.74789626  1
  Ti  Ti131  1  0.90701272  0.10789901  0.11982215  1
  Ti  Ti132  1  0.88821511  0.49556362  0.13922716  1
  Ti  Ti133  1  -0.00369972  0.19878573  0.24264479  1
  Ti  Ti134  1  0.10093041  0.08808159  0.37922517  1
  Ti  Ti135  1  0.89722906  0.90779247  0.63131368  1
  Ti  Ti136  1  0.60058078  0.79567342  0.25618325  1
  Ti  Ti137  1  0.28753713  0.88527536  0.13799922  1
  Ti  Ti138  1  0.31204136  0.89342511  0.61522453  1
  Ti  Ti139  1  0.68303750  0.48389469  0.38210416  1
  Ti  Ti140  1  0.20269300  0.40101025  0.75015209  1
  Ti  Ti141  1  0.19800003  0.40184466  -0.00453517  1
  Ti  Ti142  1  0.02190664  0.00869212  0.23538868  1
  Ti  Ti143  1  0.48749759  0.11816911  0.12180230  1
  Ti  Ti144  1  0.42995419  -0.00539965  0.73281521  1
  Ti  Ti145  1  -0.00487296  0.20496898  -0.00147802  1
  Ti  Ti146  1  0.78912968  0.59068369  0.26498440  1
  Ti  Ti147  1  0.30216699  0.90542425  0.37671531  1
  Ti  Ti148  1  0.79988567  0.79079515  0.25669746  1
  Ti  Ti149  1  0.87930083  0.29252583  0.37973249  1
  Ti  Ti150  1  0.51576583  0.31502502  0.37058740  1
  Ti  Ti151  1  0.49858467  0.69498727  0.60293117  1
  Ti  Ti152  1  0.07075933  0.29025935  0.38556164  1
  Ti  Ti153  1  0.59871226  0.20627741  0.00915139  1
  Ti  Ti154  1  -0.01055629  0.19411298  0.50881940  1
  Ti  Ti155  1  0.88474526  0.30232685  0.12366946  1
  Ti  Ti156  1  0.79854173  0.80166094  0.00775247  1
  Ti  Ti157  1  0.00931126  0.00138818  0.50398566  1
  Ti  Ti158  1  0.71233862  0.72451620  0.86869399  1
  Ti  Ti159  1  0.62328538  0.21080360  0.49436970  1
  Mo  Mo160  1  0.19318199  -0.01666410  0.26080986  1
  Mo  Mo161  1  0.11814411  0.90600395  0.13162994  1
  Mo  Mo162  1  0.60349075  0.41236456  0.25035677  1
  Mo  Mo163  1  0.09571393  0.69634657  0.36798760  1
  Mo  Mo164  1  0.50581143  0.29920371  0.11813017  1
  Mo  Mo165  1  0.10642286  0.90897221  0.37586432  1
  Mo  Mo166  1  -0.00822357  0.38435660  0.51768073  1
  Mo  Mo167  1  0.70794889  0.30963665  0.11357674  1
  Mo  Mo168  1  0.69972220  0.10069522  0.89690348  1
  Mo  Mo169  1  0.79625384  0.80283803  0.48713262  1
  Mo  Mo170  1  0.89332115  0.70046091  0.87488844  1
  Mo  Mo171  1  0.49810268  0.90610673  0.12755776  1
  Mo  Mo172  1  0.59777305  0.59390777  0.49674247  1
  Mo  Mo173  1  0.60724454  0.18736890  0.75793137  1
  Mo  Mo174  1  0.30261665  0.49763414  0.36430628  1
  Mo  Mo175  1  0.29172058  0.49125648  0.86513260  1
  Mo  Mo176  1  0.90911789  0.09060922  0.62891233  1
  Mo  Mo177  1  0.60635860  0.00281132  0.74360511  1
  Mo  Mo178  1  0.40462281  0.19540370  -0.00692108  1
  Mo  Mo179  1  0.39704346  0.40304913  0.49816640  1
  Mo  Mo180  1  0.50476855  0.70205997  0.38890498  1
  Mo  Mo181  1  0.09457558  0.10192974  0.12235552  1
  Mo  Mo182  1  -0.00691292  -0.00923606  0.74583934  1
  Mo  Mo183  1  0.69999589  0.30787707  0.37620985  1
  Mo  Mo184  1  0.49244411  0.30264798  0.63526180  1
  Mo  Mo185  1  0.19753187  0.60571087  0.27227611  1
  Mo  Mo186  1  0.78500637  0.39262541  0.25216398  1
  Mo  Mo187  1  0.79396380  0.80988643  0.74655457  1
  Mo  Mo188  1  0.09780508  0.69576387  0.62955262  1
  Mo  Mo189  1  0.79472449  0.18933073  0.49930610  1
  Mo  Mo190  1  0.29434995  0.70734136  0.13318366  1
  Mo  Mo191  1  0.80213581  0.20145367  0.76739313  1
  Mo  Mo192  1  0.89525489  0.49110893  0.61021482  1
  Mo  Mo193  1  0.30074380  0.89818646  0.87522395  1
  Mo  Mo194  1  0.58814595  0.40732642  0.74685934  1
  Mo  Mo195  1  0.39843400  0.59828337  0.50255414  1
  Mo  Mo196  1  0.20912903  -0.01321511  -0.01042324  1
  Mo  Mo197  1  0.82052922  0.21591176  0.24370931  1
  Mo  Mo198  1  0.51052373  0.50534118  0.12158073  1
  Mo  Mo199  1  0.51629246  0.89764789  0.60733394  1
