# generated using pymatgen
data_HfZrTaTiMo
_symmetry_space_group_name_H-M   'P 1'
_cell_length_a   15.19700469
_cell_length_b   15.21611925
_cell_length_c   16.86112739
_cell_angle_alpha   90.06341135
_cell_angle_beta   90.06841378
_cell_angle_gamma   90.03055629
_symmetry_Int_Tables_number   1
_chemical_formula_structural   HfZrTaTiMo
_chemical_formula_sum   'Hf40 Zr40 Ta40 Ti40 Mo40'
_cell_volume   3898.95185640
_cell_formula_units_Z   40
loop_
 _symmetry_equiv_pos_site_id
 _symmetry_equiv_pos_as_xyz
  1  'x, y, z'
loop_
 _atom_site_type_symbol
 _atom_site_label
 _atom_site_symmetry_multiplicity
 _atom_site_fract_x
 _atom_site_fract_y
 _atom_site_fract_z
 _atom_site_occupancy
  Hf  Hf0  1  0.89100427  0.71390863  0.63509611  1
  Hf  Hf1  1  0.41059935  0.18219100  0.25470020  1
  Hf  Hf2  1  0.59142455  0.78843022  0.75029599  1
  Hf  Hf3  1  0.10109024  0.10123629  0.12149918  1
  Hf  Hf4  1  0.69341989  0.49930228  0.62040487  1
  Hf  Hf5  1  0.90525724  0.48228880  0.36755201  1
  Hf  Hf6  1  0.10107640  0.28417171  0.62539927  1
  Hf  Hf7  1  0.59995100  0.01218248  0.50146857  1
  Hf  Hf8  1  0.71019396  0.89114442  0.63225703  1
  Hf  Hf9  1  0.79277127  0.59689805  0.75233760  1
  Hf  Hf10  1  0.29866034  0.30175935  0.36688190  1
  Hf  Hf11  1  0.70166984  0.70505436  0.88742844  1
  Hf  Hf12  1  0.38683079  0.19897348  0.77449872  1
  Hf  Hf13  1  0.59574951  0.20258173  0.76419277  1
  Hf  Hf14  1  0.90757811  0.69065268  0.13052709  1
  Hf  Hf15  1  0.60117354  0.81911194  0.00489922  1
  Hf  Hf16  1  0.29551499  0.68226482  0.60510721  1
  Hf  Hf17  1  0.89396213  0.88758809  0.87155386  1
  Hf  Hf18  1  0.68515992  0.08579979  0.11918351  1
  Hf  Hf19  1  0.10491259  0.89835126  0.12519741  1
  Hf  Hf20  1  0.90103819  0.49495869  0.62421470  1
  Hf  Hf21  1  0.02127156  0.60169898  0.74657713  1
  Hf  Hf22  1  0.78590105  -0.00961623  0.24834377  1
  Hf  Hf23  1  0.31270785  0.50438955  0.36530699  1
  Hf  Hf24  1  0.69917374  0.90103164  0.37664200  1
  Hf  Hf25  1  -0.00775145  -0.00233955  -0.00429125  1
  Hf  Hf26  1  0.11139679  0.70951209  0.88228938  1
  Hf  Hf27  1  0.90257194  0.69148328  0.86975959  1
  Hf  Hf28  1  0.52133806  0.30734109  0.35558299  1
  Hf  Hf29  1  0.20373406  0.20024173  0.24278299  1
  Hf  Hf30  1  0.28605429  0.88501051  0.87318735  1
  Hf  Hf31  1  0.59024607  0.59180445  0.47627270  1
  Hf  Hf32  1  0.89074513  0.10838148  0.36776598  1
  Hf  Hf33  1  0.60509806  0.40356332  0.02082030  1
  Hf  Hf34  1  0.00299475  -0.00101464  0.25099566  1
  Hf  Hf35  1  0.00833002  0.39227584  0.74622140  1
  Hf  Hf36  1  0.40535838  0.20518108  0.48567010  1
  Hf  Hf37  1  -0.00998655  0.20580761  -0.01166836  1
  Hf  Hf38  1  0.80002469  0.59545608  0.24939011  1
  Hf  Hf39  1  0.72418360  0.29210805  0.35708335  1
  Zr  Zr40  1  0.50577517  0.30775301  0.62195182  1
  Zr  Zr41  1  0.59935323  0.79478928  0.49040763  1
  Zr  Zr42  1  0.20405555  0.19683573  -0.00431364  1
  Zr  Zr43  1  0.71390617  0.29900214  0.62807601  1
  Zr  Zr44  1  0.91680343  0.11027986  0.62759866  1
  Zr  Zr45  1  0.69718064  0.70519790  0.12218382  1
  Zr  Zr46  1  0.48034684  0.90834810  0.37793591  1
  Zr  Zr47  1  0.50770923  0.51595011  0.12883617  1
  Zr  Zr48  1  0.00028508  0.60598906  0.50831183  1
  Zr  Zr49  1  0.01282689  0.01876697  0.49878793  1
  Zr  Zr50  1  0.49151490  0.89257794  0.62539620  1
  Zr  Zr51  1  0.81442108  0.20101677  0.76248245  1
  Zr  Zr52  1  0.39413349  0.60053582  0.75057109  1
  Zr  Zr53  1  0.89164163  0.09521027  0.12650666  1
  Zr  Zr54  1  0.60027311  0.41264781  0.75575478  1
  Zr  Zr55  1  0.49050793  0.11103885  0.63348474  1
  Zr  Zr56  1  0.10764727  0.90175819  0.37775578  1
  Zr  Zr57  1  0.12681637  0.50093496  0.88781859  1
  Zr  Zr58  1  0.00049828  0.21392748  0.25397836  1
  Zr  Zr59  1  0.69852605  0.50682248  0.88630130  1
  Zr  Zr60  1  0.19592578  0.78923339  0.74138495  1
  Zr  Zr61  1  0.00017524  0.79673117  0.00476332  1
  Zr  Zr62  1  0.30218295  0.29341636  0.62508010  1
  Zr  Zr63  1  0.38845772  0.00707909  0.51186582  1
  Zr  Zr64  1  0.78949283  0.59603343  0.48653766  1
  Zr  Zr65  1  0.00679961  0.78999987  0.24747951  1
  Zr  Zr66  1  0.69585688  0.90426695  0.86078104  1
  Zr  Zr67  1  0.58907895  0.60805867  0.26415511  1
  Zr  Zr68  1  0.39170692  0.79903752  0.24740699  1
  Zr  Zr69  1  0.39085918  0.40829770  0.01223973  1
  Zr  Zr70  1  0.10830390  0.50700408  0.37294976  1
  Zr  Zr71  1  0.70119937  0.09754008  0.63279242  1
  Zr  Zr72  1  0.39136754  0.79507179  0.00244602  1
  Zr  Zr73  1  0.81270685  0.39149070  0.01491726  1
  Zr  Zr74  1  0.38264287  -0.00556577  0.75319115  1
  Zr  Zr75  1  0.28847910  0.70325707  0.39534354  1
  Zr  Zr76  1  0.70698207  0.30373140  0.88141506  1
  Zr  Zr77  1  0.90592219  0.69897597  0.36900461  1
  Zr  Zr78  1  0.39777019  0.40670986  0.75660843  1
  Zr  Zr79  1  0.48731783  0.10561956  0.11110423  1
  Ta  Ta80  1  0.28659708  0.31983930  0.88406467  1
  Ta  Ta81  1  0.68871156  0.10589039  0.36842442  1
  Ta  Ta82  1  0.69653460  0.09136457  0.88107497  1
  Ta  Ta83  1  0.80158656  0.79864800  0.49657718  1
  Ta  Ta84  1  0.87630233  0.88540187  0.12648357  1
  Ta  Ta85  1  0.27590614  0.89529900  0.61495312  1
  Ta  Ta86  1  0.00325708  0.59093804  -0.00048654  1
  Ta  Ta87  1  0.81058834  0.38675893  0.49543166  1
  Ta  Ta88  1  0.69024460  0.69458309  0.62422714  1
  Ta  Ta89  1  0.79439542  0.18842003  -0.00308797  1
  Ta  Ta90  1  0.50036304  0.09336696  0.88469420  1
  Ta  Ta91  1  0.17274084  0.00340541  0.76080082  1
  Ta  Ta92  1  0.80504326  0.19676450  0.49884585  1
  Ta  Ta93  1  0.39705669  0.20284729  -0.01276838  1
  Ta  Ta94  1  0.49871539  0.91146872  0.12818037  1
  Ta  Ta95  1  -0.00723417  0.81770045  0.51056649  1
  Ta  Ta96  1  0.60291960  0.81006891  0.25194800  1
  Ta  Ta97  1  0.01184159  0.40678018  0.23786732  1
  Ta  Ta98  1  0.69431759  0.48190729  0.35748794  1
  Ta  Ta99  1  0.80302034  0.59577789  0.00944324  1
  Ta  Ta100  1  0.49826656  0.31002016  0.88632642  1
  Ta  Ta101  1  0.81228852  0.40035880  0.75567194  1
  Ta  Ta102  1  0.20087122  0.61315080  0.24476224  1
  Ta  Ta103  1  0.19492940  -0.01027399  -0.01448598  1
  Ta  Ta104  1  0.80886471  0.39030286  0.23073766  1
  Ta  Ta105  1  0.91380203  0.48508719  0.88245301  1
  Ta  Ta106  1  0.59692111  0.20317276  -0.00370388  1
  Ta  Ta107  1  0.49192811  0.50593844  0.61426122  1
  Ta  Ta108  1  0.20833639  0.39877583  0.50148338  1
  Ta  Ta109  1  0.00875217  0.39794860  0.50661729  1
  Ta  Ta110  1  0.57590094  0.01111804  0.25701849  1
  Ta  Ta111  1  0.49550371  0.69346037  0.61081070  1
  Ta  Ta112  1  0.20592127  0.40258405  0.23201333  1
  Ta  Ta113  1  0.29971288  0.08634812  0.37338766  1
  Ta  Ta114  1  0.89959850  0.89931008  0.37579233  1
  Ta  Ta115  1  0.60977304  0.39919597  0.48973744  1
  Ta  Ta116  1  0.10879483  0.50737331  0.11793498  1
  Ta  Ta117  1  0.09464336  0.31234631  0.88577959  1
  Ta  Ta118  1  0.80719081  -0.00302766  0.50074053  1
  Ta  Ta119  1  0.01255470  0.18933596  0.77012851  1
  Ti  Ti120  1  0.10209758  0.31074500  0.37415136  1
  Ti  Ti121  1  -0.00299009  0.21692649  0.48826109  1
  Ti  Ti122  1  0.12325036  0.50712995  0.62055757  1
  Ti  Ti123  1  0.31225077  0.29133295  0.12583517  1
  Ti  Ti124  1  0.21456790  -0.00403951  0.24920928  1
  Ti  Ti125  1  0.20391482  0.80235006  0.24938778  1
  Ti  Ti126  1  0.29100665  0.89563646  0.39471187  1
  Ti  Ti127  1  0.11010627  0.10649503  0.36865514  1
  Ti  Ti128  1  0.41070241  0.40273027  0.23788839  1
  Ti  Ti129  1  0.10159864  0.70478880  0.38697212  1
  Ti  Ti130  1  0.47865283  0.69857759  0.37981761  1
  Ti  Ti131  1  0.30143996  0.68125371  0.87529583  1
  Ti  Ti132  1  0.39302113  -0.00126386  -0.01115865  1
  Ti  Ti133  1  0.29832535  0.08587472  0.11879569  1
  Ti  Ti134  1  0.00188473  0.82636880  0.73763501  1
  Ti  Ti135  1  0.49437122  0.89793340  0.87092507  1
  Ti  Ti136  1  0.58810444  0.59994431  0.75031053  1
  Ti  Ti137  1  0.39516878  0.79222229  0.74767285  1
  Ti  Ti138  1  0.19618157  0.19049903  0.49452942  1
  Ti  Ti139  1  0.69641423  0.28507160  0.13483098  1
  Ti  Ti140  1  0.41153735  0.40854002  0.49038098  1
  Ti  Ti141  1  0.22463342  0.60505128  0.00942965  1
  Ti  Ti142  1  0.49952267  0.69794859  0.88553321  1
  Ti  Ti143  1  0.10299064  0.30863092  0.11157731  1
  Ti  Ti144  1  0.49480380  0.51185984  0.89314251  1
  Ti  Ti145  1  0.29909705  0.89765970  0.11772454  1
  Ti  Ti146  1  0.27693859  0.09918210  0.63146622  1
  Ti  Ti147  1  0.81457982  -0.00630406  0.74508549  1
  Ti  Ti148  1  0.89270413  0.09002135  0.87684340  1
  Ti  Ti149  1  0.78176570  -0.02138839  0.00297498  1
  Ti  Ti150  1  0.58972241  0.00180884  0.74994185  1
  Ti  Ti151  1  0.90712139  0.29102504  0.12485751  1
  Ti  Ti152  1  0.48943246  0.70547383  0.12535308  1
  Ti  Ti153  1  0.19552181  0.20009312  0.77086252  1
  Ti  Ti154  1  0.60815466  0.20799100  0.49542888  1
  Ti  Ti155  1  0.10267890  0.71017302  0.61480216  1
  Ti  Ti156  1  0.30689308  0.51842243  0.13677396  1
  Ti  Ti157  1  0.20620218  0.41086463  0.74628969  1
  Ti  Ti158  1  0.11404288  0.69717983  0.11758203  1
  Ti  Ti159  1  0.91247250  0.49696141  0.12590977  1
  Mo  Mo160  1  0.79821390  0.79629963  0.74462448  1
  Mo  Mo161  1  0.09599762  0.09862910  0.88253342  1
  Mo  Mo162  1  0.91224338  0.30533504  0.37176998  1
  Mo  Mo163  1  0.20770834  0.40290819  0.02389207  1
  Mo  Mo164  1  0.50008237  0.49054994  0.36208987  1
  Mo  Mo165  1  0.59494197  0.61015742  0.00349121  1
  Mo  Mo166  1  0.39499135  0.79876961  0.50481063  1
  Mo  Mo167  1  0.19891045  0.01154099  0.49978801  1
  Mo  Mo168  1  0.01521164  0.59172293  0.24171997  1
  Mo  Mo169  1  0.50281204  0.10488748  0.37886377  1
  Mo  Mo170  1  0.60588457  0.19602770  0.24272074  1
  Mo  Mo171  1  0.70055091  0.70381634  0.36592488  1
  Mo  Mo172  1  0.89830259  0.90862966  0.62111728  1
  Mo  Mo173  1  0.20016948  0.79861027  0.00363212  1
  Mo  Mo174  1  0.61219351  0.40023224  0.22828469  1
  Mo  Mo175  1  0.11125770  0.10718118  0.63156254  1
  Mo  Mo176  1  0.18384995  0.80391016  0.51013056  1
  Mo  Mo177  1  -0.00429707  0.00534518  0.75822556  1
  Mo  Mo178  1  0.30369058  0.50332781  0.88195425  1
  Mo  Mo179  1  0.40646243  0.60512839  -0.00089612  1
  Mo  Mo180  1  0.29636317  0.70201971  0.12806230  1
  Mo  Mo181  1  0.38568459  -0.00551667  0.24644717  1
  Mo  Mo182  1  0.19278671  0.58857930  0.49858898  1
  Mo  Mo183  1  0.80377781  0.79800048  0.00335799  1
  Mo  Mo184  1  0.68726308  0.90015494  0.13256218  1
  Mo  Mo185  1  0.90591962  0.30220919  0.87811294  1
  Mo  Mo186  1  0.58837891  0.00020148  -0.00738115  1
  Mo  Mo187  1  0.00697993  0.40128531  0.01224230  1
  Mo  Mo188  1  0.90731276  0.30296312  0.62211345  1
  Mo  Mo189  1  0.39273257  0.60602242  0.25089225  1
  Mo  Mo190  1  0.20297117  0.59120676  0.74637046  1
  Mo  Mo191  1  0.09136470  0.89862414  0.87459754  1
  Mo  Mo192  1  0.09326607  0.91472820  0.62568625  1
  Mo  Mo193  1  0.29590401  0.09787364  0.87834129  1
  Mo  Mo194  1  0.79327863  0.79698266  0.25916463  1
  Mo  Mo195  1  0.79994760  0.19524187  0.23840881  1
  Mo  Mo196  1  0.40115240  0.59032664  0.49654938  1
  Mo  Mo197  1  0.71147356  0.50185562  0.13169353  1
  Mo  Mo198  1  0.30292103  0.48753902  0.61325939  1
  Mo  Mo199  1  0.50311638  0.29862643  0.13153106  1
