# generated using pymatgen
data_HfZrTaTiMo
_symmetry_space_group_name_H-M   'P 1'
_cell_length_a   15.21555418
_cell_length_b   15.20952040
_cell_length_c   16.80692972
_cell_angle_alpha   89.98657065
_cell_angle_beta   89.99742517
_cell_angle_gamma   90.04233604
_symmetry_Int_Tables_number   1
_chemical_formula_structural   HfZrTaTiMo
_chemical_formula_sum   'Hf40 Zr40 Ta40 Ti40 Mo40'
_cell_volume   3889.48004586
_cell_formula_units_Z   40
loop_
 _symmetry_equiv_pos_site_id
 _symmetry_equiv_pos_as_xyz
  1  'x, y, z'
loop_
 _atom_site_type_symbol
 _atom_site_label
 _atom_site_symmetry_multiplicity
 _atom_site_fract_x
 _atom_site_fract_y
 _atom_site_fract_z
 _atom_site_occupancy
  Hf  Hf0  1  0.06841907  0.30098284  0.62673568  1
  Hf  Hf1  1  0.40559954  0.00033397  0.24738368  1
  Hf  Hf2  1  0.19365526  0.40533930  0.50552986  1
  Hf  Hf3  1  0.71584565  0.68929512  0.13799654  1
  Hf  Hf4  1  0.00447671  -0.00171445  0.24493992  1
  Hf  Hf5  1  0.38740066  0.18893888  0.50532121  1
  Hf  Hf6  1  0.71508185  0.09911938  0.61371281  1
  Hf  Hf7  1  0.30477675  0.50599889  0.37126382  1
  Hf  Hf8  1  0.29904305  0.90481563  0.12209482  1
  Hf  Hf9  1  0.11376236  0.70401938  0.85974188  1
  Hf  Hf10  1  0.40035358  0.39852550  0.75337233  1
  Hf  Hf11  1  0.50029292  0.69583636  0.37993370  1
  Hf  Hf12  1  0.78889852  0.41496599  0.00847792  1
  Hf  Hf13  1  -0.01043228  0.41503241  0.25582349  1
  Hf  Hf14  1  0.41226311  0.59331244  0.75752655  1
  Hf  Hf15  1  0.67833867  0.30512616  0.88648688  1
  Hf  Hf16  1  0.30726202  0.11418858  0.12954660  1
  Hf  Hf17  1  0.90714228  0.51852920  0.12312706  1
  Hf  Hf18  1  0.47806131  0.29055129  0.11726384  1
  Hf  Hf19  1  0.18533896  0.60588103  0.24673767  1
  Hf  Hf20  1  0.59061861  0.39069952  0.75172529  1
  Hf  Hf21  1  0.78410321  0.40961542  0.48298190  1
  Hf  Hf22  1  0.49578894  0.08622070  0.38131709  1
  Hf  Hf23  1  0.01350236  0.00411079  0.74365446  1
  Hf  Hf24  1  0.70492005  0.89497978  0.12881098  1
  Hf  Hf25  1  0.30427792  0.70362910  0.13478066  1
  Hf  Hf26  1  0.59160915  0.18744140  0.00511965  1
  Hf  Hf27  1  0.50074979  0.67828248  0.60742105  1
  Hf  Hf28  1  0.79543693  0.21263310  0.25022392  1
  Hf  Hf29  1  -0.00122936  0.21181732  0.01041721  1
  Hf  Hf30  1  0.39856459  0.00541145  -0.00034572  1
  Hf  Hf31  1  0.50207562  0.09505022  0.86758102  1
  Hf  Hf32  1  0.29360625  0.10964709  0.36541049  1
  Hf  Hf33  1  0.08470788  0.29183088  0.37564078  1
  Hf  Hf34  1  0.09021737  0.10519000  0.88511253  1
  Hf  Hf35  1  0.28202991  0.30097685  0.86640180  1
  Hf  Hf36  1  0.30099913  0.70407034  0.37185991  1
  Hf  Hf37  1  0.60950161  -0.01879307  0.49976749  1
  Hf  Hf38  1  0.70122584  0.09953127  0.37011842  1
  Hf  Hf39  1  0.20489328  0.21195213  0.00575168  1
  Zr  Zr40  1  0.90022870  0.89552156  0.11195736  1
  Zr  Zr41  1  0.90205215  0.49173137  0.63505497  1
  Zr  Zr42  1  0.31927475  0.90633762  0.38854253  1
  Zr  Zr43  1  0.91231373  0.10801900  0.37149653  1
  Zr  Zr44  1  0.89611717  0.29913360  0.87031527  1
  Zr  Zr45  1  0.18461489  0.41764995  0.73875122  1
  Zr  Zr46  1  0.79641903  0.01139229  -0.00705939  1
  Zr  Zr47  1  0.29638082  0.29872476  0.63506877  1
  Zr  Zr48  1  0.01198484  0.79167533  0.25447458  1
  Zr  Zr49  1  0.41258158  0.59606031  -0.00508383  1
  Zr  Zr50  1  0.81177393  0.62045778  -0.00836012  1
  Zr  Zr51  1  0.10625366  0.90378336  0.38767718  1
  Zr  Zr52  1  0.91198627  0.89929822  0.88164292  1
  Zr  Zr53  1  0.10106116  0.89559915  0.10386224  1
  Zr  Zr54  1  0.50286843  0.48676722  0.37455097  1
  Zr  Zr55  1  0.08822588  0.51556289  0.38574437  1
  Zr  Zr56  1  0.18945349  0.39798754  0.24629389  1
  Zr  Zr57  1  0.50770056  0.68358863  0.13766506  1
  Zr  Zr58  1  0.61026029  0.78409351  0.00447211  1
  Zr  Zr59  1  0.69780374  0.89783008  0.87682472  1
  Zr  Zr60  1  0.20899352  0.01041756  0.52448437  1
  Zr  Zr61  1  0.78787688  0.41283510  0.25366181  1
  Zr  Zr62  1  0.11318810  0.90458411  0.88495960  1
  Zr  Zr63  1  0.90642492  0.49588371  0.85958913  1
  Zr  Zr64  1  0.49689701  0.87481935  0.60982987  1
  Zr  Zr65  1  0.70201994  0.49871361  0.63377839  1
  Zr  Zr66  1  0.02589812  0.58541896  0.73953545  1
  Zr  Zr67  1  0.20673147  0.61298284  0.51550924  1
  Zr  Zr68  1  0.21336820  0.59727451  -0.00166399  1
  Zr  Zr69  1  0.77947656  0.19319719  0.76236492  1
  Zr  Zr70  1  0.60995830  -0.00787280  0.74035225  1
  Zr  Zr71  1  0.49568504  0.09224878  0.62107217  1
  Zr  Zr72  1  0.29300752  0.09463415  0.86601621  1
  Zr  Zr73  1  0.90030519  0.90934286  0.61739306  1
  Zr  Zr74  1  0.70076077  0.71205412  0.62857557  1
  Zr  Zr75  1  0.71064020  0.70021309  0.85846392  1
  Zr  Zr76  1  0.87581921  0.29621873  0.63484573  1
  Zr  Zr77  1  0.81107575  0.61204765  0.49316870  1
  Zr  Zr78  1  0.79330422  0.20249899  0.00363464  1
  Zr  Zr79  1  0.18614152  0.20269327  0.51049103  1
  Ta  Ta80  1  0.39248033  -0.02122172  0.74454856  1
  Ta  Ta81  1  0.81139082  0.80093296  0.26255823  1
  Ta  Ta82  1  0.81094549  0.00930342  0.75754820  1
  Ta  Ta83  1  0.59567098  -0.00581980  0.00362763  1
  Ta  Ta84  1  0.31697592  0.51004530  0.61904551  1
  Ta  Ta85  1  0.60051097  -0.01040841  0.25244325  1
  Ta  Ta86  1  0.10035702  0.09847375  0.37570885  1
  Ta  Ta87  1  0.49283733  0.88833369  0.87542192  1
  Ta  Ta88  1  0.09317582  0.68851538  0.11564807  1
  Ta  Ta89  1  0.61265615  0.58597501  0.48983128  1
  Ta  Ta90  1  0.59295705  0.38954025  0.24233630  1
  Ta  Ta91  1  0.49851259  0.29722259  0.61777213  1
  Ta  Ta92  1  0.37575307  0.39666003  -0.00023183  1
  Ta  Ta93  1  0.50271785  0.89317408  0.12442385  1
  Ta  Ta94  1  0.50989712  0.69444404  0.87680715  1
  Ta  Ta95  1  0.59899178  0.59326183  0.75164334  1
  Ta  Ta96  1  0.81708769  0.60384522  0.26841168  1
  Ta  Ta97  1  0.70302502  0.49951691  0.86381067  1
  Ta  Ta98  1  0.30824108  0.50084687  0.13426704  1
  Ta  Ta99  1  0.89969415  0.31155124  0.12486785  1
  Ta  Ta100  1  0.17357840  0.18875666  0.74068071  1
  Ta  Ta101  1  0.20764685  0.80691679  0.51872388  1
  Ta  Ta102  1  0.31561098  0.71685041  0.63748584  1
  Ta  Ta103  1  0.89842769  0.10247505  0.13192808  1
  Ta  Ta104  1  0.80237567  0.21205103  0.48606591  1
  Ta  Ta105  1  0.91166058  0.70328398  0.84682917  1
  Ta  Ta106  1  0.00616653  0.60722442  0.52096478  1
  Ta  Ta107  1  0.58540401  0.19660807  0.24826677  1
  Ta  Ta108  1  0.31194509  0.71414844  0.86199645  1
  Ta  Ta109  1  0.69596579  0.09725893  0.13883979  1
  Ta  Ta110  1  0.68585468  0.29888720  0.61706538  1
  Ta  Ta111  1  0.90537898  0.70594152  0.64264786  1
  Ta  Ta112  1  0.01598667  0.58628781  -0.01491243  1
  Ta  Ta113  1  0.59876022  0.20213200  0.49461678  1
  Ta  Ta114  1  0.90412735  0.89954851  0.38671798  1
  Ta  Ta115  1  0.67863277  0.30566905  0.37312723  1
  Ta  Ta116  1  0.70397437  0.89536502  0.37064865  1
  Ta  Ta117  1  0.40369900  0.79752257  -0.00130342  1
  Ta  Ta118  1  0.41137453  0.80375986  0.25308462  1
  Ta  Ta119  1  0.39729881  0.39443239  0.49831974  1
  Ti  Ti120  1  0.28941181  0.30730830  0.13213919  1
  Ti  Ti121  1  0.10652187  0.71778277  0.64141446  1
  Ti  Ti122  1  0.29924417  0.89706909  0.87359471  1
  Ti  Ti123  1  0.21680027  0.60611931  0.74032095  1
  Ti  Ti124  1  0.79381568  0.80950347  0.50072045  1
  Ti  Ti125  1  -0.01873694  0.39697779  0.49064999  1
  Ti  Ti126  1  0.91787467  0.70321128  0.38241150  1
  Ti  Ti127  1  0.50950279  0.48675553  0.88816801  1
  Ti  Ti128  1  0.50163517  0.09353825  0.12923674  1
  Ti  Ti129  1  0.91464117  0.11119317  0.61472225  1
  Ti  Ti130  1  0.21005988  0.79438982  -0.00191806  1
  Ti  Ti131  1  0.00283763  0.20710767  0.23552147  1
  Ti  Ti132  1  0.68501672  0.30715884  0.12112398  1
  Ti  Ti133  1  0.00336631  0.80161040  0.51139927  1
  Ti  Ti134  1  0.81099962  0.00508960  0.49194618  1
  Ti  Ti135  1  0.60424597  0.79935512  0.25553165  1
  Ti  Ti136  1  -0.00486906  0.77754298  -0.00872896  1
  Ti  Ti137  1  0.59013548  0.19775222  0.74798137  1
  Ti  Ti138  1  0.20364054  0.81002015  0.25079686  1
  Ti  Ti139  1  0.90823312  0.70794585  0.12852108  1
  Ti  Ti140  1  0.17286722  0.40769379  0.01200346  1
  Ti  Ti141  1  0.61116061  0.58363977  0.25487813  1
  Ti  Ti142  1  0.29273874  0.50186627  0.87276005  1
  Ti  Ti143  1  0.61653251  0.57866132  0.00369863  1
  Ti  Ti144  1  0.39874365  0.39652640  0.24904706  1
  Ti  Ti145  1  0.50626704  0.48662011  0.61016900  1
  Ti  Ti146  1  0.80476690  -0.00354364  0.25300255  1
  Ti  Ti147  1  0.39639213  0.19321478  0.74463219  1
  Ti  Ti148  1  0.19625813  0.00089751  0.24724746  1
  Ti  Ti149  1  0.80163693  0.81698458  0.74199180  1
  Ti  Ti150  1  0.47992956  0.29480693  0.89094136  1
  Ti  Ti151  1  0.50430115  0.48726522  0.12360439  1
  Ti  Ti152  1  0.59046736  0.79519455  0.74853682  1
  Ti  Ti153  1  0.18974502  0.19886342  0.24228499  1
  Ti  Ti154  1  0.48526669  0.28841862  0.37334672  1
  Ti  Ti155  1  0.10492897  0.70932591  0.38865166  1
  Ti  Ti156  1  0.08594002  0.31566995  0.86803867  1
  Ti  Ti157  1  0.70330895  0.70151202  0.37255194  1
  Ti  Ti158  1  0.29516985  0.30269685  0.36981887  1
  Ti  Ti159  1  0.10246200  0.09529296  0.11505110  1
  Mo  Mo160  1  0.40229167  -0.00501245  0.50511899  1
  Mo  Mo161  1  -0.01020038  0.19991418  0.49522263  1
  Mo  Mo162  1  0.21296828  0.81890293  0.73999503  1
  Mo  Mo163  1  -0.00094665  0.01596854  0.00987379  1
  Mo  Mo164  1  0.39643219  0.21047613  0.25631162  1
  Mo  Mo165  1  0.90108130  0.09856712  0.87412647  1
  Mo  Mo166  1  -0.00152739  0.38897130  0.74855863  1
  Mo  Mo167  1  0.69237937  0.50457525  0.13047460  1
  Mo  Mo168  1  -0.00350183  0.61187448  0.25264947  1
  Mo  Mo169  1  0.39360972  0.20466630  -0.00428500  1
  Mo  Mo170  1  0.69339179  0.50798082  0.36984442  1
  Mo  Mo171  1  0.30039423  0.09956162  0.64591517  1
  Mo  Mo172  1  0.51195303  0.88864968  0.37684492  1
  Mo  Mo173  1  0.09880066  0.50377678  0.12349029  1
  Mo  Mo174  1  0.81177281  0.79402202  -0.00260210  1
  Mo  Mo175  1  0.90250652  0.51175367  0.38491590  1
  Mo  Mo176  1  0.69070621  0.09809862  0.87337407  1
  Mo  Mo177  1  0.08791543  0.10037957  0.62467893  1
  Mo  Mo178  1  0.11231046  0.49409236  0.87587677  1
  Mo  Mo179  1  0.40101783  0.59245653  0.50167149  1
  Mo  Mo180  1  0.61579235  0.78638835  0.48764330  1
  Mo  Mo181  1  0.09823439  0.89622269  0.62112385  1
  Mo  Mo182  1  0.00569480  0.80360148  0.74414647  1
  Mo  Mo183  1  0.10295103  0.50059864  0.60925145  1
  Mo  Mo184  1  0.00354467  0.00571790  0.50091742  1
  Mo  Mo185  1  0.09251126  0.30074234  0.13183948  1
  Mo  Mo186  1  0.80255875  0.60610282  0.74869426  1
  Mo  Mo187  1  0.58478614  0.40400766  0.00631982  1
  Mo  Mo188  1  0.89270859  0.30470056  0.37239351  1
  Mo  Mo189  1  0.30680644  0.89946304  0.62475773  1
  Mo  Mo190  1  -0.01257714  0.19220213  0.75728747  1
  Mo  Mo191  1  0.40397741  0.59187028  0.24327229  1
  Mo  Mo192  1  0.70924623  0.90362361  0.62483773  1
  Mo  Mo193  1  0.39782400  0.79168541  0.49657670  1
  Mo  Mo194  1  0.41110416  0.79399459  0.75613254  1
  Mo  Mo195  1  0.78282038  0.39959732  0.75492813  1
  Mo  Mo196  1  -0.00123612  0.40438726  0.00526239  1
  Mo  Mo197  1  0.20409124  0.00010404  0.73634487  1
  Mo  Mo198  1  0.59274563  0.38950922  0.49795146  1
  Mo  Mo199  1  0.20194653  0.00265929  0.00144940  1
