# generated using pymatgen
data_HfZrTaTiMo
_symmetry_space_group_name_H-M   'P 1'
_cell_length_a   15.20439647
_cell_length_b   15.20215790
_cell_length_c   16.86663178
_cell_angle_alpha   90.00302818
_cell_angle_beta   89.97342561
_cell_angle_gamma   89.97511810
_symmetry_Int_Tables_number   1
_chemical_formula_structural   HfZrTaTiMo
_chemical_formula_sum   'Hf40 Zr40 Ta40 Ti40 Mo40'
_cell_volume   3898.54633573
_cell_formula_units_Z   40
loop_
 _symmetry_equiv_pos_site_id
 _symmetry_equiv_pos_as_xyz
  1  'x, y, z'
loop_
 _atom_site_type_symbol
 _atom_site_label
 _atom_site_symmetry_multiplicity
 _atom_site_fract_x
 _atom_site_fract_y
 _atom_site_fract_z
 _atom_site_occupancy
  Hf  Hf0  1  0.10116291  0.49693080  0.11988811  1
  Hf  Hf1  1  0.30127542  0.70713609  0.37044557  1
  Hf  Hf2  1  0.68829107  0.90940995  0.39092552  1
  Hf  Hf3  1  0.39703826  0.59530366  -0.00016345  1
  Hf  Hf4  1  0.29893845  0.49366902  0.13037057  1
  Hf  Hf5  1  0.60077522  0.59553036  0.00016009  1
  Hf  Hf6  1  0.81639481  0.60869462  0.24806663  1
  Hf  Hf7  1  0.90903068  0.09829849  0.63509768  1
  Hf  Hf8  1  0.50729167  0.10375202  0.86756107  1
  Hf  Hf9  1  0.09798970  0.50553411  0.88725474  1
  Hf  Hf10  1  0.40148483  0.59943666  0.25584462  1
  Hf  Hf11  1  0.50312313  0.69763385  0.86416211  1
  Hf  Hf12  1  0.88826460  0.91016066  0.87790278  1
  Hf  Hf13  1  0.29961275  0.29122901  0.12622172  1
  Hf  Hf14  1  0.88861818  0.49803941  0.87031347  1
  Hf  Hf15  1  0.78021937  0.00479242  0.00828080  1
  Hf  Hf16  1  0.82132133  0.40042809  0.49266203  1
  Hf  Hf17  1  0.40055574  0.38323127  0.75015476  1
  Hf  Hf18  1  0.79249700  0.81281411  0.26011717  1
  Hf  Hf19  1  0.70074944  0.11472997  0.62439373  1
  Hf  Hf20  1  0.28110170  0.10206054  0.38368580  1
  Hf  Hf21  1  0.69208270  0.70235140  0.38744358  1
  Hf  Hf22  1  -0.01516570  0.01848322  0.00418944  1
  Hf  Hf23  1  0.29297775  0.49006109  0.61915669  1
  Hf  Hf24  1  0.89246766  0.89877505  0.12788404  1
  Hf  Hf25  1  0.79664239  0.80315717  0.74584287  1
  Hf  Hf26  1  0.00331470  0.79287537  0.24665186  1
  Hf  Hf27  1  -0.00007599  0.00517142  0.23943474  1
  Hf  Hf28  1  0.82607795  0.19196642  -0.00391632  1
  Hf  Hf29  1  0.28009345  0.09899179  0.61292957  1
  Hf  Hf30  1  0.28410257  0.09817737  0.12590740  1
  Hf  Hf31  1  0.18521913  0.60035724  0.25136672  1
  Hf  Hf32  1  0.70836854  0.30154393  0.85738316  1
  Hf  Hf33  1  0.09777115  0.11556598  0.88824804  1
  Hf  Hf34  1  0.80061014  0.39423843  0.00018307  1
  Hf  Hf35  1  0.68499076  0.89832781  0.86767274  1
  Hf  Hf36  1  0.40097186  0.39053816  -0.00899360  1
  Hf  Hf37  1  0.70127237  0.91070409  0.61247926  1
  Hf  Hf38  1  0.39105879  0.19410055  0.26629774  1
  Hf  Hf39  1  0.71576586  0.28849833  0.13463822  1
  Zr  Zr40  1  0.70350983  0.69757767  0.61048561  1
  Zr  Zr41  1  0.61541589  0.18978830  0.00118624  1
  Zr  Zr42  1  0.10116706  0.70169585  0.62862602  1
  Zr  Zr43  1  0.59505835  -0.00332470  0.25652564  1
  Zr  Zr44  1  0.79983541  0.60285444  0.01088566  1
  Zr  Zr45  1  0.29618965  0.69436703  0.85922078  1
  Zr  Zr46  1  0.61153743  0.39137086  0.50388856  1
  Zr  Zr47  1  0.19097370  -0.00366665  0.76581022  1
  Zr  Zr48  1  0.00980772  0.81131059  0.00571852  1
  Zr  Zr49  1  0.50153062  0.49226430  0.13342737  1
  Zr  Zr50  1  0.49958885  0.71376459  0.13324257  1
  Zr  Zr51  1  0.49149163  0.90066215  0.86715064  1
  Zr  Zr52  1  0.49192983  0.12059092  0.60960360  1
  Zr  Zr53  1  0.38784426  0.79947582  -0.00459356  1
  Zr  Zr54  1  0.50334077  0.29669200  0.12665050  1
  Zr  Zr55  1  0.39025984  0.81322232  0.74303372  1
  Zr  Zr56  1  0.70560361  0.69188727  0.87046318  1
  Zr  Zr57  1  0.01272312  0.81866505  0.49523699  1
  Zr  Zr58  1  0.40082633  0.59689470  0.49775158  1
  Zr  Zr59  1  0.60269479  0.38782126  0.73424157  1
  Zr  Zr60  1  0.10751666  0.70852645  0.87582676  1
  Zr  Zr61  1  0.39644646  -0.01226404  0.49891539  1
  Zr  Zr62  1  0.61147268  0.19363310  0.25647197  1
  Zr  Zr63  1  0.90631231  0.49280731  0.13226252  1
  Zr  Zr64  1  0.49559377  0.09211060  0.12379041  1
  Zr  Zr65  1  0.91289399  0.50635473  0.62804985  1
  Zr  Zr66  1  0.68085435  0.89853148  0.12987198  1
  Zr  Zr67  1  0.71843900  0.09648657  0.84521799  1
  Zr  Zr68  1  0.60297650  0.59331829  0.74112899  1
  Zr  Zr69  1  0.01721218  0.40868841  0.74825919  1
  Zr  Zr70  1  0.91619346  0.28547404  0.85565455  1
  Zr  Zr71  1  0.38696082  0.00595873  -0.00884159  1
  Zr  Zr72  1  0.39160513  -0.01640725  0.26072725  1
  Zr  Zr73  1  0.00695009  0.81377662  0.75425173  1
  Zr  Zr74  1  0.69637842  0.49286008  0.14264725  1
  Zr  Zr75  1  0.27901391  0.89289610  0.61878011  1
  Zr  Zr76  1  0.90115693  0.70481000  0.62004250  1
  Zr  Zr77  1  0.09722088  0.48986651  0.38226561  1
  Zr  Zr78  1  0.50883561  0.50008125  0.37780427  1
  Zr  Zr79  1  0.90339644  0.70101536  0.38143106  1
  Ta  Ta80  1  -0.00455657  0.60823308  0.00694839  1
  Ta  Ta81  1  0.08786746  0.92627673  0.62702887  1
  Ta  Ta82  1  0.29468460  0.89398404  0.12709381  1
  Ta  Ta83  1  0.60619208  0.39808923  -0.00982456  1
  Ta  Ta84  1  0.50799737  0.09422252  0.39507379  1
  Ta  Ta85  1  0.79681534  0.02549644  0.25218930  1
  Ta  Ta86  1  0.10682685  0.29808266  0.12186051  1
  Ta  Ta87  1  0.19934504  0.60782719  0.49662989  1
  Ta  Ta88  1  0.00251485  0.59488516  0.49442114  1
  Ta  Ta89  1  0.58690260  0.00014984  0.73050803  1
  Ta  Ta90  1  0.50083676  0.29030225  0.87480876  1
  Ta  Ta91  1  0.48918772  0.69579528  0.62715426  1
  Ta  Ta92  1  0.29270875  0.48940089  0.37819117  1
  Ta  Ta93  1  0.60009475  0.79759759  0.00150348  1
  Ta  Ta94  1  0.71123911  0.50112904  0.36933882  1
  Ta  Ta95  1  0.39830913  0.39126331  0.26642479  1
  Ta  Ta96  1  0.81056974  0.38838309  0.26356063  1
  Ta  Ta97  1  0.90669664  0.69620977  0.87181569  1
  Ta  Ta98  1  0.71253845  0.49369672  0.61928725  1
  Ta  Ta99  1  0.10554285  0.70851356  0.37785546  1
  Ta  Ta100  1  0.22262551  0.20206630  0.75412111  1
  Ta  Ta101  1  0.91696541  0.28753338  0.13222796  1
  Ta  Ta102  1  0.20679476  0.39192593  0.75046371  1
  Ta  Ta103  1  0.49494988  0.49108570  0.61648890  1
  Ta  Ta104  1  0.57663422  0.80733278  0.51395472  1
  Ta  Ta105  1  0.00926996  0.39241781  0.25146529  1
  Ta  Ta106  1  0.70735642  0.10780595  0.39252377  1
  Ta  Ta107  1  0.38694248  0.02044186  0.74907269  1
  Ta  Ta108  1  0.50521106  0.49298421  0.87095219  1
  Ta  Ta109  1  0.29517778  0.49318501  0.87107430  1
  Ta  Ta110  1  0.31591947  0.29053778  0.61617524  1
  Ta  Ta111  1  0.90694686  0.92238806  0.37253741  1
  Ta  Ta112  1  0.50101627  0.70825842  0.37799396  1
  Ta  Ta113  1  0.50084469  0.28915004  0.38611327  1
  Ta  Ta114  1  0.59349987  0.80387289  0.72771636  1
  Ta  Ta115  1  0.29177170  0.68963010  0.63471720  1
  Ta  Ta116  1  0.81509073  0.01064110  0.49684998  1
  Ta  Ta117  1  0.90591631  0.30111236  0.63158985  1
  Ta  Ta118  1  0.18840970  -0.01537404  -0.00520393  1
  Ta  Ta119  1  0.09378540  0.11426926  0.11521426  1
  Ti  Ti120  1  0.79937304  0.79429913  0.00289581  1
  Ti  Ti121  1  0.60745218  0.60693013  0.25630641  1
  Ti  Ti122  1  0.80540553  0.21010642  0.50490888  1
  Ti  Ti123  1  0.19873751  0.81227980  0.24666738  1
  Ti  Ti124  1  0.00279760  0.19845457  0.25446549  1
  Ti  Ti125  1  0.17019374  -0.00589339  0.49259398  1
  Ti  Ti126  1  0.70532323  0.70493685  0.13148374  1
  Ti  Ti127  1  -0.00114976  0.39149643  -0.00133570  1
  Ti  Ti128  1  0.08077046  0.09553122  0.37722371  1
  Ti  Ti129  1  0.10775031  0.29368700  0.37994402  1
  Ti  Ti130  1  0.70857478  0.29788962  0.37420689  1
  Ti  Ti131  1  0.10113994  0.70720692  0.12275107  1
  Ti  Ti132  1  0.89936604  0.90710516  0.62383586  1
  Ti  Ti133  1  0.20497169  0.39547187  -0.00258104  1
  Ti  Ti134  1  0.48676492  0.88952014  0.38309494  1
  Ti  Ti135  1  0.80319724  0.59528002  0.49378824  1
  Ti  Ti136  1  0.18858141  0.00538651  0.25199927  1
  Ti  Ti137  1  0.11889460  0.30382967  0.88091081  1
  Ti  Ti138  1  0.38751874  0.79039079  0.51006992  1
  Ti  Ti139  1  0.10371526  0.49372810  0.60945559  1
  Ti  Ti140  1  0.19575481  0.21057086  0.49903912  1
  Ti  Ti141  1  0.80547999  0.81027289  0.49393347  1
  Ti  Ti142  1  -0.00614794  0.00910985  0.76417962  1
  Ti  Ti143  1  0.20297790  0.38219469  0.25509540  1
  Ti  Ti144  1  0.80316803  0.59267847  0.74781754  1
  Ti  Ti145  1  0.27789385  0.89335762  0.38332418  1
  Ti  Ti146  1  0.58359914  0.80336402  0.25721276  1
  Ti  Ti147  1  0.59944574  0.59789208  0.50564377  1
  Ti  Ti148  1  0.02731743  0.19878836  0.74017878  1
  Ti  Ti149  1  0.58769027  -0.01061543  0.00433364  1
  Ti  Ti150  1  0.60098358  0.39479338  0.26377640  1
  Ti  Ti151  1  0.91030972  0.49827215  0.36723565  1
  Ti  Ti152  1  0.39743706  0.58488157  0.74538035  1
  Ti  Ti153  1  0.00238763  0.19573531  0.50531028  1
  Ti  Ti154  1  0.20239567  0.60962745  0.00649378  1
  Ti  Ti155  1  0.39340486  0.38683532  0.49085830  1
  Ti  Ti156  1  0.29628148  0.70256459  0.13490128  1
  Ti  Ti157  1  0.11372415  0.30049464  0.61958258  1
  Ti  Ti158  1  0.18508862  0.58619625  0.74659929  1
  Ti  Ti159  1  0.91608148  0.29334949  0.37806347  1
  Mo  Mo160  1  0.40393516  0.19927516  0.74674029  1
  Mo  Mo161  1  0.90042772  0.70536757  0.12287390  1
  Mo  Mo162  1  0.20316499  0.79709123  0.01136226  1
  Mo  Mo163  1  0.80670314  0.20873823  0.73390346  1
  Mo  Mo164  1  0.39210450  0.20206181  0.48332416  1
  Mo  Mo165  1  0.60189319  0.00072960  0.50437780  1
  Mo  Mo166  1  0.10324242  0.90594871  0.36588699  1
  Mo  Mo167  1  0.71344634  0.29985777  0.62722398  1
  Mo  Mo168  1  0.90477545  0.10588327  0.85882105  1
  Mo  Mo169  1  0.59069647  0.20232375  0.74480181  1
  Mo  Mo170  1  0.09612220  0.90587112  0.88058201  1
  Mo  Mo171  1  0.30078105  0.29583178  0.87744984  1
  Mo  Mo172  1  0.49193988  0.90532709  0.62638760  1
  Mo  Mo173  1  0.89544526  0.11070784  0.13085183  1
  Mo  Mo174  1  0.39386445  0.80443102  0.25498461  1
  Mo  Mo175  1  0.21359838  0.19938962  -0.00525517  1
  Mo  Mo176  1  0.39752279  0.20012020  -0.00558823  1
  Mo  Mo177  1  0.80095058  0.40414998  0.73830488  1
  Mo  Mo178  1  0.20208531  0.39543208  0.50185406  1
  Mo  Mo179  1  0.81257984  0.20327084  0.26152219  1
  Mo  Mo180  1  0.49899095  0.30036554  0.60731685  1
  Mo  Mo181  1  -0.00291351  0.00995825  0.49904733  1
  Mo  Mo182  1  0.17924949  0.19541473  0.25415836  1
  Mo  Mo183  1  0.00766405  0.59836690  0.24830486  1
  Mo  Mo184  1  0.19542786  0.80140546  0.74725815  1
  Mo  Mo185  1  0.90079078  0.11278502  0.38002557  1
  Mo  Mo186  1  0.00894883  0.38376550  0.50528306  1
  Mo  Mo187  1  0.29201427  0.30112812  0.37598993  1
  Mo  Mo188  1  0.48830687  0.89430382  0.12287657  1
  Mo  Mo189  1  0.28043381  0.89878518  0.87343119  1
  Mo  Mo190  1  0.70483859  0.09898803  0.12702857  1
  Mo  Mo191  1  0.80254632  -0.00454202  0.74125624  1
  Mo  Mo192  1  0.61011194  0.20369112  0.49085359  1
  Mo  Mo193  1  0.30243983  0.10932929  0.88042000  1
  Mo  Mo194  1  -0.00133386  0.60184856  0.75887009  1
  Mo  Mo195  1  0.01146732  0.21513361  0.00019917  1
  Mo  Mo196  1  0.69492512  0.49295207  0.87380575  1
  Mo  Mo197  1  0.20017311  0.79919584  0.49885121  1
  Mo  Mo198  1  0.11233903  0.91190710  0.12829438  1
  Mo  Mo199  1  0.10316548  0.10946736  0.62549917  1
