# generated using pymatgen
data_HfZrTaTiMo
_symmetry_space_group_name_H-M   'P 1'
_cell_length_a   15.21082564
_cell_length_b   15.22392034
_cell_length_c   16.83888974
_cell_angle_alpha   89.90373183
_cell_angle_beta   90.01001400
_cell_angle_gamma   90.03296843
_symmetry_Int_Tables_number   1
_chemical_formula_structural   HfZrTaTiMo
_chemical_formula_sum   'Hf40 Zr40 Ta40 Ti40 Mo40'
_cell_volume   3899.34851056
_cell_formula_units_Z   40
loop_
 _symmetry_equiv_pos_site_id
 _symmetry_equiv_pos_as_xyz
  1  'x, y, z'
loop_
 _atom_site_type_symbol
 _atom_site_label
 _atom_site_symmetry_multiplicity
 _atom_site_fract_x
 _atom_site_fract_y
 _atom_site_fract_z
 _atom_site_occupancy
  Hf  Hf0  1  0.90063607  0.51675412  0.88271820  1
  Hf  Hf1  1  0.30538535  0.50162579  0.85930501  1
  Hf  Hf2  1  0.87335544  0.47840203  0.37506886  1
  Hf  Hf3  1  0.51153147  0.30228136  0.62781161  1
  Hf  Hf4  1  0.09976079  0.29134106  0.62719844  1
  Hf  Hf5  1  0.60348761  0.00209619  0.48972702  1
  Hf  Hf6  1  0.41607205  0.41173678  -0.00172430  1
  Hf  Hf7  1  0.59008342  0.80030807  0.00402555  1
  Hf  Hf8  1  0.39261019  0.83376507  0.02010320  1
  Hf  Hf9  1  0.68827904  0.49514176  0.88129157  1
  Hf  Hf10  1  0.30955219  0.29343142  0.63157738  1
  Hf  Hf11  1  0.39881999  0.60820834  0.52199651  1
  Hf  Hf12  1  0.00336131  0.16654917  0.25621169  1
  Hf  Hf13  1  0.39873631  0.61671803  0.00650908  1
  Hf  Hf14  1  0.00015581  0.39748503  0.01257051  1
  Hf  Hf15  1  -0.01020300  -0.00850888  0.74859787  1
  Hf  Hf16  1  0.10666951  0.29673178  0.86631657  1
  Hf  Hf17  1  0.18747447  0.79190382  0.72609536  1
  Hf  Hf18  1  0.40251891  0.81322601  0.72457137  1
  Hf  Hf19  1  -0.00232014  0.38996875  0.48685847  1
  Hf  Hf20  1  0.21461926  0.18281629  0.75143439  1
  Hf  Hf21  1  0.40182693  0.01067051  0.52190718  1
  Hf  Hf22  1  0.71041160  0.10927200  0.12839054  1
  Hf  Hf23  1  -0.01223843  0.59644237  0.27233474  1
  Hf  Hf24  1  0.50112645  0.12155063  0.12505096  1
  Hf  Hf25  1  0.59990230  0.21661245  -0.00806366  1
  Hf  Hf26  1  0.08522980  0.69903146  0.15107955  1
  Hf  Hf27  1  0.10643237  0.49349974  0.13912697  1
  Hf  Hf28  1  0.29102891  0.69619369  0.13936004  1
  Hf  Hf29  1  0.80247944  0.00191519  -0.00631956  1
  Hf  Hf30  1  0.68235420  0.49480339  0.11730805  1
  Hf  Hf31  1  0.60102675  0.20780587  0.49002370  1
  Hf  Hf32  1  0.90472419  0.30303958  0.87483495  1
  Hf  Hf33  1  0.72189708  0.10876319  0.37145829  1
  Hf  Hf34  1  0.20882665  0.39886427  0.00085130  1
  Hf  Hf35  1  0.20100117  -0.00758331  0.51063532  1
  Hf  Hf36  1  0.70654916  0.69905345  0.87705603  1
  Hf  Hf37  1  0.00901614  -0.01364363  -0.00462772  1
  Hf  Hf38  1  0.00230183  0.38659565  0.25833093  1
  Hf  Hf39  1  0.89538646  0.88288392  0.87934752  1
  Zr  Zr40  1  0.19620269  0.59099422  0.49847719  1
  Zr  Zr41  1  0.29391058  0.69874198  0.85974119  1
  Zr  Zr42  1  0.29503085  0.90486793  0.85887587  1
  Zr  Zr43  1  0.09858246  0.49837971  0.87324145  1
  Zr  Zr44  1  0.71467082  0.90775292  0.61005390  1
  Zr  Zr45  1  0.77019019  0.60277138  0.26611646  1
  Zr  Zr46  1  0.49148191  0.90254003  0.37690960  1
  Zr  Zr47  1  0.20926365  0.19066686  0.50795672  1
  Zr  Zr48  1  0.40346241  0.42806737  0.24270850  1
  Zr  Zr49  1  0.31044352  0.29923136  0.12007717  1
  Zr  Zr50  1  0.70604474  0.89661281  0.12708349  1
  Zr  Zr51  1  0.79056820  0.00017602  0.75929368  1
  Zr  Zr52  1  -0.01021592  0.78366378  0.73885188  1
  Zr  Zr53  1  0.80467221  0.80301771  0.73994853  1
  Zr  Zr54  1  0.82180149  -0.00524412  0.25818795  1
  Zr  Zr55  1  0.19101713  0.79691007  0.00173809  1
  Zr  Zr56  1  0.60383863  0.81431257  0.74178785  1
  Zr  Zr57  1  0.80238495  0.40548759  0.75068171  1
  Zr  Zr58  1  0.10940572  0.08071306  0.86725983  1
  Zr  Zr59  1  0.49839472  0.71062907  0.86375401  1
  Zr  Zr60  1  0.49558959  0.52026829  0.38264511  1
  Zr  Zr61  1  0.41131727  0.80024350  0.23423630  1
  Zr  Zr62  1  0.60355829  0.00165077  0.25442893  1
  Zr  Zr63  1  0.20935074  0.19275768  -0.00601207  1
  Zr  Zr64  1  0.39134440  0.00076270  0.23499786  1
  Zr  Zr65  1  0.39740669  0.80612224  0.52359815  1
  Zr  Zr66  1  0.80582625  0.60829169  0.74090204  1
  Zr  Zr67  1  0.19771570  0.78780190  0.51208170  1
  Zr  Zr68  1  0.19240189  0.59838602  0.00474248  1
  Zr  Zr69  1  0.70663178  0.50689051  0.61797365  1
  Zr  Zr70  1  0.11084597  0.27917978  0.37427022  1
  Zr  Zr71  1  0.00022025  0.18626324  -0.00120667  1
  Zr  Zr72  1  0.89438371  0.28272505  0.13228076  1
  Zr  Zr73  1  0.81265496  0.19821058  0.74844079  1
  Zr  Zr74  1  0.30211208  0.09909050  0.37449620  1
  Zr  Zr75  1  -0.00769723  0.78446771  0.00941188  1
  Zr  Zr76  1  0.40057432  0.21771718  0.25750152  1
  Zr  Zr77  1  0.69076272  0.10704014  0.62671980  1
  Zr  Zr78  1  0.81748226  0.20632150  0.50917952  1
  Zr  Zr79  1  0.88503423  0.49607515  0.13606777  1
  Ta  Ta80  1  0.51185296  0.31365523  0.86642591  1
  Ta  Ta81  1  0.68301610  0.90310702  0.88359543  1
  Ta  Ta82  1  0.51918563  0.32364788  0.12580612  1
  Ta  Ta83  1  0.42167829  0.18759412  0.75179519  1
  Ta  Ta84  1  0.21002244  0.38982899  0.26160647  1
  Ta  Ta85  1  0.60448057  0.41029039  0.49942224  1
  Ta  Ta86  1  0.59493787  0.79754806  0.50760548  1
  Ta  Ta87  1  0.29598739  0.89219559  0.37590136  1
  Ta  Ta88  1  0.90262812  0.70044972  0.59139058  1
  Ta  Ta89  1  -0.01378008  0.80458242  0.27158377  1
  Ta  Ta90  1  0.09135225  0.48862669  0.61607640  1
  Ta  Ta91  1  0.68864798  0.10069570  0.87410274  1
  Ta  Ta92  1  0.10473395  0.70087432  0.36910263  1
  Ta  Ta93  1  0.40127555  0.40065666  0.50437823  1
  Ta  Ta94  1  0.32502928  0.09100042  0.87932479  1
  Ta  Ta95  1  0.21296188  -0.01258420  0.00639256  1
  Ta  Ta96  1  0.61328562  0.22211946  0.25722141  1
  Ta  Ta97  1  0.31861484  0.29563018  0.86917611  1
  Ta  Ta98  1  0.79677772  0.79399162  0.00458947  1
  Ta  Ta99  1  0.71164965  0.31972170  0.37662584  1
  Ta  Ta100  1  0.20176487  0.39681516  0.74618290  1
  Ta  Ta101  1  0.70428451  0.30366633  0.12654205  1
  Ta  Ta102  1  0.30838118  0.69949311  0.37028614  1
  Ta  Ta103  1  0.58726621  0.00446791  0.00424888  1
  Ta  Ta104  1  0.20504003  0.58630282  0.26555878  1
  Ta  Ta105  1  0.18961222  0.59491682  0.73017578  1
  Ta  Ta106  1  0.08176928  0.68978651  0.86882743  1
  Ta  Ta107  1  0.00047241  0.40353648  0.74330452  1
  Ta  Ta108  1  0.57289704  0.60911999  0.24204372  1
  Ta  Ta109  1  0.89847523  0.90252499  0.39489361  1
  Ta  Ta110  1  -0.00349769  0.59313717  0.73182410  1
  Ta  Ta111  1  0.61004384  0.79561906  0.25502428  1
  Ta  Ta112  1  0.20545224  0.39389121  0.49403592  1
  Ta  Ta113  1  0.79909215  0.19942144  -0.01468652  1
  Ta  Ta114  1  0.10988475  0.08540052  0.12609135  1
  Ta  Ta115  1  0.70446377  0.30781928  0.62220375  1
  Ta  Ta116  1  0.29879166  0.49038242  0.62884252  1
  Ta  Ta117  1  0.07513986  0.89070047  0.61254025  1
  Ta  Ta118  1  0.50434088  0.31627066  0.37671893  1
  Ta  Ta119  1  0.09668097  0.89810137  0.13943557  1
  Ti  Ti120  1  0.61123277  0.21165620  0.75991447  1
  Ti  Ti121  1  0.40789817  0.40095623  0.74607254  1
  Ti  Ti122  1  0.10046874  0.08734996  0.63457359  1
  Ti  Ti123  1  0.00270387  -0.00013026  0.49687776  1
  Ti  Ti124  1  0.78909855  0.59808143  0.48386682  1
  Ti  Ti125  1  0.88287644  0.70244884  0.14153447  1
  Ti  Ti126  1  0.60756625  0.41663678  0.25849395  1
  Ti  Ti127  1  -0.00746826  0.60032122  0.01451136  1
  Ti  Ti128  1  0.79382274  0.79492210  0.27854096  1
  Ti  Ti129  1  0.90153056  0.07785458  0.61549669  1
  Ti  Ti130  1  0.78931964  0.79585010  0.48159683  1
  Ti  Ti131  1  0.90465250  0.88960612  0.13163388  1
  Ti  Ti132  1  0.19915741  0.80614649  0.25850128  1
  Ti  Ti133  1  0.90415500  0.31833372  0.62503465  1
  Ti  Ti134  1  0.50022406  0.51470424  0.86295378  1
  Ti  Ti135  1  0.20653726  0.19259336  0.24803094  1
  Ti  Ti136  1  0.59609332  0.60938171  0.50776494  1
  Ti  Ti137  1  0.10272702  0.88465374  0.86597010  1
  Ti  Ti138  1  0.48636371  0.93038620  0.87519441  1
  Ti  Ti139  1  0.69280166  0.69747588  0.12410001  1
  Ti  Ti140  1  0.57416519  0.01585694  0.74680834  1
  Ti  Ti141  1  0.79975082  0.60659234  0.00787260  1
  Ti  Ti142  1  0.40986541  0.60082781  0.72660790  1
  Ti  Ti143  1  0.91003141  0.08264367  0.12414100  1
  Ti  Ti144  1  0.10052521  0.90236325  0.37872573  1
  Ti  Ti145  1  0.40565159  0.20492967  0.49647523  1
  Ti  Ti146  1  -0.00097841  0.19295183  0.74910732  1
  Ti  Ti147  1  0.70092525  0.70268351  0.61872840  1
  Ti  Ti148  1  0.30072830  0.09997698  0.11721527  1
  Ti  Ti149  1  -0.00172632  0.59432304  0.47912768  1
  Ti  Ti150  1  0.50277302  0.11052971  0.36711290  1
  Ti  Ti151  1  0.29995367  0.49685469  0.38245155  1
  Ti  Ti152  1  0.60065399  0.41530617  0.74272843  1
  Ti  Ti153  1  0.00906969  0.18395393  0.49789402  1
  Ti  Ti154  1  0.89089224  0.27712225  0.36411314  1
  Ti  Ti155  1  0.19003028  0.00159981  0.25700941  1
  Ti  Ti156  1  0.10615225  0.28597127  0.13270155  1
  Ti  Ti157  1  0.49502448  0.70959085  0.37886127  1
  Ti  Ti158  1  0.79131572  0.39284632  -0.00456601  1
  Ti  Ti159  1  0.58827611  0.59855345  0.00447667  1
  Mo  Mo160  1  0.89949280  0.09956574  0.87588275  1
  Mo  Mo161  1  0.19312995  -0.01100644  0.73300756  1
  Mo  Mo162  1  0.31264260  0.30932002  0.38338349  1
  Mo  Mo163  1  0.29629511  0.69035253  0.63642927  1
  Mo  Mo164  1  0.00839834  -0.01677841  0.25496606  1
  Mo  Mo165  1  0.39238991  0.60920933  0.25299422  1
  Mo  Mo166  1  0.60119346  0.40810657  -0.00718325  1
  Mo  Mo167  1  0.51485947  0.69668162  0.63328712  1
  Mo  Mo168  1  0.90090477  0.89705308  0.59600413  1
  Mo  Mo169  1  0.28980632  0.90769946  0.63427095  1
  Mo  Mo170  1  0.90072104  0.69018676  0.88113395  1
  Mo  Mo171  1  0.68032192  0.50168858  0.38142587  1
  Mo  Mo172  1  0.80349270  0.19830193  0.25078102  1
  Mo  Mo173  1  0.50360022  0.10586436  0.87837258  1
  Mo  Mo174  1  0.67624605  0.69871245  0.38341885  1
  Mo  Mo175  1  0.08272166  0.68002592  0.60986111  1
  Mo  Mo176  1  0.29402070  0.50305666  0.12829463  1
  Mo  Mo177  1  0.79914496  0.39947012  0.50395441  1
  Mo  Mo178  1  0.30099825  0.10209488  0.63301346  1
  Mo  Mo179  1  0.50250605  0.11334770  0.62217400  1
  Mo  Mo180  1  0.00211867  0.79223944  0.47811908  1
  Mo  Mo181  1  0.39965698  0.01588182  0.01210676  1
  Mo  Mo182  1  0.91587094  0.09500229  0.38735002  1
  Mo  Mo183  1  0.80680526  0.00444670  0.49241797  1
  Mo  Mo184  1  0.50156077  0.49572272  0.62389481  1
  Mo  Mo185  1  0.49638771  0.51222397  0.12255492  1
  Mo  Mo186  1  0.40662948  0.21096071  -0.00800287  1
  Mo  Mo187  1  0.70032439  0.30201139  0.87057571  1
  Mo  Mo188  1  0.78464074  0.38863202  0.24779966  1
  Mo  Mo189  1  0.10230162  0.49141898  0.36992492  1
  Mo  Mo190  1  0.39657520  0.01013330  0.73561945  1
  Mo  Mo191  1  0.69962108  0.89295971  0.38005956  1
  Mo  Mo192  1  0.91118017  0.50875215  0.60456932  1
  Mo  Mo193  1  0.59743208  0.60209981  0.74202298  1
  Mo  Mo194  1  0.51077449  0.91227654  0.12603298  1
  Mo  Mo195  1  0.50607188  0.70644732  0.12246783  1
  Mo  Mo196  1  0.89298605  0.69725597  0.38998987  1
  Mo  Mo197  1  0.10610570  0.08489249  0.37892141  1
  Mo  Mo198  1  0.51160570  0.91338647  0.62219492  1
  Mo  Mo199  1  0.28039413  0.91228067  0.13558552  1
