# generated using pymatgen
data_HfZrTaTiMo
_symmetry_space_group_name_H-M   'P 1'
_cell_length_a   15.20658935
_cell_length_b   15.21948207
_cell_length_c   16.86508572
_cell_angle_alpha   89.95428293
_cell_angle_beta   89.96475483
_cell_angle_gamma   89.80762076
_symmetry_Int_Tables_number   1
_chemical_formula_structural   HfZrTaTiMo
_chemical_formula_sum   'Hf40 Zr40 Ta40 Ti40 Mo40'
_cell_volume   3903.17098300
_cell_formula_units_Z   40
loop_
 _symmetry_equiv_pos_site_id
 _symmetry_equiv_pos_as_xyz
  1  'x, y, z'
loop_
 _atom_site_type_symbol
 _atom_site_label
 _atom_site_symmetry_multiplicity
 _atom_site_fract_x
 _atom_site_fract_y
 _atom_site_fract_z
 _atom_site_occupancy
  Hf  Hf0  1  0.09748946  0.09944214  0.88736299  1
  Hf  Hf1  1  0.80143824  0.60215703  0.75808521  1
  Hf  Hf2  1  0.09868550  0.11019739  0.61204086  1
  Hf  Hf3  1  0.49420896  0.89219384  0.86648425  1
  Hf  Hf4  1  0.81210315  0.20647035  0.73800538  1
  Hf  Hf5  1  0.50243780  0.10735819  0.61434432  1
  Hf  Hf6  1  0.50844447  0.10207772  0.12315729  1
  Hf  Hf7  1  0.79864556  0.20707956  0.50598210  1
  Hf  Hf8  1  0.40077519  0.60834710  0.25210262  1
  Hf  Hf9  1  0.29335339  0.10880299  0.12604464  1
  Hf  Hf10  1  0.69984352  0.30347710  0.85793185  1
  Hf  Hf11  1  0.70817305  0.91141498  0.10918505  1
  Hf  Hf12  1  0.60185857  0.59334327  -0.00535026  1
  Hf  Hf13  1  -0.00217497  0.00804724  0.75492625  1
  Hf  Hf14  1  0.59133247  0.80918789  0.23578857  1
  Hf  Hf15  1  0.81805690  0.00700247  -0.02772781  1
  Hf  Hf16  1  0.90637121  0.69680220  0.11901943  1
  Hf  Hf17  1  0.51734489  0.89141105  0.62960332  1
  Hf  Hf18  1  0.40551343  0.00134938  0.24832973  1
  Hf  Hf19  1  0.49935523  0.10368354  0.38305134  1
  Hf  Hf20  1  0.30208672  0.49534717  0.86404047  1
  Hf  Hf21  1  0.18966289  0.79344913  0.73561753  1
  Hf  Hf22  1  -0.00297750  0.37949364  0.75234945  1
  Hf  Hf23  1  0.29371442  0.89750229  0.37051710  1
  Hf  Hf24  1  0.00142622  0.21198446  0.49202199  1
  Hf  Hf25  1  0.10341606  0.48880661  0.37305975  1
  Hf  Hf26  1  0.80225557  0.80709887  0.24403346  1
  Hf  Hf27  1  0.20530118  -0.01501437  -0.00043464  1
  Hf  Hf28  1  0.10684184  0.49253273  0.12700683  1
  Hf  Hf29  1  0.29609448  0.31361527  0.14712301  1
  Hf  Hf30  1  0.59178493  0.22859069  0.50150220  1
  Hf  Hf31  1  0.88891653  0.89877447  0.63886513  1
  Hf  Hf32  1  0.10612230  0.69297377  0.38305765  1
  Hf  Hf33  1  0.80401004  0.58431655  0.24769266  1
  Hf  Hf34  1  0.50767080  0.30572835  0.14378777  1
  Hf  Hf35  1  0.70074403  0.69500302  0.37672350  1
  Hf  Hf36  1  0.40037025  0.21157904  0.00612172  1
  Hf  Hf37  1  -0.01205511  0.79741309  0.50271551  1
  Hf  Hf38  1  0.00770757  0.18396767  0.25937921  1
  Hf  Hf39  1  0.79124449  0.80511069  0.77317252  1
  Zr  Zr40  1  0.01024229  0.79750028  0.24913609  1
  Zr  Zr41  1  0.88795964  0.29274521  0.12825775  1
  Zr  Zr42  1  0.79969497  0.18906495  0.26207729  1
  Zr  Zr43  1  0.27297737  0.89189461  0.14850646  1
  Zr  Zr44  1  0.20266085  0.00558748  0.74755972  1
  Zr  Zr45  1  0.79624960  0.41172542  0.51178682  1
  Zr  Zr46  1  0.40672006  0.60624537  -0.00497475  1
  Zr  Zr47  1  0.90062642  0.69241522  0.37919705  1
  Zr  Zr48  1  0.09612374  0.08563959  0.11768283  1
  Zr  Zr49  1  0.40812718  0.40189986  0.49210083  1
  Zr  Zr50  1  0.30210829  0.68673297  0.39345436  1
  Zr  Zr51  1  0.60553670  0.01105316  -0.01410965  1
  Zr  Zr52  1  0.10542800  0.49257023  0.87987033  1
  Zr  Zr53  1  0.00715580  0.59962287  0.75398551  1
  Zr  Zr54  1  0.09214183  0.90321999  0.61639037  1
  Zr  Zr55  1  0.40303372  0.40689925  0.00238597  1
  Zr  Zr56  1  0.61424065  -0.00260147  0.75833353  1
  Zr  Zr57  1  0.29578155  0.89838178  0.86716583  1
  Zr  Zr58  1  0.40700558  0.80169250  0.51009673  1
  Zr  Zr59  1  -0.01321020  0.79931450  -0.00872711  1
  Zr  Zr60  1  0.89076799  0.90637246  0.37987059  1
  Zr  Zr61  1  0.89462617  0.48071072  0.87854279  1
  Zr  Zr62  1  0.40377521  0.58928781  0.74269861  1
  Zr  Zr63  1  0.40221616  0.01181681  0.74296364  1
  Zr  Zr64  1  0.50661773  0.70075180  0.38389099  1
  Zr  Zr65  1  0.90140296  0.49435668  0.11022989  1
  Zr  Zr66  1  0.69464660  0.90046475  0.37615457  1
  Zr  Zr67  1  0.09958308  0.28771524  0.12630036  1
  Zr  Zr68  1  0.30014473  0.68785898  0.61303276  1
  Zr  Zr69  1  0.70090032  0.09786688  0.38612482  1
  Zr  Zr70  1  0.37611173  0.80492417  0.01162357  1
  Zr  Zr71  1  0.19057695  0.20762321  0.74567271  1
  Zr  Zr72  1  0.49869499  0.11793738  0.87425435  1
  Zr  Zr73  1  0.70505580  0.69568890  0.11830540  1
  Zr  Zr74  1  0.21286091  0.60199496  0.00602876  1
  Zr  Zr75  1  0.09808449  0.90584338  0.38113349  1
  Zr  Zr76  1  0.50215105  0.90415142  0.38131064  1
  Zr  Zr77  1  0.59216247  0.79873861  -0.00556697  1
  Zr  Zr78  1  0.50204382  0.50068445  0.13451851  1
  Zr  Zr79  1  0.69623169  0.33283313  0.36598539  1
  Ta  Ta80  1  0.71023121  0.11359663  0.12034119  1
  Ta  Ta81  1  0.90480759  0.31046357  0.36995747  1
  Ta  Ta82  1  0.29888945  0.10857062  0.61122767  1
  Ta  Ta83  1  -0.01653861  0.18620802  0.00099631  1
  Ta  Ta84  1  0.80130150  0.60691885  -0.02008518  1
  Ta  Ta85  1  0.70350962  0.48679403  0.12137997  1
  Ta  Ta86  1  0.11537286  0.70443937  0.12537599  1
  Ta  Ta87  1  0.10091355  0.29162847  0.88776544  1
  Ta  Ta88  1  0.69116568  0.49815075  0.86129944  1
  Ta  Ta89  1  0.89727356  0.69780428  0.62968650  1
  Ta  Ta90  1  0.78340289  0.79974472  0.51302197  1
  Ta  Ta91  1  0.29854346  0.47927326  0.62468464  1
  Ta  Ta92  1  0.10740558  0.29194346  0.36862278  1
  Ta  Ta93  1  0.09043798  0.68856320  0.61537789  1
  Ta  Ta94  1  0.09397188  0.89247630  0.87384585  1
  Ta  Ta95  1  0.10785000  0.70280097  0.87543471  1
  Ta  Ta96  1  0.79929484  0.01044682  0.76813782  1
  Ta  Ta97  1  0.89497171  0.08618306  0.12374943  1
  Ta  Ta98  1  0.52129649  0.49960232  0.37539972  1
  Ta  Ta99  1  0.20788282  0.38918855  0.00216145  1
  Ta  Ta100  1  0.09371252  0.31912655  0.61405706  1
  Ta  Ta101  1  0.20984457  0.59104229  0.24786378  1
  Ta  Ta102  1  0.29926155  0.70280972  0.86267566  1
  Ta  Ta103  1  0.30134607  0.90810288  0.61935312  1
  Ta  Ta104  1  0.61304487  0.00783760  0.24108082  1
  Ta  Ta105  1  0.29958252  0.11144312  0.88477474  1
  Ta  Ta106  1  0.60993168  0.59216911  0.50929093  1
  Ta  Ta107  1  0.39487179  0.21570593  0.73885360  1
  Ta  Ta108  1  0.29805093  0.29887346  0.87311568  1
  Ta  Ta109  1  0.51347148  0.68826826  0.62703528  1
  Ta  Ta110  1  0.38636219  0.21073477  0.49601534  1
  Ta  Ta111  1  0.89540151  0.49491964  0.37731705  1
  Ta  Ta112  1  0.69075751  0.31146555  0.63448621  1
  Ta  Ta113  1  0.49492916  0.70721079  0.12583558  1
  Ta  Ta114  1  0.39923128  0.79626945  0.73672910  1
  Ta  Ta115  1  0.60064707  0.39810952  -0.00555599  1
  Ta  Ta116  1  0.61399410  0.21602210  -0.00107119  1
  Ta  Ta117  1  0.91240571  0.49077673  0.62910604  1
  Ta  Ta118  1  0.29493278  0.30640049  0.36212319  1
  Ta  Ta119  1  0.90381139  0.10149071  0.62112731  1
  Ti  Ti120  1  0.19865929  0.59452862  0.73986609  1
  Ti  Ti121  1  0.50399160  0.69400336  0.85679853  1
  Ti  Ti122  1  0.59999921  0.19931857  0.25698261  1
  Ti  Ti123  1  0.00738449  0.59588908  0.24845653  1
  Ti  Ti124  1  0.69471564  0.71390506  0.63683057  1
  Ti  Ti125  1  0.80320995  -0.00270004  0.51068340  1
  Ti  Ti126  1  0.39477828  0.79974313  0.24512244  1
  Ti  Ti127  1  0.80321697  0.60491429  0.51325599  1
  Ti  Ti128  1  0.70331301  0.09480036  0.62382949  1
  Ti  Ti129  1  0.69782885  0.50902666  0.64190955  1
  Ti  Ti130  1  0.19822131  0.80137430  0.50826165  1
  Ti  Ti131  1  -0.01268263  -0.00589923  0.25095427  1
  Ti  Ti132  1  0.60973285  -0.01222041  0.51084255  1
  Ti  Ti133  1  0.58521321  0.39927217  0.74326131  1
  Ti  Ti134  1  0.08769066  0.89383336  0.11997472  1
  Ti  Ti135  1  0.18322848  0.01814082  0.26195087  1
  Ti  Ti136  1  0.38886278  0.42135487  0.26472891  1
  Ti  Ti137  1  0.20172370  0.57713097  0.50688491  1
  Ti  Ti138  1  0.60582398  0.59921306  0.24739304  1
  Ti  Ti139  1  0.19827036  0.00862540  0.49482479  1
  Ti  Ti140  1  0.49514336  0.30768872  0.86768697  1
  Ti  Ti141  1  -0.00223652  0.58254510  0.50750571  1
  Ti  Ti142  1  0.49728015  0.30816552  0.35975865  1
  Ti  Ti143  1  0.50449979  0.49546642  0.86446328  1
  Ti  Ti144  1  0.39666598  0.19786913  0.25769529  1
  Ti  Ti145  1  0.90755612  0.09321428  0.38628321  1
  Ti  Ti146  1  0.90018444  0.28161632  0.87999905  1
  Ti  Ti147  1  0.00457450  0.59776093  -0.00758269  1
  Ti  Ti148  1  0.59769073  0.19919575  0.74133118  1
  Ti  Ti149  1  0.78610079  0.38825593  -0.00395344  1
  Ti  Ti150  1  0.20111566  0.38755336  0.49704749  1
  Ti  Ti151  1  0.28698271  0.10958978  0.37910463  1
  Ti  Ti152  1  0.69784611  0.30485497  0.13790224  1
  Ti  Ti153  1  0.89994786  0.90361130  0.11757063  1
  Ti  Ti154  1  0.39463371  0.00520083  0.50055922  1
  Ti  Ti155  1  0.50370145  0.49000724  0.62324681  1
  Ti  Ti156  1  -0.00414587  0.40020416  0.24957069  1
  Ti  Ti157  1  0.40468756  -0.00147748  0.00707699  1
  Ti  Ti158  1  0.20117681  0.39678507  0.74326140  1
  Ti  Ti159  1  0.00054831  0.38726202  -0.00125982  1
  Mo  Mo160  1  0.90358553  0.30009051  0.62110894  1
  Mo  Mo161  1  0.90576787  0.69396434  0.87752535  1
  Mo  Mo162  1  0.49455689  0.30384267  0.62931818  1
  Mo  Mo163  1  0.10651002  0.49921523  0.62256272  1
  Mo  Mo164  1  0.19387400  0.40323331  0.25643749  1
  Mo  Mo165  1  0.29921382  0.69660142  0.13437025  1
  Mo  Mo166  1  0.30326596  0.49790161  0.38302931  1
  Mo  Mo167  1  0.00081440  -0.00596992  -0.00408634  1
  Mo  Mo168  1  0.00180483  0.40529430  0.49572149  1
  Mo  Mo169  1  0.09996170  0.09681427  0.38707534  1
  Mo  Mo170  1  0.29797317  0.50001965  0.13079769  1
  Mo  Mo171  1  0.70454559  0.11837499  0.86853016  1
  Mo  Mo172  1  0.20299956  0.19357303  0.25857240  1
  Mo  Mo173  1  0.90546943  0.11127684  0.86913604  1
  Mo  Mo174  1  0.20463470  0.20653279  0.49659555  1
  Mo  Mo175  1  0.70544800  0.90337596  0.63026032  1
  Mo  Mo176  1  0.49862979  0.90696552  0.12876077  1
  Mo  Mo177  1  0.90903880  0.89949848  0.85918069  1
  Mo  Mo178  1  0.80294612  0.00004997  0.24107386  1
  Mo  Mo179  1  0.20229088  0.20404184  -0.00178967  1
  Mo  Mo180  1  0.79239296  0.20270217  -0.00202662  1
  Mo  Mo181  1  0.29333012  0.29879949  0.61951699  1
  Mo  Mo182  1  0.59743526  0.78986681  0.75917263  1
  Mo  Mo183  1  0.79420366  0.79754891  -0.02586928  1
  Mo  Mo184  1  0.70631318  0.51815978  0.38017192  1
  Mo  Mo185  1  0.20367552  0.78128591  0.25820654  1
  Mo  Mo186  1  0.60247239  0.41409188  0.51083061  1
  Mo  Mo187  1  0.69909499  0.90073094  0.88622750  1
  Mo  Mo188  1  0.80583042  0.40340856  0.24963102  1
  Mo  Mo189  1  0.60925009  0.79248984  0.50945213  1
  Mo  Mo190  1  -0.00277208  0.79246162  0.75538783  1
  Mo  Mo191  1  0.00380579  0.20137855  0.74637936  1
  Mo  Mo192  1  0.18968829  0.79299195  -0.00337061  1
  Mo  Mo193  1  0.41211134  0.58417738  0.51232355  1
  Mo  Mo194  1  0.60207168  0.59483387  0.74493880  1
  Mo  Mo195  1  0.69163425  0.69423905  0.87460745  1
  Mo  Mo196  1  -0.01218090  0.00692412  0.50505549  1
  Mo  Mo197  1  0.39620299  0.39225720  0.74661464  1
  Mo  Mo198  1  0.79630798  0.40437843  0.73573198  1
  Mo  Mo199  1  0.60423797  0.41203299  0.25019259  1
