# generated using pymatgen
data_HfZrTaTiMo
_symmetry_space_group_name_H-M   'P 1'
_cell_length_a   15.21548723
_cell_length_b   15.21841128
_cell_length_c   16.83652743
_cell_angle_alpha   89.99122481
_cell_angle_beta   89.96265887
_cell_angle_gamma   89.94286950
_symmetry_Int_Tables_number   1
_chemical_formula_structural   HfZrTaTiMo
_chemical_formula_sum   'Hf40 Zr40 Ta40 Ti40 Mo40'
_cell_volume   3898.58843190
_cell_formula_units_Z   40
loop_
 _symmetry_equiv_pos_site_id
 _symmetry_equiv_pos_as_xyz
  1  'x, y, z'
loop_
 _atom_site_type_symbol
 _atom_site_label
 _atom_site_symmetry_multiplicity
 _atom_site_fract_x
 _atom_site_fract_y
 _atom_site_fract_z
 _atom_site_occupancy
  Hf  Hf0  1  0.78678507  0.00864696  0.50376678  1
  Hf  Hf1  1  0.69009394  0.10614219  0.85998372  1
  Hf  Hf2  1  0.69968304  0.50551069  0.11932391  1
  Hf  Hf3  1  0.28233212  0.31393544  0.87602111  1
  Hf  Hf4  1  0.91115323  0.10323839  0.85868876  1
  Hf  Hf5  1  0.02838771  0.39762299  -0.00956424  1
  Hf  Hf6  1  0.09846828  0.10067339  0.12452133  1
  Hf  Hf7  1  0.50673325  0.28376779  0.38480855  1
  Hf  Hf8  1  0.40658678  0.79262302  0.24002300  1
  Hf  Hf9  1  0.29925235  0.29062692  0.39253618  1
  Hf  Hf10  1  0.11153600  0.33089139  0.60922797  1
  Hf  Hf11  1  0.90747114  0.89607257  0.12380889  1
  Hf  Hf12  1  0.39401950  -0.01069064  0.25626798  1
  Hf  Hf13  1  0.60078115  0.39802483  -0.00335241  1
  Hf  Hf14  1  0.40744824  0.39730103  0.50795692  1
  Hf  Hf15  1  0.51931270  0.28833935  0.63558632  1
  Hf  Hf16  1  0.59708716  0.79114473  0.73819758  1
  Hf  Hf17  1  0.59335287  0.60465458  0.25418058  1
  Hf  Hf18  1  0.38970769  -0.01387636  0.50689847  1
  Hf  Hf19  1  0.49073450  0.09635532  0.12322249  1
  Hf  Hf20  1  0.10579614  0.30613593  0.39349730  1
  Hf  Hf21  1  0.09537354  0.49824881  0.14499821  1
  Hf  Hf22  1  0.20100853  0.38364985  0.25611744  1
  Hf  Hf23  1  0.89994472  0.09481531  0.12575947  1
  Hf  Hf24  1  0.40352765  0.78981587  0.75175541  1
  Hf  Hf25  1  0.68811386  0.69910132  0.88594577  1
  Hf  Hf26  1  0.40482225  0.40940497  -0.00304257  1
  Hf  Hf27  1  0.69274542  0.90491499  0.12364279  1
  Hf  Hf28  1  -0.00581877  0.78816486  0.25796003  1
  Hf  Hf29  1  0.29572957  0.89328759  0.63539169  1
  Hf  Hf30  1  0.59942948  0.19810798  -0.00012842  1
  Hf  Hf31  1  0.90684458  0.68146873  0.62726076  1
  Hf  Hf32  1  0.41349675  0.38961302  0.24972093  1
  Hf  Hf33  1  -0.00798198  0.20787043  0.51800785  1
  Hf  Hf34  1  0.79364902  0.19353128  0.25707123  1
  Hf  Hf35  1  0.19525674  0.00715813  0.25100310  1
  Hf  Hf36  1  0.71365485  0.70118754  0.38679191  1
  Hf  Hf37  1  0.30206352  0.50544624  0.13760642  1
  Hf  Hf38  1  0.28074871  0.49281486  0.61139508  1
  Hf  Hf39  1  0.69032801  0.90237037  0.87172650  1
  Zr  Zr40  1  0.49466047  0.88377140  0.38897272  1
  Zr  Zr41  1  0.40038179  0.19622987  -0.01552617  1
  Zr  Zr42  1  0.59551781  0.00370913  0.26897574  1
  Zr  Zr43  1  0.90555882  0.50051959  0.12662503  1
  Zr  Zr44  1  0.90533439  0.30718067  0.37506035  1
  Zr  Zr45  1  0.61127630  0.59324436  0.50474065  1
  Zr  Zr46  1  0.20136631  0.21454811  0.73395334  1
  Zr  Zr47  1  0.19249311  0.78678687  0.74949214  1
  Zr  Zr48  1  0.49559498  0.66919804  0.88824374  1
  Zr  Zr49  1  0.39922032  0.59673043  0.73657660  1
  Zr  Zr50  1  0.59378494  0.20341654  0.24234796  1
  Zr  Zr51  1  0.80072699  0.63095491  0.23863570  1
  Zr  Zr52  1  0.60280718  0.40010149  0.24649863  1
  Zr  Zr53  1  -0.00513045  -0.00116763  0.51286344  1
  Zr  Zr54  1  0.29521070  0.89896750  0.87019623  1
  Zr  Zr55  1  0.30664496  0.72575654  0.38198797  1
  Zr  Zr56  1  0.90226904  0.71145478  0.87453292  1
  Zr  Zr57  1  0.40842174  0.18220254  0.52252178  1
  Zr  Zr58  1  0.88597718  0.51127493  0.36162766  1
  Zr  Zr59  1  0.79377950  0.59782981  0.75349064  1
  Zr  Zr60  1  0.30333295  0.50150863  0.37240342  1
  Zr  Zr61  1  0.29980371  0.09623935  0.38325337  1
  Zr  Zr62  1  0.90586187  0.29739575  0.11868685  1
  Zr  Zr63  1  0.92211793  0.51204770  0.87831474  1
  Zr  Zr64  1  0.79770776  -0.01085868  0.26602473  1
  Zr  Zr65  1  0.81434324  0.39705150  0.75622636  1
  Zr  Zr66  1  0.19832206  0.57711229  0.00349569  1
  Zr  Zr67  1  0.30783666  0.28838782  0.12098568  1
  Zr  Zr68  1  0.09107252  0.68871126  0.88639164  1
  Zr  Zr69  1  0.40252641  0.79992080  0.00252271  1
  Zr  Zr70  1  0.89821874  0.90835422  0.86599635  1
  Zr  Zr71  1  0.09589029  0.70729636  0.11406956  1
  Zr  Zr72  1  0.39321493  0.39164522  0.73940339  1
  Zr  Zr73  1  0.10229192  0.10401852  0.39204818  1
  Zr  Zr74  1  0.08753258  0.91044316  0.87620307  1
  Zr  Zr75  1  0.01120020  0.19914952  0.25765523  1
  Zr  Zr76  1  0.79812970  0.01528121  -0.00472963  1
  Zr  Zr77  1  0.18264811  0.61127777  0.48124131  1
  Zr  Zr78  1  0.79818447  0.80429306  0.00116416  1
  Zr  Zr79  1  0.79317566  0.80098611  0.73381863  1
  Ta  Ta80  1  0.79799256  0.59582961  -0.00196805  1
  Ta  Ta81  1  0.39414474  0.00220060  -0.00890359  1
  Ta  Ta82  1  0.50776812  0.29313847  0.85849835  1
  Ta  Ta83  1  -0.01256644  0.60889535  0.48422437  1
  Ta  Ta84  1  0.19442343  0.62311427  0.25844699  1
  Ta  Ta85  1  0.80425603  0.40103640  0.50764773  1
  Ta  Ta86  1  0.08667613  0.50418010  0.35472678  1
  Ta  Ta87  1  0.01067826  0.79478101  0.51063342  1
  Ta  Ta88  1  0.89691073  0.88405513  0.38836461  1
  Ta  Ta89  1  0.61459637  0.18591398  0.50515406  1
  Ta  Ta90  1  0.31148153  0.50845640  0.87332660  1
  Ta  Ta91  1  0.20156536  0.81503695  0.24740564  1
  Ta  Ta92  1  0.29410627  0.69438463  0.61316006  1
  Ta  Ta93  1  0.50705071  0.69683335  0.38894496  1
  Ta  Ta94  1  0.10727156  0.29628538  0.12547417  1
  Ta  Ta95  1  0.40059861  -0.00002715  0.74723854  1
  Ta  Ta96  1  0.19598406  0.01083751  -0.00529589  1
  Ta  Ta97  1  0.18729153  0.20232471  -0.01247715  1
  Ta  Ta98  1  0.80227745  0.78953950  0.51755828  1
  Ta  Ta99  1  0.02485985  0.40948737  0.75531682  1
  Ta  Ta100  1  0.70467187  0.30097879  0.38024413  1
  Ta  Ta101  1  0.18821763  0.00871984  0.73795651  1
  Ta  Ta102  1  0.80344266  0.39923156  -0.01323117  1
  Ta  Ta103  1  0.61089067  0.79613529  0.25191656  1
  Ta  Ta104  1  0.00374463  0.80161222  0.73062442  1
  Ta  Ta105  1  -0.00186177  0.21589383  0.73374686  1
  Ta  Ta106  1  0.29461994  0.90594587  0.11698560  1
  Ta  Ta107  1  0.90948922  0.29822704  0.87641639  1
  Ta  Ta108  1  0.88075656  0.11884994  0.63380112  1
  Ta  Ta109  1  0.79699651  0.39511663  0.24663290  1
  Ta  Ta110  1  0.61387701  0.38655036  0.50753409  1
  Ta  Ta111  1  0.29467100  0.69230677  0.88504315  1
  Ta  Ta112  1  0.72019627  0.28466497  0.63752363  1
  Ta  Ta113  1  0.79012649  0.00480427  0.73434699  1
  Ta  Ta114  1  -0.00045052  -0.00932965  0.26460784  1
  Ta  Ta115  1  0.29078038  0.10021050  0.86170106  1
  Ta  Ta116  1  0.70380757  0.30101298  0.86566883  1
  Ta  Ta117  1  0.70708655  0.49157797  0.62728606  1
  Ta  Ta118  1  0.10628836  0.89711251  0.38294835  1
  Ta  Ta119  1  0.50779852  0.49673430  0.62096149  1
  Ti  Ti120  1  0.69854737  0.10007968  0.12266858  1
  Ti  Ti121  1  0.39475760  0.18996981  0.25362994  1
  Ti  Ti122  1  0.50197325  0.70100037  0.60767135  1
  Ti  Ti123  1  0.58866508  0.00382157  0.74242550  1
  Ti  Ti124  1  0.00387797  0.18880623  -0.00887705  1
  Ti  Ti125  1  0.58633578  -0.00086574  -0.00660884  1
  Ti  Ti126  1  0.59791267  0.59561720  0.73904014  1
  Ti  Ti127  1  0.50122204  0.89580069  0.11973562  1
  Ti  Ti128  1  0.60448792  0.40486446  0.75159254  1
  Ti  Ti129  1  0.90887041  0.49128474  0.62921522  1
  Ti  Ti130  1  0.00185960  0.00887958  0.72651427  1
  Ti  Ti131  1  0.79650922  0.20484188  0.49758590  1
  Ti  Ti132  1  0.49999245  0.89527633  0.61838112  1
  Ti  Ti133  1  0.29373595  0.09874720  0.12183153  1
  Ti  Ti134  1  0.40108656  0.59966781  0.49994689  1
  Ti  Ti135  1  0.79957880  0.20709359  -0.00781403  1
  Ti  Ti136  1  0.90505596  0.69971826  0.10956948  1
  Ti  Ti137  1  0.30065539  0.70179220  0.12124868  1
  Ti  Ti138  1  0.69936990  0.49353322  0.37761627  1
  Ti  Ti139  1  0.68779210  0.90248966  0.61622530  1
  Ti  Ti140  1  -0.00011143  0.42377231  0.49722288  1
  Ti  Ti141  1  0.09715759  0.90641361  0.11633342  1
  Ti  Ti142  1  0.59081938  0.00640913  0.49783723  1
  Ti  Ti143  1  0.40715459  0.18640637  0.74507196  1
  Ti  Ti144  1  0.19804635  0.80715312  -0.00079226  1
  Ti  Ti145  1  0.40364582  0.60267484  0.25719721  1
  Ti  Ti146  1  0.19393182  0.01134193  0.52600235  1
  Ti  Ti147  1  0.89634997  0.09601675  0.38166060  1
  Ti  Ti148  1  0.69975769  0.89089276  0.38936916  1
  Ti  Ti149  1  0.49865879  0.50695199  0.12303385  1
  Ti  Ti150  1  0.70439810  0.29937543  0.11884168  1
  Ti  Ti151  1  0.20090794  0.81537312  0.50589608  1
  Ti  Ti152  1  0.09021041  0.52833089  0.62181916  1
  Ti  Ti153  1  0.50123963  0.89750037  0.87437232  1
  Ti  Ti154  1  0.50576279  0.49675552  0.38298503  1
  Ti  Ti155  1  0.68659998  0.50338142  0.87820226  1
  Ti  Ti156  1  0.19175869  0.58994553  0.75256711  1
  Ti  Ti157  1  0.50614266  0.69429528  0.11175130  1
  Ti  Ti158  1  0.69030134  0.70776822  0.11116077  1
  Ti  Ti159  1  0.89656312  0.90171047  0.62323256  1
  Mo  Mo160  1  0.50282175  0.09518654  0.37988927  1
  Mo  Mo161  1  0.59832554  0.59364967  0.00690942  1
  Mo  Mo162  1  0.19669326  0.41362310  0.48563336  1
  Mo  Mo163  1  0.00810508  0.00733284  -0.00156815  1
  Mo  Mo164  1  0.20217797  0.41296952  0.74650352  1
  Mo  Mo165  1  0.00201963  0.60715792  0.25722523  1
  Mo  Mo166  1  0.50628901  0.08404583  0.63030296  1
  Mo  Mo167  1  0.39720886  0.79157117  0.51304473  1
  Mo  Mo168  1  0.20795669  0.19879057  0.24816688  1
  Mo  Mo169  1  0.28764610  0.90200792  0.38024936  1
  Mo  Mo170  1  0.50601831  0.30122399  0.12071249  1
  Mo  Mo171  1  -0.00363831  0.39602575  0.25024453  1
  Mo  Mo172  1  0.49226813  0.08750933  0.86773016  1
  Mo  Mo173  1  0.10634936  0.69937929  0.62139409  1
  Mo  Mo174  1  0.09503123  0.89982477  0.62610001  1
  Mo  Mo175  1  0.09592081  0.71319139  0.37312430  1
  Mo  Mo176  1  -0.00580697  0.59728491  0.00314954  1
  Mo  Mo177  1  0.10094182  0.10598799  0.86511001  1
  Mo  Mo178  1  0.69817963  0.10602074  0.38420872  1
  Mo  Mo179  1  0.80691105  0.58494108  0.50908999  1
  Mo  Mo180  1  0.30394957  0.29898788  0.61212292  1
  Mo  Mo181  1  0.59903079  0.19984528  0.75235344  1
  Mo  Mo182  1  0.09237557  0.29013498  0.86714606  1
  Mo  Mo183  1  0.79185229  0.80617341  0.25008577  1
  Mo  Mo184  1  0.69007198  0.09958076  0.63310033  1
  Mo  Mo185  1  0.39820964  0.59526562  0.00691832  1
  Mo  Mo186  1  0.69755345  0.69302341  0.61929630  1
  Mo  Mo187  1  0.90395939  0.31465676  0.62334987  1
  Mo  Mo188  1  0.00483626  0.80824246  0.00482279  1
  Mo  Mo189  1  0.09436923  0.10803560  0.62266565  1
  Mo  Mo190  1  0.20534942  0.19993046  0.52668041  1
  Mo  Mo191  1  0.80464061  0.20183623  0.75505569  1
  Mo  Mo192  1  0.59441815  0.80775923  0.00237395  1
  Mo  Mo193  1  0.12498870  0.48828591  0.87078158  1
  Mo  Mo194  1  0.89693216  0.71099491  0.38756778  1
  Mo  Mo195  1  0.60537049  0.80417422  0.51176494  1
  Mo  Mo196  1  0.50662156  0.48724890  0.86646707  1
  Mo  Mo197  1  0.30139301  0.09631307  0.64088735  1
  Mo  Mo198  1  0.01272766  0.60297280  0.74585360  1
  Mo  Mo199  1  0.20686637  0.39018229  0.00635383  1
