# generated using pymatgen
data_HfZrTaTiMo
_symmetry_space_group_name_H-M   'P 1'
_cell_length_a   15.20905155
_cell_length_b   15.20592884
_cell_length_c   16.87147837
_cell_angle_alpha   90.06032322
_cell_angle_beta   90.01881259
_cell_angle_gamma   89.83825362
_symmetry_Int_Tables_number   1
_chemical_formula_structural   HfZrTaTiMo
_chemical_formula_sum   'Hf40 Zr40 Ta40 Ti40 Mo40'
_cell_volume   3901.81101864
_cell_formula_units_Z   40
loop_
 _symmetry_equiv_pos_site_id
 _symmetry_equiv_pos_as_xyz
  1  'x, y, z'
loop_
 _atom_site_type_symbol
 _atom_site_label
 _atom_site_symmetry_multiplicity
 _atom_site_fract_x
 _atom_site_fract_y
 _atom_site_fract_z
 _atom_site_occupancy
  Hf  Hf0  1  0.09014751  0.87544229  0.13409064  1
  Hf  Hf1  1  0.69291965  0.69737164  0.87990075  1
  Hf  Hf2  1  0.28220434  0.91324671  0.87415025  1
  Hf  Hf3  1  0.00863723  0.41486288  -0.00246935  1
  Hf  Hf4  1  0.38703769  0.80039767  0.24536368  1
  Hf  Hf5  1  0.50475738  0.48457758  0.62173742  1
  Hf  Hf6  1  0.50507526  0.12133317  0.63978650  1
  Hf  Hf7  1  0.28047829  0.69806444  0.86666898  1
  Hf  Hf8  1  0.80982945  0.21270149  0.48573190  1
  Hf  Hf9  1  0.60679047  0.38882234  0.48454527  1
  Hf  Hf10  1  0.90653306  0.30109771  0.13692838  1
  Hf  Hf11  1  -0.00342655  0.80633967  0.51464408  1
  Hf  Hf12  1  0.20126967  0.18935410  0.50130321  1
  Hf  Hf13  1  0.49486270  0.69211615  0.62494911  1
  Hf  Hf14  1  -0.02060628  0.79191597  0.72661963  1
  Hf  Hf15  1  0.60228143  0.60954623  0.25443703  1
  Hf  Hf16  1  0.29247608  0.50464208  0.12682094  1
  Hf  Hf17  1  0.88186278  0.93137842  0.61408774  1
  Hf  Hf18  1  0.40141857  0.39247635  0.25423304  1
  Hf  Hf19  1  0.10512518  0.30346813  0.86111627  1
  Hf  Hf20  1  -0.00900767  -0.00514781  0.26237233  1
  Hf  Hf21  1  0.51903522  0.27111053  0.36064443  1
  Hf  Hf22  1  0.08701369  0.28410750  0.62772895  1
  Hf  Hf23  1  0.82750772  0.19304572  0.74664663  1
  Hf  Hf24  1  0.39517505  -0.01283624  0.51959164  1
  Hf  Hf25  1  0.50341668  0.49942367  0.13037035  1
  Hf  Hf26  1  0.81396217  0.60690678  0.00113581  1
  Hf  Hf27  1  0.48173999  0.91036834  0.36882805  1
  Hf  Hf28  1  0.30038974  0.29058109  0.37779565  1
  Hf  Hf29  1  0.00787800  0.41484563  0.27399691  1
  Hf  Hf30  1  0.70559152  0.29549421  0.11439000  1
  Hf  Hf31  1  -0.00757561  -0.00248494  -0.00132493  1
  Hf  Hf32  1  0.20182032  0.40643612  0.25791003  1
  Hf  Hf33  1  0.27327868  0.89018854  0.63809869  1
  Hf  Hf34  1  0.88239273  0.90980780  0.13101260  1
  Hf  Hf35  1  0.29108484  0.90685623  0.11341046  1
  Hf  Hf36  1  0.10883755  0.70285219  0.39945946  1
  Hf  Hf37  1  0.20129794  0.40832714  -0.00079731  1
  Hf  Hf38  1  -0.00020389  0.37985659  0.48775444  1
  Hf  Hf39  1  0.39526194  0.60144220  -0.01200375  1
  Zr  Zr40  1  0.17665914  0.79068247  -0.00952333  1
  Zr  Zr41  1  0.08190589  0.88939670  0.85158092  1
  Zr  Zr42  1  -0.02002460  0.78760835  -0.00459567  1
  Zr  Zr43  1  0.61068160  0.39524566  0.25334390  1
  Zr  Zr44  1  0.32625603  0.28713239  0.62767957  1
  Zr  Zr45  1  0.41373464  0.39439558  0.76187426  1
  Zr  Zr46  1  0.27670577  0.69837622  0.12181410  1
  Zr  Zr47  1  -0.00026426  0.20701899  0.00404019  1
  Zr  Zr48  1  0.68929332  0.91607590  0.39051745  1
  Zr  Zr49  1  0.20385588  0.40329970  0.73215193  1
  Zr  Zr50  1  0.20753667  0.20198478  0.01074502  1
  Zr  Zr51  1  0.70553030  0.30449699  0.62203479  1
  Zr  Zr52  1  0.20499754  -0.01102282  0.25294308  1
  Zr  Zr53  1  0.80636917  0.40653177  0.26401811  1
  Zr  Zr54  1  0.42146724  0.18667139  0.49509308  1
  Zr  Zr55  1  0.00865655  0.01457596  0.49123043  1
  Zr  Zr56  1  0.40518491  0.58868760  0.75940319  1
  Zr  Zr57  1  0.92459933  0.51398054  0.12907230  1
  Zr  Zr58  1  0.40015346  0.80105702  -0.00461807  1
  Zr  Zr59  1  0.39524101  0.79993502  0.74891065  1
  Zr  Zr60  1  0.87402654  0.91563966  0.86474382  1
  Zr  Zr61  1  0.81511852  0.60756013  0.25943694  1
  Zr  Zr62  1  0.51600389  0.30552033  0.89077206  1
  Zr  Zr63  1  0.70205743  0.71257351  0.39139226  1
  Zr  Zr64  1  0.67733608  0.89914724  0.86969385  1
  Zr  Zr65  1  0.72164505  0.30257463  0.89088183  1
  Zr  Zr66  1  0.38803745  0.01419579  0.74164674  1
  Zr  Zr67  1  0.10748752  0.09437874  0.87414811  1
  Zr  Zr68  1  0.21137392  0.19981624  0.24527618  1
  Zr  Zr69  1  0.51249198  0.09191339  0.87273211  1
  Zr  Zr70  1  0.79507349  0.80596799  0.25306467  1
  Zr  Zr71  1  0.40499518  0.39838272  0.49147821  1
  Zr  Zr72  1  0.79840828  0.59192377  0.74301838  1
  Zr  Zr73  1  0.61908178  0.20489384  0.75955621  1
  Zr  Zr74  1  0.09953650  0.09239676  0.12894364  1
  Zr  Zr75  1  0.77720853  0.80201194  0.72955055  1
  Zr  Zr76  1  0.89822379  0.69705675  0.86246054  1
  Zr  Zr77  1  0.40922576  0.40520205  -0.00562510  1
  Zr  Zr78  1  0.71188356  0.08535037  0.11810531  1
  Zr  Zr79  1  0.57307364  0.80581126  0.50623668  1
  Ta  Ta80  1  0.19969088  0.59747567  0.72676810  1
  Ta  Ta81  1  0.89420546  0.48213417  0.61125216  1
  Ta  Ta82  1  0.00419212  0.59296415  0.51884697  1
  Ta  Ta83  1  0.28783876  0.88530407  0.37907252  1
  Ta  Ta84  1  0.21444608  0.60177484  0.52102232  1
  Ta  Ta85  1  0.58786964  0.02104984  0.50908540  1
  Ta  Ta86  1  0.69678810  0.70287334  0.12280691  1
  Ta  Ta87  1  0.68025042  0.11765025  0.37686828  1
  Ta  Ta88  1  0.79268995  0.20023792  0.26070950  1
  Ta  Ta89  1  0.17910486  0.60877964  0.25705926  1
  Ta  Ta90  1  0.61610227  0.41691470  0.75490505  1
  Ta  Ta91  1  0.30721684  0.10632499  0.88641010  1
  Ta  Ta92  1  0.78057913  0.81405065  0.00922606  1
  Ta  Ta93  1  0.59752399  0.59852503  0.00441569  1
  Ta  Ta94  1  0.10285431  0.31716750  0.13444822  1
  Ta  Ta95  1  0.00421900  0.20642472  0.26861700  1
  Ta  Ta96  1  0.60778167  0.19016669  -0.00053499  1
  Ta  Ta97  1  0.59453558  0.59634759  0.49356375  1
  Ta  Ta98  1  0.69009024  0.90469864  0.60450031  1
  Ta  Ta99  1  0.70767995  0.50431686  0.11936722  1
  Ta  Ta100  1  0.20287030  0.40436195  0.51211375  1
  Ta  Ta101  1  0.49716819  0.70050867  0.12798878  1
  Ta  Ta102  1  0.40418301  0.00457984  -0.00257470  1
  Ta  Ta103  1  0.31887509  0.07944294  0.37089448  1
  Ta  Ta104  1  0.70306833  0.50975616  0.61165381  1
  Ta  Ta105  1  0.90360982  0.49258022  0.86973921  1
  Ta  Ta106  1  0.89172563  0.89325876  0.38851353  1
  Ta  Ta107  1  0.50468859  0.28903149  0.11977447  1
  Ta  Ta108  1  0.00167287  0.77884541  0.26343813  1
  Ta  Ta109  1  0.80456868  0.39863743  0.74889616  1
  Ta  Ta110  1  0.10949272  0.71065177  0.62304019  1
  Ta  Ta111  1  0.72572542  0.09210507  0.88712074  1
  Ta  Ta112  1  0.21898528  0.18666823  0.74665508  1
  Ta  Ta113  1  0.29682205  0.51021709  0.37891120  1
  Ta  Ta114  1  0.30576661  0.29285753  0.87440065  1
  Ta  Ta115  1  0.78846382  0.00650861  0.26584957  1
  Ta  Ta116  1  0.49684884  0.50779410  0.36965429  1
  Ta  Ta117  1  0.50394308  0.09696675  0.11555556  1
  Ta  Ta118  1  0.37321422  0.78796417  0.50854708  1
  Ta  Ta119  1  -0.02134376  0.02679453  0.74635480  1
  Ti  Ti120  1  0.58915456  0.79614487  0.00893996  1
  Ti  Ti121  1  -0.01031696  0.39475180  0.73993271  1
  Ti  Ti122  1  0.49836306  0.90287803  0.12892618  1
  Ti  Ti123  1  0.08864214  0.91016344  0.63883002  1
  Ti  Ti124  1  0.90932353  0.29541840  0.87507642  1
  Ti  Ti125  1  0.61222853  -0.00429663  0.73361812  1
  Ti  Ti126  1  0.48723075  0.70089355  0.37560065  1
  Ti  Ti127  1  0.29632846  0.69645512  0.37457885  1
  Ti  Ti128  1  0.49167291  0.89950341  0.87179855  1
  Ti  Ti129  1  0.59603698  0.80725055  0.24561024  1
  Ti  Ti130  1  0.70246317  0.49734976  0.88828266  1
  Ti  Ti131  1  0.09435853  0.50616488  0.85921641  1
  Ti  Ti132  1  0.60589637  -0.01659520  0.00499420  1
  Ti  Ti133  1  0.90317521  0.69527567  0.39797434  1
  Ti  Ti134  1  0.08922394  0.68471946  0.85310333  1
  Ti  Ti135  1  0.31327368  0.09931577  0.11716407  1
  Ti  Ti136  1  0.90723099  0.70670491  0.12947590  1
  Ti  Ti137  1  0.39950052  0.59701587  0.49953824  1
  Ti  Ti138  1  0.80488572  0.40671983  0.48102852  1
  Ti  Ti139  1  0.11478301  0.10131361  0.37039900  1
  Ti  Ti140  1  0.11014222  0.09183002  0.63291790  1
  Ti  Ti141  1  0.50580440  0.70300938  0.87058766  1
  Ti  Ti142  1  0.58940504  0.80298105  0.73293842  1
  Ti  Ti143  1  0.39209186  0.60023599  0.25244959  1
  Ti  Ti144  1  0.09842784  0.89297893  0.37411487  1
  Ti  Ti145  1  0.70345401  0.51123234  0.38104766  1
  Ti  Ti146  1  0.87500394  0.69146214  0.60621231  1
  Ti  Ti147  1  0.59082963  0.01013531  0.24657597  1
  Ti  Ti148  1  0.89948499  0.10621616  0.13669671  1
  Ti  Ti149  1  0.89489950  0.09841114  0.37567724  1
  Ti  Ti150  1  0.72169587  0.09589459  0.61314058  1
  Ti  Ti151  1  0.41447462  0.17726513  0.24616595  1
  Ti  Ti152  1  0.20140120  -0.00994915  0.49890593  1
  Ti  Ti153  1  0.60709872  0.60356541  0.74691184  1
  Ti  Ti154  1  0.81240822  0.40261522  0.00488248  1
  Ti  Ti155  1  0.31249326  0.29813903  0.12321772  1
  Ti  Ti156  1  0.10557013  0.50781139  0.39521176  1
  Ti  Ti157  1  0.00051025  0.58633500  0.72045612  1
  Ti  Ti158  1  0.28602326  0.49841258  0.87132650  1
  Ti  Ti159  1  0.92094533  0.12918765  0.60783089  1
  Mo  Mo160  1  0.20311052  -0.00019964  0.00716260  1
  Mo  Mo161  1  0.40944846  0.19830968  0.00569061  1
  Mo  Mo162  1  0.50363041  0.08425087  0.37123009  1
  Mo  Mo163  1  0.40279793  0.20399321  0.76143653  1
  Mo  Mo164  1  0.90584739  0.51119588  0.39731625  1
  Mo  Mo165  1  0.11070745  0.29664104  0.37791733  1
  Mo  Mo166  1  0.79649636  0.80375185  0.50876296  1
  Mo  Mo167  1  0.60510608  0.18953752  0.23424921  1
  Mo  Mo168  1  0.79809376  0.59560644  0.49851836  1
  Mo  Mo169  1  0.09580106  0.49542797  0.61772031  1
  Mo  Mo170  1  0.30751667  0.49970754  0.61831250  1
  Mo  Mo171  1  0.78466489  0.01415842  0.73966034  1
  Mo  Mo172  1  0.51784887  0.30564415  0.63391395  1
  Mo  Mo173  1  0.10623204  0.50981847  0.13023046  1
  Mo  Mo174  1  0.90314497  0.10654311  0.87939147  1
  Mo  Mo175  1  0.89898772  0.30161048  0.62041010  1
  Mo  Mo176  1  0.08145807  0.67933899  0.12830790  1
  Mo  Mo177  1  0.70444830  0.30191281  0.37298662  1
  Mo  Mo178  1  0.68768790  0.69654765  0.61270068  1
  Mo  Mo179  1  0.19197522  0.79164193  0.25604330  1
  Mo  Mo180  1  0.68186678  0.89423974  0.13261642  1
  Mo  Mo181  1  0.00217892  0.60440480  0.27289539  1
  Mo  Mo182  1  0.49706278  0.90420690  0.62968158  1
  Mo  Mo183  1  0.52807737  0.51646692  0.87787577  1
  Mo  Mo184  1  0.01296386  0.20333448  0.75028766  1
  Mo  Mo185  1  0.30003259  0.69489509  0.63204850  1
  Mo  Mo186  1  0.18230892  0.79390703  0.75353698  1
  Mo  Mo187  1  0.39910317  -0.00151064  0.23879708  1
  Mo  Mo188  1  0.61414090  0.40699222  0.01203451  1
  Mo  Mo189  1  0.29220714  0.09525490  0.62351276  1
  Mo  Mo190  1  0.17890810  0.59167664  -0.01398390  1
  Mo  Mo191  1  0.79884566  -0.00203367  0.00322587  1
  Mo  Mo192  1  0.79384286  0.01165234  0.48471791  1
  Mo  Mo193  1  0.60956364  0.19753900  0.50659727  1
  Mo  Mo194  1  0.18670446  0.00608433  0.75001590  1
  Mo  Mo195  1  0.01007850  0.19716364  0.47504798  1
  Mo  Mo196  1  0.81684885  0.19460281  0.00233071  1
  Mo  Mo197  1  0.90149938  0.29821490  0.36235432  1
  Mo  Mo198  1  0.01228253  0.60085858  -0.01261538  1
  Mo  Mo199  1  0.19545316  0.80819954  0.50387321  1
