# generated using pymatgen
data_HfZrTaTiMo
_symmetry_space_group_name_H-M   'P 1'
_cell_length_a   15.19389632
_cell_length_b   15.21621794
_cell_length_c   16.85847244
_cell_angle_alpha   89.99147376
_cell_angle_beta   89.96515838
_cell_angle_gamma   89.98380662
_symmetry_Int_Tables_number   1
_chemical_formula_structural   HfZrTaTiMo
_chemical_formula_sum   'Hf40 Zr40 Ta40 Ti40 Mo40'
_cell_volume   3897.57065082
_cell_formula_units_Z   40
loop_
 _symmetry_equiv_pos_site_id
 _symmetry_equiv_pos_as_xyz
  1  'x, y, z'
loop_
 _atom_site_type_symbol
 _atom_site_label
 _atom_site_symmetry_multiplicity
 _atom_site_fract_x
 _atom_site_fract_y
 _atom_site_fract_z
 _atom_site_occupancy
  Hf  Hf0  1  0.50063054  0.72107819  0.37810156  1
  Hf  Hf1  1  0.71545778  0.51423382  0.38604134  1
  Hf  Hf2  1  0.50492439  0.72433460  0.11912639  1
  Hf  Hf3  1  0.49656343  0.70550914  0.62874343  1
  Hf  Hf4  1  0.28845727  0.48892439  0.87555489  1
  Hf  Hf5  1  0.90673682  0.30222869  0.36525238  1
  Hf  Hf6  1  0.90200140  0.09087195  0.63317037  1
  Hf  Hf7  1  0.88217012  0.68815914  0.37912941  1
  Hf  Hf8  1  0.29385096  0.48571352  0.62275493  1
  Hf  Hf9  1  0.60272233  0.19821100  0.49516287  1
  Hf  Hf10  1  0.12789473  0.89574927  0.38786205  1
  Hf  Hf11  1  0.59762414  0.40525484  0.49213931  1
  Hf  Hf12  1  0.79632167  -0.01501004  0.75873440  1
  Hf  Hf13  1  0.40780947  0.17907088  0.72635748  1
  Hf  Hf14  1  0.91503062  0.09333529  0.86170966  1
  Hf  Hf15  1  0.89489541  0.49667973  0.13033929  1
  Hf  Hf16  1  0.69798604  0.09535871  0.62340039  1
  Hf  Hf17  1  0.39953807  0.20596557  0.51525690  1
  Hf  Hf18  1  0.11093560  0.31542382  0.63675847  1
  Hf  Hf19  1  0.37961234  0.80752763  0.51086911  1
  Hf  Hf20  1  0.49521914  0.11664221  0.88450451  1
  Hf  Hf21  1  0.40072212  0.00236423  0.01656661  1
  Hf  Hf22  1  0.69088708  0.89313881  0.12700905  1
  Hf  Hf23  1  0.19775433  0.59246883  0.49693392  1
  Hf  Hf24  1  0.89946966  0.89727083  0.37184478  1
  Hf  Hf25  1  0.18905182  0.78775643  -0.01605947  1
  Hf  Hf26  1  -0.00088454  0.40299943  -0.00786509  1
  Hf  Hf27  1  0.38884826  0.21134334  0.23905685  1
  Hf  Hf28  1  -0.00580166  0.79703635  0.50268203  1
  Hf  Hf29  1  0.09324203  0.89755583  0.12282756  1
  Hf  Hf30  1  -0.01003659  0.59109482  0.50340619  1
  Hf  Hf31  1  0.59460664  0.00942486  0.76197700  1
  Hf  Hf32  1  0.21814765  0.20377542  0.73889826  1
  Hf  Hf33  1  0.39254495  0.61025291  -0.01453337  1
  Hf  Hf34  1  0.29378792  0.71395998  0.37007932  1
  Hf  Hf35  1  0.01910921  0.18805604  -0.00531344  1
  Hf  Hf36  1  0.69861882  0.50023805  0.62628470  1
  Hf  Hf37  1  0.39984698  0.00810673  0.23507581  1
  Hf  Hf38  1  0.59817837  0.59862994  0.75588912  1
  Hf  Hf39  1  0.39410681  0.00485045  0.49799909  1
  Zr  Zr40  1  0.69319881  0.29986609  0.87489203  1
  Zr  Zr41  1  0.00172929  0.59671764  0.24462137  1
  Zr  Zr42  1  0.20535429  0.38663029  0.24831426  1
  Zr  Zr43  1  0.00741181  0.79786816  0.26017107  1
  Zr  Zr44  1  0.89878234  0.08610649  0.13245693  1
  Zr  Zr45  1  0.38574098  0.80586013  0.75053412  1
  Zr  Zr46  1  0.40264372  0.38599363  0.75163388  1
  Zr  Zr47  1  0.80119062  0.19315784  0.00802374  1
  Zr  Zr48  1  0.60116155  0.21383082  0.74586353  1
  Zr  Zr49  1  0.10972731  0.29776217  0.86069969  1
  Zr  Zr50  1  0.10890941  0.90154709  0.61885679  1
  Zr  Zr51  1  0.81450620  0.40076534  0.50612713  1
  Zr  Zr52  1  0.19512015  0.18796969  0.51414352  1
  Zr  Zr53  1  0.91298161  0.30064049  0.13257148  1
  Zr  Zr54  1  0.29542323  0.10385613  0.88339960  1
  Zr  Zr55  1  0.20467055  0.59399753  0.25414520  1
  Zr  Zr56  1  0.28590203  0.09438888  0.37522837  1
  Zr  Zr57  1  0.60173176  0.00779093  -0.00036346  1
  Zr  Zr58  1  0.61050751  0.60089293  -0.01035659  1
  Zr  Zr59  1  0.29099097  0.88925434  0.11806257  1
  Zr  Zr60  1  0.59599502  -0.00568859  0.26322259  1
  Zr  Zr61  1  0.09136835  0.10000662  0.64378003  1
  Zr  Zr62  1  0.62528331  0.40607175  0.25098464  1
  Zr  Zr63  1  0.49598790  0.92223854  0.63470392  1
  Zr  Zr64  1  -0.00360829  0.79341979  0.74213260  1
  Zr  Zr65  1  0.60435870  0.61810971  0.25361348  1
  Zr  Zr66  1  0.71908154  0.70290866  0.87032051  1
  Zr  Zr67  1  0.70369374  0.70396510  0.62826036  1
  Zr  Zr68  1  0.29840028  0.50175732  0.11293724  1
  Zr  Zr69  1  0.50972353  0.31114550  0.12363028  1
  Zr  Zr70  1  0.89476841  0.89313756  0.13887554  1
  Zr  Zr71  1  0.60107161  -0.00214855  0.47703297  1
  Zr  Zr72  1  0.78901693  0.20255811  0.24425008  1
  Zr  Zr73  1  0.50977575  0.51543850  0.11730143  1
  Zr  Zr74  1  0.80315407  -0.00211807  0.48809195  1
  Zr  Zr75  1  -0.00207795  0.61654733  0.00733300  1
  Zr  Zr76  1  0.01564393  0.39613940  0.50439057  1
  Zr  Zr77  1  0.40529153  0.41491353  0.25137109  1
  Zr  Zr78  1  0.89457979  0.30174557  0.86826707  1
  Zr  Zr79  1  0.38962879  0.59938117  0.75638058  1
  Ta  Ta80  1  0.49644584  0.30795153  0.37322364  1
  Ta  Ta81  1  0.49545655  0.90667354  0.87437145  1
  Ta  Ta82  1  0.09404524  0.09207592  0.12770120  1
  Ta  Ta83  1  0.10411452  0.69367270  0.62459167  1
  Ta  Ta84  1  -0.00782060  -0.01351476  -0.00715811  1
  Ta  Ta85  1  0.79879219  -0.01378236  -0.01009852  1
  Ta  Ta86  1  -0.00696702  0.40867653  0.75085055  1
  Ta  Ta87  1  0.70413679  0.29705343  0.37685350  1
  Ta  Ta88  1  0.70364837  0.49186113  0.86541303  1
  Ta  Ta89  1  0.59397435  0.19758743  0.25238269  1
  Ta  Ta90  1  0.90669539  0.49247575  0.36044065  1
  Ta  Ta91  1  0.60079351  0.61205451  0.49964864  1
  Ta  Ta92  1  0.31132251  0.29334863  0.88437347  1
  Ta  Ta93  1  0.20911828  -0.00941132  0.75661427  1
  Ta  Ta94  1  0.10752830  0.28557738  0.37644004  1
  Ta  Ta95  1  0.29708976  0.90112631  0.88311934  1
  Ta  Ta96  1  0.70558055  0.30115290  0.62379362  1
  Ta  Ta97  1  0.81644290  0.79198257  0.00377991  1
  Ta  Ta98  1  0.50185379  0.71120952  0.87225935  1
  Ta  Ta99  1  0.40280684  0.80292078  -0.00947855  1
  Ta  Ta100  1  0.77919916  0.78847782  0.25662353  1
  Ta  Ta101  1  0.89093241  0.50547137  0.87165683  1
  Ta  Ta102  1  0.50465015  0.31530069  0.61828253  1
  Ta  Ta103  1  0.30069729  0.30276091  0.38850675  1
  Ta  Ta104  1  0.78350558  0.40530112  0.00621265  1
  Ta  Ta105  1  0.10772468  0.70115150  0.12662799  1
  Ta  Ta106  1  0.90559764  0.29228391  0.63633388  1
  Ta  Ta107  1  0.27965671  0.10763039  0.11826010  1
  Ta  Ta108  1  0.79387246  0.59488802  0.24100588  1
  Ta  Ta109  1  0.69948214  0.89951989  0.62419439  1
  Ta  Ta110  1  0.49822361  0.50402906  0.61940256  1
  Ta  Ta111  1  0.08852663  0.50987745  0.86402602  1
  Ta  Ta112  1  0.17975990  0.00732775  -0.00944528  1
  Ta  Ta113  1  0.19722703  -0.00944524  0.24903003  1
  Ta  Ta114  1  0.09868076  0.48775968  0.12293265  1
  Ta  Ta115  1  0.40028183  0.60313784  0.50346707  1
  Ta  Ta116  1  0.19310502  0.18722001  0.25155269  1
  Ta  Ta117  1  0.39675198  0.20691619  0.01866648  1
  Ta  Ta118  1  0.09661440  0.69324304  0.38125568  1
  Ta  Ta119  1  0.40245881  0.61232190  0.25050725  1
  Ti  Ti120  1  0.70809110  0.69673301  0.11802080  1
  Ti  Ti121  1  0.70601635  0.10207822  0.87902211  1
  Ti  Ti122  1  0.08792671  0.90196004  0.86904106  1
  Ti  Ti123  1  0.00979070  0.19696376  0.25346751  1
  Ti  Ti124  1  0.79434397  0.39905506  0.74371258  1
  Ti  Ti125  1  0.78716991  0.79340714  0.49906617  1
  Ti  Ti126  1  0.80316205  0.19913383  0.49902751  1
  Ti  Ti127  1  0.10031468  0.50568370  0.64183829  1
  Ti  Ti128  1  0.19485311  0.60787292  0.75654323  1
  Ti  Ti129  1  0.50264718  0.30677482  0.88565305  1
  Ti  Ti130  1  0.80440810  0.59738410  0.00399961  1
  Ti  Ti131  1  0.29959772  0.70012849  0.12773795  1
  Ti  Ti132  1  0.10217877  0.48410274  0.37067206  1
  Ti  Ti133  1  0.49169880  0.11342574  0.37001863  1
  Ti  Ti134  1  0.40378665  0.40100076  -0.00096702  1
  Ti  Ti135  1  -0.00563478  0.19786128  0.49879052  1
  Ti  Ti136  1  0.60814071  0.81160856  0.75863681  1
  Ti  Ti137  1  0.80297985  0.79599398  0.74413230  1
  Ti  Ti138  1  0.19837676  0.79351668  0.75875594  1
  Ti  Ti139  1  0.81756591  0.60253024  0.74759108  1
  Ti  Ti140  1  0.01170694  0.01061653  0.49085302  1
  Ti  Ti141  1  0.19009246  0.59466492  -0.00779352  1
  Ti  Ti142  1  0.00954985  0.00749627  0.26648479  1
  Ti  Ti143  1  0.59363901  0.81101289  0.50125448  1
  Ti  Ti144  1  0.60926857  0.81093090  -0.01290558  1
  Ti  Ti145  1  0.89933388  0.10635964  0.37255690  1
  Ti  Ti146  1  0.69050499  0.09988157  0.12732668  1
  Ti  Ti147  1  0.30906609  0.49611329  0.38378353  1
  Ti  Ti148  1  0.50680522  0.49259795  0.87728613  1
  Ti  Ti149  1  0.91994186  0.69594817  0.87301435  1
  Ti  Ti150  1  0.11299189  0.28810019  0.12486895  1
  Ti  Ti151  1  0.49917791  0.51193156  0.37868255  1
  Ti  Ti152  1  0.60233697  0.21003261  0.01287801  1
  Ti  Ti153  1  0.89490490  0.88571470  0.87474778  1
  Ti  Ti154  1  0.19862663  0.38588462  0.00169103  1
  Ti  Ti155  1  0.80145466  0.19735426  0.74745528  1
  Ti  Ti156  1  0.89394644  0.89513528  0.62154088  1
  Ti  Ti157  1  0.90349693  0.50448086  0.63418924  1
  Ti  Ti158  1  0.78739135  -0.00124097  0.26774675  1
  Ti  Ti159  1  0.40565556  0.81367033  0.24610315  1
  Mo  Mo160  1  0.01311343  0.39134321  0.24872966  1
  Mo  Mo161  1  0.70637273  0.10905625  0.37150967  1
  Mo  Mo162  1  0.20579807  -0.00884797  0.50644752  1
  Mo  Mo163  1  0.50810639  0.10038086  0.61977064  1
  Mo  Mo164  1  0.28366485  0.69501705  0.62501595  1
  Mo  Mo165  1  0.69524534  0.70409898  0.38601467  1
  Mo  Mo166  1  0.70323174  0.30141604  0.11952071  1
  Mo  Mo167  1  0.59844409  0.40658610  0.74346691  1
  Mo  Mo168  1  0.29965224  0.07129531  0.62531017  1
  Mo  Mo169  1  0.69311499  0.88045272  0.37230173  1
  Mo  Mo170  1  -0.00140144  0.20341973  0.74813308  1
  Mo  Mo171  1  0.70210999  0.89539986  0.87993041  1
  Mo  Mo172  1  0.89686823  0.69860086  0.61891413  1
  Mo  Mo173  1  -0.00162688  0.59929898  0.74438192  1
  Mo  Mo174  1  0.80352976  0.60087199  0.50928776  1
  Mo  Mo175  1  0.30491619  0.30486773  0.61448965  1
  Mo  Mo176  1  0.40333933  0.41045005  0.49336254  1
  Mo  Mo177  1  0.20507647  0.39605192  0.49086347  1
  Mo  Mo178  1  -0.00013046  -0.01233447  0.75718549  1
  Mo  Mo179  1  0.19787175  0.78628071  0.50585140  1
  Mo  Mo180  1  0.31056888  0.89782672  0.36403271  1
  Mo  Mo181  1  0.50099165  0.89950681  0.11744943  1
  Mo  Mo182  1  -0.00315170  0.80583433  -0.00419274  1
  Mo  Mo183  1  0.48303816  0.90250226  0.37433581  1
  Mo  Mo184  1  0.20331124  0.79467786  0.24500703  1
  Mo  Mo185  1  0.50163005  0.10837633  0.12640216  1
  Mo  Mo186  1  0.59541672  0.80537213  0.25020914  1
  Mo  Mo187  1  0.39443006  -0.00129887  0.76043428  1
  Mo  Mo188  1  0.09014454  0.09742081  0.37759849  1
  Mo  Mo189  1  0.89307834  0.70364789  0.13031127  1
  Mo  Mo190  1  0.29106451  0.89657251  0.63217535  1
  Mo  Mo191  1  0.29546500  0.70100011  0.87694799  1
  Mo  Mo192  1  0.59945138  0.40170552  -0.00390247  1
  Mo  Mo193  1  0.09907894  0.69799297  0.86809261  1
  Mo  Mo194  1  0.80384074  0.40347855  0.25228403  1
  Mo  Mo195  1  0.20251275  0.40969240  0.75737631  1
  Mo  Mo196  1  0.10068960  0.08944133  0.85827500  1
  Mo  Mo197  1  0.19775927  0.19861372  -0.00126189  1
  Mo  Mo198  1  0.29358495  0.30240287  0.11318680  1
  Mo  Mo199  1  0.70308233  0.50175058  0.12037194  1
