# generated using pymatgen
data_HfZrTaTiMo
_symmetry_space_group_name_H-M   'P 1'
_cell_length_a   15.22113084
_cell_length_b   15.21143217
_cell_length_c   16.84627194
_cell_angle_alpha   90.00745172
_cell_angle_beta   89.99591904
_cell_angle_gamma   90.15408636
_symmetry_Int_Tables_number   1
_chemical_formula_structural   HfZrTaTiMo
_chemical_formula_sum   'Hf40 Zr40 Ta40 Ti40 Mo40'
_cell_volume   3900.49078276
_cell_formula_units_Z   40
loop_
 _symmetry_equiv_pos_site_id
 _symmetry_equiv_pos_as_xyz
  1  'x, y, z'
loop_
 _atom_site_type_symbol
 _atom_site_label
 _atom_site_symmetry_multiplicity
 _atom_site_fract_x
 _atom_site_fract_y
 _atom_site_fract_z
 _atom_site_occupancy
  Hf  Hf0  1  0.40666885  0.00437541  0.75729915  1
  Hf  Hf1  1  0.18601852  0.58280579  0.00585152  1
  Hf  Hf2  1  0.80794590  0.40773479  0.50422196  1
  Hf  Hf3  1  0.12147347  0.10641360  0.12568875  1
  Hf  Hf4  1  0.58753748  0.19630032  0.49388285  1
  Hf  Hf5  1  0.09913232  0.47829494  0.86563869  1
  Hf  Hf6  1  0.60577197  0.21124160  -0.00109801  1
  Hf  Hf7  1  0.09036372  0.69484793  0.11876826  1
  Hf  Hf8  1  0.29826449  0.48864192  0.12656069  1
  Hf  Hf9  1  0.70312975  0.90614726  0.62897813  1
  Hf  Hf10  1  0.49588987  0.71468589  0.62500036  1
  Hf  Hf11  1  0.80190176  0.00153250  -0.00757585  1
  Hf  Hf12  1  0.39064096  0.81113719  0.25210835  1
  Hf  Hf13  1  0.38650719  0.20314563  0.75983388  1
  Hf  Hf14  1  0.80328998  0.60134158  0.24346227  1
  Hf  Hf15  1  0.30175183  0.70289238  0.11376374  1
  Hf  Hf16  1  0.20855708  0.00256924  0.73299085  1
  Hf  Hf17  1  -0.01777756  0.58199594  0.75430979  1
  Hf  Hf18  1  0.61113520  0.81183136  0.25434604  1
  Hf  Hf19  1  0.09644194  0.12033489  0.88429173  1
  Hf  Hf20  1  0.59862010  -0.00082118  0.75910837  1
  Hf  Hf21  1  0.22512641  -0.00685583  0.48916933  1
  Hf  Hf22  1  0.78838260  0.19748063  0.49628923  1
  Hf  Hf23  1  0.10866964  0.69427579  0.85812230  1
  Hf  Hf24  1  0.32128810  0.90017707  0.62283441  1
  Hf  Hf25  1  0.50558438  0.90584086  0.11751184  1
  Hf  Hf26  1  0.30706233  0.69079446  0.89234863  1
  Hf  Hf27  1  0.21915726  -0.00383911  0.26116047  1
  Hf  Hf28  1  0.81180340  0.40610300  0.76966977  1
  Hf  Hf29  1  0.59236148  0.20274797  0.76460811  1
  Hf  Hf30  1  0.49761451  0.49939407  0.62373124  1
  Hf  Hf31  1  0.59470805  0.81123957  0.49377628  1
  Hf  Hf32  1  0.00341318  0.00173339  0.00216371  1
  Hf  Hf33  1  0.70721958  0.30412992  0.63201438  1
  Hf  Hf34  1  0.09744596  0.09733749  0.38525026  1
  Hf  Hf35  1  0.00651631  0.01893800  0.73335113  1
  Hf  Hf36  1  -0.01406409  0.59765285  -0.01944607  1
  Hf  Hf37  1  0.80628658  0.20561106  0.75866113  1
  Hf  Hf38  1  0.90039313  0.50975602  0.37494650  1
  Hf  Hf39  1  0.88918505  0.70507965  0.11645227  1
  Zr  Zr40  1  0.28898089  0.09878447  0.89170866  1
  Zr  Zr41  1  -0.01247157  0.20084437  0.49010948  1
  Zr  Zr42  1  0.09757563  0.70540779  0.64209255  1
  Zr  Zr43  1  0.09978974  0.28801112  0.60861107  1
  Zr  Zr44  1  0.60677563  0.20248507  0.24077731  1
  Zr  Zr45  1  0.60109749  0.40473750  0.75771404  1
  Zr  Zr46  1  0.71450637  0.69510948  0.38961520  1
  Zr  Zr47  1  0.10474327  0.89700356  0.12655518  1
  Zr  Zr48  1  0.60014465  0.59289924  0.49168188  1
  Zr  Zr49  1  0.29553861  0.28919452  0.13435939  1
  Zr  Zr50  1  0.39302305  0.59923228  0.49169985  1
  Zr  Zr51  1  0.49207135  0.28445093  0.62331027  1
  Zr  Zr52  1  -0.00675612  0.00417379  0.25705135  1
  Zr  Zr53  1  0.10841182  0.91549455  0.86983115  1
  Zr  Zr54  1  0.61026400  0.60286436  0.25448782  1
  Zr  Zr55  1  0.11861836  0.49577330  0.63760883  1
  Zr  Zr56  1  0.60440703  0.39445992  0.49303207  1
  Zr  Zr57  1  -0.00705717  0.59097091  0.51621457  1
  Zr  Zr58  1  0.89548865  0.49216245  0.11759604  1
  Zr  Zr59  1  0.81000793  0.20374693  0.00192344  1
  Zr  Zr60  1  0.88521914  0.69814683  0.63249862  1
  Zr  Zr61  1  0.39606370  0.39133171  0.48447688  1
  Zr  Zr62  1  0.39017333  0.58752738  0.75675042  1
  Zr  Zr63  1  0.50256750  0.31075289  0.13256835  1
  Zr  Zr64  1  0.89455868  0.89995242  0.12355820  1
  Zr  Zr65  1  0.80117770  0.80084088  -0.02564940  1
  Zr  Zr66  1  0.29058047  0.68610108  0.63223383  1
  Zr  Zr67  1  0.39401207  0.81279591  0.48418460  1
  Zr  Zr68  1  0.41429567  0.80086227  0.76362742  1
  Zr  Zr69  1  -0.00585852  0.40482210  0.24944488  1
  Zr  Zr70  1  0.80467316  0.19904936  0.24356209  1
  Zr  Zr71  1  0.09841174  0.88699251  0.38146039  1
  Zr  Zr72  1  0.50934273  0.70063462  0.12663816  1
  Zr  Zr73  1  0.18555756  0.19799764  0.74179393  1
  Zr  Zr74  1  -0.00297526  0.79271463  0.25593224  1
  Zr  Zr75  1  0.78027260  0.60267036  -0.01253535  1
  Zr  Zr76  1  0.69565894  0.70610907  0.62649500  1
  Zr  Zr77  1  0.30880478  0.47557246  0.89655333  1
  Zr  Zr78  1  0.30919231  0.89636252  0.89275005  1
  Zr  Zr79  1  0.71969656  0.91196212  0.38080027  1
  Ta  Ta80  1  -0.00871603  0.81284109  0.76092506  1
  Ta  Ta81  1  0.59726353  0.78903541  -0.01434842  1
  Ta  Ta82  1  0.50608656  0.91744133  0.36556948  1
  Ta  Ta83  1  0.68631612  0.49480200  0.11891696  1
  Ta  Ta84  1  0.90699535  0.10044843  0.87155530  1
  Ta  Ta85  1  0.90534808  0.70922071  0.38703089  1
  Ta  Ta86  1  0.19877182  0.59275627  0.49481749  1
  Ta  Ta87  1  -0.02057437  -0.00982848  0.50488131  1
  Ta  Ta88  1  0.80607802  0.00132218  0.75621818  1
  Ta  Ta89  1  0.18956131  0.59590960  0.24539579  1
  Ta  Ta90  1  0.88772128  0.30345736  0.37112236  1
  Ta  Ta91  1  0.60258654  0.00039966  -0.00754581  1
  Ta  Ta92  1  0.00592523  0.39516489  0.00531721  1
  Ta  Ta93  1  0.69663602  0.08790288  0.12076888  1
  Ta  Ta94  1  0.69012047  0.09810830  0.36836301  1
  Ta  Ta95  1  0.48528509  0.31619505  0.88593500  1
  Ta  Ta96  1  0.10017217  0.30862225  0.13408089  1
  Ta  Ta97  1  0.19891913  0.78946829  0.49836509  1
  Ta  Ta98  1  0.49765301  0.09994625  0.36801471  1
  Ta  Ta99  1  0.29620326  0.30744025  0.61481474  1
  Ta  Ta100  1  0.49942141  0.29991792  0.35684686  1
  Ta  Ta101  1  0.21575491  0.39143245  0.75217018  1
  Ta  Ta102  1  0.59207083  0.60805337  0.75909461  1
  Ta  Ta103  1  -0.00298826  0.80048258  -0.02503806  1
  Ta  Ta104  1  0.31021612  0.11462709  0.60656712  1
  Ta  Ta105  1  0.29264383  0.50350094  0.36078152  1
  Ta  Ta106  1  0.49542957  0.49743172  0.35372461  1
  Ta  Ta107  1  0.19191244  0.80098978  -0.00125489  1
  Ta  Ta108  1  0.71444714  0.51241153  0.63261127  1
  Ta  Ta109  1  0.19938769  0.19869530  0.26831256  1
  Ta  Ta110  1  0.39944143  0.39353109  0.74860639  1
  Ta  Ta111  1  0.49503923  0.49878427  0.14087139  1
  Ta  Ta112  1  0.78905709  0.59989763  0.77186670  1
  Ta  Ta113  1  0.49504342  0.70345021  0.36516045  1
  Ta  Ta114  1  0.09847862  0.68097213  0.37873168  1
  Ta  Ta115  1  0.00220275  0.20496569  0.25431930  1
  Ta  Ta116  1  0.79414278  0.39315432  -0.01224000  1
  Ta  Ta117  1  0.19835101  0.40515773  0.48259429  1
  Ta  Ta118  1  0.90639605  0.10427301  0.12801222  1
  Ta  Ta119  1  0.39487771  0.20884164  0.00084884  1
  Ti  Ti120  1  0.40675307  0.00662209  0.24198302  1
  Ti  Ti121  1  0.40234572  0.00549634  0.00553767  1
  Ti  Ti122  1  0.00312789  0.37391691  0.74138086  1
  Ti  Ti123  1  0.79842496  0.80191153  0.76568420  1
  Ti  Ti124  1  0.89225395  0.10971369  0.62413336  1
  Ti  Ti125  1  0.59903562  0.80221730  0.76830886  1
  Ti  Ti126  1  0.00292446  0.79742344  0.50530038  1
  Ti  Ti127  1  0.09329091  0.30839016  0.37648747  1
  Ti  Ti128  1  0.39071922  0.19318219  0.25199105  1
  Ti  Ti129  1  0.90089218  0.90330558  0.63207892  1
  Ti  Ti130  1  0.69592188  0.10193746  0.63160645  1
  Ti  Ti131  1  0.29972400  0.90846479  0.10953799  1
  Ti  Ti132  1  0.00649222  0.21021873  0.01330989  1
  Ti  Ti133  1  0.10706462  0.09421362  0.59670239  1
  Ti  Ti134  1  0.10381224  0.89764979  0.61785062  1
  Ti  Ti135  1  0.42334160  0.59127656  0.00258429  1
  Ti  Ti136  1  0.92535127  0.29742939  0.87826608  1
  Ti  Ti137  1  0.58963425  0.41239642  -0.00269276  1
  Ti  Ti138  1  0.19839968  0.79169177  0.25221185  1
  Ti  Ti139  1  0.00247798  0.59891802  0.24888391  1
  Ti  Ti140  1  0.21825663  0.20951650  0.47524608  1
  Ti  Ti141  1  0.49692939  0.10323537  0.12096084  1
  Ti  Ti142  1  0.39010268  0.60422397  0.25021382  1
  Ti  Ti143  1  0.49637156  0.08523522  0.62000939  1
  Ti  Ti144  1  0.68219955  0.49975575  0.88169651  1
  Ti  Ti145  1  0.49777357  0.10083195  0.88792353  1
  Ti  Ti146  1  0.69954833  0.88662984  0.11558264  1
  Ti  Ti147  1  0.70287207  0.48307938  0.36901085  1
  Ti  Ti148  1  0.70291879  0.10717349  0.87621949  1
  Ti  Ti149  1  0.81526751  0.81683059  0.50310439  1
  Ti  Ti150  1  0.78758379  -0.00345965  0.24126430  1
  Ti  Ti151  1  0.69754042  0.90594541  0.87305752  1
  Ti  Ti152  1  0.21001488  0.80361487  0.75193332  1
  Ti  Ti153  1  0.78601440  0.39130648  0.24148099  1
  Ti  Ti154  1  0.29155811  0.70217704  0.37005387  1
  Ti  Ti155  1  0.60490174  0.00468658  0.50310441  1
  Ti  Ti156  1  0.19365227  0.40070184  0.26105972  1
  Ti  Ti157  1  0.80350615  0.79924787  0.25453904  1
  Ti  Ti158  1  0.88359567  0.08472955  0.37631296  1
  Ti  Ti159  1  0.00002295  0.40063393  0.50389424  1
  Mo  Mo160  1  0.20222409  0.59003848  0.75995086  1
  Mo  Mo161  1  0.89909384  0.89770087  0.38098847  1
  Mo  Mo162  1  0.90256481  0.91121297  0.86192690  1
  Mo  Mo163  1  0.60128872  0.00544934  0.24027814  1
  Mo  Mo164  1  0.09953352  0.49851273  0.12550557  1
  Mo  Mo165  1  0.31254178  0.09633861  0.12102305  1
  Mo  Mo166  1  0.69021455  0.70169999  0.86406676  1
  Mo  Mo167  1  0.89783913  0.48893084  0.88559829  1
  Mo  Mo168  1  0.19583731  0.20996119  0.00687279  1
  Mo  Mo169  1  0.39404218  0.40023769  0.25914824  1
  Mo  Mo170  1  0.59881556  0.59696408  0.00427418  1
  Mo  Mo171  1  0.50511138  0.90598101  0.89354700  1
  Mo  Mo172  1  0.79934529  0.59991793  0.50210614  1
  Mo  Mo173  1  0.51231308  0.90591521  0.62530830  1
  Mo  Mo174  1  0.20333073  0.00115097  0.00978577  1
  Mo  Mo175  1  0.89909690  0.30210372  0.62679830  1
  Mo  Mo176  1  0.90451052  0.29692646  0.12432347  1
  Mo  Mo177  1  0.70170715  0.70989542  0.12474765  1
  Mo  Mo178  1  0.19237691  0.38287360  0.00716717  1
  Mo  Mo179  1  0.40549588  0.39743896  0.00973541  1
  Mo  Mo180  1  0.49945045  0.50350842  0.87764047  1
  Mo  Mo181  1  0.50061046  0.69547402  0.88516291  1
  Mo  Mo182  1  0.60705014  0.40223106  0.25238874  1
  Mo  Mo183  1  0.40219464  0.80039239  0.00478123  1
  Mo  Mo184  1  0.10421336  0.30035953  0.87687957  1
  Mo  Mo185  1  0.89521084  0.48569205  0.63288095  1
  Mo  Mo186  1  0.79915973  0.00907107  0.51227564  1
  Mo  Mo187  1  0.31316895  0.10053757  0.37511113  1
  Mo  Mo188  1  0.89959898  0.70173522  0.86004729  1
  Mo  Mo189  1  0.29039397  0.29420395  0.88337304  1
  Mo  Mo190  1  0.30001857  0.48574751  0.62190661  1
  Mo  Mo191  1  0.39571627  0.19431916  0.48646884  1
  Mo  Mo192  1  0.70838966  0.31179443  0.11497622  1
  Mo  Mo193  1  0.30944107  0.89710111  0.36782414  1
  Mo  Mo194  1  -0.00775541  0.20033567  0.74438611  1
  Mo  Mo195  1  0.29821699  0.30121621  0.35964603  1
  Mo  Mo196  1  0.70251154  0.29865134  0.37207990  1
  Mo  Mo197  1  0.69413702  0.30128604  0.88098275  1
  Mo  Mo198  1  0.42307107  0.00704551  0.49694715  1
  Mo  Mo199  1  0.09761868  0.50030067  0.37731872  1
