# generated using pymatgen
data_HfZrTaTiMo
_symmetry_space_group_name_H-M   'P 1'
_cell_length_a   15.22031416
_cell_length_b   15.20411297
_cell_length_c   16.84725707
_cell_angle_alpha   89.96579435
_cell_angle_beta   89.98785699
_cell_angle_gamma   90.06075485
_symmetry_Int_Tables_number   1
_chemical_formula_structural   HfZrTaTiMo
_chemical_formula_sum   'Hf40 Zr40 Ta40 Ti40 Mo40'
_cell_volume   3898.64396518
_cell_formula_units_Z   40
loop_
 _symmetry_equiv_pos_site_id
 _symmetry_equiv_pos_as_xyz
  1  'x, y, z'
loop_
 _atom_site_type_symbol
 _atom_site_label
 _atom_site_symmetry_multiplicity
 _atom_site_fract_x
 _atom_site_fract_y
 _atom_site_fract_z
 _atom_site_occupancy
  Hf  Hf0  1  0.19651678  0.19139593  0.49041069  1
  Hf  Hf1  1  0.90327281  0.11007040  0.36378662  1
  Hf  Hf2  1  0.20210901  0.80676776  0.76415189  1
  Hf  Hf3  1  0.19131088  0.79243437  0.50532206  1
  Hf  Hf4  1  0.40714565  0.78968798  0.50648454  1
  Hf  Hf5  1  0.61499660  0.20934111  -0.00354478  1
  Hf  Hf6  1  0.59401703  0.61192586  0.00573563  1
  Hf  Hf7  1  0.31544993  0.08385019  0.11662538  1
  Hf  Hf8  1  0.10332840  0.29563232  0.88469252  1
  Hf  Hf9  1  0.10673203  0.12035771  0.64039104  1
  Hf  Hf10  1  0.09313738  0.48665723  0.62251037  1
  Hf  Hf11  1  0.19201439  0.58861089  0.76204881  1
  Hf  Hf12  1  0.39779296  0.20838766  0.49917054  1
  Hf  Hf13  1  0.10498336  0.89495835  0.37815556  1
  Hf  Hf14  1  0.70456203  0.10202689  0.86378263  1
  Hf  Hf15  1  0.29281167  0.09963256  0.35994325  1
  Hf  Hf16  1  0.88850379  0.49193132  0.87800241  1
  Hf  Hf17  1  0.20181797  -0.00117959  0.75958753  1
  Hf  Hf18  1  0.89939823  0.89647300  0.61611786  1
  Hf  Hf19  1  0.19141637  0.38645396  0.75192922  1
  Hf  Hf20  1  0.20519694  0.38846070  0.48004108  1
  Hf  Hf21  1  0.70380859  0.30725470  0.62341077  1
  Hf  Hf22  1  -0.01064358  0.59792202  0.00193696  1
  Hf  Hf23  1  0.37669957  0.60033699  0.23995303  1
  Hf  Hf24  1  0.59580458  0.81358802  0.25595593  1
  Hf  Hf25  1  0.20999536  0.77987414  0.23875213  1
  Hf  Hf26  1  0.88202857  0.69822939  0.86647639  1
  Hf  Hf27  1  0.50517005  0.11703254  0.36518773  1
  Hf  Hf28  1  -0.00562565  0.82094978  0.76722398  1
  Hf  Hf29  1  0.58454079  0.40558892  0.50132700  1
  Hf  Hf30  1  0.31380935  0.48551358  0.62128425  1
  Hf  Hf31  1  0.78623802  0.79182599  0.00245771  1
  Hf  Hf32  1  0.39313801  0.38519769  0.75867694  1
  Hf  Hf33  1  0.79023690  0.59768001  0.01935774  1
  Hf  Hf34  1  0.91000016  0.09509721  0.63835765  1
  Hf  Hf35  1  0.91828064  0.10244458  0.88320957  1
  Hf  Hf36  1  0.90048822  0.70071762  0.63277849  1
  Hf  Hf37  1  0.91262528  0.89537005  0.10075119  1
  Hf  Hf38  1  0.48565271  0.71708199  0.12806382  1
  Hf  Hf39  1  0.39352166  0.61398528  0.00216383  1
  Zr  Zr40  1  0.00264739  0.21012716  0.48818783  1
  Zr  Zr41  1  0.31076702  0.70069701  0.86578805  1
  Zr  Zr42  1  0.09337580  0.69684444  0.63712944  1
  Zr  Zr43  1  0.70837653  0.31366696  0.86979567  1
  Zr  Zr44  1  0.40549133  0.00631623  0.50509161  1
  Zr  Zr45  1  0.91533597  0.30383065  0.61885253  1
  Zr  Zr46  1  0.29375686  0.48406072  0.88560488  1
  Zr  Zr47  1  0.20494654  0.40686652  0.25443420  1
  Zr  Zr48  1  0.01232346  0.01355697  0.49238256  1
  Zr  Zr49  1  0.70280011  0.09329960  0.64149919  1
  Zr  Zr50  1  0.20614385  -0.01945611  0.23147377  1
  Zr  Zr51  1  0.79551662  0.59125101  0.50231650  1
  Zr  Zr52  1  0.41789894  0.19141077  0.00736638  1
  Zr  Zr53  1  0.80114814  -0.00372919  0.24317760  1
  Zr  Zr54  1  0.69416571  0.50291224  0.37024083  1
  Zr  Zr55  1  0.00067081  0.80009350  0.23929465  1
  Zr  Zr56  1  0.31581338  0.09048083  0.89207915  1
  Zr  Zr57  1  0.89407427  0.70325407  0.37168417  1
  Zr  Zr58  1  0.90260669  0.89826917  0.38303362  1
  Zr  Zr59  1  0.59666667  -0.00164749  0.50347154  1
  Zr  Zr60  1  0.20602115  0.58813405  0.49591457  1
  Zr  Zr61  1  0.49262677  0.69692704  0.36794706  1
  Zr  Zr62  1  0.09431197  0.69668153  0.11521621  1
  Zr  Zr63  1  0.50229928  0.30536489  0.87858405  1
  Zr  Zr64  1  0.30553839  0.69492835  0.63938095  1
  Zr  Zr65  1  0.59696938  0.19699523  0.51430065  1
  Zr  Zr66  1  0.50615027  0.91807195  0.11906091  1
  Zr  Zr67  1  0.30798380  0.88921239  0.38117355  1
  Zr  Zr68  1  0.69485196  0.70286004  0.63012929  1
  Zr  Zr69  1  0.11175812  0.10394751  0.89439574  1
  Zr  Zr70  1  0.59663926  0.42230639  0.73529993  1
  Zr  Zr71  1  0.68923996  0.51006451  0.88200460  1
  Zr  Zr72  1  0.70255457  0.90086054  0.37854945  1
  Zr  Zr73  1  0.09521332  0.90675989  0.62643742  1
  Zr  Zr74  1  0.89887074  0.10346147  0.11758941  1
  Zr  Zr75  1  0.81740729  0.20973500  0.75481504  1
  Zr  Zr76  1  0.40398704  0.40536293  0.01388139  1
  Zr  Zr77  1  0.69230605  0.09879601  0.11919829  1
  Zr  Zr78  1  0.01423993  0.00498837  0.24012239  1
  Zr  Zr79  1  -0.00114164  0.40901918  0.47498574  1
  Ta  Ta80  1  0.28690002  0.28427210  0.62468330  1
  Ta  Ta81  1  0.41076100  -0.00758559  0.25477583  1
  Ta  Ta82  1  0.01324631  0.21991377  0.02237518  1
  Ta  Ta83  1  0.70709480  0.10813154  0.37416674  1
  Ta  Ta84  1  0.50445949  0.89480654  0.64189373  1
  Ta  Ta85  1  0.59701033  0.39133997  0.25567526  1
  Ta  Ta86  1  0.19156474  0.59211517  -0.00662283  1
  Ta  Ta87  1  0.30210930  0.29737130  0.12538221  1
  Ta  Ta88  1  0.70333773  0.89734715  0.63391695  1
  Ta  Ta89  1  0.48036090  0.30652091  0.62810642  1
  Ta  Ta90  1  0.49972004  0.69676929  0.64345009  1
  Ta  Ta91  1  -0.00548246  0.38978550  0.75235791  1
  Ta  Ta92  1  0.08420526  0.48881097  0.88368875  1
  Ta  Ta93  1  0.78515973  0.59146942  0.74261689  1
  Ta  Ta94  1  0.19759649  0.19206930  0.23117807  1
  Ta  Ta95  1  0.79660649  0.79991125  0.23351926  1
  Ta  Ta96  1  0.79201951  0.60872317  0.23774126  1
  Ta  Ta97  1  0.69582947  0.70047677  0.37158797  1
  Ta  Ta98  1  0.51324661  0.70662063  0.85405712  1
  Ta  Ta99  1  0.59722714  0.79940723  0.50055497  1
  Ta  Ta100  1  0.40518989  0.40204400  0.23730559  1
  Ta  Ta101  1  0.78881278  0.21267616  0.24355595  1
  Ta  Ta102  1  0.80952091  0.21015107  0.00163619  1
  Ta  Ta103  1  0.30466009  0.90421251  0.62787049  1
  Ta  Ta104  1  0.69137739  0.29405602  0.37757986  1
  Ta  Ta105  1  0.58201063  0.20270803  0.74327544  1
  Ta  Ta106  1  0.17824980  0.38927662  0.01945231  1
  Ta  Ta107  1  0.90039276  0.50520351  0.14011610  1
  Ta  Ta108  1  0.58601343  0.81218626  -0.01537003  1
  Ta  Ta109  1  0.58510712  0.60532179  0.50360712  1
  Ta  Ta110  1  0.31226098  0.87863711  0.10316800  1
  Ta  Ta111  1  0.20832525  0.00396530  0.50613023  1
  Ta  Ta112  1  0.10030875  0.90542909  0.90168046  1
  Ta  Ta113  1  0.90098919  0.31434943  0.13214084  1
  Ta  Ta114  1  0.00235335  0.60673235  0.49598818  1
  Ta  Ta115  1  0.09631711  0.68671399  0.36624584  1
  Ta  Ta116  1  0.81556832  -0.01905664  0.76282177  1
  Ta  Ta117  1  0.79904076  0.01044540  0.50224233  1
  Ta  Ta118  1  0.52063103  0.30373706  0.12751989  1
  Ta  Ta119  1  0.91323948  0.30579746  0.88882232  1
  Ti  Ti120  1  0.20832377  0.78974371  -0.00854717  1
  Ti  Ti121  1  0.32034472  0.30370665  0.36087492  1
  Ti  Ti122  1  0.40045346  0.00723275  0.75002462  1
  Ti  Ti123  1  0.10246164  0.28502498  0.35379568  1
  Ti  Ti124  1  0.48075260  0.49540712  0.37279130  1
  Ti  Ti125  1  0.50856066  0.10447151  0.13481148  1
  Ti  Ti126  1  0.49877219  0.50602864  0.88200487  1
  Ti  Ti127  1  0.09000123  0.49454090  0.13276927  1
  Ti  Ti128  1  0.89604729  0.49988699  0.62359010  1
  Ti  Ti129  1  0.00252040  0.20256416  0.23667013  1
  Ti  Ti130  1  0.90233761  0.90303578  0.89473992  1
  Ti  Ti131  1  -0.00841788  0.58760848  0.75681652  1
  Ti  Ti132  1  0.79398641  0.79948448  0.50018126  1
  Ti  Ti133  1  0.80145376  0.20100021  0.49923141  1
  Ti  Ti134  1  0.39609760  0.80772848  0.25329024  1
  Ti  Ti135  1  0.88716754  0.30337771  0.36339101  1
  Ti  Ti136  1  0.69555772  0.90325044  0.11564479  1
  Ti  Ti137  1  0.22000883  0.19765689  0.75893520  1
  Ti  Ti138  1  -0.00031847  0.40261348  0.26036615  1
  Ti  Ti139  1  0.78811862  0.00230059  -0.00936143  1
  Ti  Ti140  1  0.79421850  0.40426987  0.25146918  1
  Ti  Ti141  1  0.59357344  0.59767801  0.24823933  1
  Ti  Ti142  1  0.69818063  0.88442604  0.86415547  1
  Ti  Ti143  1  0.58845921  0.00641181  -0.02598552  1
  Ti  Ti144  1  0.79899700  0.39689504  0.49266768  1
  Ti  Ti145  1  0.29620039  0.68246130  0.37781291  1
  Ti  Ti146  1  0.79568653  0.39817685  0.01426136  1
  Ti  Ti147  1  0.68975084  0.48710451  0.13194945  1
  Ti  Ti148  1  0.80269720  0.40771824  0.74302387  1
  Ti  Ti149  1  0.90522225  0.51434196  0.35706820  1
  Ti  Ti150  1  0.40877626  0.20708454  0.24099789  1
  Ti  Ti151  1  0.29533814  0.28852477  0.89910106  1
  Ti  Ti152  1  0.50204400  0.50400611  0.12838506  1
  Ti  Ti153  1  0.09022213  0.69744620  0.87997847  1
  Ti  Ti154  1  0.59631879  -0.00296298  0.75679098  1
  Ti  Ti155  1  0.68505662  0.70661677  0.13267886  1
  Ti  Ti156  1  0.10740958  0.09080621  0.10454678  1
  Ti  Ti157  1  0.41042213  0.58552131  0.75337198  1
  Ti  Ti158  1  0.60316818  0.00875086  0.25869357  1
  Ti  Ti159  1  0.28352814  0.50710671  0.11841145  1
  Mo  Mo160  1  0.09700106  0.30299889  0.14486914  1
  Mo  Mo161  1  0.10871956  0.10298474  0.35843659  1
  Mo  Mo162  1  0.30083407  0.09628426  0.63091913  1
  Mo  Mo163  1  -0.00368255  0.59567099  0.24555688  1
  Mo  Mo164  1  0.70906991  0.30670511  0.12719179  1
  Mo  Mo165  1  0.49032912  0.09910059  0.64376806  1
  Mo  Mo166  1  0.59750077  0.59903473  0.74766720  1
  Mo  Mo167  1  0.40107907  0.81291218  0.74733140  1
  Mo  Mo168  1  0.40946472  0.79915582  -0.01342109  1
  Mo  Mo169  1  0.40925023  0.59129455  0.50251559  1
  Mo  Mo170  1  0.19071788  0.59517455  0.25045552  1
  Mo  Mo171  1  0.49459135  0.90359403  0.85573650  1
  Mo  Mo172  1  0.21044319  -0.01048877  0.00896919  1
  Mo  Mo173  1  0.50963244  0.10085247  0.86149563  1
  Mo  Mo174  1  0.09849401  0.50507205  0.36628290  1
  Mo  Mo175  1  0.49840310  0.30875819  0.36607112  1
  Mo  Mo176  1  0.20637077  0.20179503  0.02507592  1
  Mo  Mo177  1  0.10678646  0.30468030  0.62523546  1
  Mo  Mo178  1  0.00159136  0.00376658  0.00623006  1
  Mo  Mo179  1  0.60247566  0.20224092  0.24972006  1
  Mo  Mo180  1  0.69515965  0.70114406  0.87050997  1
  Mo  Mo181  1  0.39505510  0.39820788  0.49526453  1
  Mo  Mo182  1  0.88966978  0.70016580  0.12577141  1
  Mo  Mo183  1  0.29300858  0.69596837  0.11185699  1
  Mo  Mo184  1  0.30319090  0.89885289  0.88808323  1
  Mo  Mo185  1  -0.01109515  0.40335270  0.01328437  1
  Mo  Mo186  1  0.01734215  0.20955762  0.75868935  1
  Mo  Mo187  1  0.70550256  0.50029907  0.61363875  1
  Mo  Mo188  1  -0.00071653  0.79245050  -0.01737448  1
  Mo  Mo189  1  0.50049452  0.90413732  0.37372209  1
  Mo  Mo190  1  0.00160182  0.00030167  0.76207191  1
  Mo  Mo191  1  0.11148876  0.89466146  0.09680790  1
  Mo  Mo192  1  -0.00288154  0.78774247  0.49811622  1
  Mo  Mo193  1  0.41924678  -0.01736395  -0.00942556  1
  Mo  Mo194  1  0.39356300  0.19537793  0.74943850  1
  Mo  Mo195  1  0.30912482  0.49854451  0.37333517  1
  Mo  Mo196  1  0.60425946  0.80504218  0.75313617  1
  Mo  Mo197  1  0.79929057  0.80304828  0.75404064  1
  Mo  Mo198  1  0.49482381  0.50679801  0.62124402  1
  Mo  Mo199  1  0.60532002  0.41206365  0.01258875  1
