# generated using pymatgen
data_HfZrTaTiMo
_symmetry_space_group_name_H-M   'P 1'
_cell_length_a   15.19170187
_cell_length_b   15.21703098
_cell_length_c   16.80977555
_cell_angle_alpha   89.96946818
_cell_angle_beta   90.02676306
_cell_angle_gamma   89.88821871
_symmetry_Int_Tables_number   1
_chemical_formula_structural   HfZrTaTiMo
_chemical_formula_sum   'Hf40 Zr40 Ta40 Ti40 Mo40'
_cell_volume   3885.95111263
_cell_formula_units_Z   40
loop_
 _symmetry_equiv_pos_site_id
 _symmetry_equiv_pos_as_xyz
  1  'x, y, z'
loop_
 _atom_site_type_symbol
 _atom_site_label
 _atom_site_symmetry_multiplicity
 _atom_site_fract_x
 _atom_site_fract_y
 _atom_site_fract_z
 _atom_site_occupancy
  Hf  Hf0  1  0.69574160  0.89565289  0.62995732  1
  Hf  Hf1  1  0.51692758  0.30002314  0.36824954  1
  Hf  Hf2  1  0.61114401  0.59969454  -0.00216389  1
  Hf  Hf3  1  0.51019782  0.50386431  0.64580834  1
  Hf  Hf4  1  -0.00887726  0.19192095  0.00386105  1
  Hf  Hf5  1  0.19113697  0.80156557  -0.00723760  1
  Hf  Hf6  1  0.30332539  0.48826238  0.63453261  1
  Hf  Hf7  1  0.81303626  -0.00264317  0.50489205  1
  Hf  Hf8  1  -0.01294199  0.59290972  0.24600033  1
  Hf  Hf9  1  0.29641088  0.71384734  0.38242501  1
  Hf  Hf10  1  0.79044992  0.40070149  0.51683598  1
  Hf  Hf11  1  0.17607053  0.59927566  0.74355534  1
  Hf  Hf12  1  0.51086336  0.10223022  0.13391502  1
  Hf  Hf13  1  0.59760705  0.40267903  -0.01660829  1
  Hf  Hf14  1  0.13040624  0.28249233  0.61767601  1
  Hf  Hf15  1  0.10299237  0.29754537  0.88570516  1
  Hf  Hf16  1  0.88235911  0.88416266  0.87017290  1
  Hf  Hf17  1  0.38836619  0.80740393  0.24889504  1
  Hf  Hf18  1  0.90388404  0.51611602  0.62135343  1
  Hf  Hf19  1  0.02075478  0.19735794  0.74878837  1
  Hf  Hf20  1  0.80937431  0.81199378  0.24561485  1
  Hf  Hf21  1  0.50650319  0.70578701  0.12704392  1
  Hf  Hf22  1  0.10370514  0.29106032  0.11984719  1
  Hf  Hf23  1  -0.00758802  0.76731925  0.74904882  1
  Hf  Hf24  1  0.19983672  0.59457292  0.00245298  1
  Hf  Hf25  1  0.09449698  0.69832756  0.13030317  1
  Hf  Hf26  1  -0.01349337  0.18608562  0.23572150  1
  Hf  Hf27  1  0.39776350  0.40480515  0.25946247  1
  Hf  Hf28  1  0.49706500  0.71270957  0.63268483  1
  Hf  Hf29  1  0.69828277  0.90364852  0.12098819  1
  Hf  Hf30  1  0.88821134  0.10239844  0.86482332  1
  Hf  Hf31  1  0.29838734  0.49967887  0.87058940  1
  Hf  Hf32  1  0.30635931  0.10171785  0.12144392  1
  Hf  Hf33  1  0.50481041  0.69755851  0.37367415  1
  Hf  Hf34  1  0.59016688  0.20268197  0.73429373  1
  Hf  Hf35  1  0.77712587  0.20786029  0.23466039  1
  Hf  Hf36  1  -0.00299665  -0.01051113  -0.00464673  1
  Hf  Hf37  1  0.62609313  0.20768931  -0.00093905  1
  Hf  Hf38  1  0.20273987  0.38574955  0.75737039  1
  Hf  Hf39  1  0.70133396  0.11201512  0.38197845  1
  Zr  Zr40  1  0.09490391  0.48802216  0.60558689  1
  Zr  Zr41  1  0.79056908  0.40110858  -0.01480650  1
  Zr  Zr42  1  0.20212384  -0.01751227  0.24840898  1
  Zr  Zr43  1  0.20690512  -0.00030917  0.76477464  1
  Zr  Zr44  1  0.20370355  -0.00562820  -0.00514361  1
  Zr  Zr45  1  0.30402129  0.90461320  0.60729877  1
  Zr  Zr46  1  0.08834378  0.08592082  0.36049986  1
  Zr  Zr47  1  0.49123551  0.90085615  0.39623008  1
  Zr  Zr48  1  0.87886321  0.70281186  0.11006521  1
  Zr  Zr49  1  0.48369301  0.91223424  0.88112150  1
  Zr  Zr50  1  0.89796295  0.49555588  0.38734538  1
  Zr  Zr51  1  0.89507460  0.89552837  0.64340319  1
  Zr  Zr52  1  0.40503476  -0.00050589  0.26000855  1
  Zr  Zr53  1  0.38723235  0.21283827  0.49310948  1
  Zr  Zr54  1  0.78979915  0.60961407  0.50177008  1
  Zr  Zr55  1  0.60319902  0.22150637  0.52195237  1
  Zr  Zr56  1  0.60804454  0.79219976  0.50372487  1
  Zr  Zr57  1  0.09450477  0.70142202  0.36612886  1
  Zr  Zr58  1  0.40095086  0.60173346  0.50446142  1
  Zr  Zr59  1  0.69297124  0.90985814  0.87471955  1
  Zr  Zr60  1  0.22223038  0.38912233  0.48326208  1
  Zr  Zr61  1  0.40183650  0.01087648  0.74359926  1
  Zr  Zr62  1  0.20665117  0.59286902  0.24903157  1
  Zr  Zr63  1  0.28028307  0.11183113  0.61663122  1
  Zr  Zr64  1  0.71526766  0.70631591  0.87513332  1
  Zr  Zr65  1  0.29853995  0.70564526  0.86903708  1
  Zr  Zr66  1  0.20118808  0.39586148  0.25483685  1
  Zr  Zr67  1  0.69860632  0.70508295  0.36403563  1
  Zr  Zr68  1  0.50140431  0.70865470  0.87067648  1
  Zr  Zr69  1  0.40125425  0.39328006  -0.01247830  1
  Zr  Zr70  1  0.00428038  0.17339203  0.50614330  1
  Zr  Zr71  1  0.09357468  0.49683629  0.38771517  1
  Zr  Zr72  1  0.89419743  0.49315145  0.11649209  1
  Zr  Zr73  1  0.50754286  0.29861033  0.13271980  1
  Zr  Zr74  1  0.80083683  0.19980819  0.52349006  1
  Zr  Zr75  1  0.89527585  0.28623792  0.37903632  1
  Zr  Zr76  1  0.41886316  0.40409858  0.49681946  1
  Zr  Zr77  1  0.01312307  -0.01382001  0.76694609  1
  Zr  Zr78  1  0.92343856  0.31008770  0.62632063  1
  Zr  Zr79  1  0.40077850  0.59702005  0.25094180  1
  Ta  Ta80  1  0.18402001  0.79810520  0.50523030  1
  Ta  Ta81  1  0.28954730  0.70444240  0.62722497  1
  Ta  Ta82  1  0.70253940  0.31267313  0.37716793  1
  Ta  Ta83  1  0.69241971  0.49837099  0.37378577  1
  Ta  Ta84  1  0.70849910  0.29617303  0.85464360  1
  Ta  Ta85  1  0.39766124  0.19911644  0.26407197  1
  Ta  Ta86  1  0.50518123  0.50925708  0.85850807  1
  Ta  Ta87  1  0.80102727  0.20468317  0.73186785  1
  Ta  Ta88  1  0.08285226  0.89018763  0.36540586  1
  Ta  Ta89  1  0.42183207  0.19210174  -0.01341023  1
  Ta  Ta90  1  0.39483302  0.60641527  0.74680374  1
  Ta  Ta91  1  0.70702769  0.91304886  0.37430815  1
  Ta  Ta92  1  0.90109432  0.30180044  0.86676238  1
  Ta  Ta93  1  0.61444707  0.40266800  0.24388817  1
  Ta  Ta94  1  0.30602492  0.29457967  0.12403427  1
  Ta  Ta95  1  -0.00522625  0.81051099  0.50527554  1
  Ta  Ta96  1  0.00511259  0.41255237  0.75945283  1
  Ta  Ta97  1  0.18994707  0.80508147  0.75111796  1
  Ta  Ta98  1  0.59242526  0.00417303  0.74239555  1
  Ta  Ta99  1  0.09779699  0.49079938  0.11926014  1
  Ta  Ta100  1  0.29923148  0.70145715  0.12080909  1
  Ta  Ta101  1  0.50327879  0.49912459  0.12278118  1
  Ta  Ta102  1  0.39501670  0.80559968  0.00619035  1
  Ta  Ta103  1  0.59267702  0.01390937  -0.00024320  1
  Ta  Ta104  1  0.20482344  0.19477031  0.25605710  1
  Ta  Ta105  1  0.69745000  0.10359191  0.86086346  1
  Ta  Ta106  1  -0.00613631  0.79649193  -0.00586873  1
  Ta  Ta107  1  0.40576224  0.59939939  0.00268173  1
  Ta  Ta108  1  0.81730685  0.61203037  0.75185698  1
  Ta  Ta109  1  0.80887139  0.01041996  0.23565560  1
  Ta  Ta110  1  -0.00420525  0.38983829  0.24419706  1
  Ta  Ta111  1  0.49360794  0.09412620  0.60318097  1
  Ta  Ta112  1  0.60158318  0.80467945  0.00675271  1
  Ta  Ta113  1  0.80543699  0.41057643  0.74964086  1
  Ta  Ta114  1  0.50841608  0.09914641  0.39174647  1
  Ta  Ta115  1  0.20168784  0.39538342  0.00153313  1
  Ta  Ta116  1  0.80812399  0.80128789  0.49562745  1
  Ta  Ta117  1  0.79129905  0.59788068  0.25144774  1
  Ta  Ta118  1  0.09011272  0.29355846  0.37098263  1
  Ta  Ta119  1  0.79425142  0.02146232  0.00965801  1
  Ti  Ti120  1  0.69887173  0.08947195  0.62855413  1
  Ti  Ti121  1  0.21732375  0.20043355  -0.00520598  1
  Ti  Ti122  1  0.49462398  0.90741019  0.11997826  1
  Ti  Ti123  1  0.40616658  0.38460754  0.76471176  1
  Ti  Ti124  1  0.30454518  0.49384082  0.11746378  1
  Ti  Ti125  1  0.09199826  0.49893751  0.88368743  1
  Ti  Ti126  1  0.89850412  0.07598399  0.36997081  1
  Ti  Ti127  1  0.60267323  0.59262803  0.50912119  1
  Ti  Ti128  1  0.80280501  0.40554255  0.24855556  1
  Ti  Ti129  1  0.00040994  0.62454459  0.50351737  1
  Ti  Ti130  1  0.08959300  0.89101301  0.13372139  1
  Ti  Ti131  1  0.61124701  0.01028823  0.25432215  1
  Ti  Ti132  1  0.88625391  0.29723814  0.11472288  1
  Ti  Ti133  1  0.91383679  0.08735792  0.64043536  1
  Ti  Ti134  1  0.49985092  0.90921722  0.60492900  1
  Ti  Ti135  1  0.40250122  0.20186531  0.76202661  1
  Ti  Ti136  1  0.89652802  0.51234992  0.87703171  1
  Ti  Ti137  1  0.10540896  0.09979117  0.88488618  1
  Ti  Ti138  1  0.90417248  0.71334958  0.36935683  1
  Ti  Ti139  1  0.09917314  0.90425963  0.62618241  1
  Ti  Ti140  1  0.19602782  0.19231249  0.47313408  1
  Ti  Ti141  1  -0.00252428  0.39807638  -0.00317295  1
  Ti  Ti142  1  0.21859434  0.19413142  0.76806791  1
  Ti  Ti143  1  0.60726725  0.40899227  0.51893476  1
  Ti  Ti144  1  0.51193251  0.50264122  0.37390017  1
  Ti  Ti145  1  0.32199317  0.08716470  0.88878342  1
  Ti  Ti146  1  0.08759700  0.69103494  0.87848864  1
  Ti  Ti147  1  0.59750742  0.81563849  0.24893855  1
  Ti  Ti148  1  0.09936023  0.08853838  0.12720380  1
  Ti  Ti149  1  0.20232976  0.60171396  0.50356210  1
  Ti  Ti150  1  0.29613326  0.89646283  0.12070075  1
  Ti  Ti151  1  0.59562191  0.80537742  0.75028317  1
  Ti  Ti152  1  -0.00660055  0.59609620  0.00123322  1
  Ti  Ti153  1  0.30255511  0.08545190  0.37928771  1
  Ti  Ti154  1  0.18096514  -0.00347877  0.49172126  1
  Ti  Ti155  1  0.60526368  0.40023163  0.75477518  1
  Ti  Ti156  1  0.70245014  0.50647646  0.12281577  1
  Ti  Ti157  1  0.38933269  0.81322583  0.74615435  1
  Ti  Ti158  1  0.60495702  0.59864263  0.24114496  1
  Ti  Ti159  1  0.70613516  0.69490855  0.64060249  1
  Mo  Mo160  1  0.29989502  0.29266305  0.36398356  1
  Mo  Mo161  1  -0.00228166  0.80291162  0.24349445  1
  Mo  Mo162  1  0.00338710  -0.01415470  0.50408562  1
  Mo  Mo163  1  0.69724673  0.10537860  0.12600239  1
  Mo  Mo164  1  0.38988543  0.79747732  0.50742248  1
  Mo  Mo165  1  -0.00059353  0.58775734  0.75406781  1
  Mo  Mo166  1  0.89653077  0.70414185  0.61900757  1
  Mo  Mo167  1  0.48799332  0.30697160  0.63886931  1
  Mo  Mo168  1  0.78925778  0.00948426  0.74478039  1
  Mo  Mo169  1  0.89877755  0.10186428  0.11766401  1
  Mo  Mo170  1  0.90142902  0.90397564  0.11234868  1
  Mo  Mo171  1  0.70077232  0.50448029  0.85337566  1
  Mo  Mo172  1  0.80172692  0.20491457  -0.00614429  1
  Mo  Mo173  1  0.59591791  0.19907640  0.25882266  1
  Mo  Mo174  1  0.10376106  0.08885103  0.62425949  1
  Mo  Mo175  1  0.51263178  0.10296525  0.87474828  1
  Mo  Mo176  1  0.09794199  0.70120289  0.61731439  1
  Mo  Mo177  1  -0.01341540  -0.01538196  0.23417126  1
  Mo  Mo178  1  0.69133592  0.69967920  0.13260733  1
  Mo  Mo179  1  0.31552855  0.29967678  0.63872616  1
  Mo  Mo180  1  0.00311355  0.38790448  0.49632864  1
  Mo  Mo181  1  0.30554287  0.50773682  0.38260025  1
  Mo  Mo182  1  0.60577646  0.60735020  0.75499134  1
  Mo  Mo183  1  0.70024800  0.31438664  0.64652483  1
  Mo  Mo184  1  0.79616241  0.59869195  -0.00609324  1
  Mo  Mo185  1  0.28040928  0.89951959  0.39355946  1
  Mo  Mo186  1  0.39222486  0.00585792  0.49176370  1
  Mo  Mo187  1  0.30392111  0.28763599  0.88396456  1
  Mo  Mo188  1  0.79049923  0.79497991  0.74861414  1
  Mo  Mo189  1  0.70243583  0.31777913  0.12516046  1
  Mo  Mo190  1  0.20105629  0.79947271  0.24259383  1
  Mo  Mo191  1  0.90171412  0.69109498  0.89232413  1
  Mo  Mo192  1  0.79488183  0.81146350  0.00902064  1
  Mo  Mo193  1  0.70035530  0.51000319  0.64651491  1
  Mo  Mo194  1  0.60735316  0.00628185  0.50260671  1
  Mo  Mo195  1  0.89876971  0.90101279  0.37358742  1
  Mo  Mo196  1  0.09703222  0.88334235  0.87334852  1
  Mo  Mo197  1  0.40400987  -0.00022042  0.00979015  1
  Mo  Mo198  1  0.50849679  0.29790108  0.86577188  1
  Mo  Mo199  1  0.30088258  0.89358527  0.87546782  1
