# generated using pymatgen
data_HfZrTaTiMo
_symmetry_space_group_name_H-M   'P 1'
_cell_length_a   15.20999656
_cell_length_b   15.20876984
_cell_length_c   16.84759607
_cell_angle_alpha   89.96169114
_cell_angle_beta   89.98525894
_cell_angle_gamma   89.93424269
_symmetry_Int_Tables_number   1
_chemical_formula_structural   HfZrTaTiMo
_chemical_formula_sum   'Hf40 Zr40 Ta40 Ti40 Mo40'
_cell_volume   3897.27227447
_cell_formula_units_Z   40
loop_
 _symmetry_equiv_pos_site_id
 _symmetry_equiv_pos_as_xyz
  1  'x, y, z'
loop_
 _atom_site_type_symbol
 _atom_site_label
 _atom_site_symmetry_multiplicity
 _atom_site_fract_x
 _atom_site_fract_y
 _atom_site_fract_z
 _atom_site_occupancy
  Hf  Hf0  1  0.40085695  0.20415098  0.75798384  1
  Hf  Hf1  1  0.20329815  -0.00183695  0.01091435  1
  Hf  Hf2  1  0.39585913  0.60856460  0.49928465  1
  Hf  Hf3  1  0.50805228  0.71103137  0.62229075  1
  Hf  Hf4  1  0.29600379  0.10391506  0.63710854  1
  Hf  Hf5  1  0.20891775  0.80201172  0.23751606  1
  Hf  Hf6  1  0.10486448  0.49177028  0.36147317  1
  Hf  Hf7  1  0.10523763  0.50367407  0.13501455  1
  Hf  Hf8  1  0.89855312  0.89606062  0.61731969  1
  Hf  Hf9  1  0.17914508  0.78945654  0.75105410  1
  Hf  Hf10  1  0.50251897  0.49747065  0.37511509  1
  Hf  Hf11  1  0.59896977  -0.00759819  -0.00708790  1
  Hf  Hf12  1  0.29054969  0.89460299  0.63374761  1
  Hf  Hf13  1  0.09634252  0.30092107  0.13039113  1
  Hf  Hf14  1  0.08752220  0.90470272  0.13614852  1
  Hf  Hf15  1  0.10442882  0.70344737  0.61079079  1
  Hf  Hf16  1  0.19208490  0.20154144  -0.00481265  1
  Hf  Hf17  1  0.68633434  0.70054468  0.11695842  1
  Hf  Hf18  1  0.40028477  0.78524077  0.00063458  1
  Hf  Hf19  1  0.01322361  0.39445612  0.50348834  1
  Hf  Hf20  1  0.90428742  0.50562594  0.13021890  1
  Hf  Hf21  1  0.88972333  0.71237771  0.13617954  1
  Hf  Hf22  1  0.49848427  0.28743574  0.62657632  1
  Hf  Hf23  1  0.90056142  0.29816559  0.38333369  1
  Hf  Hf24  1  0.80018254  0.40276921  0.50800335  1
  Hf  Hf25  1  0.30460676  0.67020069  0.86231555  1
  Hf  Hf26  1  0.60079614  0.60659210  0.25832289  1
  Hf  Hf27  1  0.20411606  0.00518419  0.49235892  1
  Hf  Hf28  1  0.11017554  0.50302701  0.63401121  1
  Hf  Hf29  1  0.39758585  0.18758633  0.49932413  1
  Hf  Hf30  1  0.41516636  0.39969652  0.24020928  1
  Hf  Hf31  1  0.90500411  0.09567490  0.38507473  1
  Hf  Hf32  1  0.49178748  0.09532568  0.36111347  1
  Hf  Hf33  1  0.11858151  0.50932222  0.86755211  1
  Hf  Hf34  1  0.89396686  0.10395185  0.87041161  1
  Hf  Hf35  1  0.61308129  0.40335821  0.24189834  1
  Hf  Hf36  1  0.30261060  0.10559309  0.13115897  1
  Hf  Hf37  1  0.59450827  0.00099352  0.76332464  1
  Hf  Hf38  1  0.79805444  0.41014965  0.75197201  1
  Hf  Hf39  1  0.80028886  0.59577759  0.47954525  1
  Zr  Zr40  1  0.70078056  0.29548044  0.88490472  1
  Zr  Zr41  1  0.41436490  0.79032725  0.75510587  1
  Zr  Zr42  1  0.70487927  0.09447983  0.36873717  1
  Zr  Zr43  1  0.09488616  0.10594498  0.14077052  1
  Zr  Zr44  1  0.60868202  -0.02313015  0.24146923  1
  Zr  Zr45  1  0.00599168  0.59273573  0.48915888  1
  Zr  Zr46  1  0.01132208  0.40983156  -0.00725234  1
  Zr  Zr47  1  0.29888559  0.88841433  0.87196974  1
  Zr  Zr48  1  0.49911639  0.89398482  0.37148400  1
  Zr  Zr49  1  0.59139502  0.20728879  0.24371666  1
  Zr  Zr50  1  0.69748443  0.29900402  0.63099156  1
  Zr  Zr51  1  0.00057473  0.40434694  0.75613153  1
  Zr  Zr52  1  0.60706460  0.60465684  0.48763199  1
  Zr  Zr53  1  0.80855658  0.00923509  0.00410494  1
  Zr  Zr54  1  0.50679071  0.50331990  0.62830817  1
  Zr  Zr55  1  0.08629958  0.70312334  0.89274269  1
  Zr  Zr56  1  0.90571194  0.70732208  0.61010429  1
  Zr  Zr57  1  0.82984652  -0.00559398  0.23671781  1
  Zr  Zr58  1  0.70190995  0.30733434  0.10565121  1
  Zr  Zr59  1  0.20974438  0.60089695  0.01039736  1
  Zr  Zr60  1  0.28033721  0.09521506  0.86297067  1
  Zr  Zr61  1  0.80485241  0.21027004  0.24491854  1
  Zr  Zr62  1  0.69800094  0.89331232  0.62358408  1
  Zr  Zr63  1  0.00514498  -0.00680031  0.74907574  1
  Zr  Zr64  1  0.60105369  0.00304775  0.49983986  1
  Zr  Zr65  1  0.10469378  0.29398399  0.63601153  1
  Zr  Zr66  1  0.39353841  0.39869832  0.50116978  1
  Zr  Zr67  1  0.58842332  0.39942073  0.76113748  1
  Zr  Zr68  1  0.29772608  0.50957985  0.36308821  1
  Zr  Zr69  1  0.88819238  0.09726814  0.61854031  1
  Zr  Zr70  1  0.70018188  0.51660357  0.88283504  1
  Zr  Zr71  1  0.90109041  0.88752548  0.87436542  1
  Zr  Zr72  1  0.10013713  0.09453626  0.62630498  1
  Zr  Zr73  1  0.71048381  0.68455957  0.62812853  1
  Zr  Zr74  1  0.29597085  0.30065748  0.36810924  1
  Zr  Zr75  1  0.58105319  0.42121236  0.00240981  1
  Zr  Zr76  1  0.77574713  0.80333337  0.26741827  1
  Zr  Zr77  1  0.10276584  0.90804588  0.88192114  1
  Zr  Zr78  1  0.58462461  0.18752588  -0.01075337  1
  Zr  Zr79  1  0.70131110  0.10303965  0.12403542  1
  Ta  Ta80  1  0.08716400  0.69939982  0.12731076  1
  Ta  Ta81  1  0.79564168  0.59576235  0.26577510  1
  Ta  Ta82  1  0.10372961  0.90244226  0.36821044  1
  Ta  Ta83  1  -0.00312173  0.61738258  0.74852305  1
  Ta  Ta84  1  0.59899676  0.61086644  0.76076881  1
  Ta  Ta85  1  0.21556559  0.40486602  0.00227049  1
  Ta  Ta86  1  0.11050721  0.70261442  0.37121595  1
  Ta  Ta87  1  0.90118611  0.29631952  0.62598096  1
  Ta  Ta88  1  0.30386438  0.90136236  0.37153951  1
  Ta  Ta89  1  0.81048671  0.40880942  -0.00340284  1
  Ta  Ta90  1  0.40415890  -0.00037253  0.75269217  1
  Ta  Ta91  1  0.39647203  -0.00341989  0.50492754  1
  Ta  Ta92  1  0.60680565  0.39998182  0.49908921  1
  Ta  Ta93  1  0.59762326  0.20258569  0.49542706  1
  Ta  Ta94  1  0.20197099  0.80049532  0.02342701  1
  Ta  Ta95  1  0.89882898  0.30380380  0.87835977  1
  Ta  Ta96  1  0.90574007  0.70628453  0.37407576  1
  Ta  Ta97  1  0.89125216  0.50934088  0.63173747  1
  Ta  Ta98  1  0.41348790  0.57711142  -0.00611462  1
  Ta  Ta99  1  0.79437741  0.19785618  0.75024115  1
  Ta  Ta100  1  0.39669695  0.80511643  0.50386714  1
  Ta  Ta101  1  0.49727761  0.90958279  0.62511334  1
  Ta  Ta102  1  0.81126084  0.60894438  0.00144830  1
  Ta  Ta103  1  0.70963455  0.88609664  0.10886985  1
  Ta  Ta104  1  0.40366143  0.00535999  -0.00449368  1
  Ta  Ta105  1  0.29359737  0.30491425  0.62750304  1
  Ta  Ta106  1  0.29718675  0.30098496  0.12429666  1
  Ta  Ta107  1  0.48876268  0.68028763  0.12534830  1
  Ta  Ta108  1  0.19733873  0.21275074  0.49357986  1
  Ta  Ta109  1  0.00204436  0.00766494  0.00261916  1
  Ta  Ta110  1  0.69844249  0.30463306  0.37959315  1
  Ta  Ta111  1  0.47541856  0.31066403  0.88738952  1
  Ta  Ta112  1  0.00195768  -0.01026385  0.49141745  1
  Ta  Ta113  1  0.32288990  0.51045980  0.13373651  1
  Ta  Ta114  1  0.48899763  0.08711902  0.12893172  1
  Ta  Ta115  1  0.78892485  0.80668578  0.48070341  1
  Ta  Ta116  1  0.30004326  0.68723316  0.63539161  1
  Ta  Ta117  1  -0.00906614  0.19921632  -0.00366706  1
  Ta  Ta118  1  -0.00950764  0.81340200  0.26026247  1
  Ta  Ta119  1  0.78870996  -0.00140996  0.75524555  1
  Ti  Ti120  1  0.50242180  0.88960022  0.88149120  1
  Ti  Ti121  1  0.68317996  0.10077163  0.63041591  1
  Ti  Ti122  1  0.39412017  0.20108261  0.24910051  1
  Ti  Ti123  1  0.20457400  0.79793991  0.49259761  1
  Ti  Ti124  1  0.00588442  0.19564841  0.50089311  1
  Ti  Ti125  1  0.40237796  0.80068691  0.23589819  1
  Ti  Ti126  1  0.70282330  0.51222489  0.11570856  1
  Ti  Ti127  1  0.78868529  0.19443407  0.50483264  1
  Ti  Ti128  1  -0.01191830  0.80204001  0.01263541  1
  Ti  Ti129  1  0.20874399  -0.00036785  0.24935847  1
  Ti  Ti130  1  0.80256656  0.40270715  0.24702901  1
  Ti  Ti131  1  0.20709226  0.39600061  0.24106549  1
  Ti  Ti132  1  0.48346804  0.28841719  0.10821704  1
  Ti  Ti133  1  -0.00675737  0.39179171  0.24995277  1
  Ti  Ti134  1  0.50232809  0.29787201  0.37694878  1
  Ti  Ti135  1  0.89402056  0.69900392  0.87883756  1
  Ti  Ti136  1  0.70098060  0.71009712  0.88705101  1
  Ti  Ti137  1  0.80452004  0.78938848  0.75299669  1
  Ti  Ti138  1  0.70727199  0.89494239  0.88453070  1
  Ti  Ti139  1  0.49772161  0.70998959  0.37204082  1
  Ti  Ti140  1  0.60915560  0.80341953  0.75991899  1
  Ti  Ti141  1  -0.00590620  0.19512046  0.25311424  1
  Ti  Ti142  1  0.29803529  0.09661209  0.36306886  1
  Ti  Ti143  1  0.30534488  0.70986466  0.37076710  1
  Ti  Ti144  1  0.10649387  0.10449902  0.36543538  1
  Ti  Ti145  1  0.10152050  0.29447732  0.36632251  1
  Ti  Ti146  1  0.09397295  0.89270241  0.61633124  1
  Ti  Ti147  1  0.21540316  0.39628856  0.75760082  1
  Ti  Ti148  1  0.29472793  0.30367489  0.87961934  1
  Ti  Ti149  1  0.20554137  0.58998130  0.49760139  1
  Ti  Ti150  1  0.90799910  0.51471483  0.87666304  1
  Ti  Ti151  1  0.30235466  0.49891289  0.63565505  1
  Ti  Ti152  1  -0.00357636  0.20056016  0.75474388  1
  Ti  Ti153  1  0.50425971  0.88699647  0.11738265  1
  Ti  Ti154  1  0.10130183  0.29275814  0.86838020  1
  Ti  Ti155  1  0.00024585  0.60779988  0.25887272  1
  Ti  Ti156  1  0.59584216  0.19001020  0.76918352  1
  Ti  Ti157  1  0.90238470  0.49248825  0.36539169  1
  Ti  Ti158  1  0.21155711  0.61144374  0.24063303  1
  Ti  Ti159  1  0.89977214  0.29686699  0.11461898  1
  Mo  Mo160  1  0.40084676  0.61364587  0.25618336  1
  Mo  Mo161  1  0.70079853  0.09566496  0.86932909  1
  Mo  Mo162  1  0.80698765  0.60594850  0.75923484  1
  Mo  Mo163  1  0.19987229  -0.00524976  0.74532271  1
  Mo  Mo164  1  0.91368570  0.10982553  0.12135010  1
  Mo  Mo165  1  0.20185854  0.20577408  0.25717108  1
  Mo  Mo166  1  0.08802406  0.10608618  0.87485340  1
  Mo  Mo167  1  0.80035735  0.79949956  -0.00067773  1
  Mo  Mo168  1  0.30184886  0.69912072  0.12471788  1
  Mo  Mo169  1  0.39485542  -0.01039664  0.24177882  1
  Mo  Mo170  1  0.48570710  0.50799391  0.86471252  1
  Mo  Mo171  1  0.51232095  0.69517595  0.87694519  1
  Mo  Mo172  1  0.90403309  0.90049660  0.12241725  1
  Mo  Mo173  1  0.59559593  0.61285926  -0.00650006  1
  Mo  Mo174  1  0.89959431  0.90214431  0.38583692  1
  Mo  Mo175  1  0.79841527  0.00249090  0.50248929  1
  Mo  Mo176  1  0.51060721  0.50327848  0.12886696  1
  Mo  Mo177  1  0.31406760  0.48034219  0.87065874  1
  Mo  Mo178  1  0.40720054  0.58951931  0.74428460  1
  Mo  Mo179  1  0.69502592  0.89986703  0.38225574  1
  Mo  Mo180  1  0.59220033  0.80117448  0.49890212  1
  Mo  Mo181  1  -0.00913105  0.79322745  0.74710360  1
  Mo  Mo182  1  0.70491106  0.50441692  0.63168425  1
  Mo  Mo183  1  0.70797609  0.48871450  0.36952068  1
  Mo  Mo184  1  0.00821628  0.00233650  0.26568359  1
  Mo  Mo185  1  0.00804717  0.80321854  0.47825438  1
  Mo  Mo186  1  0.69077081  0.70295952  0.37496929  1
  Mo  Mo187  1  0.31463232  0.90737738  0.12371734  1
  Mo  Mo188  1  -0.00616863  0.60630934  0.00613300  1
  Mo  Mo189  1  0.49857356  0.09513254  0.62838456  1
  Mo  Mo190  1  0.19119753  0.20545497  0.76032443  1
  Mo  Mo191  1  0.48861907  0.09670510  0.87782330  1
  Mo  Mo192  1  0.80548589  0.20892382  -0.00281788  1
  Mo  Mo193  1  0.58582611  0.79556262  0.24026951  1
  Mo  Mo194  1  0.20135610  0.40446054  0.50490332  1
  Mo  Mo195  1  0.19947675  0.59434063  0.74697687  1
  Mo  Mo196  1  0.38792504  0.19705819  -0.00380262  1
  Mo  Mo197  1  0.39502026  0.39448677  0.74719212  1
  Mo  Mo198  1  0.59580095  0.79865080  -0.00573203  1
  Mo  Mo199  1  0.39178314  0.39603104  0.01096711  1
