# generated using pymatgen
data_HfZrTaTiMo
_symmetry_space_group_name_H-M   'P 1'
_cell_length_a   15.21275076
_cell_length_b   15.20768379
_cell_length_c   16.85888792
_cell_angle_alpha   90.00338254
_cell_angle_beta   89.95633829
_cell_angle_gamma   89.98960706
_symmetry_Int_Tables_number   1
_chemical_formula_structural   HfZrTaTiMo
_chemical_formula_sum   'Hf40 Zr40 Ta40 Ti40 Mo40'
_cell_volume   3900.31437201
_cell_formula_units_Z   40
loop_
 _symmetry_equiv_pos_site_id
 _symmetry_equiv_pos_as_xyz
  1  'x, y, z'
loop_
 _atom_site_type_symbol
 _atom_site_label
 _atom_site_symmetry_multiplicity
 _atom_site_fract_x
 _atom_site_fract_y
 _atom_site_fract_z
 _atom_site_occupancy
  Hf  Hf0  1  0.59608235  -0.00119939  0.24806954  1
  Hf  Hf1  1  0.38392949  0.60761303  0.49118831  1
  Hf  Hf2  1  0.59279151  0.40321487  0.76933814  1
  Hf  Hf3  1  0.00521227  0.79188701  -0.00059037  1
  Hf  Hf4  1  0.09245427  0.11597769  0.37489335  1
  Hf  Hf5  1  0.51210868  0.10576190  0.87029438  1
  Hf  Hf6  1  0.78943367  -0.00767143  0.25346005  1
  Hf  Hf7  1  0.90672044  0.69043387  0.61737465  1
  Hf  Hf8  1  0.20697031  0.01449301  0.25215907  1
  Hf  Hf9  1  0.60001729  0.80078424  -0.00774017  1
  Hf  Hf10  1  0.69833318  0.91097826  0.86533701  1
  Hf  Hf11  1  0.60680500  0.59247341  -0.01586697  1
  Hf  Hf12  1  0.27254222  0.69976159  0.87984544  1
  Hf  Hf13  1  0.42545309  0.39871764  0.24205513  1
  Hf  Hf14  1  0.31094049  0.91581497  0.12223542  1
  Hf  Hf15  1  0.21666416  0.41142176  0.25439775  1
  Hf  Hf16  1  0.48883475  0.90495049  0.63454580  1
  Hf  Hf17  1  0.09362399  0.49466084  0.12113768  1
  Hf  Hf18  1  0.47366081  0.68980372  0.63528855  1
  Hf  Hf19  1  0.87753021  0.89313548  0.39411035  1
  Hf  Hf20  1  0.49226091  0.69475630  0.12923634  1
  Hf  Hf21  1  0.80270661  0.57978873  0.74063534  1
  Hf  Hf22  1  0.79184902  0.38575288  -0.01377169  1
  Hf  Hf23  1  0.49763360  0.49165553  0.37485447  1
  Hf  Hf24  1  0.89135279  0.49983002  0.11621509  1
  Hf  Hf25  1  0.89745807  0.49773711  0.87665711  1
  Hf  Hf26  1  0.30625431  0.90875787  0.38272054  1
  Hf  Hf27  1  0.49812006  0.71083885  0.37071383  1
  Hf  Hf28  1  0.41426936  0.20607265  0.51686190  1
  Hf  Hf29  1  0.39063399  0.39747100  -0.00751541  1
  Hf  Hf30  1  0.59610759  0.58749239  0.24405554  1
  Hf  Hf31  1  0.10950803  0.51521887  0.87824224  1
  Hf  Hf32  1  0.89157827  0.88511184  0.13128669  1
  Hf  Hf33  1  0.89968894  0.49533278  0.39601559  1
  Hf  Hf34  1  0.10069259  0.29299757  0.86124561  1
  Hf  Hf35  1  0.19575550  0.79888367  0.23377648  1
  Hf  Hf36  1  0.80523098  0.60243376  0.25392647  1
  Hf  Hf37  1  0.20028809  0.22484012  0.50899103  1
  Hf  Hf38  1  0.40467768  0.60401697  -0.01770760  1
  Hf  Hf39  1  0.59728378  0.20309352  0.24726838  1
  Zr  Zr40  1  0.79829298  -0.00408761  0.00215285  1
  Zr  Zr41  1  0.38691750  0.78952206  0.76323931  1
  Zr  Zr42  1  0.69665908  0.49634455  0.38544625  1
  Zr  Zr43  1  0.50275319  0.29532976  0.11341402  1
  Zr  Zr44  1  0.00662686  0.78247251  0.48467063  1
  Zr  Zr45  1  0.89240343  0.28328288  0.62326730  1
  Zr  Zr46  1  0.70218109  0.10228565  0.38822469  1
  Zr  Zr47  1  0.90732485  0.27778838  0.38531363  1
  Zr  Zr48  1  0.80207244  0.79385443  0.73636044  1
  Zr  Zr49  1  0.01090368  0.38733645  -0.00736852  1
  Zr  Zr50  1  0.71270534  0.70294024  0.39355285  1
  Zr  Zr51  1  0.31786854  0.50743935  0.12087324  1
  Zr  Zr52  1  0.58931202  0.01697305  0.51534391  1
  Zr  Zr53  1  0.90681525  0.29361498  0.12969248  1
  Zr  Zr54  1  0.58873570  0.58914012  0.51303690  1
  Zr  Zr55  1  0.30912457  0.51969831  0.62962535  1
  Zr  Zr56  1  0.19303718  0.01900551  0.00598339  1
  Zr  Zr57  1  0.90656690  0.09164201  0.12686068  1
  Zr  Zr58  1  0.00659529  0.18760576  -0.00060727  1
  Zr  Zr59  1  0.71074831  0.69606107  0.11798940  1
  Zr  Zr60  1  0.19320265  0.80555901  0.01676536  1
  Zr  Zr61  1  0.19411554  0.60806879  0.23666218  1
  Zr  Zr62  1  0.40011356  0.80501876  -0.00828378  1
  Zr  Zr63  1  0.81150688  0.00808306  0.73820757  1
  Zr  Zr64  1  0.18566374  0.01008689  0.74204286  1
  Zr  Zr65  1  0.38825099  0.00860073  0.74574264  1
  Zr  Zr66  1  0.40868997  0.20877789  0.73875278  1
  Zr  Zr67  1  -0.00304654  0.39728630  0.74263462  1
  Zr  Zr68  1  0.02426980  0.38259868  0.50821444  1
  Zr  Zr69  1  0.79611173  0.39410109  0.25499704  1
  Zr  Zr70  1  0.08777389  0.90835629  0.61186311  1
  Zr  Zr71  1  0.91709661  0.08482060  0.59491013  1
  Zr  Zr72  1  0.90508743  0.89180183  0.86964472  1
  Zr  Zr73  1  0.59342870  0.60004022  0.76042337  1
  Zr  Zr74  1  0.10356369  0.89843186  0.37270027  1
  Zr  Zr75  1  0.50120627  0.90911312  0.86374395  1
  Zr  Zr76  1  0.27733256  0.70750842  0.38015800  1
  Zr  Zr77  1  0.08061055  0.91392191  0.14172830  1
  Zr  Zr78  1  0.71776213  0.69731627  0.87321796  1
  Zr  Zr79  1  0.58810818  0.80199573  0.51598811  1
  Ta  Ta80  1  0.59649239  0.00607479  0.00386631  1
  Ta  Ta81  1  0.68995235  0.48582245  0.11768049  1
  Ta  Ta82  1  0.29534316  0.30739298  0.86704685  1
  Ta  Ta83  1  0.30349596  0.11681254  0.38050380  1
  Ta  Ta84  1  0.49228974  0.10635187  0.37743755  1
  Ta  Ta85  1  0.50323897  0.90411428  0.12372031  1
  Ta  Ta86  1  0.11600133  0.50511549  0.38383688  1
  Ta  Ta87  1  0.89513959  0.89212888  0.60285094  1
  Ta  Ta88  1  0.31545311  0.30720595  0.37386990  1
  Ta  Ta89  1  0.91902752  0.68930512  0.86405247  1
  Ta  Ta90  1  0.71495745  0.11798196  0.61701294  1
  Ta  Ta91  1  0.90801883  0.09300612  0.87272877  1
  Ta  Ta92  1  0.00450603  0.40278880  0.26061296  1
  Ta  Ta93  1  0.29194238  0.89194796  0.61165301  1
  Ta  Ta94  1  0.39997513  0.80899890  0.24592433  1
  Ta  Ta95  1  0.30619271  0.11984843  0.12739314  1
  Ta  Ta96  1  0.28478558  0.91508284  0.87962106  1
  Ta  Ta97  1  0.59989512  0.80085732  0.74183752  1
  Ta  Ta98  1  0.11466589  0.30398485  0.36222199  1
  Ta  Ta99  1  0.19552888  0.60851700  0.01649584  1
  Ta  Ta100  1  0.19036944  0.80512622  0.74609273  1
  Ta  Ta101  1  0.89466730  0.49006335  0.61085258  1
  Ta  Ta102  1  0.70526832  0.29248742  0.12280808  1
  Ta  Ta103  1  0.49585594  0.90800686  0.37895506  1
  Ta  Ta104  1  -0.00153498  0.59575547  0.26176345  1
  Ta  Ta105  1  0.20555747  0.22175924  0.00241904  1
  Ta  Ta106  1  0.29952650  0.32251876  0.63081375  1
  Ta  Ta107  1  0.71324228  0.11216362  0.87296702  1
  Ta  Ta108  1  0.40489699  0.01319154  0.25147581  1
  Ta  Ta109  1  0.00517320  0.17381191  0.74148409  1
  Ta  Ta110  1  0.68775420  0.48064204  0.62380097  1
  Ta  Ta111  1  0.80632806  0.18670911  0.25563979  1
  Ta  Ta112  1  0.10973609  0.29678737  0.14365398  1
  Ta  Ta113  1  0.19426725  0.01481577  0.50059100  1
  Ta  Ta114  1  0.39517822  0.00754320  0.50716495  1
  Ta  Ta115  1  0.40380083  0.40365159  0.50218282  1
  Ta  Ta116  1  0.20548585  0.41439368  0.75160150  1
  Ta  Ta117  1  0.78123739  0.38272679  0.50552990  1
  Ta  Ta118  1  -0.01491403  0.78358465  0.26709689  1
  Ta  Ta119  1  0.59666137  0.39702847  -0.01727368  1
  Ti  Ti120  1  0.10310246  0.11603568  0.14276194  1
  Ti  Ti121  1  0.40086291  0.00943565  -0.00676558  1
  Ti  Ti122  1  0.78788510  0.38336106  0.75618989  1
  Ti  Ti123  1  0.00712025  0.59188756  0.49841669  1
  Ti  Ti124  1  0.01230278  0.59848446  0.73846513  1
  Ti  Ti125  1  0.49626512  0.09838005  0.11842034  1
  Ti  Ti126  1  0.70310015  0.90414751  0.62107832  1
  Ti  Ti127  1  0.61886003  0.20663737  0.74330007  1
  Ti  Ti128  1  0.38912643  0.60462878  0.25729898  1
  Ti  Ti129  1  0.50659352  0.29540294  0.37733810  1
  Ti  Ti130  1  0.30024850  0.29973334  0.13057669  1
  Ti  Ti131  1  0.60007117  0.80428124  0.24953595  1
  Ti  Ti132  1  0.69978309  0.10285575  0.12045188  1
  Ti  Ti133  1  0.49632950  0.29517353  0.87637886  1
  Ti  Ti134  1  0.11168546  0.49640132  0.61784671  1
  Ti  Ti135  1  0.39455931  0.57943221  0.77773107  1
  Ti  Ti136  1  0.09828411  0.89516115  0.86948322  1
  Ti  Ti137  1  0.10192088  0.09307369  0.87307954  1
  Ti  Ti138  1  0.68440232  0.89651848  0.38911759  1
  Ti  Ti139  1  0.39803371  0.19684828  -0.00700103  1
  Ti  Ti140  1  0.11457946  0.69961711  0.61644488  1
  Ti  Ti141  1  0.60484243  0.01504688  0.73365931  1
  Ti  Ti142  1  0.61373152  0.20083224  -0.00400298  1
  Ti  Ti143  1  0.69440841  0.89705244  0.12096144  1
  Ti  Ti144  1  0.00281442  -0.00986211  -0.00158466  1
  Ti  Ti145  1  0.88659957  0.27499029  0.86561843  1
  Ti  Ti146  1  0.50958553  0.32391466  0.63131208  1
  Ti  Ti147  1  0.29793281  0.10355569  0.61948346  1
  Ti  Ti148  1  0.00613147  0.79953160  0.74092745  1
  Ti  Ti149  1  0.29471786  0.11317423  0.87426403  1
  Ti  Ti150  1  0.79196808  0.79569114  0.25580807  1
  Ti  Ti151  1  -0.01858578  0.00827437  0.27060923  1
  Ti  Ti152  1  0.60967196  0.22191764  0.51251595  1
  Ti  Ti153  1  0.69454521  0.29985521  0.37375750  1
  Ti  Ti154  1  0.80942226  0.78501985  -0.00343862  1
  Ti  Ti155  1  0.20033928  0.61271331  0.74553940  1
  Ti  Ti156  1  0.20128274  0.20647953  0.73516043  1
  Ti  Ti157  1  0.90926122  0.69231886  0.12585098  1
  Ti  Ti158  1  0.00000763  0.60450655  -0.00109623  1
  Ti  Ti159  1  0.70027976  0.69100044  0.62145688  1
  Mo  Mo160  1  0.40061307  0.19693993  0.25313471  1
  Mo  Mo161  1  0.01539633  0.19586447  0.50446927  1
  Mo  Mo162  1  0.81224231  0.59844122  -0.00027120  1
  Mo  Mo163  1  0.00074330  0.20029893  0.24980724  1
  Mo  Mo164  1  0.21112059  0.20753402  0.25365429  1
  Mo  Mo165  1  0.00148798  -0.00377912  0.47863257  1
  Mo  Mo166  1  0.28721944  0.49808877  0.88034196  1
  Mo  Mo167  1  0.51182776  0.49826284  0.11449037  1
  Mo  Mo168  1  0.78708597  -0.00860908  0.50613494  1
  Mo  Mo169  1  0.08330459  0.69610832  0.12983453  1
  Mo  Mo170  1  0.58832468  0.39018007  0.50287031  1
  Mo  Mo171  1  0.00288783  -0.00833344  0.74844493  1
  Mo  Mo172  1  0.39658010  0.39998883  0.76029591  1
  Mo  Mo173  1  0.78945745  0.79054720  0.51607792  1
  Mo  Mo174  1  0.89492033  0.68560689  0.38430517  1
  Mo  Mo175  1  0.30399153  0.49713753  0.37422627  1
  Mo  Mo176  1  0.30522880  0.70565868  0.12561631  1
  Mo  Mo177  1  0.10502297  0.10936837  0.61378109  1
  Mo  Mo178  1  0.09238245  0.70546957  0.86503467  1
  Mo  Mo179  1  0.20491264  0.80010038  0.50196145  1
  Mo  Mo180  1  0.61036826  0.39349766  0.24369877  1
  Mo  Mo181  1  0.70722843  0.49153745  0.87662950  1
  Mo  Mo182  1  0.39870555  0.81027652  0.49969831  1
  Mo  Mo183  1  0.09173690  0.69172584  0.37239129  1
  Mo  Mo184  1  0.89867078  0.09112048  0.38755529  1
  Mo  Mo185  1  0.79649663  0.19199686  -0.00085025  1
  Mo  Mo186  1  0.79601635  0.19889369  0.49360436  1
  Mo  Mo187  1  0.69781236  0.30150980  0.63339862  1
  Mo  Mo188  1  0.79877466  0.58717931  0.51990251  1
  Mo  Mo189  1  0.50940210  0.11355712  0.63165910  1
  Mo  Mo190  1  0.50023082  0.70353773  0.86128328  1
  Mo  Mo191  1  0.18789559  0.60111622  0.50358148  1
  Mo  Mo192  1  0.49342700  0.49364434  0.88032954  1
  Mo  Mo193  1  0.48998215  0.49450713  0.63074253  1
  Mo  Mo194  1  0.21785969  0.41213953  0.49450275  1
  Mo  Mo195  1  0.81021534  0.19593619  0.74850058  1
  Mo  Mo196  1  0.19906416  0.39684010  0.00400071  1
  Mo  Mo197  1  0.28739136  0.71123566  0.62159069  1
  Mo  Mo198  1  0.10924932  0.30418867  0.64289278  1
  Mo  Mo199  1  0.69323912  0.28623738  0.87268100  1
