# generated using pymatgen
data_HfZrTaTiMo
_symmetry_space_group_name_H-M   'P 1'
_cell_length_a   15.21576547
_cell_length_b   15.20968110
_cell_length_c   16.83576908
_cell_angle_alpha   90.03490840
_cell_angle_beta   90.05654058
_cell_angle_gamma   89.94701274
_symmetry_Int_Tables_number   1
_chemical_formula_structural   HfZrTaTiMo
_chemical_formula_sum   'Hf40 Zr40 Ta40 Ti40 Mo40'
_cell_volume   3896.24624694
_cell_formula_units_Z   40
loop_
 _symmetry_equiv_pos_site_id
 _symmetry_equiv_pos_as_xyz
  1  'x, y, z'
loop_
 _atom_site_type_symbol
 _atom_site_label
 _atom_site_symmetry_multiplicity
 _atom_site_fract_x
 _atom_site_fract_y
 _atom_site_fract_z
 _atom_site_occupancy
  Hf  Hf0  1  0.19773050  0.60699312  0.26146747  1
  Hf  Hf1  1  0.20573277  0.60027058  0.49951325  1
  Hf  Hf2  1  0.30694887  0.29814464  0.62956906  1
  Hf  Hf3  1  0.70419603  0.09531265  0.36754403  1
  Hf  Hf4  1  0.80400382  0.80366414  0.00353672  1
  Hf  Hf5  1  0.10596362  0.50698250  0.12720451  1
  Hf  Hf6  1  0.39061079  0.39894399  0.76749802  1
  Hf  Hf7  1  0.00517012  0.19681267  0.74750864  1
  Hf  Hf8  1  0.60024042  0.19221165  0.01809342  1
  Hf  Hf9  1  0.69354381  0.50434614  0.36541708  1
  Hf  Hf10  1  0.59473624  0.39119027  0.74932033  1
  Hf  Hf11  1  0.41008045  0.79154024  0.51371317  1
  Hf  Hf12  1  0.77450162  -0.00584747  0.76153264  1
  Hf  Hf13  1  0.00963781  0.40451149  0.25787314  1
  Hf  Hf14  1  0.50788825  0.89492348  0.38641242  1
  Hf  Hf15  1  0.50135706  0.70475503  0.87624142  1
  Hf  Hf16  1  0.29888741  0.30990782  0.12136750  1
  Hf  Hf17  1  0.78816865  0.61235006  0.49536079  1
  Hf  Hf18  1  0.91174423  0.88245028  0.14228556  1
  Hf  Hf19  1  0.09145555  0.70771000  0.38321576  1
  Hf  Hf20  1  0.58660911  0.40511482  0.50559816  1
  Hf  Hf21  1  0.09805144  0.09492584  0.88662796  1
  Hf  Hf22  1  0.40217202  0.40113996  -0.01093423  1
  Hf  Hf23  1  0.79969935  0.40023676  0.73850251  1
  Hf  Hf24  1  0.56415986  0.79870848  0.23671978  1
  Hf  Hf25  1  0.79774182  0.79115495  0.74809016  1
  Hf  Hf26  1  0.80151528  0.59871612  0.00757894  1
  Hf  Hf27  1  0.69254060  0.29776934  0.36636784  1
  Hf  Hf28  1  0.20804019  0.20492018  0.76267014  1
  Hf  Hf29  1  0.20239131  0.00410885  0.76120801  1
  Hf  Hf30  1  0.11231386  0.90158541  0.12220042  1
  Hf  Hf31  1  0.50578707  0.10636364  0.37562392  1
  Hf  Hf32  1  0.79159186  0.38992351  0.50035920  1
  Hf  Hf33  1  0.29641714  0.07193289  0.11158189  1
  Hf  Hf34  1  0.40402675  0.18983197  0.00321254  1
  Hf  Hf35  1  0.30235004  0.51533243  0.12276134  1
  Hf  Hf36  1  0.51283446  0.29162840  0.88092926  1
  Hf  Hf37  1  -0.00545974  0.20570001  0.00715674  1
  Hf  Hf38  1  0.89631528  0.08490675  0.12460939  1
  Hf  Hf39  1  -0.01664543  0.61285988  0.24921881  1
  Zr  Zr40  1  0.19632594  0.41105573  -0.01176455  1
  Zr  Zr41  1  0.10022202  0.48623222  0.61699272  1
  Zr  Zr42  1  0.91439801  0.29322817  0.61268318  1
  Zr  Zr43  1  0.88790179  0.10254691  0.87891357  1
  Zr  Zr44  1  0.90399419  0.69553830  0.87180056  1
  Zr  Zr45  1  0.39433625  0.21043842  0.49632230  1
  Zr  Zr46  1  0.69746191  0.31500935  0.12438960  1
  Zr  Zr47  1  0.90565487  0.49487569  0.38523218  1
  Zr  Zr48  1  0.00789670  0.60076193  0.00676610  1
  Zr  Zr49  1  0.39813085  0.60690243  0.74156532  1
  Zr  Zr50  1  0.19907836  0.19805048  0.25236745  1
  Zr  Zr51  1  0.10100523  0.09258214  0.11940930  1
  Zr  Zr52  1  -0.01059300  0.20067542  0.24722205  1
  Zr  Zr53  1  0.50865128  0.90158772  0.88779822  1
  Zr  Zr54  1  0.90439845  0.50278492  0.61580326  1
  Zr  Zr55  1  0.31400194  0.50080662  0.37413830  1
  Zr  Zr56  1  0.50026517  0.11031669  0.62487335  1
  Zr  Zr57  1  0.69998689  0.49866843  0.87919669  1
  Zr  Zr58  1  0.30105912  0.09708146  0.37312695  1
  Zr  Zr59  1  0.10022053  0.30614306  0.12178157  1
  Zr  Zr60  1  0.90094231  0.89106667  0.61407282  1
  Zr  Zr61  1  0.19788255  0.60064137  0.74088860  1
  Zr  Zr62  1  0.39929650  0.20361274  0.23271321  1
  Zr  Zr63  1  0.70527624  0.69986246  0.14312576  1
  Zr  Zr64  1  0.59147273  0.19960378  0.22959478  1
  Zr  Zr65  1  0.70144539  0.50038161  0.13133459  1
  Zr  Zr66  1  0.60869422  0.61473732  0.74278780  1
  Zr  Zr67  1  0.69821168  0.90441170  0.13156950  1
  Zr  Zr68  1  0.79708999  0.17697768  0.50740606  1
  Zr  Zr69  1  0.78989903  0.19369662  0.74129749  1
  Zr  Zr70  1  0.68946584  0.71275066  0.36029910  1
  Zr  Zr71  1  0.40945383  -0.01007481  0.24739707  1
  Zr  Zr72  1  0.90128794  0.49741491  0.86838287  1
  Zr  Zr73  1  0.69887214  0.50981256  0.62499026  1
  Zr  Zr74  1  0.40762005  0.00034381  0.75833182  1
  Zr  Zr75  1  0.21138080  0.79973420  0.74487771  1
  Zr  Zr76  1  0.09689182  0.29698577  0.38909283  1
  Zr  Zr77  1  0.89518976  0.30400889  0.87452397  1
  Zr  Zr78  1  0.91441152  0.89356652  0.37496946  1
  Zr  Zr79  1  0.10269513  0.90979900  0.62611588  1
  Ta  Ta80  1  0.59507805  0.20923008  0.49970829  1
  Ta  Ta81  1  -0.00999873  -0.01633359  -0.00595341  1
  Ta  Ta82  1  0.51722123  0.90466905  0.61758193  1
  Ta  Ta83  1  0.50851884  0.50220905  0.10848948  1
  Ta  Ta84  1  0.20648527  -0.02331087  0.25853071  1
  Ta  Ta85  1  -0.00565682  0.60391381  0.74096259  1
  Ta  Ta86  1  0.29074317  0.09772509  0.62319753  1
  Ta  Ta87  1  0.80661957  -0.00419038  0.25566704  1
  Ta  Ta88  1  0.60554820  0.82258321  0.74819954  1
  Ta  Ta89  1  0.09555750  0.50576207  0.86874718  1
  Ta  Ta90  1  0.79557817  0.19915057  0.01605564  1
  Ta  Ta91  1  0.68077231  0.28733112  0.62467884  1
  Ta  Ta92  1  0.09656098  0.30754269  0.87953372  1
  Ta  Ta93  1  0.10035238  0.71088325  0.12993474  1
  Ta  Ta94  1  0.09432770  0.89032144  0.87605363  1
  Ta  Ta95  1  0.40200945  0.59884841  0.51515871  1
  Ta  Ta96  1  0.78462516  0.00259583  -0.00835709  1
  Ta  Ta97  1  0.30058990  0.70774100  0.88117013  1
  Ta  Ta98  1  0.41742365  0.41482307  0.23930783  1
  Ta  Ta99  1  0.30122532  0.49203704  0.62160020  1
  Ta  Ta100  1  0.00361590  0.00530407  0.49769045  1
  Ta  Ta101  1  0.49094425  0.31378147  0.36674584  1
  Ta  Ta102  1  0.20529672  -0.00016321  0.49603253  1
  Ta  Ta103  1  0.79910030  0.19679157  0.23890332  1
  Ta  Ta104  1  0.08954667  0.70373759  0.61512732  1
  Ta  Ta105  1  0.58081604  0.59149320  0.24666785  1
  Ta  Ta106  1  0.31049066  0.90918288  0.62131046  1
  Ta  Ta107  1  0.40121087  0.61849464  0.24138589  1
  Ta  Ta108  1  0.40143456  0.61145863  0.00053581  1
  Ta  Ta109  1  0.30257458  0.71571865  0.37954539  1
  Ta  Ta110  1  0.20640643  0.80366439  0.50988038  1
  Ta  Ta111  1  -0.00758532  -0.00512612  0.75611782  1
  Ta  Ta112  1  0.69609143  0.70884045  0.88114620  1
  Ta  Ta113  1  0.00474605  0.79640964  0.74997299  1
  Ta  Ta114  1  0.89664194  0.89653148  0.87314593  1
  Ta  Ta115  1  0.81100339  0.39287428  0.25578383  1
  Ta  Ta116  1  0.70663636  0.91272002  0.60805891  1
  Ta  Ta117  1  0.09362211  0.08774309  0.37184439  1
  Ta  Ta118  1  0.58524413  0.61781649  0.50586371  1
  Ta  Ta119  1  0.10988060  0.29256513  0.61109919  1
  Ti  Ti120  1  0.19823134  0.39855886  0.75820373  1
  Ti  Ti121  1  0.10580467  0.69557195  0.87352188  1
  Ti  Ti122  1  0.19675043  0.79758982  -0.00608457  1
  Ti  Ti123  1  0.00143440  0.59845134  0.49565450  1
  Ti  Ti124  1  0.39986795  0.19566878  0.76738955  1
  Ti  Ti125  1  0.89100482  0.70716613  0.37796813  1
  Ti  Ti126  1  0.29469992  0.71462999  0.11585234  1
  Ti  Ti127  1  0.50874637  0.50907638  0.88490613  1
  Ti  Ti128  1  0.49107607  0.69599197  0.37594181  1
  Ti  Ti129  1  0.30006883  0.90333898  0.88988234  1
  Ti  Ti130  1  0.60233779  -0.00129096  0.24530742  1
  Ti  Ti131  1  0.71260677  0.89717634  0.38194667  1
  Ti  Ti132  1  0.89625293  0.08207554  0.62459053  1
  Ti  Ti133  1  0.90383479  0.09545176  0.37284285  1
  Ti  Ti134  1  0.47302721  0.89569041  0.10489384  1
  Ti  Ti135  1  0.61140806  0.01019202  0.49813606  1
  Ti  Ti136  1  0.40086773  0.00065425  0.50099504  1
  Ti  Ti137  1  0.40866540  0.79909578  0.73364461  1
  Ti  Ti138  1  -0.01215002  0.40362928  0.00405929  1
  Ti  Ti139  1  -0.00006509  0.79360299  -0.00093645  1
  Ti  Ti140  1  0.59931656  0.18119020  0.75532774  1
  Ti  Ti141  1  0.89859655  0.28677553  0.38731217  1
  Ti  Ti142  1  0.59389110  0.78714034  0.01443304  1
  Ti  Ti143  1  0.89661851  0.70038885  0.61580803  1
  Ti  Ti144  1  0.21151461  0.39966237  0.26455915  1
  Ti  Ti145  1  0.37059371  0.80815310  0.24731331  1
  Ti  Ti146  1  0.20857025  0.20135461  -0.01356883  1
  Ti  Ti147  1  0.11256949  0.89497703  0.37784122  1
  Ti  Ti148  1  0.00967917  0.39657297  0.74691705  1
  Ti  Ti149  1  0.50113104  0.50800172  0.37677760  1
  Ti  Ti150  1  0.70590780  0.29277764  0.88782993  1
  Ti  Ti151  1  0.09676076  0.10304958  0.62212080  1
  Ti  Ti152  1  0.89498695  0.49333032  0.13127732  1
  Ti  Ti153  1  0.59431560  0.00413405  0.00923134  1
  Ti  Ti154  1  0.20892566  0.39524445  0.48894797  1
  Ti  Ti155  1  0.69442225  0.72287370  0.61466305  1
  Ti  Ti156  1  0.49457920  0.49555145  0.62976109  1
  Ti  Ti157  1  0.39914643  0.40096095  0.50116203  1
  Ti  Ti158  1  0.29317110  0.51577297  0.87882460  1
  Ti  Ti159  1  0.19812999  0.19260984  0.49622483  1
  Mo  Mo160  1  0.01100660  -0.00061211  0.25944275  1
  Mo  Mo161  1  0.39243497  0.79831459  -0.00157383  1
  Mo  Mo162  1  0.69269480  0.09262112  0.62074060  1
  Mo  Mo163  1  0.29893575  0.70171805  0.61897993  1
  Mo  Mo164  1  0.00728238  0.39462277  0.49283193  1
  Mo  Mo165  1  0.79907766  0.79924830  0.49716504  1
  Mo  Mo166  1  0.50693296  0.70809773  0.63117014  1
  Mo  Mo167  1  0.81847257  0.78802252  0.25360056  1
  Mo  Mo168  1  0.59199875  0.40450546  0.25283546  1
  Mo  Mo169  1  0.29169462  0.89042248  0.11137248  1
  Mo  Mo170  1  0.89493563  0.30672726  0.12597721  1
  Mo  Mo171  1  0.20212062  0.79610204  0.25298414  1
  Mo  Mo172  1  0.48701444  0.69458850  0.11958460  1
  Mo  Mo173  1  0.02038384  0.80189462  0.25330122  1
  Mo  Mo174  1  0.60689436  0.80423100  0.49885335  1
  Mo  Mo175  1  0.10364909  0.50104615  0.38133715  1
  Mo  Mo176  1  0.49697951  0.31793345  0.11523299  1
  Mo  Mo177  1  0.30764345  0.30719588  0.36966824  1
  Mo  Mo178  1  0.49820827  0.30552794  0.63483001  1
  Mo  Mo179  1  0.29737384  0.29954026  0.87503998  1
  Mo  Mo180  1  0.00536975  0.79388772  0.50334252  1
  Mo  Mo181  1  0.50239120  0.07981522  0.12407135  1
  Mo  Mo182  1  0.80461732  -0.00230216  0.48973005  1
  Mo  Mo183  1  0.19437227  -0.00715391  -0.01767989  1
  Mo  Mo184  1  0.50853548  0.09942445  0.87702975  1
  Mo  Mo185  1  0.70525411  0.09064687  0.13379282  1
  Mo  Mo186  1  0.80352289  0.61230674  0.74081537  1
  Mo  Mo187  1  0.39982228  -0.00076147  -0.00957339  1
  Mo  Mo188  1  0.80861256  0.39149590  0.00524206  1
  Mo  Mo189  1  0.30580882  0.09613470  0.88682227  1
  Mo  Mo190  1  0.80071909  0.59635336  0.25488694  1
  Mo  Mo191  1  0.60357513  0.40427807  -0.01058092  1
  Mo  Mo192  1  0.69682097  0.89325442  0.88829827  1
  Mo  Mo193  1  0.20463516  0.61370082  -0.00500757  1
  Mo  Mo194  1  0.30276843  0.89593348  0.38835396  1
  Mo  Mo195  1  0.68061838  0.10272680  0.88382696  1
  Mo  Mo196  1  0.00594069  0.18408905  0.50274090  1
  Mo  Mo197  1  0.90547541  0.69543775  0.12765904  1
  Mo  Mo198  1  0.59927233  0.60555688  -0.00081253  1
  Mo  Mo199  1  0.60061124  -0.00143934  0.74791615  1
