# generated using pymatgen
data_HfZrTaTiMo
_symmetry_space_group_name_H-M   'P 1'
_cell_length_a   15.21144791
_cell_length_b   15.20782240
_cell_length_c   16.82802240
_cell_angle_alpha   89.95314028
_cell_angle_beta   90.01892123
_cell_angle_gamma   89.87815147
_symmetry_Int_Tables_number   1
_chemical_formula_structural   HfZrTaTiMo
_chemical_formula_sum   'Hf40 Zr40 Ta40 Ti40 Mo40'
_cell_volume   3892.86655835
_cell_formula_units_Z   40
loop_
 _symmetry_equiv_pos_site_id
 _symmetry_equiv_pos_as_xyz
  1  'x, y, z'
loop_
 _atom_site_type_symbol
 _atom_site_label
 _atom_site_symmetry_multiplicity
 _atom_site_fract_x
 _atom_site_fract_y
 _atom_site_fract_z
 _atom_site_occupancy
  Hf  Hf0  1  0.17840216  0.19571074  0.48270032  1
  Hf  Hf1  1  0.79269609  0.80326672  0.50492665  1
  Hf  Hf2  1  0.29402253  0.69633164  0.38032805  1
  Hf  Hf3  1  0.40177096  0.60715204  -0.00339956  1
  Hf  Hf4  1  0.80769272  0.59684948  0.74497940  1
  Hf  Hf5  1  0.91260677  0.89775305  0.10670701  1
  Hf  Hf6  1  0.30940649  0.08740086  0.37427782  1
  Hf  Hf7  1  0.29028781  0.68699163  0.61765510  1
  Hf  Hf8  1  0.21099948  -0.00237274  -0.00864106  1
  Hf  Hf9  1  0.68688350  0.90813272  0.37170897  1
  Hf  Hf10  1  0.80958329  0.19619325  0.75219321  1
  Hf  Hf11  1  0.10116026  0.30979709  0.13132822  1
  Hf  Hf12  1  0.80782147  0.79815473  0.24314664  1
  Hf  Hf13  1  0.01572035  0.39008250  0.48125053  1
  Hf  Hf14  1  0.90578825  0.90837234  0.37874901  1
  Hf  Hf15  1  0.11031951  0.51014424  0.62408722  1
  Hf  Hf16  1  0.20397286  -0.01472618  0.50277292  1
  Hf  Hf17  1  0.91222304  0.70549501  0.62561622  1
  Hf  Hf18  1  0.58936302  0.80274702  0.51100036  1
  Hf  Hf19  1  0.31459555  0.31939976  0.12376344  1
  Hf  Hf20  1  0.00867472  0.39859071  0.26522481  1
  Hf  Hf21  1  0.20291813  0.19592962  0.00718340  1
  Hf  Hf22  1  0.60636954  0.61221258  0.73208247  1
  Hf  Hf23  1  0.79383524  0.00058018  0.75168089  1
  Hf  Hf24  1  0.39510799  -0.01578064  0.73136935  1
  Hf  Hf25  1  0.21587323  0.38593674  0.48612487  1
  Hf  Hf26  1  0.39935597  0.20737336  0.74495105  1
  Hf  Hf27  1  0.78973775  0.59775023  0.51176082  1
  Hf  Hf28  1  0.20545176  0.20678085  0.25373802  1
  Hf  Hf29  1  0.69691064  0.68955834  0.13966015  1
  Hf  Hf30  1  0.30473376  0.50154774  0.87470671  1
  Hf  Hf31  1  0.60431513  0.20244101  0.50300439  1
  Hf  Hf32  1  0.80243424  0.39678376  0.75167752  1
  Hf  Hf33  1  0.50888928  0.29202551  0.12352768  1
  Hf  Hf34  1  0.90536503  0.49234154  0.61368417  1
  Hf  Hf35  1  0.89864341  0.51329498  0.38333872  1
  Hf  Hf36  1  0.30928036  0.07981742  0.13258712  1
  Hf  Hf37  1  0.08730387  0.11533218  0.63947112  1
  Hf  Hf38  1  0.49571981  0.50607095  0.61667491  1
  Hf  Hf39  1  0.69487284  0.09933788  0.11909676  1
  Zr  Zr40  1  0.69119128  0.49738058  0.14002528  1
  Zr  Zr41  1  0.48540047  0.87626293  0.86894677  1
  Zr  Zr42  1  0.30606446  0.48409476  0.61845161  1
  Zr  Zr43  1  0.59688851  0.60757881  0.50416352  1
  Zr  Zr44  1  -0.00513610  -0.00466368  0.75285274  1
  Zr  Zr45  1  0.60752243  0.40262747  0.48868685  1
  Zr  Zr46  1  0.80301452  0.00281384  0.24560630  1
  Zr  Zr47  1  0.50325835  0.10332467  0.61885875  1
  Zr  Zr48  1  0.69676091  0.69873838  0.35688793  1
  Zr  Zr49  1  0.49046910  0.69830959  0.36241685  1
  Zr  Zr50  1  0.20466455  0.41007256  -0.00116414  1
  Zr  Zr51  1  0.18918997  0.79383214  0.50247564  1
  Zr  Zr52  1  0.30322352  0.09597616  0.86617737  1
  Zr  Zr53  1  0.91890056  0.29017822  0.61635192  1
  Zr  Zr54  1  0.79566829  0.39639322  -0.00533939  1
  Zr  Zr55  1  0.40060762  0.61578089  0.75685445  1
  Zr  Zr56  1  0.80104246  0.20427632  0.25436536  1
  Zr  Zr57  1  0.48519762  0.48978376  0.13521663  1
  Zr  Zr58  1  0.19624152  0.61903480  -0.00939913  1
  Zr  Zr59  1  0.79524317  0.78823797  -0.00614054  1
  Zr  Zr60  1  0.28887925  0.10902122  0.62343302  1
  Zr  Zr61  1  0.58205061  0.79075327  0.00711970  1
  Zr  Zr62  1  0.09726794  0.07430660  0.35025768  1
  Zr  Zr63  1  0.70013341  0.29906124  0.12831260  1
  Zr  Zr64  1  0.68739816  0.90578260  0.87856144  1
  Zr  Zr65  1  0.11449504  0.91325955  0.13208403  1
  Zr  Zr66  1  0.00741029  0.40004450  0.75587063  1
  Zr  Zr67  1  0.41607344  0.20207670  0.25828427  1
  Zr  Zr68  1  0.00401142  0.19743425  0.00988958  1
  Zr  Zr69  1  0.80525168  0.39963879  0.26521380  1
  Zr  Zr70  1  0.01010006  0.00129466  0.50899686  1
  Zr  Zr71  1  0.48697832  0.69753527  0.14155721  1
  Zr  Zr72  1  0.10818457  0.51541186  0.12928296  1
  Zr  Zr73  1  0.90043083  0.11037031  0.38834237  1
  Zr  Zr74  1  0.79542665  0.79474060  0.75781042  1
  Zr  Zr75  1  0.69140492  0.90606648  0.11676300  1
  Zr  Zr76  1  0.70064427  0.50015546  0.87009649  1
  Zr  Zr77  1  0.50386446  0.29934818  0.87269030  1
  Zr  Zr78  1  -0.00770528  0.60980039  0.25072734  1
  Zr  Zr79  1  0.50941531  0.08545604  0.87220022  1
  Ta  Ta80  1  0.30479359  0.30050996  0.88469309  1
  Ta  Ta81  1  -0.00375485  0.41236468  -0.00490981  1
  Ta  Ta82  1  0.61102975  0.19933631  0.73810507  1
  Ta  Ta83  1  0.20758163  0.39968425  0.75894791  1
  Ta  Ta84  1  0.80232436  0.19711059  -0.00611569  1
  Ta  Ta85  1  0.48429723  0.91352057  0.11688929  1
  Ta  Ta86  1  0.70475317  0.30333987  0.62427451  1
  Ta  Ta87  1  0.59031732  0.40192567  -0.00324486  1
  Ta  Ta88  1  0.89795211  0.50176332  0.12526300  1
  Ta  Ta89  1  0.50682268  0.50468733  0.87170235  1
  Ta  Ta90  1  0.91295492  0.89271912  0.88880731  1
  Ta  Ta91  1  0.10482898  0.30096194  0.87816973  1
  Ta  Ta92  1  0.89832678  0.90219862  0.62429980  1
  Ta  Ta93  1  -0.00682424  0.20053498  0.24492064  1
  Ta  Ta94  1  -0.00035491  0.81284859  0.25322262  1
  Ta  Ta95  1  0.09205264  0.70342346  0.37150617  1
  Ta  Ta96  1  0.58320375  0.82241800  0.24377088  1
  Ta  Ta97  1  0.58855118  0.38380081  0.27370807  1
  Ta  Ta98  1  0.00559397  0.60548028  0.75566347  1
  Ta  Ta99  1  0.19535286  0.79722077  0.25571855  1
  Ta  Ta100  1  0.00064791  0.80403108  0.50000840  1
  Ta  Ta101  1  0.89153053  0.09947333  0.61828136  1
  Ta  Ta102  1  0.50770017  0.08888717  0.39037948  1
  Ta  Ta103  1  0.09818266  0.10447291  0.86498706  1
  Ta  Ta104  1  0.49006017  0.30947729  0.62049308  1
  Ta  Ta105  1  0.38134826  0.81517801  0.24738576  1
  Ta  Ta106  1  0.40445525  0.19104537  0.00117800  1
  Ta  Ta107  1  0.31048432  0.50386241  0.38625163  1
  Ta  Ta108  1  0.90825058  0.29631715  0.87860570  1
  Ta  Ta109  1  0.90242151  0.09760786  0.88193864  1
  Ta  Ta110  1  0.60584734  0.19795637  -0.00598269  1
  Ta  Ta111  1  0.89796708  0.70658786  0.38247279  1
  Ta  Ta112  1  0.80342325  0.59327013  -0.00277992  1
  Ta  Ta113  1  0.08930159  0.71606156  0.12055335  1
  Ta  Ta114  1  0.60211622  0.59581457  -0.00025752  1
  Ta  Ta115  1  0.59947092  0.40025590  0.73829715  1
  Ta  Ta116  1  0.38937826  0.21526998  0.49361599  1
  Ta  Ta117  1  0.01364825  0.61057618  0.49941247  1
  Ta  Ta118  1  0.40174611  -0.01145839  0.51146539  1
  Ta  Ta119  1  0.69732991  0.09831660  0.38260927  1
  Ti  Ti120  1  0.48812874  0.90130668  0.38025589  1
  Ti  Ti121  1  0.60408302  0.18899700  0.26532556  1
  Ti  Ti122  1  0.41759502  -0.00604905  0.25469695  1
  Ti  Ti123  1  0.79783305  0.39223287  0.48705488  1
  Ti  Ti124  1  0.11703527  0.51375920  0.37338256  1
  Ti  Ti125  1  0.69366833  0.50974529  0.35962752  1
  Ti  Ti126  1  0.60251798  -0.00451334  0.51440790  1
  Ti  Ti127  1  0.50742006  0.09325590  0.11747772  1
  Ti  Ti128  1  0.90360898  0.69465655  0.11477065  1
  Ti  Ti129  1  0.20161427  0.79523219  0.74897183  1
  Ti  Ti130  1  0.79967425  0.20522629  0.50057360  1
  Ti  Ti131  1  0.90133819  0.30477681  0.12047991  1
  Ti  Ti132  1  0.11848043  0.30526666  0.62739670  1
  Ti  Ti133  1  0.69684419  0.89508189  0.63282022  1
  Ti  Ti134  1  0.60004251  -0.00303158  0.73561276  1
  Ti  Ti135  1  0.90431671  0.09576699  0.11824520  1
  Ti  Ti136  1  0.37831972  0.80344162  0.00405759  1
  Ti  Ti137  1  0.39344048  0.80319021  0.51176769  1
  Ti  Ti138  1  0.19820255  0.21347974  0.75552229  1
  Ti  Ti139  1  0.19466755  -0.00942208  0.74818652  1
  Ti  Ti140  1  0.29210913  0.88969968  0.86547452  1
  Ti  Ti141  1  0.21951310  0.41576393  0.25750459  1
  Ti  Ti142  1  0.28258813  0.69797836  0.13240494  1
  Ti  Ti143  1  0.67860994  0.69998933  0.87254420  1
  Ti  Ti144  1  0.49238457  0.50088831  0.37292343  1
  Ti  Ti145  1  0.90796403  0.68771371  0.88471996  1
  Ti  Ti146  1  0.37503987  0.58801205  0.24756732  1
  Ti  Ti147  1  0.19320643  0.80871875  -0.00515849  1
  Ti  Ti148  1  0.78933727  0.00327831  0.51141642  1
  Ti  Ti149  1  0.19524811  0.60632392  0.76457620  1
  Ti  Ti150  1  0.09712186  0.88556807  0.63449208  1
  Ti  Ti151  1  0.01592810  -0.00341761  -0.01128851  1
  Ti  Ti152  1  0.00204101  0.79890590  0.75752936  1
  Ti  Ti153  1  0.09969000  0.09687361  0.14197336  1
  Ti  Ti154  1  0.08961542  0.50827812  0.87878287  1
  Ti  Ti155  1  0.69984615  0.10249253  0.87853213  1
  Ti  Ti156  1  0.69816334  0.29475451  0.86995529  1
  Ti  Ti157  1  0.80078818  0.00459249  -0.00663017  1
  Ti  Ti158  1  0.09586310  0.71648526  0.87834004  1
  Ti  Ti159  1  0.40013623  0.39994346  0.75148952  1
  Mo  Mo160  1  0.70273534  0.70525452  0.62863685  1
  Mo  Mo161  1  0.49030636  0.70651664  0.62016817  1
  Mo  Mo162  1  -0.00607916  0.60286913  0.00065196  1
  Mo  Mo163  1  0.58586705  0.80222511  0.73344072  1
  Mo  Mo164  1  0.70809203  0.09968004  0.62079405  1
  Mo  Mo165  1  0.90705664  0.50244078  0.87752849  1
  Mo  Mo166  1  0.30511760  0.30390517  0.36642755  1
  Mo  Mo167  1  0.49904433  0.89456617  0.62651848  1
  Mo  Mo168  1  0.00343263  0.20219002  0.76057482  1
  Mo  Mo169  1  0.30833618  0.89655117  0.37801907  1
  Mo  Mo170  1  0.70447604  0.48849530  0.62739490  1
  Mo  Mo171  1  0.59301283  0.00580465  -0.00495137  1
  Mo  Mo172  1  0.80574665  0.60158345  0.24742215  1
  Mo  Mo173  1  0.40114676  -0.00391706  -0.00207835  1
  Mo  Mo174  1  0.58933811  0.00868886  0.25436863  1
  Mo  Mo175  1  0.38769506  0.79591528  0.73865964  1
  Mo  Mo176  1  -0.00558472  0.00187673  0.24110930  1
  Mo  Mo177  1  0.10547138  0.90140483  0.86802274  1
  Mo  Mo178  1  0.50307598  0.69388871  0.87567626  1
  Mo  Mo179  1  0.41069057  0.39557989  0.48996768  1
  Mo  Mo180  1  0.10290226  0.89121519  0.36687273  1
  Mo  Mo181  1  0.30303841  0.88694641  0.12146990  1
  Mo  Mo182  1  0.39942675  0.60260293  0.49616518  1
  Mo  Mo183  1  0.50169389  0.29160905  0.38172142  1
  Mo  Mo184  1  0.58947597  0.59519444  0.25862894  1
  Mo  Mo185  1  0.19720001  0.60548384  0.25026090  1
  Mo  Mo186  1  0.40725034  0.40004470  -0.00799214  1
  Mo  Mo187  1  0.70459099  0.29168542  0.37903545  1
  Mo  Mo188  1  0.22740207  -0.01882577  0.25543224  1
  Mo  Mo189  1  0.30203487  0.51084282  0.12552659  1
  Mo  Mo190  1  0.30015313  0.71691233  0.87373378  1
  Mo  Mo191  1  0.29688015  0.29842450  0.62747265  1
  Mo  Mo192  1  0.09637342  0.69937585  0.63752817  1
  Mo  Mo193  1  0.39791547  0.39831381  0.26399051  1
  Mo  Mo194  1  0.29216005  0.89180928  0.63112567  1
  Mo  Mo195  1  0.19366109  0.59228843  0.49622357  1
  Mo  Mo196  1  0.10424994  0.29532287  0.35533088  1
  Mo  Mo197  1  0.00306995  0.20098034  0.49604700  1
  Mo  Mo198  1  0.00920895  0.79744803  -0.00594896  1
  Mo  Mo199  1  0.90495880  0.30031901  0.38644914  1
