# generated using pymatgen
data_HfZrTaTiMo
_symmetry_space_group_name_H-M   'P 1'
_cell_length_a   15.22445361
_cell_length_b   15.21404528
_cell_length_c   16.81379662
_cell_angle_alpha   90.01779782
_cell_angle_beta   90.06032730
_cell_angle_gamma   90.14956852
_symmetry_Int_Tables_number   1
_chemical_formula_structural   HfZrTaTiMo
_chemical_formula_sum   'Hf40 Zr40 Ta40 Ti40 Mo40'
_cell_volume   3894.48887493
_cell_formula_units_Z   40
loop_
 _symmetry_equiv_pos_site_id
 _symmetry_equiv_pos_as_xyz
  1  'x, y, z'
loop_
 _atom_site_type_symbol
 _atom_site_label
 _atom_site_symmetry_multiplicity
 _atom_site_fract_x
 _atom_site_fract_y
 _atom_site_fract_z
 _atom_site_occupancy
  Hf  Hf0  1  0.30109679  0.69140505  0.87364308  1
  Hf  Hf1  1  0.11099970  0.91636211  0.36294153  1
  Hf  Hf2  1  0.51727425  0.29153817  0.38330348  1
  Hf  Hf3  1  0.31155693  0.30559027  0.88424275  1
  Hf  Hf4  1  0.50677520  0.29770914  0.87562511  1
  Hf  Hf5  1  0.59253072  0.19435866  0.74242666  1
  Hf  Hf6  1  0.58651309  -0.01420762  0.50235772  1
  Hf  Hf7  1  0.61252562  -0.01224692  0.25696938  1
  Hf  Hf8  1  0.19016387  0.21007710  0.47468630  1
  Hf  Hf9  1  0.01210746  0.59768445  0.24573137  1
  Hf  Hf10  1  0.30112985  0.49656389  0.60806291  1
  Hf  Hf11  1  0.50924446  0.90917505  0.88483612  1
  Hf  Hf12  1  0.69729190  0.30250121  0.62866926  1
  Hf  Hf13  1  0.00606104  0.21024428  -0.00092276  1
  Hf  Hf14  1  0.79483147  0.59937457  0.26134278  1
  Hf  Hf15  1  0.70503627  0.27704407  0.88297664  1
  Hf  Hf16  1  0.20793942  0.62117683  0.24657485  1
  Hf  Hf17  1  0.09095192  0.91778568  0.13708140  1
  Hf  Hf18  1  0.77045340  0.80399147  0.26563669  1
  Hf  Hf19  1  0.31222148  0.31834258  0.12750953  1
  Hf  Hf20  1  0.88686452  0.09955129  0.89221263  1
  Hf  Hf21  1  0.00794383  0.39699875  0.75975178  1
  Hf  Hf22  1  0.40850210  0.19981301  0.25009492  1
  Hf  Hf23  1  0.49126815  0.67983968  0.11883548  1
  Hf  Hf24  1  0.88518241  0.51462625  0.87063288  1
  Hf  Hf25  1  0.58293858  0.59586596  0.73371491  1
  Hf  Hf26  1  0.88569358  0.69413982  0.63299009  1
  Hf  Hf27  1  0.79235419  0.40994384  -0.00179665  1
  Hf  Hf28  1  0.40337701  0.39812614  0.73989574  1
  Hf  Hf29  1  0.70758438  0.07940041  0.10861477  1
  Hf  Hf30  1  0.20861282  0.01038284  0.50371691  1
  Hf  Hf31  1  0.58903413  -0.00420114  0.73342420  1
  Hf  Hf32  1  0.80240390  0.39709081  0.50121622  1
  Hf  Hf33  1  0.71019258  0.67874537  0.87122615  1
  Hf  Hf34  1  0.28848324  0.50609710  0.38414016  1
  Hf  Hf35  1  0.47421412  0.49716890  0.88409853  1
  Hf  Hf36  1  0.20004488  0.80286335  0.01886865  1
  Hf  Hf37  1  0.39160930  0.18602225  0.48845586  1
  Hf  Hf38  1  0.91050613  0.49121722  0.36951656  1
  Hf  Hf39  1  0.19477249  0.41580201  0.25085946  1
  Zr  Zr40  1  0.60940585  0.79142882  0.00518373  1
  Zr  Zr41  1  0.00249401  0.01094065  0.51172338  1
  Zr  Zr42  1  0.20406443  0.21189505  0.25993992  1
  Zr  Zr43  1  0.90635431  0.90435878  0.86356487  1
  Zr  Zr44  1  0.00268607  0.20344079  0.76072274  1
  Zr  Zr45  1  0.10508036  0.70566317  0.86807631  1
  Zr  Zr46  1  -0.00038955  0.59320568  0.50421022  1
  Zr  Zr47  1  0.90243910  0.70710556  0.37357808  1
  Zr  Zr48  1  0.50347907  0.69466310  0.88161797  1
  Zr  Zr49  1  0.70238532  0.28961318  0.11411604  1
  Zr  Zr50  1  0.69944505  0.10655261  0.38842865  1
  Zr  Zr51  1  0.68777919  0.07739657  0.89047574  1
  Zr  Zr52  1  -0.00214183  0.80766982  0.50426852  1
  Zr  Zr53  1  0.89673796  0.92063425  0.36006615  1
  Zr  Zr54  1  0.30251762  0.71206038  0.61627420  1
  Zr  Zr55  1  0.67740283  0.47696650  0.85635686  1
  Zr  Zr56  1  0.69034678  0.48409378  0.37496269  1
  Zr  Zr57  1  0.39428233  0.80293992  0.01088763  1
  Zr  Zr58  1  -0.00532997  0.61790061  0.00558220  1
  Zr  Zr59  1  0.88688614  0.29480799  0.36948147  1
  Zr  Zr60  1  0.11001949  0.90488816  0.86632243  1
  Zr  Zr61  1  0.10209871  0.09708091  0.88311783  1
  Zr  Zr62  1  0.11420358  0.70736212  0.38163802  1
  Zr  Zr63  1  0.79991640  -0.00974802  0.50680107  1
  Zr  Zr64  1  0.41644869  0.60522021  0.49477631  1
  Zr  Zr65  1  0.59631903  0.59600981  0.25287844  1
  Zr  Zr66  1  0.39495326  0.00316619  0.74925768  1
  Zr  Zr67  1  0.40279172  0.01363073  0.02077582  1
  Zr  Zr68  1  0.41253582  0.80002000  0.74640744  1
  Zr  Zr69  1  0.01068109  0.59668609  0.74702324  1
  Zr  Zr70  1  0.00489154  0.19368233  0.25438081  1
  Zr  Zr71  1  0.00670304  0.41157915  -0.00224663  1
  Zr  Zr72  1  0.61995721  0.80000695  0.73135984  1
  Zr  Zr73  1  0.28069869  0.29615500  0.61422273  1
  Zr  Zr74  1  0.88832281  0.90300530  0.14610632  1
  Zr  Zr75  1  0.90764854  0.08954314  0.10979041  1
  Zr  Zr76  1  -0.00157279  0.81727859  0.00623862  1
  Zr  Zr77  1  0.89121839  0.50286065  0.12880037  1
  Zr  Zr78  1  0.70500730  0.50372269  0.63390565  1
  Zr  Zr79  1  0.78929580  -0.00290829  0.73985028  1
  Ta  Ta80  1  0.20313242  0.01449736  0.73783355  1
  Ta  Ta81  1  -0.00350193  0.20095951  0.49168305  1
  Ta  Ta82  1  0.79856853  0.18314122  0.24804860  1
  Ta  Ta83  1  0.51273921  0.70872913  0.37681220  1
  Ta  Ta84  1  0.00287940  0.00790508  0.72856174  1
  Ta  Ta85  1  0.10577395  0.70352171  0.62492426  1
  Ta  Ta86  1  0.60731467  0.19023361  0.24362576  1
  Ta  Ta87  1  0.91053634  0.29461448  0.62606970  1
  Ta  Ta88  1  0.68989416  0.49532352  0.13085694  1
  Ta  Ta89  1  0.60479940  0.57929594  0.00516723  1
  Ta  Ta90  1  0.39231169  0.19453019  0.74318455  1
  Ta  Ta91  1  0.20448356  0.20799625  0.75585196  1
  Ta  Ta92  1  0.49077685  0.48206035  0.12541798  1
  Ta  Ta93  1  0.30229117  0.08016420  0.36417292  1
  Ta  Ta94  1  0.31102918  0.51712425  0.12848398  1
  Ta  Ta95  1  0.58956478  0.40480557  0.50548790  1
  Ta  Ta96  1  0.20633267  0.00492587  0.01548745  1
  Ta  Ta97  1  0.48005317  0.89393721  0.37036670  1
  Ta  Ta98  1  0.89699014  0.70881499  0.85925481  1
  Ta  Ta99  1  0.29994694  0.10402509  0.88235046  1
  Ta  Ta100  1  0.40241321  -0.00253970  0.23393379  1
  Ta  Ta101  1  0.39243373  0.59418384  0.73760351  1
  Ta  Ta102  1  0.89940036  0.29604216  0.12486974  1
  Ta  Ta103  1  0.89345463  0.89322404  0.63406773  1
  Ta  Ta104  1  0.81024054  0.78404043  0.00164663  1
  Ta  Ta105  1  0.29830047  0.90865376  0.87833100  1
  Ta  Ta106  1  0.90174109  0.48949582  0.63149705  1
  Ta  Ta107  1  0.10633174  0.48791068  0.62199278  1
  Ta  Ta108  1  0.48994485  0.10699583  0.87983154  1
  Ta  Ta109  1  0.79560437  0.60145522  0.49320647  1
  Ta  Ta110  1  0.11720776  0.30861550  0.88649765  1
  Ta  Ta111  1  0.49316313  0.29604887  0.61259576  1
  Ta  Ta112  1  0.69156822  0.10212436  0.61266837  1
  Ta  Ta113  1  0.20147335  0.40512198  0.75508957  1
  Ta  Ta114  1  0.80708928  0.19551867  0.51091170  1
  Ta  Ta115  1  0.10668592  0.12677185  0.62525656  1
  Ta  Ta116  1  0.59227480  0.38493711  0.24659465  1
  Ta  Ta117  1  0.40328911  0.60241975  0.26617009  1
  Ta  Ta118  1  0.80296428  0.19364888  0.74105034  1
  Ta  Ta119  1  0.58969139  0.79000523  0.51713257  1
  Ti  Ti120  1  0.80358792  0.38939695  0.75236770  1
  Ti  Ti121  1  0.21055536  0.80961140  0.74295533  1
  Ti  Ti122  1  0.21015758  0.81435603  0.49927815  1
  Ti  Ti123  1  0.10943607  0.90135265  0.62828977  1
  Ti  Ti124  1  0.58510501  0.38697262  0.01030218  1
  Ti  Ti125  1  0.00033558  0.39801248  0.23768503  1
  Ti  Ti126  1  0.31255088  0.91347105  0.61906546  1
  Ti  Ti127  1  0.49918177  0.08856852  0.37415439  1
  Ti  Ti128  1  0.10638500  0.11156373  0.11862111  1
  Ti  Ti129  1  0.48281188  0.09422393  0.61179889  1
  Ti  Ti130  1  0.20750460  0.60893993  0.01022193  1
  Ti  Ti131  1  0.20464871  0.01569736  0.23770616  1
  Ti  Ti132  1  0.20506793  0.59621956  0.74152466  1
  Ti  Ti133  1  0.21441789  0.20473811  0.00887330  1
  Ti  Ti134  1  0.00678077  0.80395373  0.73889041  1
  Ti  Ti135  1  0.10440723  0.31064170  0.11901965  1
  Ti  Ti136  1  0.01153696  0.79692781  0.24897068  1
  Ti  Ti137  1  0.60463946  0.59854140  0.50729925  1
  Ti  Ti138  1  0.09384237  0.32490104  0.37174084  1
  Ti  Ti139  1  0.89635072  0.70542398  0.13796101  1
  Ti  Ti140  1  0.51122565  0.90367519  0.12484040  1
  Ti  Ti141  1  0.39638069  0.79685045  0.23814338  1
  Ti  Ti142  1  0.10844114  0.50935039  0.11731749  1
  Ti  Ti143  1  0.40229220  0.40585618  0.26960984  1
  Ti  Ti144  1  0.70503666  0.68972396  0.12184721  1
  Ti  Ti145  1  0.31493808  0.72745263  0.38083173  1
  Ti  Ti146  1  0.89812893  0.30168547  0.88025082  1
  Ti  Ti147  1  0.39390820  0.39356781  0.48470703  1
  Ti  Ti148  1  0.78244714  0.79766109  0.49425633  1
  Ti  Ti149  1  0.58697908  0.18345214  0.01245642  1
  Ti  Ti150  1  0.78904249  0.38534659  0.24694038  1
  Ti  Ti151  1  0.71307415  0.88398845  0.88058076  1
  Ti  Ti152  1  0.11533396  0.50914693  0.88212190  1
  Ti  Ti153  1  0.21054702  0.81125479  0.23633364  1
  Ti  Ti154  1  0.19331559  0.60302428  0.50165009  1
  Ti  Ti155  1  0.58643159  0.79284956  0.24567763  1
  Ti  Ti156  1  0.40645684  0.20708530  0.01941623  1
  Ti  Ti157  1  0.70395455  0.88982240  0.11777704  1
  Ti  Ti158  1  0.21609143  0.41584226  0.00128334  1
  Ti  Ti159  1  0.00975976  0.39391432  0.50377768  1
  Mo  Mo160  1  0.80450249  0.79600325  0.74995518  1
  Mo  Mo161  1  0.00725918  0.01401679  0.25359272  1
  Mo  Mo162  1  0.01199893  0.00394893  0.00073103  1
  Mo  Mo163  1  0.80048799  0.59349809  0.74723635  1
  Mo  Mo164  1  0.69742158  0.29280484  0.37470308  1
  Mo  Mo165  1  0.69177672  0.69852410  0.39029326  1
  Mo  Mo166  1  0.09593658  0.70468478  0.12950743  1
  Mo  Mo167  1  0.28662003  0.50064514  0.87184880  1
  Mo  Mo168  1  0.09654678  0.50374279  0.37744364  1
  Mo  Mo169  1  0.30072346  0.90662468  0.13730684  1
  Mo  Mo170  1  0.18977722  0.40786969  0.48806877  1
  Mo  Mo171  1  0.59211766  0.38937119  0.74388915  1
  Mo  Mo172  1  0.70328387  0.89574211  0.61719660  1
  Mo  Mo173  1  0.49850107  0.69113245  0.62142311  1
  Mo  Mo174  1  0.59784345  0.19892354  0.51238628  1
  Mo  Mo175  1  0.80148661  0.20336074  0.00122997  1
  Mo  Mo176  1  0.70459359  0.69749466  0.61336344  1
  Mo  Mo177  1  0.39801479  0.39967738  0.00605791  1
  Mo  Mo178  1  0.49609766  0.49605308  0.37455582  1
  Mo  Mo179  1  0.29705370  0.11010723  0.13015542  1
  Mo  Mo180  1  0.89976552  0.10127737  0.37564780  1
  Mo  Mo181  1  0.29976094  0.89827487  0.35733372  1
  Mo  Mo182  1  0.79040902  0.00754330  0.25692699  1
  Mo  Mo183  1  0.39330594  -0.00656998  0.49220894  1
  Mo  Mo184  1  0.40223655  0.81431059  0.49924720  1
  Mo  Mo185  1  0.09622614  0.09975915  0.37348999  1
  Mo  Mo186  1  0.67415838  0.88128471  0.38029929  1
  Mo  Mo187  1  0.29500245  0.10529983  0.62311312  1
  Mo  Mo188  1  0.50446785  0.29772564  0.13142583  1
  Mo  Mo189  1  0.09480490  0.30675542  0.62313820  1
  Mo  Mo190  1  0.49190115  0.89558985  0.61889565  1
  Mo  Mo191  1  0.30133177  0.70081599  0.13042354  1
  Mo  Mo192  1  0.30462899  0.30271313  0.37150873  1
  Mo  Mo193  1  0.39097028  0.59160852  0.00255847  1
  Mo  Mo194  1  0.59701966  -0.01106324  0.00405537  1
  Mo  Mo195  1  0.49525533  0.48749197  0.61648333  1
  Mo  Mo196  1  0.89983491  0.10604122  0.62782065  1
  Mo  Mo197  1  0.79246252  0.60488205  0.00867992  1
  Mo  Mo198  1  0.80324431  -0.03145364  -0.00401384  1
  Mo  Mo199  1  0.51054204  0.10060099  0.13358981  1
