# generated using pymatgen
data_HfZrTaTiMo
_symmetry_space_group_name_H-M   'P 1'
_cell_length_a   15.20935635
_cell_length_b   15.20810192
_cell_length_c   16.82872261
_cell_angle_alpha   89.97209069
_cell_angle_beta   90.01268421
_cell_angle_gamma   90.04455208
_symmetry_Int_Tables_number   1
_chemical_formula_structural   HfZrTaTiMo
_chemical_formula_sum   'Hf40 Zr40 Ta40 Ti40 Mo40'
_cell_volume   3892.57337831
_cell_formula_units_Z   40
loop_
 _symmetry_equiv_pos_site_id
 _symmetry_equiv_pos_as_xyz
  1  'x, y, z'
loop_
 _atom_site_type_symbol
 _atom_site_label
 _atom_site_symmetry_multiplicity
 _atom_site_fract_x
 _atom_site_fract_y
 _atom_site_fract_z
 _atom_site_occupancy
  Hf  Hf0  1  0.38514735  0.40887032  0.22521072  1
  Hf  Hf1  1  0.58779876  0.60894638  0.25409931  1
  Hf  Hf2  1  0.40095748  0.79140557  0.77466301  1
  Hf  Hf3  1  0.30148247  0.10251306  0.38452233  1
  Hf  Hf4  1  0.40273850  0.78193163  0.49413009  1
  Hf  Hf5  1  0.78777845  0.39241858  0.51121026  1
  Hf  Hf6  1  0.40072501  0.20413825  0.23583113  1
  Hf  Hf7  1  0.50977346  0.70079874  0.09683859  1
  Hf  Hf8  1  0.40473981  0.40823488  0.74823455  1
  Hf  Hf9  1  0.30202232  0.10370134  0.87646890  1
  Hf  Hf10  1  0.49979561  0.69143976  0.63501264  1
  Hf  Hf11  1  0.19740371  0.41098899  0.50440904  1
  Hf  Hf12  1  0.40505437  -0.00307212  -0.00776313  1
  Hf  Hf13  1  0.40493952  -0.00756856  0.24154929  1
  Hf  Hf14  1  0.90832045  0.69423081  0.63649505  1
  Hf  Hf15  1  0.28015617  0.89781361  0.87758120  1
  Hf  Hf16  1  0.17747187  0.39852942  0.24160264  1
  Hf  Hf17  1  0.90751035  0.69434518  0.36916391  1
  Hf  Hf18  1  0.61650599  -0.00762094  0.24981487  1
  Hf  Hf19  1  0.40895888  0.78295460  0.24585642  1
  Hf  Hf20  1  0.50847425  0.11388691  0.86470944  1
  Hf  Hf21  1  0.18666465  0.18844323  -0.00103050  1
  Hf  Hf22  1  0.88971316  0.49231719  0.37154308  1
  Hf  Hf23  1  0.29396403  0.68832904  0.64132494  1
  Hf  Hf24  1  0.18303535  0.39125813  -0.01597119  1
  Hf  Hf25  1  0.89772176  0.90392866  0.36795803  1
  Hf  Hf26  1  0.60456745  0.40868446  0.26155332  1
  Hf  Hf27  1  0.60564589  0.00166138  -0.01841690  1
  Hf  Hf28  1  0.50440718  0.49999129  0.10885570  1
  Hf  Hf29  1  0.58911266  0.60409229  0.76956283  1
  Hf  Hf30  1  0.79457739  0.60248139  0.50697794  1
  Hf  Hf31  1  0.50047506  0.09756049  0.38124381  1
  Hf  Hf32  1  0.50647773  0.49224044  0.89630031  1
  Hf  Hf33  1  0.30361972  0.69603127  0.10744688  1
  Hf  Hf34  1  0.19172066  0.19532645  0.74785244  1
  Hf  Hf35  1  0.62271402  0.21146982  0.49575440  1
  Hf  Hf36  1  0.90066050  0.89622823  0.63005319  1
  Hf  Hf37  1  0.29544311  0.08902233  0.61662843  1
  Hf  Hf38  1  0.49055779  0.30007343  0.37802330  1
  Hf  Hf39  1  0.77700295  0.40316279  -0.01015468  1
  Zr  Zr40  1  0.29186105  0.31307466  0.37162256  1
  Zr  Zr41  1  0.50966204  0.89665260  0.37823148  1
  Zr  Zr42  1  0.00181330  0.78846453  0.49640337  1
  Zr  Zr43  1  0.50489933  0.89532490  0.63392457  1
  Zr  Zr44  1  0.19298801  -0.01669776  0.74326652  1
  Zr  Zr45  1  0.80395352  0.00448741  0.50573746  1
  Zr  Zr46  1  0.40120543  0.20742752  0.51811916  1
  Zr  Zr47  1  0.78733452  0.60219726  0.74568478  1
  Zr  Zr48  1  0.67210197  0.50048180  0.62237650  1
  Zr  Zr49  1  0.29954121  0.90176313  0.37907113  1
  Zr  Zr50  1  0.10470891  0.09348606  0.38507371  1
  Zr  Zr51  1  0.61420531  0.80423434  0.49844850  1
  Zr  Zr52  1  0.91223470  0.91168439  0.87930217  1
  Zr  Zr53  1  0.29876104  0.09240603  0.11561447  1
  Zr  Zr54  1  0.51859188  0.09691199  0.63450327  1
  Zr  Zr55  1  0.10915489  0.68921773  0.12026023  1
  Zr  Zr56  1  0.91162759  0.12064545  0.87703407  1
  Zr  Zr57  1  0.91407351  0.12194574  0.12443776  1
  Zr  Zr58  1  0.72288965  0.10283503  0.36987750  1
  Zr  Zr59  1  0.09224339  0.30467653  0.62881136  1
  Zr  Zr60  1  0.87753191  0.29372122  0.36559610  1
  Zr  Zr61  1  0.90309888  0.71164966  0.88108416  1
  Zr  Zr62  1  0.89171685  0.50547327  0.86285328  1
  Zr  Zr63  1  0.51777204  0.09934062  0.11889734  1
  Zr  Zr64  1  -0.01963527  0.39532497  -0.01327543  1
  Zr  Zr65  1  0.60875567  0.20469329  0.25627037  1
  Zr  Zr66  1  0.53400591  0.31610696  0.62490760  1
  Zr  Zr67  1  0.69908247  0.89875887  0.10803630  1
  Zr  Zr68  1  0.39909770  0.40841051  0.52177806  1
  Zr  Zr69  1  0.18870120  0.60583510  0.49644191  1
  Zr  Zr70  1  0.09396394  0.51180501  0.64184335  1
  Zr  Zr71  1  0.70287126  0.69761645  0.10811508  1
  Zr  Zr72  1  0.39751317  0.21213596  0.73459299  1
  Zr  Zr73  1  0.45645654  0.51122013  0.36194161  1
  Zr  Zr74  1  0.81618490  0.00544701  0.00799687  1
  Zr  Zr75  1  0.29722921  0.88340638  0.62566225  1
  Zr  Zr76  1  0.80406343  0.80570743  0.23977946  1
  Zr  Zr77  1  0.00584235  0.20852416  0.25731194  1
  Zr  Zr78  1  0.58194460  0.60461570  0.48314490  1
  Zr  Zr79  1  -0.00070402  0.00616403  0.74109676  1
  Ta  Ta80  1  0.08381782  0.29290531  0.11935813  1
  Ta  Ta81  1  0.19630891  0.20935242  0.50835915  1
  Ta  Ta82  1  0.10219850  0.07858963  0.87951310  1
  Ta  Ta83  1  0.79559654  0.80839157  0.75499027  1
  Ta  Ta84  1  -0.00974806  0.20246225  0.49863302  1
  Ta  Ta85  1  0.00749442  0.80076028  0.23595602  1
  Ta  Ta86  1  0.19620363  0.39803632  0.76935204  1
  Ta  Ta87  1  0.07910559  0.49481717  0.11389620  1
  Ta  Ta88  1  0.70267015  0.49688064  0.12349639  1
  Ta  Ta89  1  0.19910894  -0.00561523  0.24394222  1
  Ta  Ta90  1  0.08922638  0.49881111  0.37064904  1
  Ta  Ta91  1  0.79601250  0.59260066  0.24439098  1
  Ta  Ta92  1  0.30046464  0.88921747  0.11617274  1
  Ta  Ta93  1  -0.00996229  0.39969285  0.50378881  1
  Ta  Ta94  1  0.38206704  0.59283565  0.50728975  1
  Ta  Ta95  1  0.20510826  0.79660776  0.25033548  1
  Ta  Ta96  1  0.70112943  0.90944329  0.63834917  1
  Ta  Ta97  1  0.19829426  0.79581895  0.48916767  1
  Ta  Ta98  1  0.61461527  -0.00611813  0.76781200  1
  Ta  Ta99  1  0.61288565  0.00458100  0.50283924  1
  Ta  Ta100  1  0.39287038  0.39379876  0.00701261  1
  Ta  Ta101  1  0.20018604  0.19667683  0.24490937  1
  Ta  Ta102  1  0.02846799  0.00261194  0.02048704  1
  Ta  Ta103  1  -0.00005358  0.59032337  0.24300065  1
  Ta  Ta104  1  0.09433720  0.09750633  0.60713641  1
  Ta  Ta105  1  0.28666909  0.29847142  0.11566032  1
  Ta  Ta106  1  0.61019729  0.40325577  0.76242750  1
  Ta  Ta107  1  0.40358400  -0.00372259  0.75718932  1
  Ta  Ta108  1  0.29624758  0.49527030  0.88344938  1
  Ta  Ta109  1  0.60639855  0.79988406  0.77521506  1
  Ta  Ta110  1  -0.00520100  0.39057401  0.76408643  1
  Ta  Ta111  1  0.41321646  0.20980603  0.00597804  1
  Ta  Ta112  1  0.09837612  0.89454120  0.36912589  1
  Ta  Ta113  1  -0.00348121  0.80717485  0.01924788  1
  Ta  Ta114  1  0.69289665  0.30182692  0.12482269  1
  Ta  Ta115  1  0.10586142  0.71064605  0.63564737  1
  Ta  Ta116  1  0.27942582  0.50379164  0.10221025  1
  Ta  Ta117  1  0.70605243  0.70619180  0.36969741  1
  Ta  Ta118  1  0.30691055  0.68155531  0.36397996  1
  Ta  Ta119  1  0.60344786  0.79941334  0.25155980  1
  Ti  Ti120  1  0.70652763  0.29426209  0.85996438  1
  Ti  Ti121  1  0.89631903  0.29600796  0.63938353  1
  Ti  Ti122  1  0.40794716  -0.00744291  0.50625309  1
  Ti  Ti123  1  0.71082341  0.11034613  0.12276088  1
  Ti  Ti124  1  0.90048943  0.10610001  0.63249661  1
  Ti  Ti125  1  0.40641244  0.80241290  -0.01966430  1
  Ti  Ti126  1  0.02131228  0.61051239  0.76805478  1
  Ti  Ti127  1  0.91095955  0.09743166  0.36736253  1
  Ti  Ti128  1  0.88828454  0.32420250  0.13707228  1
  Ti  Ti129  1  0.39470795  0.60110257  -0.01403951  1
  Ti  Ti130  1  0.61215750  0.20933084  -0.00608914  1
  Ti  Ti131  1  0.10369276  0.89701721  0.61167972  1
  Ti  Ti132  1  0.08998007  0.30513913  0.38297039  1
  Ti  Ti133  1  0.69796172  0.71497033  0.63089141  1
  Ti  Ti134  1  0.07917974  0.27749804  0.87045443  1
  Ti  Ti135  1  0.00920732  -0.00505164  0.23539264  1
  Ti  Ti136  1  0.80095526  0.80333461  0.50023323  1
  Ti  Ti137  1  0.50410101  0.89108158  0.11451628  1
  Ti  Ti138  1  0.00039395  -0.00341089  0.49959125  1
  Ti  Ti139  1  0.18222561  0.59756343  -0.02272442  1
  Ti  Ti140  1  0.90478708  0.69156776  0.11923968  1
  Ti  Ti141  1  0.20828218  0.59015394  0.24651093  1
  Ti  Ti142  1  0.80886765  0.21576137  0.00030131  1
  Ti  Ti143  1  0.10427088  0.69570589  0.35988035  1
  Ti  Ti144  1  0.30727854  0.29653481  0.87940512  1
  Ti  Ti145  1  0.70293150  0.69447442  0.89538996  1
  Ti  Ti146  1  0.60088620  0.41489287  0.47100097  1
  Ti  Ti147  1  0.18864070  0.80568528  -0.00157529  1
  Ti  Ti148  1  0.71614640  0.89253665  0.88544500  1
  Ti  Ti149  1  0.80659369  0.20028112  0.51195417  1
  Ti  Ti150  1  0.70812106  0.10917877  0.64486025  1
  Ti  Ti151  1  0.71693169  0.10466341  0.86536850  1
  Ti  Ti152  1  0.01746177  0.80624928  0.75583542  1
  Ti  Ti153  1  0.29006333  0.49989548  0.64651050  1
  Ti  Ti154  1  0.81295209  0.59471287  0.00178562  1
  Ti  Ti155  1  0.50338495  0.30095657  0.87417447  1
  Ti  Ti156  1  -0.00324951  0.59100618  0.50424121  1
  Ti  Ti157  1  0.81294967  0.00812950  0.23610067  1
  Ti  Ti158  1  0.89991858  0.49192652  0.63813552  1
  Ti  Ti159  1  0.39069746  0.60076129  0.77773789  1
  Mo  Mo160  1  0.48311219  0.51793751  0.63993720  1
  Mo  Mo161  1  0.60039024  0.80266930  -0.02277106  1
  Mo  Mo162  1  0.79577354  0.20069827  0.23646077  1
  Mo  Mo163  1  -0.00616926  0.40771419  0.24534447  1
  Mo  Mo164  1  0.50448935  0.69835508  0.89300051  1
  Mo  Mo165  1  0.70823971  0.51138680  0.37286539  1
  Mo  Mo166  1  -0.00056475  0.20468576  0.00375797  1
  Mo  Mo167  1  0.10866106  0.10402480  0.13485017  1
  Mo  Mo168  1  0.91000621  0.90122523  0.12693464  1
  Mo  Mo169  1  0.61917597  0.58463485  -0.00870967  1
  Mo  Mo170  1  0.79668998  -0.00165139  0.75326297  1
  Mo  Mo171  1  0.18880378  0.78225002  0.76245616  1
  Mo  Mo172  1  0.59371329  0.37821423  -0.00271061  1
  Mo  Mo173  1  0.29477144  0.69775214  0.89353715  1
  Mo  Mo174  1  0.70922682  0.89612443  0.37240532  1
  Mo  Mo175  1  0.49461216  0.69999807  0.37145889  1
  Mo  Mo176  1  0.08869429  0.89545020  0.88340667  1
  Mo  Mo177  1  0.38638643  0.60021462  0.22650089  1
  Mo  Mo178  1  0.11269584  0.89552929  0.13506989  1
  Mo  Mo179  1  0.50250900  0.30125870  0.11928148  1
  Mo  Mo180  1  0.28621252  0.30609597  0.63173335  1
  Mo  Mo181  1  0.27905925  0.50159088  0.36828437  1
  Mo  Mo182  1  -0.00107931  0.60107592  -0.00226329  1
  Mo  Mo183  1  0.79170562  0.40309358  0.24213167  1
  Mo  Mo184  1  0.50167891  0.90603876  0.86889273  1
  Mo  Mo185  1  0.80886391  0.79680983  0.00467577  1
  Mo  Mo186  1  0.79676094  0.39891149  0.74326728  1
  Mo  Mo187  1  0.69946845  0.49909466  0.87564893  1
  Mo  Mo188  1  0.60830179  0.20354549  0.75924216  1
  Mo  Mo189  1  0.89276838  0.50748321  0.12205525  1
  Mo  Mo190  1  0.71299149  0.29472673  0.64338885  1
  Mo  Mo191  1  0.88923956  0.29747360  0.86526690  1
  Mo  Mo192  1  0.19340962  -0.00788624  0.50132880  1
  Mo  Mo193  1  0.09777697  0.71131287  0.88857044  1
  Mo  Mo194  1  0.20281723  0.59874691  0.77451577  1
  Mo  Mo195  1  0.00660699  0.19886486  0.74330658  1
  Mo  Mo196  1  0.09467898  0.49913887  0.86955682  1
  Mo  Mo197  1  0.80729022  0.19846070  0.74720262  1
  Mo  Mo198  1  0.20221647  -0.00956754  0.00521753  1
  Mo  Mo199  1  0.70227336  0.31100235  0.37462007  1
