# generated using pymatgen
data_HfZrTaTiMo
_symmetry_space_group_name_H-M   'P 1'
_cell_length_a   15.21116942
_cell_length_b   15.21321262
_cell_length_c   16.85950999
_cell_angle_alpha   89.96301590
_cell_angle_beta   90.00651723
_cell_angle_gamma   90.04130780
_symmetry_Int_Tables_number   1
_chemical_formula_structural   HfZrTaTiMo
_chemical_formula_sum   'Hf40 Zr40 Ta40 Ti40 Mo40'
_cell_volume   3901.47007744
_cell_formula_units_Z   40
loop_
 _symmetry_equiv_pos_site_id
 _symmetry_equiv_pos_as_xyz
  1  'x, y, z'
loop_
 _atom_site_type_symbol
 _atom_site_label
 _atom_site_symmetry_multiplicity
 _atom_site_fract_x
 _atom_site_fract_y
 _atom_site_fract_z
 _atom_site_occupancy
  Hf  Hf0  1  0.00266121  -0.00406116  0.00254177  1
  Hf  Hf1  1  0.89526091  0.69670857  0.13332994  1
  Hf  Hf2  1  0.50643703  0.10370399  0.63154514  1
  Hf  Hf3  1  0.28506795  0.68537490  0.87654109  1
  Hf  Hf4  1  0.77886509  0.40036555  0.25003106  1
  Hf  Hf5  1  0.69525487  0.90808350  0.63326408  1
  Hf  Hf6  1  0.70599370  0.70253119  0.86628353  1
  Hf  Hf7  1  0.70483355  0.69846048  0.61661793  1
  Hf  Hf8  1  0.49970571  0.89960751  0.64227828  1
  Hf  Hf9  1  0.39850299  0.79801940  0.50261572  1
  Hf  Hf10  1  0.29988309  0.29541444  0.36702723  1
  Hf  Hf11  1  0.79779605  0.80252740  0.26201270  1
  Hf  Hf12  1  0.88420538  0.28767835  0.13681461  1
  Hf  Hf13  1  0.50503208  0.69431925  0.63441914  1
  Hf  Hf14  1  0.40462485  -0.00236907  0.23368162  1
  Hf  Hf15  1  0.71242644  0.90895324  0.87035115  1
  Hf  Hf16  1  0.41507213  -0.00378852  -0.01115607  1
  Hf  Hf17  1  0.39355861  0.58615576  0.25329361  1
  Hf  Hf18  1  0.10539363  0.67830384  0.36597019  1
  Hf  Hf19  1  -0.00108114  0.60255689  0.00308038  1
  Hf  Hf20  1  0.70685874  0.10949845  0.62489833  1
  Hf  Hf21  1  0.28957420  0.69368449  0.62075876  1
  Hf  Hf22  1  0.09721273  0.32277398  0.62447443  1
  Hf  Hf23  1  0.19682683  -0.00376635  0.75832900  1
  Hf  Hf24  1  0.81127435  0.01279969  0.24030210  1
  Hf  Hf25  1  0.80366674  0.01055985  0.01058080  1
  Hf  Hf26  1  0.50024889  0.89991299  0.37489721  1
  Hf  Hf27  1  0.78908628  0.59978384  0.26325425  1
  Hf  Hf28  1  0.00160768  0.79961364  -0.00157534  1
  Hf  Hf29  1  -0.00795258  0.19332985  0.73802036  1
  Hf  Hf30  1  0.49603574  0.69780754  0.12573345  1
  Hf  Hf31  1  0.80978469  0.79569240  0.73987958  1
  Hf  Hf32  1  0.19988085  -0.00146854  -0.00239579  1
  Hf  Hf33  1  0.80112584  0.21640928  0.49720376  1
  Hf  Hf34  1  0.40295240  0.57870830  0.50387207  1
  Hf  Hf35  1  0.19549638  0.80240836  0.49301013  1
  Hf  Hf36  1  0.00447798  -0.00689018  0.49535856  1
  Hf  Hf37  1  0.21383667  0.79483354  0.25861111  1
  Hf  Hf38  1  0.39798763  0.20429594  0.77252023  1
  Hf  Hf39  1  0.59925230  0.79615319  0.24688500  1
  Zr  Zr40  1  0.49849179  0.10698406  0.36620881  1
  Zr  Zr41  1  0.19969021  0.20263512  0.50236244  1
  Zr  Zr42  1  0.91461228  0.91181156  0.63421175  1
  Zr  Zr43  1  0.29501724  0.68183858  0.11708034  1
  Zr  Zr44  1  0.41112195  0.78695340  -0.01852154  1
  Zr  Zr45  1  0.30296434  0.10264333  0.62954304  1
  Zr  Zr46  1  0.10411149  0.49699895  0.87935263  1
  Zr  Zr47  1  0.38730380  0.58633855  0.74884484  1
  Zr  Zr48  1  0.59302661  0.20948326  0.49185066  1
  Zr  Zr49  1  0.90859219  0.10022717  0.37094273  1
  Zr  Zr50  1  0.88456486  0.49741434  0.87946689  1
  Zr  Zr51  1  0.00170005  0.20303125  0.50432402  1
  Zr  Zr52  1  0.89391949  0.10879271  0.87611267  1
  Zr  Zr53  1  0.39794840  0.00211307  0.77502616  1
  Zr  Zr54  1  0.40397845  0.00084748  0.50255263  1
  Zr  Zr55  1  0.70011668  0.91562782  0.37767643  1
  Zr  Zr56  1  0.60466817  0.00984907  0.23176531  1
  Zr  Zr57  1  0.50611103  0.68411809  0.37976291  1
  Zr  Zr58  1  0.59950589  0.42165580  -0.01393646  1
  Zr  Zr59  1  0.31673526  0.88772386  0.11470248  1
  Zr  Zr60  1  -0.00594275  0.19732633  0.00698268  1
  Zr  Zr61  1  -0.00420339  0.78511662  0.48647252  1
  Zr  Zr62  1  0.10681138  0.89528937  0.13538099  1
  Zr  Zr63  1  0.79145151  0.21600894  0.75438289  1
  Zr  Zr64  1  0.68901301  0.49269758  0.39201113  1
  Zr  Zr65  1  0.60736797  0.02238895  0.77072930  1
  Zr  Zr66  1  0.68129973  0.31880111  0.62929415  1
  Zr  Zr67  1  0.59727759  0.61522784  -0.01234377  1
  Zr  Zr68  1  0.60021767  0.23097400  0.24640650  1
  Zr  Zr69  1  0.62022588  0.57743098  0.75008697  1
  Zr  Zr70  1  0.80761046  0.81605891  0.49688545  1
  Zr  Zr71  1  -0.00218158  0.39303999  0.00729663  1
  Zr  Zr72  1  0.82465837  0.60341763  0.49349267  1
  Zr  Zr73  1  0.48052877  0.30230509  0.63774720  1
  Zr  Zr74  1  0.09789910  0.69538635  0.14160735  1
  Zr  Zr75  1  0.19780396  0.20716315  0.75024628  1
  Zr  Zr76  1  0.80154627  0.79938205  0.00126883  1
  Zr  Zr77  1  0.18704393  0.41555421  0.48630074  1
  Zr  Zr78  1  0.10530269  0.49846930  0.14009280  1
  Zr  Zr79  1  0.48373388  0.31106773  0.10361998  1
  Ta  Ta80  1  0.40513099  0.57829815  -0.00914134  1
  Ta  Ta81  1  0.78730552  0.41528555  0.74729858  1
  Ta  Ta82  1  0.69722294  0.69403247  0.12587707  1
  Ta  Ta83  1  0.20450127  0.40521427  0.75172074  1
  Ta  Ta84  1  0.20766820  0.19718283  0.24279777  1
  Ta  Ta85  1  -0.00734079  0.80131345  0.26834265  1
  Ta  Ta86  1  0.39617220  0.20566843  0.49645179  1
  Ta  Ta87  1  0.30036088  0.68614824  0.38260199  1
  Ta  Ta88  1  0.90777688  0.90062624  0.13567978  1
  Ta  Ta89  1  0.60679190  0.20312327  -0.01318603  1
  Ta  Ta90  1  0.11077625  0.10183398  0.36197843  1
  Ta  Ta91  1  -0.00922694  0.39930082  0.75372265  1
  Ta  Ta92  1  0.29549286  0.47989849  0.62385220  1
  Ta  Ta93  1  0.29597068  0.89719523  0.63174976  1
  Ta  Ta94  1  0.29949074  0.09405138  0.37165450  1
  Ta  Ta95  1  0.10167992  0.30070828  0.14435851  1
  Ta  Ta96  1  0.01868479  0.57381866  0.49256021  1
  Ta  Ta97  1  0.01299626  0.78873265  0.74844964  1
  Ta  Ta98  1  0.69406175  0.70028769  0.39186719  1
  Ta  Ta99  1  0.10111396  0.10014127  0.13426224  1
  Ta  Ta100  1  0.19993114  -0.00117346  0.49874754  1
  Ta  Ta101  1  0.91007572  0.90254014  0.86178406  1
  Ta  Ta102  1  0.50701849  0.48519994  0.63610045  1
  Ta  Ta103  1  0.90885080  0.70163323  0.87054982  1
  Ta  Ta104  1  0.18602876  0.59651107  0.74486878  1
  Ta  Ta105  1  0.09744840  0.09809714  0.87392673  1
  Ta  Ta106  1  0.59758946  0.80335377  0.50411712  1
  Ta  Ta107  1  0.10007435  0.88896514  0.87027208  1
  Ta  Ta108  1  0.41516654  0.39552254  0.25419916  1
  Ta  Ta109  1  0.50429479  0.10892218  0.10608524  1
  Ta  Ta110  1  0.08826227  0.29802658  0.35263667  1
  Ta  Ta111  1  0.19350897  0.21386477  0.00824167  1
  Ta  Ta112  1  0.30589840  0.11172173  0.11054580  1
  Ta  Ta113  1  0.39237709  0.79743855  0.75656943  1
  Ta  Ta114  1  0.70502448  0.11588075  0.36999397  1
  Ta  Ta115  1  0.21158948  0.00433229  0.24361704  1
  Ta  Ta116  1  0.10318356  0.91033308  0.36311832  1
  Ta  Ta117  1  0.89528281  0.31073832  0.36327553  1
  Ta  Ta118  1  0.71253171  0.12950990  0.11907790  1
  Ta  Ta119  1  -0.00081411  0.59854965  0.74756482  1
  Ti  Ti120  1  0.31084507  0.47742513  0.11937156  1
  Ti  Ti121  1  0.69348150  0.32176677  0.10864005  1
  Ti  Ti122  1  0.20411305  0.57884569  0.00093159  1
  Ti  Ti123  1  0.70639734  0.49992430  0.60231999  1
  Ti  Ti124  1  0.59445534  0.58065710  0.24796822  1
  Ti  Ti125  1  0.60813362  0.00448405  0.00158836  1
  Ti  Ti126  1  0.09455037  0.48380368  0.35353014  1
  Ti  Ti127  1  -0.00743945  0.18885035  0.24406507  1
  Ti  Ti128  1  0.28878315  0.31863482  0.88868245  1
  Ti  Ti129  1  0.09163412  0.68849003  0.61552120  1
  Ti  Ti130  1  0.59999205  0.21294159  0.78323346  1
  Ti  Ti131  1  0.29483880  0.88966570  0.87861427  1
  Ti  Ti132  1  -0.01557869  0.58720599  0.25882972  1
  Ti  Ti133  1  0.51639727  0.88578892  0.86283429  1
  Ti  Ti134  1  0.21611945  0.40314794  0.25200925  1
  Ti  Ti135  1  0.40404216  0.79585511  0.25465931  1
  Ti  Ti136  1  0.50258927  0.69469663  0.85340100  1
  Ti  Ti137  1  0.60094317  0.81309741  0.00676698  1
  Ti  Ti138  1  0.39197597  0.39002477  0.49247415  1
  Ti  Ti139  1  0.72408752  0.31661697  0.88899734  1
  Ti  Ti140  1  0.91264974  0.49673649  0.62011214  1
  Ti  Ti141  1  0.88438537  0.49516644  0.12641923  1
  Ti  Ti142  1  0.48991916  0.48868520  0.85826866  1
  Ti  Ti143  1  0.70210937  0.89946147  0.12442533  1
  Ti  Ti144  1  0.39902119  0.20041034  0.24069882  1
  Ti  Ti145  1  0.81576366  0.01636358  0.74655139  1
  Ti  Ti146  1  0.30145628  0.90296261  0.37366978  1
  Ti  Ti147  1  0.57855327  0.40524944  0.49742930  1
  Ti  Ti148  1  0.48520024  0.30445236  0.88993905  1
  Ti  Ti149  1  0.79078084  0.59132159  0.00357226  1
  Ti  Ti150  1  0.19844901  0.78943319  0.75108764  1
  Ti  Ti151  1  0.19307397  0.78772460  -0.00383665  1
  Ti  Ti152  1  0.60602207  0.00508745  0.50059662  1
  Ti  Ti153  1  0.80631173  0.01344540  0.50165971  1
  Ti  Ti154  1  0.09298207  0.29551511  0.87285553  1
  Ti  Ti155  1  0.29354703  0.11401369  0.89236428  1
  Ti  Ti156  1  0.10890895  0.89296175  0.63012259  1
  Ti  Ti157  1  0.81596955  0.59872230  0.73638396  1
  Ti  Ti158  1  0.09244231  0.08462388  0.62865984  1
  Ti  Ti159  1  0.88961315  0.31217976  0.62269149  1
  Mo  Mo160  1  0.60021022  0.79962165  0.75130248  1
  Mo  Mo161  1  0.38735215  0.40379148  -0.00459220  1
  Mo  Mo162  1  0.20646583  0.58879536  0.25370785  1
  Mo  Mo163  1  0.90959511  0.49197490  0.37132955  1
  Mo  Mo164  1  0.91602521  0.69000975  0.62757553  1
  Mo  Mo165  1  0.00775590  -0.00364118  0.75413991  1
  Mo  Mo166  1  0.90356788  0.09733477  0.12822410  1
  Mo  Mo167  1  0.90653265  0.90462889  0.36976052  1
  Mo  Mo168  1  0.79741725  0.21457612  -0.00237640  1
  Mo  Mo169  1  0.19493244  0.39392758  0.00945103  1
  Mo  Mo170  1  0.20100430  0.59936617  0.50146696  1
  Mo  Mo171  1  0.70295091  0.10770657  0.88810245  1
  Mo  Mo172  1  0.29629558  0.30422772  0.62268329  1
  Mo  Mo173  1  -0.00763301  0.39571927  0.24141050  1
  Mo  Mo174  1  0.90085782  0.69192410  0.36838974  1
  Mo  Mo175  1  0.29230005  0.50044640  0.37230036  1
  Mo  Mo176  1  0.29321264  0.29984982  0.13086966  1
  Mo  Mo177  1  0.80025391  0.40566891  0.01162883  1
  Mo  Mo178  1  0.70374601  0.50426552  0.87243069  1
  Mo  Mo179  1  0.49138198  0.48978953  0.37837417  1
  Mo  Mo180  1  0.01043186  -0.00116902  0.24786054  1
  Mo  Mo181  1  0.09794323  0.50488694  0.63011243  1
  Mo  Mo182  1  0.79300949  0.20318422  0.25715594  1
  Mo  Mo183  1  0.81096381  0.40108415  0.49930106  1
  Mo  Mo184  1  0.29729413  0.49218548  0.87768569  1
  Mo  Mo185  1  0.49677453  0.30943705  0.37543202  1
  Mo  Mo186  1  0.50101560  0.10683968  0.89549112  1
  Mo  Mo187  1  0.69450128  0.51209067  0.12492869  1
  Mo  Mo188  1  0.51334223  0.90177097  0.11721869  1
  Mo  Mo189  1  0.39207654  0.20147118  -0.01010115  1
  Mo  Mo190  1  -0.01409169  0.39609289  0.49397751  1
  Mo  Mo191  1  0.09754865  0.69746790  0.87448133  1
  Mo  Mo192  1  0.69637161  0.30434710  0.37910004  1
  Mo  Mo193  1  0.90677950  0.30974428  0.86938840  1
  Mo  Mo194  1  0.59798287  0.59590729  0.51402943  1
  Mo  Mo195  1  0.59790449  0.38577271  0.77502924  1
  Mo  Mo196  1  0.49750988  0.50540010  0.12131290  1
  Mo  Mo197  1  0.90053320  0.10534335  0.62209377  1
  Mo  Mo198  1  0.59048498  0.41145409  0.24347724  1
  Mo  Mo199  1  0.38955247  0.39255798  0.75709514  1
