# generated using pymatgen
data_HfZrTaTiMo
_symmetry_space_group_name_H-M   'P 1'
_cell_length_a   15.21459170
_cell_length_b   15.22083161
_cell_length_c   16.81516131
_cell_angle_alpha   89.97297636
_cell_angle_beta   89.98727342
_cell_angle_gamma   90.05513877
_symmetry_Int_Tables_number   1
_chemical_formula_structural   HfZrTaTiMo
_chemical_formula_sum   'Hf40 Zr40 Ta40 Ti40 Mo40'
_cell_volume   3894.03150634
_cell_formula_units_Z   40
loop_
 _symmetry_equiv_pos_site_id
 _symmetry_equiv_pos_as_xyz
  1  'x, y, z'
loop_
 _atom_site_type_symbol
 _atom_site_label
 _atom_site_symmetry_multiplicity
 _atom_site_fract_x
 _atom_site_fract_y
 _atom_site_fract_z
 _atom_site_occupancy
  Hf  Hf0  1  0.50075290  0.70177157  0.36804354  1
  Hf  Hf1  1  0.58862869  -0.00557378  0.50620326  1
  Hf  Hf2  1  0.70928052  0.07838383  0.87601323  1
  Hf  Hf3  1  0.90663205  0.70829583  0.62129670  1
  Hf  Hf4  1  0.19944878  0.60238888  -0.00304056  1
  Hf  Hf5  1  0.30861792  0.11278277  0.11586095  1
  Hf  Hf6  1  0.71349815  0.08824467  0.11034852  1
  Hf  Hf7  1  0.51170039  0.29860309  0.39069769  1
  Hf  Hf8  1  0.90102264  0.70798099  0.12672356  1
  Hf  Hf9  1  0.10139924  0.70905847  0.86496008  1
  Hf  Hf10  1  0.89749323  0.90479091  0.87677362  1
  Hf  Hf11  1  0.00095780  0.41340963  0.24497644  1
  Hf  Hf12  1  0.79018200  0.41502594  0.01479521  1
  Hf  Hf13  1  0.00321713  0.81185164  0.24540725  1
  Hf  Hf14  1  0.60636146  0.78087148  0.74249344  1
  Hf  Hf15  1  0.00593429  0.19724001  0.50248587  1
  Hf  Hf16  1  0.08594428  0.30738289  0.88019750  1
  Hf  Hf17  1  0.81297236  0.20982734  0.75517956  1
  Hf  Hf18  1  0.51023723  0.69566072  0.12048878  1
  Hf  Hf19  1  0.51096437  0.69149305  0.88171283  1
  Hf  Hf20  1  -0.00472611  0.20013992  0.24825986  1
  Hf  Hf21  1  0.39353212  0.20007664  0.77142614  1
  Hf  Hf22  1  0.29928537  0.89914078  0.38823811  1
  Hf  Hf23  1  0.71499156  0.68709057  0.13762092  1
  Hf  Hf24  1  0.28938708  0.09309573  0.88465105  1
  Hf  Hf25  1  0.70215138  0.90639682  0.37650184  1
  Hf  Hf26  1  0.21114727  0.21147089  0.50034341  1
  Hf  Hf27  1  0.69542960  0.47947452  0.38886262  1
  Hf  Hf28  1  0.20279522  0.79595449  0.23778939  1
  Hf  Hf29  1  0.29852144  0.50453122  0.86605691  1
  Hf  Hf30  1  0.47860588  0.49202654  0.11099072  1
  Hf  Hf31  1  0.89182029  0.48744622  0.87612149  1
  Hf  Hf32  1  0.19620982  0.00637233  0.74062259  1
  Hf  Hf33  1  0.89736219  0.50587816  0.62069965  1
  Hf  Hf34  1  0.51746850  0.10999531  0.11271549  1
  Hf  Hf35  1  0.20202755  0.20912713  0.24252722  1
  Hf  Hf36  1  0.28273007  0.49661973  0.37082228  1
  Hf  Hf37  1  0.00509200  0.80452748  0.00443651  1
  Hf  Hf38  1  0.70218455  0.30178371  0.61470854  1
  Hf  Hf39  1  0.30682915  0.11728435  0.63086266  1
  Zr  Zr40  1  0.58820247  0.60449422  0.49350768  1
  Zr  Zr41  1  0.40832026  0.00088989  0.23302620  1
  Zr  Zr42  1  0.00218727  0.21987047  0.01118879  1
  Zr  Zr43  1  0.31127796  0.09581459  0.37239691  1
  Zr  Zr44  1  0.30926596  0.70685822  0.87305535  1
  Zr  Zr45  1  0.41389992  0.79535267  0.51627366  1
  Zr  Zr46  1  0.60778682  0.58303261  0.25263368  1
  Zr  Zr47  1  0.70700454  0.27332174  0.36811110  1
  Zr  Zr48  1  0.57600458  0.38270038  0.24074395  1
  Zr  Zr49  1  0.10575395  0.90715150  0.87084087  1
  Zr  Zr50  1  0.59046401  0.38069262  0.00809677  1
  Zr  Zr51  1  0.50329686  0.07635263  0.87126108  1
  Zr  Zr52  1  0.79789402  0.21528954  -0.01271448  1
  Zr  Zr53  1  0.19548078  -0.00681996  0.23322055  1
  Zr  Zr54  1  0.89757282  0.30960439  0.37457053  1
  Zr  Zr55  1  0.39736025  0.59226505  0.25338839  1
  Zr  Zr56  1  0.28432930  0.51706355  0.64144141  1
  Zr  Zr57  1  0.90481382  0.91851457  0.39604433  1
  Zr  Zr58  1  0.09009747  0.09477696  0.37194748  1
  Zr  Zr59  1  0.27576453  0.48551465  0.13045314  1
  Zr  Zr60  1  0.38928754  0.39813148  0.51379134  1
  Zr  Zr61  1  0.29583688  0.70088891  0.37632603  1
  Zr  Zr62  1  0.31396408  0.90984184  0.62578160  1
  Zr  Zr63  1  0.60777365  0.20989284  0.76620383  1
  Zr  Zr64  1  0.18525298  0.00800940  0.51859274  1
  Zr  Zr65  1  0.09956994  0.89259946  0.38913648  1
  Zr  Zr66  1  0.30957817  0.68864340  0.11496491  1
  Zr  Zr67  1  0.50231280  0.28562922  0.61939016  1
  Zr  Zr68  1  0.49677203  0.90286026  0.37224514  1
  Zr  Zr69  1  0.78098750  0.60178575  0.75291712  1
  Zr  Zr70  1  0.50542589  0.07698238  0.64851598  1
  Zr  Zr71  1  0.31309135  0.30418013  0.36378853  1
  Zr  Zr72  1  0.51058800  0.49294093  0.87008819  1
  Zr  Zr73  1  0.39987153  -0.01586418  0.00881402  1
  Zr  Zr74  1  0.50913935  0.50053744  0.63096716  1
  Zr  Zr75  1  -0.00563477  -0.00044923  0.73543334  1
  Zr  Zr76  1  0.91175833  0.10570006  0.87927285  1
  Zr  Zr77  1  0.00230745  0.41363330  0.50283011  1
  Zr  Zr78  1  0.09260353  0.50039257  0.88177844  1
  Zr  Zr79  1  0.40018088  0.39021376  0.74937604  1
  Ta  Ta80  1  0.00364243  0.00502151  0.01154536  1
  Ta  Ta81  1  0.20979242  0.81431621  0.00935886  1
  Ta  Ta82  1  0.89319721  0.30938709  0.13507982  1
  Ta  Ta83  1  0.60778995  -0.02426640  0.00118462  1
  Ta  Ta84  1  0.89098618  0.90484495  0.60789646  1
  Ta  Ta85  1  0.69391806  0.28231384  0.13553648  1
  Ta  Ta86  1  0.19542898  0.20926797  0.75546722  1
  Ta  Ta87  1  0.40366591  0.80711198  0.23450903  1
  Ta  Ta88  1  0.18979893  0.39758769  0.74640785  1
  Ta  Ta89  1  -0.00333693  0.59823492  0.75389074  1
  Ta  Ta90  1  0.61570258  0.58735192  0.00469780  1
  Ta  Ta91  1  0.80626241  0.01162205  0.25133476  1
  Ta  Ta92  1  0.10162021  0.10578668  0.88355041  1
  Ta  Ta93  1  0.10133613  0.68415828  0.63751200  1
  Ta  Ta94  1  0.70126043  0.49418546  0.60742699  1
  Ta  Ta95  1  0.09460549  0.69519420  0.38014456  1
  Ta  Ta96  1  0.78785269  0.41162755  0.24012129  1
  Ta  Ta97  1  0.10318052  0.30012806  0.62741477  1
  Ta  Ta98  1  0.10791712  0.31093257  0.37235091  1
  Ta  Ta99  1  0.89847808  0.70544635  0.86884454  1
  Ta  Ta100  1  0.89799865  0.10779508  0.11907280  1
  Ta  Ta101  1  0.70529451  0.89007524  0.12928116  1
  Ta  Ta102  1  0.61322525  0.78929603  0.00132209  1
  Ta  Ta103  1  -0.01078329  0.39295715  0.74101215  1
  Ta  Ta104  1  0.19835805  0.78337502  0.51920969  1
  Ta  Ta105  1  0.19447359  0.40361332  0.51151825  1
  Ta  Ta106  1  0.80215822  0.60461491  0.49318834  1
  Ta  Ta107  1  0.20915221  0.21664206  0.00156668  1
  Ta  Ta108  1  0.18240682  0.59294374  0.50480495  1
  Ta  Ta109  1  0.60284548  0.80225266  0.24607767  1
  Ta  Ta110  1  0.71016847  0.69977680  0.36900562  1
  Ta  Ta111  1  0.40914502  0.21237965  -0.01720090  1
  Ta  Ta112  1  0.79336392  0.79950236  0.49964228  1
  Ta  Ta113  1  0.51985282  0.10236545  0.36662822  1
  Ta  Ta114  1  0.30790915  0.89815624  0.86652599  1
  Ta  Ta115  1  0.09962646  0.69647293  0.11998171  1
  Ta  Ta116  1  0.89040158  0.91245502  0.12024553  1
  Ta  Ta117  1  0.80674757  0.80629765  0.74425813  1
  Ta  Ta118  1  0.00665749  0.20163983  0.74172526  1
  Ta  Ta119  1  0.89468451  0.51511769  0.37381728  1
  Ti  Ti120  1  0.79751351  -0.00232229  0.74124663  1
  Ti  Ti121  1  0.80662079  0.80775113  0.25840285  1
  Ti  Ti122  1  0.88533198  0.51724493  0.13108217  1
  Ti  Ti123  1  0.08214809  0.88430157  0.62087424  1
  Ti  Ti124  1  0.70003353  0.88483883  0.87020579  1
  Ti  Ti125  1  0.89637125  0.10196156  0.61460380  1
  Ti  Ti126  1  0.69963385  0.69033811  0.61754995  1
  Ti  Ti127  1  0.79502238  0.61135474  -0.01060825  1
  Ti  Ti128  1  0.09062831  0.50441839  0.37282103  1
  Ti  Ti129  1  0.61938763  0.18160189  0.50135785  1
  Ti  Ti130  1  0.60894271  -0.00164974  0.24201346  1
  Ti  Ti131  1  0.40791143  0.80524550  0.73758231  1
  Ti  Ti132  1  0.41558617  0.17876759  0.49885017  1
  Ti  Ti133  1  -0.01311890  0.60216062  -0.00287582  1
  Ti  Ti134  1  0.60326727  0.19663280  -0.02070363  1
  Ti  Ti135  1  0.31466453  0.30669137  0.12854896  1
  Ti  Ti136  1  0.11001470  0.31863338  0.12191526  1
  Ti  Ti137  1  0.38367598  0.60466172  0.51010195  1
  Ti  Ti138  1  0.41101223  0.79953860  0.00575077  1
  Ti  Ti139  1  0.79177561  0.40311176  0.74527823  1
  Ti  Ti140  1  0.87664032  0.10948552  0.38902138  1
  Ti  Ti141  1  0.70548149  0.09693837  0.63308610  1
  Ti  Ti142  1  0.41033248  0.61847914  0.73980569  1
  Ti  Ti143  1  0.42386443  0.20980392  0.24554171  1
  Ti  Ti144  1  0.08219119  0.50465303  0.11399857  1
  Ti  Ti145  1  0.48456800  0.49086661  0.38321192  1
  Ti  Ti146  1  0.18013745  0.59586943  0.24648371  1
  Ti  Ti147  1  0.10004961  0.10796570  0.11990824  1
  Ti  Ti148  1  -0.00210773  0.00352637  0.23647009  1
  Ti  Ti149  1  0.90549044  0.71034557  0.38189822  1
  Ti  Ti150  1  0.20390352  0.79557215  0.73487916  1
  Ti  Ti151  1  0.50515068  0.88761475  0.86767617  1
  Ti  Ti152  1  0.69835672  0.90009678  0.62561336  1
  Ti  Ti153  1  0.37956027  0.39327475  -0.01450782  1
  Ti  Ti154  1  0.79812372  0.80228035  -0.00306896  1
  Ti  Ti155  1  0.89519648  0.30041564  0.61395163  1
  Ti  Ti156  1  -0.00668975  0.61146052  0.25068063  1
  Ti  Ti157  1  0.19514365  -0.00153720  0.01216686  1
  Ti  Ti158  1  0.70061144  0.32993022  0.87062806  1
  Ti  Ti159  1  0.60537188  0.79598226  0.50842772  1
  Mo  Mo160  1  0.30444145  0.89642413  0.11943572  1
  Mo  Mo161  1  0.50133445  0.69762011  0.62533368  1
  Mo  Mo162  1  0.69711409  0.50899964  0.87746913  1
  Mo  Mo163  1  -0.00803397  0.00372588  0.51669582  1
  Mo  Mo164  1  0.39975328  0.00838442  0.49765220  1
  Mo  Mo165  1  0.60194956  0.59433788  0.74226660  1
  Mo  Mo166  1  0.29554918  0.70307900  0.63252421  1
  Mo  Mo167  1  0.80342302  -0.01216491  -0.00130717  1
  Mo  Mo168  1  0.61819330  0.40660921  0.74799417  1
  Mo  Mo169  1  0.51200774  0.89540328  0.63422727  1
  Mo  Mo170  1  0.19535307  0.60365431  0.75780198  1
  Mo  Mo171  1  0.48626230  0.28602515  0.11584290  1
  Mo  Mo172  1  0.00078805  0.60941006  0.49530707  1
  Mo  Mo173  1  0.89620123  0.31169823  0.86881033  1
  Mo  Mo174  1  0.00463359  0.79385725  0.50433967  1
  Mo  Mo175  1  0.70340793  0.08632720  0.37353918  1
  Mo  Mo176  1  -0.01352570  0.41157565  0.01987708  1
  Mo  Mo177  1  0.40030509  -0.00961340  0.76340361  1
  Mo  Mo178  1  0.59789098  0.39263078  0.49738635  1
  Mo  Mo179  1  0.80288493  0.19423661  0.50882955  1
  Mo  Mo180  1  0.39683880  0.39569425  0.25181771  1
  Mo  Mo181  1  0.28789800  0.30488812  0.87843615  1
  Mo  Mo182  1  0.19079013  0.39623095  0.00138713  1
  Mo  Mo183  1  0.18791411  0.40238101  0.25115186  1
  Mo  Mo184  1  0.78445491  0.00964678  0.51270438  1
  Mo  Mo185  1  0.09696939  0.10745156  0.62776243  1
  Mo  Mo186  1  0.80862395  0.60127977  0.26587981  1
  Mo  Mo187  1  0.80064163  0.40251271  0.49939200  1
  Mo  Mo188  1  0.09536438  0.90187950  0.12026468  1
  Mo  Mo189  1  0.50186971  0.29870532  0.87296722  1
  Mo  Mo190  1  -0.00667044  0.79746084  0.74646738  1
  Mo  Mo191  1  0.08967253  0.50046097  0.63624136  1
  Mo  Mo192  1  0.80379117  0.19666200  0.24281652  1
  Mo  Mo193  1  0.51619424  0.89399430  0.12360879  1
  Mo  Mo194  1  0.29485894  0.30208125  0.62817677  1
  Mo  Mo195  1  0.61571527  -0.02138780  0.75112060  1
  Mo  Mo196  1  0.40691028  0.59251117  -0.00332102  1
  Mo  Mo197  1  0.70612237  0.70376798  0.87940151  1
  Mo  Mo198  1  0.60503165  0.18272646  0.24507154  1
  Mo  Mo199  1  0.69695572  0.49533180  0.12982001  1
