# generated using pymatgen
data_HfZrTaTiMo
_symmetry_space_group_name_H-M   'P 1'
_cell_length_a   15.20882204
_cell_length_b   15.19999693
_cell_length_c   16.84748594
_cell_angle_alpha   89.89966151
_cell_angle_beta   90.00890450
_cell_angle_gamma   90.03715608
_symmetry_Int_Tables_number   1
_chemical_formula_structural   HfZrTaTiMo
_chemical_formula_sum   'Hf40 Zr40 Ta40 Ti40 Mo40'
_cell_volume   3894.69469172
_cell_formula_units_Z   40
loop_
 _symmetry_equiv_pos_site_id
 _symmetry_equiv_pos_as_xyz
  1  'x, y, z'
loop_
 _atom_site_type_symbol
 _atom_site_label
 _atom_site_symmetry_multiplicity
 _atom_site_fract_x
 _atom_site_fract_y
 _atom_site_fract_z
 _atom_site_occupancy
  Hf  Hf0  1  0.21046402  -0.00336905  0.24951799  1
  Hf  Hf1  1  0.80371756  0.18836113  0.49387636  1
  Hf  Hf2  1  0.39061296  0.59701891  0.73903353  1
  Hf  Hf3  1  0.50961938  0.30590615  0.13173479  1
  Hf  Hf4  1  0.68834875  0.90267109  0.89427328  1
  Hf  Hf5  1  0.91675696  0.50782948  0.38599957  1
  Hf  Hf6  1  0.57696888  0.78569538  -0.01020220  1
  Hf  Hf7  1  0.72140629  0.09500094  0.63345082  1
  Hf  Hf8  1  0.01757231  0.00419787  0.74955695  1
  Hf  Hf9  1  0.61479788  0.18847351  0.25289049  1
  Hf  Hf10  1  0.18508216  0.40765835  0.00228198  1
  Hf  Hf11  1  0.30781138  0.30969781  0.37438577  1
  Hf  Hf12  1  0.80738846  0.40318409  0.25083229  1
  Hf  Hf13  1  0.39027591  0.59561130  0.51665610  1
  Hf  Hf14  1  0.71234180  0.10087493  0.88595433  1
  Hf  Hf15  1  0.10130678  0.29459660  0.86643494  1
  Hf  Hf16  1  0.48061414  0.68196064  0.13440253  1
  Hf  Hf17  1  0.60822616  0.39501003  0.49418426  1
  Hf  Hf18  1  0.90925947  0.11189143  0.87638613  1
  Hf  Hf19  1  0.51143791  0.30172980  0.63412687  1
  Hf  Hf20  1  0.68422965  0.50403405  0.63384794  1
  Hf  Hf21  1  0.30060086  0.11850397  0.87911178  1
  Hf  Hf22  1  0.00238263  0.58833362  -0.00200859  1
  Hf  Hf23  1  0.81165300  -0.00786056  0.75505042  1
  Hf  Hf24  1  0.70553913  0.29770651  0.63199385  1
  Hf  Hf25  1  0.50534141  0.29691419  0.37044507  1
  Hf  Hf26  1  0.50326064  0.89793864  0.38535489  1
  Hf  Hf27  1  -0.02168384  0.80759585  0.74269261  1
  Hf  Hf28  1  0.79632862  0.59555001  -0.00554069  1
  Hf  Hf29  1  0.49004652  0.89257409  0.12474968  1
  Hf  Hf30  1  0.90617436  0.89556743  0.89012818  1
  Hf  Hf31  1  0.90240974  0.30108016  0.37732516  1
  Hf  Hf32  1  0.18294402  0.81530001  -0.01305422  1
  Hf  Hf33  1  0.81561653  0.19329909  0.24692363  1
  Hf  Hf34  1  0.08557231  0.68876364  0.36995518  1
  Hf  Hf35  1  0.63069854  -0.01439318  0.50570934  1
  Hf  Hf36  1  0.31781363  0.51964236  0.11552417  1
  Hf  Hf37  1  0.28443267  0.70461647  0.63307743  1
  Hf  Hf38  1  0.08241592  0.10818942  0.14374435  1
  Hf  Hf39  1  0.00014300  0.61123531  0.52142503  1
  Zr  Zr40  1  0.30404836  0.30023550  0.62019283  1
  Zr  Zr41  1  0.20529608  0.41739650  0.23963030  1
  Zr  Zr42  1  0.29582393  0.90016613  0.39463402  1
  Zr  Zr43  1  -0.02061124  0.81479503  0.50801994  1
  Zr  Zr44  1  0.08080270  0.70333135  0.85617336  1
  Zr  Zr45  1  0.50264632  0.07907724  0.87435807  1
  Zr  Zr46  1  0.00701817  0.19718769  0.50154629  1
  Zr  Zr47  1  0.07864366  0.90831259  0.37411847  1
  Zr  Zr48  1  0.08620164  0.68606690  0.14003338  1
  Zr  Zr49  1  0.19962025  0.20811663  0.01434338  1
  Zr  Zr50  1  0.78669247  0.80022000  0.23387112  1
  Zr  Zr51  1  0.50965051  0.50400730  0.85781717  1
  Zr  Zr52  1  0.71604529  0.29720532  0.11414399  1
  Zr  Zr53  1  0.80338763  -0.00534201  0.22934473  1
  Zr  Zr54  1  0.47667360  0.69261267  0.36978543  1
  Zr  Zr55  1  -0.00971274  0.39920655  0.74258688  1
  Zr  Zr56  1  0.88428984  0.70315045  0.37738344  1
  Zr  Zr57  1  0.20598383  0.21230305  0.24351102  1
  Zr  Zr58  1  0.09893528  0.89557298  0.13595678  1
  Zr  Zr59  1  0.40444532  -0.00276305  0.72981940  1
  Zr  Zr60  1  0.30435470  0.91016936  0.87348960  1
  Zr  Zr61  1  0.71637586  0.50035564  0.38428951  1
  Zr  Zr62  1  0.20542880  0.19514208  0.49914482  1
  Zr  Zr63  1  0.68881028  0.69355976  0.12150875  1
  Zr  Zr64  1  0.00909356  0.40345458  0.51341833  1
  Zr  Zr65  1  0.40742263  0.40014141  -0.00310209  1
  Zr  Zr66  1  0.51331586  0.10343954  0.61714991  1
  Zr  Zr67  1  0.20169640  0.61501063  -0.00855931  1
  Zr  Zr68  1  0.01317283  -0.00012042  0.00142280  1
  Zr  Zr69  1  0.30017346  0.50327256  0.87824650  1
  Zr  Zr70  1  0.29055738  0.71798233  0.12868804  1
  Zr  Zr71  1  0.61341663  0.40260294  -0.01097007  1
  Zr  Zr72  1  0.88019430  0.49863896  0.61653344  1
  Zr  Zr73  1  0.50847107  0.09165909  0.38258038  1
  Zr  Zr74  1  0.10175480  0.10711919  0.36001318  1
  Zr  Zr75  1  0.60342935  -0.02709159  0.74331618  1
  Zr  Zr76  1  0.59569641  0.20042761  -0.00779211  1
  Zr  Zr77  1  0.80145175  0.60653214  0.75960255  1
  Zr  Zr78  1  0.21080921  0.00848726  0.73290723  1
  Zr  Zr79  1  0.59710782  0.58416127  0.25343759  1
  Ta  Ta80  1  0.40652570  0.19718590  0.24573745  1
  Ta  Ta81  1  0.70662440  0.09412898  0.10390583  1
  Ta  Ta82  1  0.90519529  0.49874617  0.87262543  1
  Ta  Ta83  1  0.09934557  0.29512891  0.63599755  1
  Ta  Ta84  1  0.51361941  0.69642518  0.63245191  1
  Ta  Ta85  1  0.70268658  0.49236431  0.12289895  1
  Ta  Ta86  1  0.91114647  0.49664221  0.12074158  1
  Ta  Ta87  1  0.19254791  0.59941307  0.50133218  1
  Ta  Ta88  1  0.39392710  0.19584709  0.74545711  1
  Ta  Ta89  1  -0.02057995  0.80237445  0.24568110  1
  Ta  Ta90  1  -0.00031567  0.21199741  0.00312006  1
  Ta  Ta91  1  0.89457509  0.28839397  0.62966818  1
  Ta  Ta92  1  0.77971539  0.79621116  0.77211266  1
  Ta  Ta93  1  0.29976623  0.51352103  0.37684315  1
  Ta  Ta94  1  0.41101609  0.80385874  0.74684396  1
  Ta  Ta95  1  0.50646226  0.09363220  0.12387039  1
  Ta  Ta96  1  0.58814335  0.80501437  0.25073596  1
  Ta  Ta97  1  0.49241396  0.49407067  0.37943070  1
  Ta  Ta98  1  0.71601167  0.87203865  0.62727176  1
  Ta  Ta99  1  0.39785451  0.39112149  0.75208447  1
  Ta  Ta100  1  0.09592721  0.50294775  0.85344787  1
  Ta  Ta101  1  0.20889849  0.01031604  0.00985219  1
  Ta  Ta102  1  0.40865843  -0.00051161  0.25105544  1
  Ta  Ta103  1  0.41279623  0.41585066  0.24445969  1
  Ta  Ta104  1  0.10181590  0.31847034  0.37001992  1
  Ta  Ta105  1  0.20314582  0.41172742  0.50493004  1
  Ta  Ta106  1  0.71834099  0.07864226  0.37533216  1
  Ta  Ta107  1  0.31344268  0.09817774  0.12694915  1
  Ta  Ta108  1  0.68917629  0.70758332  0.36885330  1
  Ta  Ta109  1  0.31160716  0.10060764  0.37581772  1
  Ta  Ta110  1  0.40320284  0.40448515  0.50443230  1
  Ta  Ta111  1  0.49381852  0.29000914  0.86269790  1
  Ta  Ta112  1  0.60511965  0.78423387  0.49915211  1
  Ta  Ta113  1  0.40074660  0.19901877  0.00616081  1
  Ta  Ta114  1  0.20969036  0.39939291  0.74981418  1
  Ta  Ta115  1  0.19450719  0.79738123  0.26659774  1
  Ta  Ta116  1  0.91367858  0.08601942  0.36843746  1
  Ta  Ta117  1  0.58847966  0.59766971  0.49742530  1
  Ta  Ta118  1  0.87088518  0.71976512  0.62537385  1
  Ta  Ta119  1  0.11294755  0.51031172  0.64449702  1
  Ti  Ti120  1  0.60833177  0.19808899  0.75894800  1
  Ti  Ti121  1  0.19878641  0.19679831  0.74194419  1
  Ti  Ti122  1  0.31034616  0.30529771  0.12808357  1
  Ti  Ti123  1  0.20022602  0.60177897  0.25859027  1
  Ti  Ti124  1  0.50691880  0.88695525  0.61231207  1
  Ti  Ti125  1  0.10293581  0.90095433  0.61721011  1
  Ti  Ti126  1  0.29673344  0.89683108  0.61006789  1
  Ti  Ti127  1  0.61263343  0.39422409  0.25884888  1
  Ti  Ti128  1  0.58665462  0.59270581  -0.00291347  1
  Ti  Ti129  1  0.38361047  0.80379296  0.25978603  1
  Ti  Ti130  1  0.81369115  0.60143084  0.23854005  1
  Ti  Ti131  1  0.70365045  0.49799161  0.86692973  1
  Ti  Ti132  1  0.00662790  0.41467211  0.25212792  1
  Ti  Ti133  1  0.71013533  0.29777549  0.87179566  1
  Ti  Ti134  1  0.10820241  0.09770297  0.87840939  1
  Ti  Ti135  1  0.40969272  0.20270960  0.49986365  1
  Ti  Ti136  1  0.18771461  0.79266262  0.49756722  1
  Ti  Ti137  1  0.49901955  0.49394741  0.63617770  1
  Ti  Ti138  1  0.79318206  0.39384013  0.75585788  1
  Ti  Ti139  1  0.08578729  0.31716612  0.12974555  1
  Ti  Ti140  1  0.38674708  0.78960088  -0.01129269  1
  Ti  Ti141  1  0.29869885  0.70528180  0.85991368  1
  Ti  Ti142  1  0.68718472  0.90175052  0.10252989  1
  Ti  Ti143  1  0.30048354  0.90355351  0.12352882  1
  Ti  Ti144  1  0.60736966  -0.00764333  0.24488578  1
  Ti  Ti145  1  0.89789846  0.90194836  0.10920540  1
  Ti  Ti146  1  0.40538134  -0.00457108  0.00175132  1
  Ti  Ti147  1  0.39186597  0.00728221  0.51228018  1
  Ti  Ti148  1  0.00330856  0.00820766  0.51270722  1
  Ti  Ti149  1  0.09315958  0.70556935  0.64129524  1
  Ti  Ti150  1  0.91478108  0.10358769  0.63648990  1
  Ti  Ti151  1  0.39924613  0.78951852  0.50627431  1
  Ti  Ti152  1  0.19418481  0.81469584  0.75386089  1
  Ti  Ti153  1  0.90587341  0.30229853  0.11752256  1
  Ti  Ti154  1  0.79656055  0.78946010  -0.00248167  1
  Ti  Ti155  1  0.61328689  0.19726544  0.49050151  1
  Ti  Ti156  1  0.89662821  0.30366715  0.87842749  1
  Ti  Ti157  1  0.87471234  0.90643883  0.37305036  1
  Ti  Ti158  1  0.78002657  0.62198282  0.50672812  1
  Ti  Ti159  1  -0.01045720  0.78364680  0.00532684  1
  Mo  Mo160  1  0.89638768  0.11114672  0.10930779  1
  Mo  Mo161  1  0.79909889  0.38813302  0.50138663  1
  Mo  Mo162  1  0.69406626  0.69424230  0.62718475  1
  Mo  Mo163  1  0.89599827  0.70112478  0.12083180  1
  Mo  Mo164  1  0.68931621  0.68992800  0.88619674  1
  Mo  Mo165  1  0.59838604  0.78738388  0.76142145  1
  Mo  Mo166  1  0.41157415  0.61699058  -0.01164286  1
  Mo  Mo167  1  -0.00190567  0.39832610  -0.00683166  1
  Mo  Mo168  1  0.00611449  0.19890833  0.74857268  1
  Mo  Mo169  1  0.19557402  0.60570188  0.75467292  1
  Mo  Mo170  1  0.81025976  0.20555026  0.75407172  1
  Mo  Mo171  1  0.48905376  0.89036156  0.87646192  1
  Mo  Mo172  1  0.78346136  0.81100249  0.49407746  1
  Mo  Mo173  1  0.10318415  0.90883200  0.87448947  1
  Mo  Mo174  1  0.10463220  0.10257882  0.62285859  1
  Mo  Mo175  1  0.10198851  0.49731259  0.12526406  1
  Mo  Mo176  1  0.10548335  0.49918478  0.38005719  1
  Mo  Mo177  1  0.70569702  0.28976222  0.37566758  1
  Mo  Mo178  1  0.80463422  -0.00368019  0.00899085  1
  Mo  Mo179  1  0.30582563  0.10350660  0.61405842  1
  Mo  Mo180  1  0.59242446  -0.00599284  0.00746121  1
  Mo  Mo181  1  -0.00777109  0.59271545  0.24676298  1
  Mo  Mo182  1  0.28548968  0.70298670  0.38426478  1
  Mo  Mo183  1  0.60349084  0.39437511  0.75996041  1
  Mo  Mo184  1  0.19573640  -0.00271926  0.51297502  1
  Mo  Mo185  1  0.89178646  0.69930663  0.87797894  1
  Mo  Mo186  1  0.30281853  0.29855923  0.86897703  1
  Mo  Mo187  1  0.60021074  0.60708139  0.75505560  1
  Mo  Mo188  1  -0.01461830  -0.00216345  0.24374296  1
  Mo  Mo189  1  0.81703341  0.40341219  -0.00814520  1
  Mo  Mo190  1  0.48759530  0.69868599  0.86484954  1
  Mo  Mo191  1  0.69453753  0.89741661  0.36859110  1
  Mo  Mo192  1  -0.00483280  0.21765390  0.24789340  1
  Mo  Mo193  1  -0.00768800  0.60635452  0.73283921  1
  Mo  Mo194  1  0.80905163  0.20614581  -0.00117997  1
  Mo  Mo195  1  0.82199388  -0.00874812  0.50316653  1
  Mo  Mo196  1  0.51299557  0.49827810  0.12492744  1
  Mo  Mo197  1  0.89323613  0.91296563  0.62817683  1
  Mo  Mo198  1  0.38587745  0.59485395  0.25670236  1
  Mo  Mo199  1  0.29787171  0.49705849  0.62656119  1
