# generated using pymatgen
data_HfZrTaTiMo
_symmetry_space_group_name_H-M   'P 1'
_cell_length_a   15.21132188
_cell_length_b   15.22249413
_cell_length_c   16.82386548
_cell_angle_alpha   90.01498280
_cell_angle_beta   90.00391721
_cell_angle_gamma   89.75064603
_symmetry_Int_Tables_number   1
_chemical_formula_structural   HfZrTaTiMo
_chemical_formula_sum   'Hf40 Zr40 Ta40 Ti40 Mo40'
_cell_volume   3895.60065490
_cell_formula_units_Z   40
loop_
 _symmetry_equiv_pos_site_id
 _symmetry_equiv_pos_as_xyz
  1  'x, y, z'
loop_
 _atom_site_type_symbol
 _atom_site_label
 _atom_site_symmetry_multiplicity
 _atom_site_fract_x
 _atom_site_fract_y
 _atom_site_fract_z
 _atom_site_occupancy
  Hf  Hf0  1  -0.00297451  0.19657057  0.75439908  1
  Hf  Hf1  1  0.18569823  0.80400487  -0.00903005  1
  Hf  Hf2  1  0.70490337  0.88858727  0.61530827  1
  Hf  Hf3  1  0.48893454  0.49934274  0.63087984  1
  Hf  Hf4  1  -0.00075197  0.61222783  0.75632242  1
  Hf  Hf5  1  0.90279221  0.49444474  0.88254062  1
  Hf  Hf6  1  0.91238272  0.29890677  0.38176626  1
  Hf  Hf7  1  0.80531027  0.39587681  0.74249364  1
  Hf  Hf8  1  0.30282866  0.49960377  0.12209358  1
  Hf  Hf9  1  0.90918399  0.30196936  0.12052851  1
  Hf  Hf10  1  0.40378517  0.60008952  0.25568570  1
  Hf  Hf11  1  0.18316068  0.00618094  0.51453753  1
  Hf  Hf12  1  0.20651687  0.20282773  -0.01472411  1
  Hf  Hf13  1  0.18575014  0.80764322  0.76917811  1
  Hf  Hf14  1  0.70034141  0.50590191  0.87133813  1
  Hf  Hf15  1  0.38937973  0.01287756  0.49829371  1
  Hf  Hf16  1  0.59850163  0.61066200  0.73416888  1
  Hf  Hf17  1  0.69349629  0.68336284  0.14364084  1
  Hf  Hf18  1  0.49865469  0.30373951  0.12868694  1
  Hf  Hf19  1  0.08316387  0.69528569  0.36510589  1
  Hf  Hf20  1  0.89306057  0.70563565  0.62214539  1
  Hf  Hf21  1  0.49710529  0.49393038  0.85766227  1
  Hf  Hf22  1  0.69685744  0.50884338  0.38759271  1
  Hf  Hf23  1  0.70030619  0.09659278  0.37781386  1
  Hf  Hf24  1  0.90701985  0.90486387  0.90406910  1
  Hf  Hf25  1  0.69653352  0.09719073  0.61042655  1
  Hf  Hf26  1  0.49399090  0.89357535  0.61781013  1
  Hf  Hf27  1  0.69159307  0.88261528  0.12463518  1
  Hf  Hf28  1  0.40910328  0.20120839  -0.01338957  1
  Hf  Hf29  1  0.59738485  -0.01720508  0.25741988  1
  Hf  Hf30  1  0.79576865  0.79672552  0.47415150  1
  Hf  Hf31  1  0.28782997  0.90924944  0.37834293  1
  Hf  Hf32  1  0.90379242  0.89555836  0.61983167  1
  Hf  Hf33  1  0.39656432  0.00517803  0.25566775  1
  Hf  Hf34  1  0.20047222  0.60866476  -0.01265752  1
  Hf  Hf35  1  0.18992933  0.59498061  0.24540470  1
  Hf  Hf36  1  0.09021898  0.90135197  0.36564256  1
  Hf  Hf37  1  0.49636885  0.90355141  0.88167703  1
  Hf  Hf38  1  0.91478383  0.50207158  0.37878817  1
  Hf  Hf39  1  0.00342347  0.59751684  0.50403149  1
  Zr  Zr40  1  0.50218288  0.31522664  0.38696644  1
  Zr  Zr41  1  0.30699585  0.09936345  0.11861008  1
  Zr  Zr42  1  0.59834146  0.00645643  0.74509399  1
  Zr  Zr43  1  0.89000505  0.90465164  0.11116884  1
  Zr  Zr44  1  0.20863167  0.40052327  0.25817613  1
  Zr  Zr45  1  0.81201830  0.19123346  0.25440512  1
  Zr  Zr46  1  0.60354247  0.37481930  0.74776970  1
  Zr  Zr47  1  0.90331486  0.10057551  0.11116366  1
  Zr  Zr48  1  0.19647899  0.40644387  0.50096606  1
  Zr  Zr49  1  0.79667132  0.60333233  0.74142596  1
  Zr  Zr50  1  0.89172000  0.70576016  0.12647386  1
  Zr  Zr51  1  0.61205977  0.19863076  0.00400236  1
  Zr  Zr52  1  0.02049633  -0.00571903  0.74825655  1
  Zr  Zr53  1  0.30545609  0.69675653  0.63622945  1
  Zr  Zr54  1  0.90005879  0.10820084  0.89609516  1
  Zr  Zr55  1  0.51428546  0.50443067  0.12468251  1
  Zr  Zr56  1  0.21940154  0.19610602  0.50734337  1
  Zr  Zr57  1  0.88269535  0.70598734  0.89168147  1
  Zr  Zr58  1  0.40404691  0.80440246  0.25246995  1
  Zr  Zr59  1  0.20509685  0.60114930  0.49952432  1
  Zr  Zr60  1  0.20489063  0.40722100  -0.01322894  1
  Zr  Zr61  1  0.20989506  0.17741141  0.75033205  1
  Zr  Zr62  1  0.30624190  0.30045491  0.12515278  1
  Zr  Zr63  1  0.70236627  0.30207369  0.12962501  1
  Zr  Zr64  1  0.31383550  0.30467200  0.63681978  1
  Zr  Zr65  1  0.80632484  -0.01029072  0.75640705  1
  Zr  Zr66  1  0.70456565  0.30650150  0.38587475  1
  Zr  Zr67  1  0.10547939  0.50356585  0.64389184  1
  Zr  Zr68  1  0.60186930  0.79992807  0.74920459  1
  Zr  Zr69  1  0.59763980  0.19754987  0.25599063  1
  Zr  Zr70  1  0.10203259  0.30634036  0.37501071  1
  Zr  Zr71  1  0.90160209  0.09779921  0.61591130  1
  Zr  Zr72  1  0.28671236  0.89830764  0.62955765  1
  Zr  Zr73  1  0.39973272  0.60029424  -0.00704897  1
  Zr  Zr74  1  0.79240003  0.20242247  0.74689394  1
  Zr  Zr75  1  0.10645075  0.30533494  0.12551814  1
  Zr  Zr76  1  0.38722658  0.01064806  0.74716260  1
  Zr  Zr77  1  0.69787119  0.09060138  0.88215346  1
  Zr  Zr78  1  0.80358345  0.41443134  0.24836707  1
  Zr  Zr79  1  0.29428867  0.70501298  0.37360294  1
  Ta  Ta80  1  -0.00461500  0.39507696  0.75175329  1
  Ta  Ta81  1  0.60231141  0.40143784  -0.00843107  1
  Ta  Ta82  1  0.09925998  0.29752841  0.63278786  1
  Ta  Ta83  1  0.00836553  0.60227706  0.00047905  1
  Ta  Ta84  1  0.28644432  0.92759458  0.88451236  1
  Ta  Ta85  1  0.80387990  -0.00856460  0.48062681  1
  Ta  Ta86  1  0.29976564  0.50242842  0.65301299  1
  Ta  Ta87  1  0.29575983  0.89874063  0.11787653  1
  Ta  Ta88  1  0.30031509  0.50890481  0.84732324  1
  Ta  Ta89  1  0.40672203  0.39843931  -0.01599829  1
  Ta  Ta90  1  0.09716225  0.30047226  0.86590599  1
  Ta  Ta91  1  0.29892022  0.70674870  0.12505493  1
  Ta  Ta92  1  0.01709143  0.19186877  0.50481273  1
  Ta  Ta93  1  0.50041252  0.69789722  0.87572610  1
  Ta  Ta94  1  0.09257627  0.90065195  0.12587033  1
  Ta  Ta95  1  0.18430524  0.80114892  0.50246812  1
  Ta  Ta96  1  0.50908909  0.29811767  0.60873624  1
  Ta  Ta97  1  0.89920862  0.50412681  0.11370641  1
  Ta  Ta98  1  0.91675109  0.09314352  0.37830460  1
  Ta  Ta99  1  0.39829475  0.20287357  0.25859270  1
  Ta  Ta100  1  0.50564479  0.09498340  0.12562174  1
  Ta  Ta101  1  0.49741790  0.70931774  0.12213640  1
  Ta  Ta102  1  0.42796624  0.20746319  0.75800779  1
  Ta  Ta103  1  0.10269436  0.10061194  0.11773370  1
  Ta  Ta104  1  0.81000722  0.40630507  0.50442978  1
  Ta  Ta105  1  0.19412331  0.00220204  0.24061306  1
  Ta  Ta106  1  0.10864640  0.09934833  0.37015975  1
  Ta  Ta107  1  0.70498756  0.88425443  0.89395398  1
  Ta  Ta108  1  0.10331847  0.50143114  0.86039489  1
  Ta  Ta109  1  0.49391407  0.11006551  0.61525904  1
  Ta  Ta110  1  0.59704006  -0.01040668  0.49025925  1
  Ta  Ta111  1  0.90791382  0.30119817  0.61209308  1
  Ta  Ta112  1  0.79863702  0.39584766  0.00060755  1
  Ta  Ta113  1  0.69812630  0.49669450  0.61238395  1
  Ta  Ta114  1  0.80589205  -0.01765917  0.26540503  1
  Ta  Ta115  1  0.59714903  0.78554314  0.49194484  1
  Ta  Ta116  1  0.70624583  0.08321773  0.12708809  1
  Ta  Ta117  1  0.11480080  0.07921947  0.88774838  1
  Ta  Ta118  1  0.39101252  0.80177816  -0.00697827  1
  Ta  Ta119  1  0.70344570  0.29686019  0.60453435  1
  Ti  Ti120  1  0.71188294  0.29402103  0.88040444  1
  Ti  Ti121  1  0.59474487  0.60234061  0.26565011  1
  Ti  Ti122  1  0.00789373  0.20982764  -0.00819867  1
  Ti  Ti123  1  0.59639192  0.78541048  -0.00214829  1
  Ti  Ti124  1  0.39846873  0.40922779  0.50089156  1
  Ti  Ti125  1  0.19388485  0.80307419  0.24101791  1
  Ti  Ti126  1  0.30886003  0.29304945  0.37959174  1
  Ti  Ti127  1  0.39767922  0.79824617  0.76245721  1
  Ti  Ti128  1  0.40495843  0.60165294  0.49627325  1
  Ti  Ti129  1  0.20706894  0.19293136  0.25457478  1
  Ti  Ti130  1  0.01272756  0.41414761  0.24143831  1
  Ti  Ti131  1  0.48992446  0.89946239  0.11660820  1
  Ti  Ti132  1  0.79346011  0.79477022  0.75679638  1
  Ti  Ti133  1  -0.00095861  -0.00683492  0.49795637  1
  Ti  Ti134  1  0.49875141  0.88784751  0.38255072  1
  Ti  Ti135  1  0.31169298  0.30812643  0.85661021  1
  Ti  Ti136  1  0.09748353  0.71484337  0.63071512  1
  Ti  Ti137  1  0.78745258  0.59763321  0.00478492  1
  Ti  Ti138  1  0.60061212  0.41364038  0.25479241  1
  Ti  Ti139  1  -0.00181586  0.00704824  0.24651511  1
  Ti  Ti140  1  -0.00829127  0.59465241  0.23861230  1
  Ti  Ti141  1  0.60095628  0.59663586  -0.00185300  1
  Ti  Ti142  1  0.48897470  0.10344783  0.38126892  1
  Ti  Ti143  1  -0.00957164  0.80457295  0.76111687  1
  Ti  Ti144  1  0.59183489  0.60278840  0.50352196  1
  Ti  Ti145  1  0.40855067  0.40376216  0.25977203  1
  Ti  Ti146  1  0.88179238  0.69374240  0.35364596  1
  Ti  Ti147  1  0.30546056  0.49713271  0.37603076  1
  Ti  Ti148  1  -0.00463516  0.79898796  0.49144184  1
  Ti  Ti149  1  0.59371890  -0.00591870  0.00654208  1
  Ti  Ti150  1  0.09506356  0.70199871  0.12752242  1
  Ti  Ti151  1  0.39588220  0.79242677  0.49758548  1
  Ti  Ti152  1  0.49962409  0.09942824  0.87637784  1
  Ti  Ti153  1  0.01261879  0.19722925  0.24930575  1
  Ti  Ti154  1  0.81000213  0.19502554  0.49385995  1
  Ti  Ti155  1  0.00924322  0.40482190  -0.00316677  1
  Ti  Ti156  1  0.79352953  0.60789158  0.50349147  1
  Ti  Ti157  1  -0.01904276  0.81011713  0.24936599  1
  Ti  Ti158  1  0.59485372  0.19602788  0.49261773  1
  Ti  Ti159  1  0.90454161  0.49640500  0.62094579  1
  Mo  Mo160  1  0.30864083  0.10171688  0.88168702  1
  Mo  Mo161  1  0.09664789  0.50441345  0.37268916  1
  Mo  Mo162  1  0.09266109  0.90063272  0.88502916  1
  Mo  Mo163  1  0.60360183  0.19506470  0.74067253  1
  Mo  Mo164  1  0.09055248  0.50870347  0.11771415  1
  Mo  Mo165  1  0.60076064  0.40908938  0.50887956  1
  Mo  Mo166  1  0.51323620  0.29629328  0.87814378  1
  Mo  Mo167  1  0.69188015  0.89509689  0.37567711  1
  Mo  Mo168  1  0.49755867  0.69439642  0.38552764  1
  Mo  Mo169  1  0.80502557  0.20709646  0.00381948  1
  Mo  Mo170  1  0.08757571  0.88642200  0.62045411  1
  Mo  Mo171  1  0.69147392  0.69768483  0.36019971  1
  Mo  Mo172  1  0.19681536  -0.00133141  0.74717399  1
  Mo  Mo173  1  0.00333637  0.79124217  0.00870359  1
  Mo  Mo174  1  0.49641142  0.50609300  0.38218657  1
  Mo  Mo175  1  0.80030614  0.59212378  0.24954307  1
  Mo  Mo176  1  0.90444301  0.30561741  0.88600067  1
  Mo  Mo177  1  0.20441155  0.00018534  0.01358632  1
  Mo  Mo178  1  0.40377206  0.61341931  0.75323228  1
  Mo  Mo179  1  0.40744968  -0.00270786  0.00285078  1
  Mo  Mo180  1  0.08783013  0.69924406  0.87591645  1
  Mo  Mo181  1  0.58682118  0.79114226  0.25670086  1
  Mo  Mo182  1  0.19773761  0.61199526  0.76120169  1
  Mo  Mo183  1  0.00361942  0.39572931  0.51159041  1
  Mo  Mo184  1  0.40390834  0.39575537  0.75157225  1
  Mo  Mo185  1  0.78532592  0.78987622  0.00367655  1
  Mo  Mo186  1  0.01637320  -0.00105515  0.00541637  1
  Mo  Mo187  1  0.30688627  0.71230379  0.86954233  1
  Mo  Mo188  1  0.78369370  0.00088110  0.00469587  1
  Mo  Mo189  1  0.19533663  0.39319994  0.75744825  1
  Mo  Mo190  1  0.09787399  0.10040974  0.62409951  1
  Mo  Mo191  1  0.69879362  0.69801536  0.61219190  1
  Mo  Mo192  1  0.70188744  0.49791876  0.11900011  1
  Mo  Mo193  1  0.90650454  0.89659960  0.37000933  1
  Mo  Mo194  1  0.30900720  0.10361311  0.62868719  1
  Mo  Mo195  1  0.49738615  0.70368358  0.61142492  1
  Mo  Mo196  1  0.40505631  0.20486403  0.49678964  1
  Mo  Mo197  1  0.78728404  0.80057665  0.26454170  1
  Mo  Mo198  1  0.68842897  0.69772056  0.88089660  1
  Mo  Mo199  1  0.29473701  0.10462732  0.36704002  1
