# generated using pymatgen
data_HfZrTaTiMo
_symmetry_space_group_name_H-M   'P 1'
_cell_length_a   15.22862257
_cell_length_b   15.19853036
_cell_length_c   16.85188954
_cell_angle_alpha   90.00008739
_cell_angle_beta   89.99763087
_cell_angle_gamma   90.02155355
_symmetry_Int_Tables_number   1
_chemical_formula_structural   HfZrTaTiMo
_chemical_formula_sum   'Hf40 Zr40 Ta40 Ti40 Mo40'
_cell_volume   3900.41476096
_cell_formula_units_Z   40
loop_
 _symmetry_equiv_pos_site_id
 _symmetry_equiv_pos_as_xyz
  1  'x, y, z'
loop_
 _atom_site_type_symbol
 _atom_site_label
 _atom_site_symmetry_multiplicity
 _atom_site_fract_x
 _atom_site_fract_y
 _atom_site_fract_z
 _atom_site_occupancy
  Hf  Hf0  1  0.20868457  -0.01872861  0.75603739  1
  Hf  Hf1  1  -0.01784309  0.19818897  0.49279352  1
  Hf  Hf2  1  0.81388640  0.79055143  0.49168061  1
  Hf  Hf3  1  0.68572618  0.51506308  0.60936358  1
  Hf  Hf4  1  0.19733756  0.59986612  0.24346449  1
  Hf  Hf5  1  0.49277394  0.49020990  0.38760724  1
  Hf  Hf6  1  0.60162852  0.59731750  0.26451895  1
  Hf  Hf7  1  0.59909746  0.79719533  0.74814384  1
  Hf  Hf8  1  0.78468820  0.18983368  0.51083943  1
  Hf  Hf9  1  0.10981633  0.68929668  0.38313532  1
  Hf  Hf10  1  0.48307011  0.09967183  0.61823020  1
  Hf  Hf11  1  0.20213066  0.59434687  -0.00308283  1
  Hf  Hf12  1  0.50406268  0.91434754  0.87210098  1
  Hf  Hf13  1  0.58764527  0.20921725  -0.00836064  1
  Hf  Hf14  1  0.59281729  0.40891120  0.73234435  1
  Hf  Hf15  1  0.90185360  0.69221396  0.12262167  1
  Hf  Hf16  1  0.80660425  0.39085999  0.51495196  1
  Hf  Hf17  1  0.10694146  0.89373199  0.88731605  1
  Hf  Hf18  1  0.08690321  0.09820448  0.89244016  1
  Hf  Hf19  1  0.21617135  0.80060932  0.00435588  1
  Hf  Hf20  1  0.90809552  0.69328857  0.88899401  1
  Hf  Hf21  1  -0.00814358  0.00473186  0.25046277  1
  Hf  Hf22  1  0.67878716  0.09225920  0.85783817  1
  Hf  Hf23  1  0.30984671  0.49365412  0.86163205  1
  Hf  Hf24  1  0.21239614  0.39977817  0.00327409  1
  Hf  Hf25  1  0.70681463  0.70935733  0.61379973  1
  Hf  Hf26  1  0.00261665  -0.00464878  0.74195471  1
  Hf  Hf27  1  0.08560923  0.10783420  0.10806128  1
  Hf  Hf28  1  0.59719764  0.00513040  0.01201753  1
  Hf  Hf29  1  0.10139009  0.47708751  0.38705777  1
  Hf  Hf30  1  0.29186147  0.51893349  0.39015006  1
  Hf  Hf31  1  0.78895011  0.18124451  0.25313740  1
  Hf  Hf32  1  0.70907859  0.91491369  0.36964212  1
  Hf  Hf33  1  0.79104139  -0.01184452  0.74271955  1
  Hf  Hf34  1  0.39657812  0.20373627  0.00195570  1
  Hf  Hf35  1  0.90064281  0.49582865  0.11962900  1
  Hf  Hf36  1  0.23910722  0.81217953  0.49602424  1
  Hf  Hf37  1  0.59275837  0.60314260  0.00015095  1
  Hf  Hf38  1  -0.00752334  0.20799092  0.26041785  1
  Hf  Hf39  1  0.69130593  0.29050352  0.37788823  1
  Zr  Zr40  1  0.81342659  0.79363385  0.74992597  1
  Zr  Zr41  1  0.19174880  -0.00435882  0.23805838  1
  Zr  Zr42  1  0.79085355  0.59622693  0.74822807  1
  Zr  Zr43  1  0.19808725  0.40594063  0.23597438  1
  Zr  Zr44  1  0.90642569  0.88573480  0.36220246  1
  Zr  Zr45  1  0.70578263  0.50138561  0.39230030  1
  Zr  Zr46  1  0.09398029  0.69979969  0.11800042  1
  Zr  Zr47  1  0.12181799  0.70634841  0.61607091  1
  Zr  Zr48  1  0.79640461  0.79570615  0.00108495  1
  Zr  Zr49  1  0.89531301  0.49014630  0.87354540  1
  Zr  Zr50  1  0.09639740  0.10253845  0.61530967  1
  Zr  Zr51  1  0.11779865  0.89484790  0.37600697  1
  Zr  Zr52  1  0.80095148  0.39871420  0.25211225  1
  Zr  Zr53  1  0.61264104  0.79718423  0.26492294  1
  Zr  Zr54  1  -0.00807556  -0.01083238  0.50320571  1
  Zr  Zr55  1  0.41290152  0.80247915  -0.00092322  1
  Zr  Zr56  1  0.79304528  0.20821072  -0.00739333  1
  Zr  Zr57  1  0.31015817  0.11059373  0.13873114  1
  Zr  Zr58  1  0.40045675  0.19930847  0.48398280  1
  Zr  Zr59  1  0.21069115  0.00151185  0.01312659  1
  Zr  Zr60  1  0.01493260  0.38931240  0.52483154  1
  Zr  Zr61  1  0.10007482  0.30512891  0.87588438  1
  Zr  Zr62  1  0.91247877  0.90157188  0.88075043  1
  Zr  Zr63  1  0.88975967  0.09921162  0.11648827  1
  Zr  Zr64  1  0.69401839  0.30818287  0.86088803  1
  Zr  Zr65  1  0.19159689  0.20669784  0.25748143  1
  Zr  Zr66  1  0.79314291  0.00023775  -0.00260926  1
  Zr  Zr67  1  0.69217469  0.49910633  0.12772081  1
  Zr  Zr68  1  0.20807567  0.61168883  0.75397857  1
  Zr  Zr69  1  0.19996312  0.40153442  0.73264085  1
  Zr  Zr70  1  0.31205832  0.69379844  0.13470774  1
  Zr  Zr71  1  0.40269764  0.59786634  -0.00581666  1
  Zr  Zr72  1  0.19775719  0.18804700  0.75309219  1
  Zr  Zr73  1  0.40183400  0.62746644  0.50106111  1
  Zr  Zr74  1  0.00157832  0.60494563  0.73934050  1
  Zr  Zr75  1  0.49384844  0.89079812  0.62315552  1
  Zr  Zr76  1  0.18918118  0.21505994  0.48896049  1
  Zr  Zr77  1  0.29695761  0.32449767  0.37761087  1
  Zr  Zr78  1  0.59023294  0.38260225  0.51842494  1
  Zr  Zr79  1  -0.00704032  0.60198126  0.50941576  1
  Ta  Ta80  1  0.88906969  0.09524230  0.63208172  1
  Ta  Ta81  1  0.59730190  0.79355876  0.48155546  1
  Ta  Ta82  1  0.29258601  0.08162142  0.61483439  1
  Ta  Ta83  1  0.49751536  0.30579396  0.13013325  1
  Ta  Ta84  1  0.70300673  0.70189175  0.13000353  1
  Ta  Ta85  1  0.41203757  0.39874742  -0.00370788  1
  Ta  Ta86  1  0.30224893  0.08194407  0.36498333  1
  Ta  Ta87  1  0.51146486  0.69934783  0.13575542  1
  Ta  Ta88  1  0.90013596  0.29669398  0.85777692  1
  Ta  Ta89  1  0.50919531  0.09736463  0.37244325  1
  Ta  Ta90  1  0.61013452  0.01362374  0.24571123  1
  Ta  Ta91  1  0.69124035  0.29462972  0.12851637  1
  Ta  Ta92  1  0.56853705  0.20345989  0.74830754  1
  Ta  Ta93  1  0.08947620  0.30094459  0.11249691  1
  Ta  Ta94  1  0.09819231  0.70216889  0.88332565  1
  Ta  Ta95  1  0.90649490  0.89091859  0.12899013  1
  Ta  Ta96  1  0.40527677  0.00204816  0.00773917  1
  Ta  Ta97  1  0.69360621  0.50030959  0.87357818  1
  Ta  Ta98  1  0.58353548  0.39273503  0.25658267  1
  Ta  Ta99  1  0.31033297  0.89671940  0.14449909  1
  Ta  Ta100  1  -0.00743086  0.39419351  -0.00372539  1
  Ta  Ta101  1  0.59643566  0.20208867  0.25326464  1
  Ta  Ta102  1  0.50362271  0.90176995  0.13817170  1
  Ta  Ta103  1  0.49121608  0.90559963  0.36692350  1
  Ta  Ta104  1  0.09501287  0.09632943  0.38140577  1
  Ta  Ta105  1  0.31567008  0.29539175  0.86607913  1
  Ta  Ta106  1  0.59575609  -0.00483174  0.49886684  1
  Ta  Ta107  1  0.68653666  0.69562972  0.87554928  1
  Ta  Ta108  1  0.39155311  0.40512240  0.52357647  1
  Ta  Ta109  1  0.68085881  0.09167897  0.63724855  1
  Ta  Ta110  1  -0.00004442  0.40120453  0.73449875  1
  Ta  Ta111  1  0.89776463  0.28744952  0.63956365  1
  Ta  Ta112  1  0.40481889  0.01485152  0.75399815  1
  Ta  Ta113  1  0.60287666  0.80268093  0.00617769  1
  Ta  Ta114  1  0.30127264  0.28235280  0.62407886  1
  Ta  Ta115  1  0.89462365  0.10542775  0.86795120  1
  Ta  Ta116  1  0.30598593  0.09346473  0.88059572  1
  Ta  Ta117  1  0.40879443  0.21700383  0.26581033  1
  Ta  Ta118  1  0.69575340  0.89341451  0.87442771  1
  Ta  Ta119  1  0.70868103  0.90321042  0.13845214  1
  Ti  Ti120  1  0.90252184  0.50574818  0.38248240  1
  Ti  Ti121  1  0.80360557  0.61272679  0.26221461  1
  Ti  Ti122  1  0.79041733  0.39690286  -0.00069984  1
  Ti  Ti123  1  0.90017719  0.31179561  0.37726935  1
  Ti  Ti124  1  0.79164940  0.59265445  -0.00237046  1
  Ti  Ti125  1  0.59551185  0.19264165  0.50628426  1
  Ti  Ti126  1  0.01238362  0.78854778  0.25139031  1
  Ti  Ti127  1  0.50234157  0.10838005  0.13706747  1
  Ti  Ti128  1  0.30893351  0.31126348  0.13174553  1
  Ti  Ti129  1  -0.00320343  0.19741044  0.74842048  1
  Ti  Ti130  1  0.00212471  0.39907429  0.24727746  1
  Ti  Ti131  1  0.48752166  0.49784322  0.13236559  1
  Ti  Ti132  1  0.78789345  0.19799047  0.74440759  1
  Ti  Ti133  1  0.51490538  0.68677476  0.62110624  1
  Ti  Ti134  1  0.40599260  0.39181695  0.72910288  1
  Ti  Ti135  1  0.40839335  0.79695634  0.25316060  1
  Ti  Ti136  1  0.40343054  0.59244383  0.25621984  1
  Ti  Ti137  1  0.09269439  0.89393262  0.11669877  1
  Ti  Ti138  1  0.20269019  0.20773604  -0.00242912  1
  Ti  Ti139  1  0.87712622  0.08526979  0.37925628  1
  Ti  Ti140  1  -0.00166297  0.59040744  0.25791459  1
  Ti  Ti141  1  0.09173513  0.50452554  0.87755581  1
  Ti  Ti142  1  0.38858447  0.81405138  0.76451392  1
  Ti  Ti143  1  0.32033858  0.72651856  0.63475754  1
  Ti  Ti144  1  0.30644148  0.71649113  0.36203816  1
  Ti  Ti145  1  0.30245595  0.52290398  0.62503047  1
  Ti  Ti146  1  0.89847226  0.29803495  0.12165020  1
  Ti  Ti147  1  0.89336934  0.50953352  0.62387629  1
  Ti  Ti148  1  0.02229006  0.80077342  0.74032060  1
  Ti  Ti149  1  0.00932128  0.79696113  0.50263944  1
  Ti  Ti150  1  0.78950693  -0.00636403  0.51564514  1
  Ti  Ti151  1  0.79544214  0.39739728  0.73237139  1
  Ti  Ti152  1  0.38716292  -0.01672341  0.49008217  1
  Ti  Ti153  1  0.12808269  0.90487958  0.61440617  1
  Ti  Ti154  1  0.90103924  0.88594651  0.62383466  1
  Ti  Ti155  1  0.50530006  0.50139833  0.86612800  1
  Ti  Ti156  1  0.42135257  0.61045109  0.74962714  1
  Ti  Ti157  1  0.59569866  0.40317370  -0.00135497  1
  Ti  Ti158  1  0.09295314  0.49841737  0.11560877  1
  Ti  Ti159  1  0.30402741  0.70965679  0.87030599  1
  Mo  Mo160  1  0.59517693  0.60299733  0.75298811  1
  Mo  Mo161  1  0.40008890  0.40958984  0.25014421  1
  Mo  Mo162  1  0.81029114  0.79319863  0.24537660  1
  Mo  Mo163  1  0.00266632  0.58883028  -0.00532345  1
  Mo  Mo164  1  -0.00705346  -0.00386909  0.00283062  1
  Mo  Mo165  1  0.41356684  0.00677328  0.24745801  1
  Mo  Mo166  1  0.69468248  0.09403059  0.38491234  1
  Mo  Mo167  1  0.59404426  -0.00104761  0.74447215  1
  Mo  Mo168  1  -0.01149064  0.20938530  -0.00907120  1
  Mo  Mo169  1  0.80454355  0.59938603  0.49568873  1
  Mo  Mo170  1  0.09775444  0.29279255  0.63537317  1
  Mo  Mo171  1  0.68622951  0.10795374  0.12466885  1
  Mo  Mo172  1  0.49646917  0.69992415  0.36467888  1
  Mo  Mo173  1  0.38774813  0.20074789  0.74704299  1
  Mo  Mo174  1  0.49073460  0.31786635  0.86870711  1
  Mo  Mo175  1  0.60135491  0.61073951  0.48642472  1
  Mo  Mo176  1  0.08815062  0.29864630  0.37227753  1
  Mo  Mo177  1  0.69722646  0.90132258  0.61240914  1
  Mo  Mo178  1  0.41748631  0.80973375  0.48982805  1
  Mo  Mo179  1  0.30971616  0.89974454  0.34944592  1
  Mo  Mo180  1  0.20621670  0.60358237  0.50881600  1
  Mo  Mo181  1  0.49175904  0.29346156  0.62421296  1
  Mo  Mo182  1  0.91010311  0.68926120  0.36371713  1
  Mo  Mo183  1  0.31117521  0.49415017  0.12419061  1
  Mo  Mo184  1  0.30962105  0.90441435  0.62804373  1
  Mo  Mo185  1  0.48656910  0.11244549  0.87457692  1
  Mo  Mo186  1  0.90743811  0.70454100  0.62405958  1
  Mo  Mo187  1  0.49857594  0.29983719  0.37995724  1
  Mo  Mo188  1  0.20799407  0.41019587  0.52967210  1
  Mo  Mo189  1  0.49032628  0.51074310  0.62183046  1
  Mo  Mo190  1  0.20771787  0.00673482  0.48973579  1
  Mo  Mo191  1  0.71116560  0.69993172  0.38216413  1
  Mo  Mo192  1  0.00566989  0.79934135  0.00661888  1
  Mo  Mo193  1  0.10805048  0.50258160  0.62536942  1
  Mo  Mo194  1  0.20055833  0.79737808  0.24207096  1
  Mo  Mo195  1  0.30847982  0.90449148  0.88081584  1
  Mo  Mo196  1  0.69791818  0.28797898  0.63877098  1
  Mo  Mo197  1  0.49986515  0.70446031  0.86849578  1
  Mo  Mo198  1  0.79869028  -0.00534115  0.24393098  1
  Mo  Mo199  1  0.20401371  0.80005854  0.75638565  1
