# generated using pymatgen
data_HfZrTaTiMo
_symmetry_space_group_name_H-M   'P 1'
_cell_length_a   15.20831974
_cell_length_b   15.21138990
_cell_length_c   16.81844651
_cell_angle_alpha   90.01063699
_cell_angle_beta   90.01438930
_cell_angle_gamma   89.97799442
_symmetry_Int_Tables_number   1
_chemical_formula_structural   HfZrTaTiMo
_chemical_formula_sum   'Hf40 Zr40 Ta40 Ti40 Mo40'
_cell_volume   3890.77357892
_cell_formula_units_Z   40
loop_
 _symmetry_equiv_pos_site_id
 _symmetry_equiv_pos_as_xyz
  1  'x, y, z'
loop_
 _atom_site_type_symbol
 _atom_site_label
 _atom_site_symmetry_multiplicity
 _atom_site_fract_x
 _atom_site_fract_y
 _atom_site_fract_z
 _atom_site_occupancy
  Hf  Hf0  1  0.50609232  0.69338618  0.13850163  1
  Hf  Hf1  1  0.29639586  0.30218508  0.87534641  1
  Hf  Hf2  1  0.69208385  0.52023426  0.62631663  1
  Hf  Hf3  1  0.09011720  0.71540999  0.61833897  1
  Hf  Hf4  1  0.20201643  0.40275189  0.73249586  1
  Hf  Hf5  1  0.51837829  0.29726934  0.12946905  1
  Hf  Hf6  1  0.01070367  0.80347046  -0.00654181  1
  Hf  Hf7  1  0.48593322  0.49285120  0.12547833  1
  Hf  Hf8  1  0.37427963  0.60444368  0.00730725  1
  Hf  Hf9  1  0.61070274  0.00457566  0.25784823  1
  Hf  Hf10  1  0.89734933  0.89850397  0.11275493  1
  Hf  Hf11  1  0.91256778  0.88977404  0.37872743  1
  Hf  Hf12  1  0.80610931  0.58496942  -0.01326577  1
  Hf  Hf13  1  0.49117719  0.09776524  0.38119542  1
  Hf  Hf14  1  0.21272838  0.19463305  0.73485066  1
  Hf  Hf15  1  0.49893067  0.29614912  0.86369336  1
  Hf  Hf16  1  0.59122267  0.41001710  0.26215158  1
  Hf  Hf17  1  0.39759775  0.79146301  0.74628757  1
  Hf  Hf18  1  0.78484890  0.59944744  0.23973902  1
  Hf  Hf19  1  -0.01214121  0.61212173  0.49311952  1
  Hf  Hf20  1  0.59649973  0.60121556  0.76795290  1
  Hf  Hf21  1  0.60314203  0.79820720  0.76686884  1
  Hf  Hf22  1  0.49958987  0.89146807  0.13509741  1
  Hf  Hf23  1  -0.00628627  0.39814646  0.50958443  1
  Hf  Hf24  1  0.49971820  0.09750531  0.86833266  1
  Hf  Hf25  1  0.30283040  0.69466881  0.60418115  1
  Hf  Hf26  1  0.29850702  0.71426049  0.15207249  1
  Hf  Hf27  1  0.40269397  0.20125786  0.00285720  1
  Hf  Hf28  1  0.70124384  0.48241276  0.11464972  1
  Hf  Hf29  1  0.19988217  0.19824466  0.00744517  1
  Hf  Hf30  1  0.60361669  0.20570871  0.50405465  1
  Hf  Hf31  1  0.18189473  0.60326031  0.27241577  1
  Hf  Hf32  1  0.61807268  0.79653204  0.49769921  1
  Hf  Hf33  1  0.19078953  0.00484914  0.24077036  1
  Hf  Hf34  1  0.90184597  0.89436942  0.62833385  1
  Hf  Hf35  1  0.80121481  -0.00918115  0.25450987  1
  Hf  Hf36  1  0.39299130  -0.00319771  0.00787399  1
  Hf  Hf37  1  0.00196545  0.59943783  -0.00517762  1
  Hf  Hf38  1  0.70604088  0.10771518  0.11376073  1
  Hf  Hf39  1  0.10243735  0.29723662  0.38382841  1
  Zr  Zr40  1  0.00988734  0.80036256  0.23987772  1
  Zr  Zr41  1  0.89857246  0.10054937  0.11955011  1
  Zr  Zr42  1  0.21102199  0.60557750  0.74150654  1
  Zr  Zr43  1  0.50748410  0.09870890  0.12982911  1
  Zr  Zr44  1  0.80173428  0.40314566  0.72845628  1
  Zr  Zr45  1  0.71531127  0.09972109  0.86968159  1
  Zr  Zr46  1  0.21114015  0.01278650  0.51094254  1
  Zr  Zr47  1  0.88109011  0.30766010  0.12093900  1
  Zr  Zr48  1  0.39159507  0.39440510  0.73437813  1
  Zr  Zr49  1  0.50011776  0.90447125  0.61551927  1
  Zr  Zr50  1  -0.00989085  0.59870766  0.24980119  1
  Zr  Zr51  1  0.29924431  0.30123943  0.37636281  1
  Zr  Zr52  1  0.38645054  -0.00301265  0.74774359  1
  Zr  Zr53  1  -0.00033989  0.40178034  0.25475330  1
  Zr  Zr54  1  0.59189491  0.59925983  -0.01698062  1
  Zr  Zr55  1  0.11079373  0.91699118  0.87147082  1
  Zr  Zr56  1  0.91329008  0.09310914  0.38133529  1
  Zr  Zr57  1  -0.00106487  0.20766621  0.00254613  1
  Zr  Zr58  1  0.60261540  0.39373191  -0.01534610  1
  Zr  Zr59  1  0.12892085  0.70107460  0.87781407  1
  Zr  Zr60  1  0.39045107  0.57053879  0.26174954  1
  Zr  Zr61  1  0.79676528  0.19311335  0.26637814  1
  Zr  Zr62  1  0.09829901  0.51112701  0.61567096  1
  Zr  Zr63  1  0.79151040  0.39433341  0.25842025  1
  Zr  Zr64  1  0.49903771  0.89188125  0.36886988  1
  Zr  Zr65  1  0.88325103  0.49754817  0.38301918  1
  Zr  Zr66  1  -0.00377547  0.80414251  0.76669544  1
  Zr  Zr67  1  0.80654729  0.19357395  0.51186183  1
  Zr  Zr68  1  0.48755790  0.10370855  0.62231426  1
  Zr  Zr69  1  0.31054659  0.32280115  0.13455199  1
  Zr  Zr70  1  -0.00578841  0.38390588  0.72844724  1
  Zr  Zr71  1  0.50804630  0.68985027  0.36555650  1
  Zr  Zr72  1  0.70093930  0.08310951  0.62923301  1
  Zr  Zr73  1  0.10583677  0.48789456  0.87985624  1
  Zr  Zr74  1  0.80252997  0.79216046  -0.01886976  1
  Zr  Zr75  1  -0.00857515  0.59232254  0.76084650  1
  Zr  Zr76  1  0.30192931  0.71490186  0.37472613  1
  Zr  Zr77  1  0.59426307  0.40620547  0.74772677  1
  Zr  Zr78  1  0.51165787  0.69774633  0.61969311  1
  Zr  Zr79  1  0.09588976  0.29364469  0.86911839  1
  Ta  Ta80  1  0.79696886  -0.01223894  0.49922491  1
  Ta  Ta81  1  0.29855517  0.90991296  0.36879918  1
  Ta  Ta82  1  0.82068273  0.20021932  0.72963663  1
  Ta  Ta83  1  0.70009608  0.90163238  0.11079350  1
  Ta  Ta84  1  0.79764616  0.79791435  0.76968659  1
  Ta  Ta85  1  0.88264287  0.69345558  0.63395139  1
  Ta  Ta86  1  0.70505923  0.88509492  0.63167109  1
  Ta  Ta87  1  0.29219494  0.10386375  0.36183839  1
  Ta  Ta88  1  0.62095100  0.79541161  0.24624831  1
  Ta  Ta89  1  0.29625882  0.11165930  0.13999257  1
  Ta  Ta90  1  0.29103375  0.09358504  0.87573298  1
  Ta  Ta91  1  0.79738789  0.60703739  0.77191145  1
  Ta  Ta92  1  0.60247104  -0.00765884  0.75300381  1
  Ta  Ta93  1  0.90285290  0.29330229  0.38938333  1
  Ta  Ta94  1  0.78799505  0.60868585  0.50237614  1
  Ta  Ta95  1  0.20128622  0.00151745  0.01452730  1
  Ta  Ta96  1  0.00958791  0.00842228  0.00289922  1
  Ta  Ta97  1  0.49118032  0.50445691  0.60738232  1
  Ta  Ta98  1  0.89246903  0.30425587  0.87224398  1
  Ta  Ta99  1  0.61034548  0.20084136  -0.00748231  1
  Ta  Ta100  1  0.20527757  0.41471661  0.25873421  1
  Ta  Ta101  1  0.70610915  0.69668942  0.36970971  1
  Ta  Ta102  1  0.09584094  0.91112770  0.63126778  1
  Ta  Ta103  1  0.40214474  0.58995143  0.74841329  1
  Ta  Ta104  1  0.50064808  0.30145342  0.38385514  1
  Ta  Ta105  1  0.39765424  0.38909137  0.50637333  1
  Ta  Ta106  1  0.10653484  0.30374733  0.13219187  1
  Ta  Ta107  1  0.40302800  0.79934368  0.00367466  1
  Ta  Ta108  1  0.40568187  0.20417073  0.25456805  1
  Ta  Ta109  1  0.00288922  0.00198547  0.24251505  1
  Ta  Ta110  1  0.78732553  0.39952439  0.51862835  1
  Ta  Ta111  1  0.89107143  0.70505890  0.37079737  1
  Ta  Ta112  1  0.59457681  0.80101357  -0.00760417  1
  Ta  Ta113  1  0.10320802  0.50022125  0.12219026  1
  Ta  Ta114  1  0.01107118  0.19605254  0.24660846  1
  Ta  Ta115  1  0.60638536  0.20196096  0.73770148  1
  Ta  Ta116  1  0.21851712  0.79977986  0.00832393  1
  Ta  Ta117  1  0.20999716  0.81091629  0.73802972  1
  Ta  Ta118  1  0.19303504  0.59929463  0.47908854  1
  Ta  Ta119  1  0.30002055  0.89228965  0.87893398  1
  Ti  Ti120  1  0.11037597  0.89667136  0.12275614  1
  Ti  Ti121  1  0.71163801  0.48425558  0.87224003  1
  Ti  Ti122  1  0.89867017  0.69159081  0.11866863  1
  Ti  Ti123  1  0.09830312  0.10231968  0.86559822  1
  Ti  Ti124  1  0.90755148  0.10994089  0.87386842  1
  Ti  Ti125  1  0.39540172  -0.00134859  0.24380009  1
  Ti  Ti126  1  0.00931859  0.18664130  0.51428539  1
  Ti  Ti127  1  0.90023518  0.92216973  0.88141645  1
  Ti  Ti128  1  0.50035737  0.30142511  0.62047368  1
  Ti  Ti129  1  0.68500245  0.50356457  0.38552107  1
  Ti  Ti130  1  0.10467044  0.91092519  0.37599919  1
  Ti  Ti131  1  0.20514917  0.41307002  0.00807261  1
  Ti  Ti132  1  0.19227003  0.81381634  0.50188522  1
  Ti  Ti133  1  0.60070153  -0.00155581  -0.00261416  1
  Ti  Ti134  1  0.19817633  0.00166493  0.73683006  1
  Ti  Ti135  1  0.11177215  0.29010338  0.61224406  1
  Ti  Ti136  1  0.48838975  0.49189201  0.39579760  1
  Ti  Ti137  1  0.81062053  0.79285833  0.50180036  1
  Ti  Ti138  1  0.38176102  0.18641432  0.50021738  1
  Ti  Ti139  1  0.69905733  0.70277554  0.11409804  1
  Ti  Ti140  1  0.30019078  0.51209497  0.87394774  1
  Ti  Ti141  1  0.80966121  -0.00354649  0.74886014  1
  Ti  Ti142  1  0.49572419  0.90053588  0.87917875  1
  Ti  Ti143  1  0.10770875  0.10533412  0.37647339  1
  Ti  Ti144  1  0.70933038  0.29113395  0.86226728  1
  Ti  Ti145  1  0.71106307  0.89259728  0.37593662  1
  Ti  Ti146  1  0.59692786  0.59996133  0.49725865  1
  Ti  Ti147  1  0.47934263  0.69736529  0.87860860  1
  Ti  Ti148  1  0.29837617  0.49869561  0.59919049  1
  Ti  Ti149  1  0.60961979  0.20399139  0.26651153  1
  Ti  Ti150  1  0.70140973  0.30677742  0.38999242  1
  Ti  Ti151  1  0.39660236  0.81242036  0.49936679  1
  Ti  Ti152  1  0.39946722  0.40810977  -0.00948133  1
  Ti  Ti153  1  0.69955433  0.90784043  0.88296569  1
  Ti  Ti154  1  0.08903122  0.72442114  0.38330701  1
  Ti  Ti155  1  0.00455742  -0.00520800  0.50650945  1
  Ti  Ti156  1  0.80351815  0.79628418  0.23999654  1
  Ti  Ti157  1  0.60518460  -0.00228489  0.49139410  1
  Ti  Ti158  1  0.10693111  0.69749568  0.12164406  1
  Ti  Ti159  1  -0.01209038  0.40728565  0.00538433  1
  Mo  Mo160  1  0.69625429  0.69986377  0.88350437  1
  Mo  Mo161  1  0.88946838  0.51136891  0.61595528  1
  Mo  Mo162  1  0.39830829  -0.00364853  0.49208839  1
  Mo  Mo163  1  0.90427021  0.50240992  0.12011658  1
  Mo  Mo164  1  0.09272024  0.09767010  0.63091814  1
  Mo  Mo165  1  0.69220407  0.29178315  0.12798029  1
  Mo  Mo166  1  0.19918645  0.20030568  0.50705340  1
  Mo  Mo167  1  -0.00057994  0.80642773  0.50250098  1
  Mo  Mo168  1  0.30125473  0.90419367  0.13107470  1
  Mo  Mo169  1  0.80512658  0.00115930  -0.00811182  1
  Mo  Mo170  1  0.19638887  0.20764154  0.24535272  1
  Mo  Mo171  1  0.70643594  0.70920349  0.63245105  1
  Mo  Mo172  1  0.09839618  0.10306492  0.12528402  1
  Mo  Mo173  1  0.19368204  0.81128167  0.25820410  1
  Mo  Mo174  1  0.60822378  0.59721155  0.25037894  1
  Mo  Mo175  1  0.28361103  0.50407902  0.13080109  1
  Mo  Mo176  1  -0.00586440  0.01344198  0.75168250  1
  Mo  Mo177  1  0.00111143  0.19139435  0.74027468  1
  Mo  Mo178  1  0.29564567  0.49465425  0.39614251  1
  Mo  Mo179  1  0.90177563  0.48761200  0.87302668  1
  Mo  Mo180  1  0.09802478  0.49605408  0.38524414  1
  Mo  Mo181  1  0.59716327  0.40222631  0.50118109  1
  Mo  Mo182  1  0.19877511  0.39908678  0.50644672  1
  Mo  Mo183  1  0.40328662  0.19768036  0.74881742  1
  Mo  Mo184  1  0.69407456  0.29786034  0.62628054  1
  Mo  Mo185  1  0.19880126  0.60281196  0.01114349  1
  Mo  Mo186  1  0.30731906  0.29015027  0.61099828  1
  Mo  Mo187  1  0.40245394  0.39474223  0.26313747  1
  Mo  Mo188  1  0.90685343  0.70199375  0.87444152  1
  Mo  Mo189  1  0.90447330  0.29293191  0.61017015  1
  Mo  Mo190  1  0.30457245  0.70525443  0.87444896  1
  Mo  Mo191  1  0.91014265  0.08458380  0.62361593  1
  Mo  Mo192  1  0.79628561  0.20812277  -0.01113149  1
  Mo  Mo193  1  0.80155279  0.38816011  -0.00980256  1
  Mo  Mo194  1  0.39873805  0.59950073  0.49012926  1
  Mo  Mo195  1  0.30032575  0.09788993  0.62544439  1
  Mo  Mo196  1  0.48133142  0.49943456  0.87562965  1
  Mo  Mo197  1  0.40367140  0.80828280  0.25364057  1
  Mo  Mo198  1  0.29401112  0.89135728  0.61995945  1
  Mo  Mo199  1  0.69773602  0.09251250  0.38646208  1
