# generated using pymatgen
data_HfZrTaTiMo
_symmetry_space_group_name_H-M   'P 1'
_cell_length_a   15.21502057
_cell_length_b   15.20122654
_cell_length_c   16.85815437
_cell_angle_alpha   90.02741387
_cell_angle_beta   90.02063380
_cell_angle_gamma   90.06367077
_symmetry_Int_Tables_number   1
_chemical_formula_structural   HfZrTaTiMo
_chemical_formula_sum   'Hf40 Zr40 Ta40 Ti40 Mo40'
_cell_volume   3899.06841364
_cell_formula_units_Z   40
loop_
 _symmetry_equiv_pos_site_id
 _symmetry_equiv_pos_as_xyz
  1  'x, y, z'
loop_
 _atom_site_type_symbol
 _atom_site_label
 _atom_site_symmetry_multiplicity
 _atom_site_fract_x
 _atom_site_fract_y
 _atom_site_fract_z
 _atom_site_occupancy
  Hf  Hf0  1  0.40911750  0.20508085  0.73592382  1
  Hf  Hf1  1  0.81453141  0.60059597  0.25894272  1
  Hf  Hf2  1  0.11509179  0.30851855  0.86844324  1
  Hf  Hf3  1  0.19738650  0.19866047  0.23907894  1
  Hf  Hf4  1  0.69508291  0.71124443  0.62824943  1
  Hf  Hf5  1  0.09233209  0.69947327  0.12241588  1
  Hf  Hf6  1  0.11752927  0.90527454  0.37793020  1
  Hf  Hf7  1  0.58926604  0.39551187  0.74521357  1
  Hf  Hf8  1  0.90072302  0.51141507  0.11020809  1
  Hf  Hf9  1  0.39245136  0.81154672  0.50704412  1
  Hf  Hf10  1  0.20419336  0.82538528  0.22674656  1
  Hf  Hf11  1  0.31371968  0.30463001  0.87104941  1
  Hf  Hf12  1  0.79831734  0.59890591  0.49431032  1
  Hf  Hf13  1  0.50078734  0.70800776  0.37284649  1
  Hf  Hf14  1  0.39950050  0.00087380  0.75983288  1
  Hf  Hf15  1  0.18277728  0.59366775  0.74552959  1
  Hf  Hf16  1  0.40042889  0.79374692  -0.00386149  1
  Hf  Hf17  1  0.80601627  0.20522613  0.49348430  1
  Hf  Hf18  1  0.30056357  0.67869536  0.11535647  1
  Hf  Hf19  1  0.89477605  0.31120485  0.12264256  1
  Hf  Hf20  1  0.79686360  0.20827025  0.25548305  1
  Hf  Hf21  1  0.20722203  0.19509965  0.74410091  1
  Hf  Hf22  1  0.38426449  0.18760911  0.51759590  1
  Hf  Hf23  1  0.89983377  0.29894526  0.63929029  1
  Hf  Hf24  1  0.71178471  0.09726687  0.62210793  1
  Hf  Hf25  1  0.40022608  0.80756334  0.23280804  1
  Hf  Hf26  1  0.00343828  0.19611064  -0.01526865  1
  Hf  Hf27  1  0.59650471  0.18186790  0.00061471  1
  Hf  Hf28  1  -0.00203540  0.78270921  0.76042238  1
  Hf  Hf29  1  0.28762074  0.28324192  0.38432183  1
  Hf  Hf30  1  0.10873208  0.10632277  0.38191919  1
  Hf  Hf31  1  0.80196257  0.20912259  -0.00324064  1
  Hf  Hf32  1  0.82171562  0.00225407  0.25290998  1
  Hf  Hf33  1  0.19824499  0.57588696  0.25104534  1
  Hf  Hf34  1  0.49343627  0.49137745  0.11087162  1
  Hf  Hf35  1  0.90558863  0.52716362  0.88664688  1
  Hf  Hf36  1  0.09595965  0.09442115  0.63335654  1
  Hf  Hf37  1  0.48462846  0.49400780  0.87887801  1
  Hf  Hf38  1  0.79956290  0.41643498  0.76165706  1
  Hf  Hf39  1  -0.00540306  0.19831312  0.25471738  1
  Zr  Zr40  1  0.59832638  0.60364854  0.49980465  1
  Zr  Zr41  1  0.09770479  0.88853426  0.63601375  1
  Zr  Zr42  1  0.60953966  -0.01926486  0.49591611  1
  Zr  Zr43  1  0.70161163  0.10432129  0.37648505  1
  Zr  Zr44  1  0.90405588  0.09520859  0.63808884  1
  Zr  Zr45  1  0.70163480  0.29299452  0.86647071  1
  Zr  Zr46  1  0.10130725  0.68177497  0.88779441  1
  Zr  Zr47  1  -0.00860251  0.81191137  0.24977954  1
  Zr  Zr48  1  0.00090839  0.41673025  0.25227265  1
  Zr  Zr49  1  0.40250883  0.18023714  0.24799134  1
  Zr  Zr50  1  0.71521987  0.70712696  0.87229309  1
  Zr  Zr51  1  0.48849906  0.69310469  0.63978766  1
  Zr  Zr52  1  0.40142237  0.01022143  -0.01227465  1
  Zr  Zr53  1  0.51218464  0.68968958  0.11461092  1
  Zr  Zr54  1  0.40648658  0.59194441  0.25685515  1
  Zr  Zr55  1  0.60866622  0.19115334  0.73891370  1
  Zr  Zr56  1  0.21808585  0.38992858  0.01606656  1
  Zr  Zr57  1  0.49907136  0.08248853  0.61768153  1
  Zr  Zr58  1  0.79583220  0.00987356  0.00052980  1
  Zr  Zr59  1  0.39530408  0.60043772  0.49409482  1
  Zr  Zr60  1  0.60163780  0.38750843  -0.00924744  1
  Zr  Zr61  1  0.69981991  0.70363106  0.36873062  1
  Zr  Zr62  1  0.48551402  0.30629976  0.39193388  1
  Zr  Zr63  1  0.70206788  0.49854013  0.11740156  1
  Zr  Zr64  1  0.31164715  0.06069042  0.36666944  1
  Zr  Zr65  1  0.10210050  0.50302415  0.11009680  1
  Zr  Zr66  1  0.88347754  0.89933016  0.86475723  1
  Zr  Zr67  1  0.48377503  0.90984874  0.37032180  1
  Zr  Zr68  1  0.90461255  0.70723893  0.61121678  1
  Zr  Zr69  1  0.51355348  0.90785913  0.11044145  1
  Zr  Zr70  1  0.69524390  0.09829438  0.13381112  1
  Zr  Zr71  1  0.22165299  -0.00483254  0.51776546  1
  Zr  Zr72  1  0.10123151  0.69867117  0.36659793  1
  Zr  Zr73  1  0.90360400  0.50188318  0.62047978  1
  Zr  Zr74  1  0.38763331  0.38406544  0.23397825  1
  Zr  Zr75  1  0.30265183  0.48175191  0.38404175  1
  Zr  Zr76  1  0.28313069  0.50135360  0.87307172  1
  Zr  Zr77  1  0.58280816  0.00996580  0.25584948  1
  Zr  Zr78  1  0.79578255  0.80982842  0.00581354  1
  Zr  Zr79  1  0.89613103  0.70794575  0.12373535  1
  Ta  Ta80  1  -0.00315804  0.39246757  0.49909861  1
  Ta  Ta81  1  0.70466185  0.89402020  0.36138672  1
  Ta  Ta82  1  0.68568592  0.31571414  0.37914078  1
  Ta  Ta83  1  0.90225247  0.70806322  0.38199476  1
  Ta  Ta84  1  0.09636855  0.50065457  0.61181362  1
  Ta  Ta85  1  0.29773277  0.50955472  0.62531651  1
  Ta  Ta86  1  0.18851173  -0.00256195  -0.02010488  1
  Ta  Ta87  1  0.69973858  0.50760387  0.63370644  1
  Ta  Ta88  1  0.60166067  0.40508270  0.51633755  1
  Ta  Ta89  1  0.79116600  0.81637867  0.49736583  1
  Ta  Ta90  1  0.09419939  0.08880080  0.11563574  1
  Ta  Ta91  1  -0.00017839  0.00160999  0.49850032  1
  Ta  Ta92  1  0.09233310  0.30483044  0.63540170  1
  Ta  Ta93  1  0.60515529  0.80514399  0.75982115  1
  Ta  Ta94  1  0.19914572  0.39465891  0.51358158  1
  Ta  Ta95  1  0.69991705  0.69656056  0.12943755  1
  Ta  Ta96  1  0.90850101  0.10600888  0.12200011  1
  Ta  Ta97  1  -0.00119601  0.20131136  0.49780236  1
  Ta  Ta98  1  0.50764846  0.88748430  0.63501378  1
  Ta  Ta99  1  0.19620781  -0.00657642  0.76796152  1
  Ta  Ta100  1  0.39241980  0.40680858  0.73603646  1
  Ta  Ta101  1  0.60940407  0.57946517  0.25480860  1
  Ta  Ta102  1  0.90397182  0.90446978  0.37811239  1
  Ta  Ta103  1  -0.00050492  0.80687110  0.49574060  1
  Ta  Ta104  1  0.00226257  0.81137632  -0.00968378  1
  Ta  Ta105  1  0.89646388  0.30807395  0.37607858  1
  Ta  Ta106  1  0.50761173  0.89820704  0.87546276  1
  Ta  Ta107  1  0.81365353  0.61922443  0.74982351  1
  Ta  Ta108  1  0.78362227  0.40758524  0.25959889  1
  Ta  Ta109  1  0.09983054  0.30802732  0.37707403  1
  Ta  Ta110  1  0.19828300  0.60495708  0.50307407  1
  Ta  Ta111  1  0.60309541  0.21126873  0.51296032  1
  Ta  Ta112  1  0.01471527  0.42112223  0.76023493  1
  Ta  Ta113  1  0.49778235  0.69401630  0.87104261  1
  Ta  Ta114  1  0.10053283  0.49573228  0.39114445  1
  Ta  Ta115  1  0.59178953  0.22047548  0.25260447  1
  Ta  Ta116  1  0.60413423  0.59446092  0.75989513  1
  Ta  Ta117  1  0.29124393  0.08743367  0.11638820  1
  Ta  Ta118  1  0.29436415  0.88741246  0.87374455  1
  Ta  Ta119  1  0.19746313  0.80485331  0.00553434  1
  Ti  Ti120  1  0.90405603  0.30484119  0.86693713  1
  Ti  Ti121  1  0.70159934  0.90246258  0.63135393  1
  Ti  Ti122  1  0.89566994  0.90171690  0.63056525  1
  Ti  Ti123  1  0.60357252  0.79411214  0.24285751  1
  Ti  Ti124  1  0.49559569  0.50069029  0.62827307  1
  Ti  Ti125  1  0.60926209  0.59730141  -0.01620508  1
  Ti  Ti126  1  0.00035525  0.19763180  0.76702815  1
  Ti  Ti127  1  0.79667811  0.41094315  -0.01677654  1
  Ti  Ti128  1  -0.00091500  0.00479043  -0.02152683  1
  Ti  Ti129  1  0.79316703  0.40071127  0.49901003  1
  Ti  Ti130  1  0.30249652  0.69091827  0.87672418  1
  Ti  Ti131  1  0.29545705  0.71128829  0.36777243  1
  Ti  Ti132  1  0.70633188  0.30722715  0.63009209  1
  Ti  Ti133  1  0.68888066  0.30526358  0.13026882  1
  Ti  Ti134  1  0.39593131  0.79360122  0.76060627  1
  Ti  Ti135  1  0.51499500  0.48892093  0.37889421  1
  Ti  Ti136  1  0.30436809  0.89871336  0.64590146  1
  Ti  Ti137  1  0.18893579  0.20011542  0.51862821  1
  Ti  Ti138  1  0.01917772  0.00441741  0.25009659  1
  Ti  Ti139  1  0.70273037  0.08969866  0.86828124  1
  Ti  Ti140  1  0.91581761  0.91618976  0.12000053  1
  Ti  Ti141  1  0.09556314  0.69329442  0.61918256  1
  Ti  Ti142  1  0.28939856  0.70593635  0.63856228  1
  Ti  Ti143  1  0.20095433  0.19194463  0.00175821  1
  Ti  Ti144  1  0.79076643  0.00101887  0.75343050  1
  Ti  Ti145  1  0.09633077  0.29459889  0.12285229  1
  Ti  Ti146  1  0.81373393  0.00094731  0.49261037  1
  Ti  Ti147  1  0.60740965  0.80347842  -0.00762785  1
  Ti  Ti148  1  0.49372982  0.10209076  0.12361721  1
  Ti  Ti149  1  0.70971095  0.89554330  0.14022269  1
  Ti  Ti150  1  0.50327039  0.10947425  0.39625232  1
  Ti  Ti151  1  0.29835187  0.30711604  0.62503411  1
  Ti  Ti152  1  0.49693651  0.28835786  0.87592586  1
  Ti  Ti153  1  0.00369983  0.00297678  0.77294326  1
  Ti  Ti154  1  0.90594112  0.50305129  0.38442962  1
  Ti  Ti155  1  0.20058608  0.79496367  0.50353991  1
  Ti  Ti156  1  0.30155765  0.10945752  0.87753818  1
  Ti  Ti157  1  0.39524796  0.21469927  0.01262047  1
  Ti  Ti158  1  0.51278629  0.09475574  0.86964350  1
  Ti  Ti159  1  0.00263187  0.40018612  -0.01089969  1
  Mo  Mo160  1  0.78926961  0.60583630  0.00172021  1
  Mo  Mo161  1  0.29243479  0.09260986  0.63852104  1
  Mo  Mo162  1  0.19671835  0.00215807  0.23795370  1
  Mo  Mo163  1  0.40256543  -0.00937710  0.51214455  1
  Mo  Mo164  1  0.91180275  0.09972941  0.38053247  1
  Mo  Mo165  1  0.39863830  0.40085365  0.52038661  1
  Mo  Mo166  1  -0.00184940  0.61097018  0.00204830  1
  Mo  Mo167  1  -0.00450240  0.59536012  0.74629930  1
  Mo  Mo168  1  0.09853782  0.49257830  0.88984048  1
  Mo  Mo169  1  0.89458198  0.10873072  0.86258723  1
  Mo  Mo170  1  0.90212968  0.70836347  0.88151920  1
  Mo  Mo171  1  0.00081991  0.59882537  0.26406530  1
  Mo  Mo172  1  0.60389757  -0.00667004  -0.00378467  1
  Mo  Mo173  1  0.00538350  0.60141676  0.49042397  1
  Mo  Mo174  1  0.70386515  0.49251077  0.37942834  1
  Mo  Mo175  1  0.39819432  0.60092986  0.75065258  1
  Mo  Mo176  1  0.50530383  0.28811828  0.12226758  1
  Mo  Mo177  1  0.20057656  0.39976088  0.73329762  1
  Mo  Mo178  1  0.59334679  0.40038233  0.25008728  1
  Mo  Mo179  1  0.40263006  0.59458190  -0.00874047  1
  Mo  Mo180  1  0.79988925  0.80900572  0.73978505  1
  Mo  Mo181  1  0.29410754  0.90372322  0.09825315  1
  Mo  Mo182  1  0.29709653  0.28413484  0.12489286  1
  Mo  Mo183  1  0.29547580  0.88226893  0.37246488  1
  Mo  Mo184  1  0.40454652  0.38824482  0.00596170  1
  Mo  Mo185  1  0.60234773  0.80515961  0.50262136  1
  Mo  Mo186  1  0.69668707  0.50831656  0.86930399  1
  Mo  Mo187  1  0.79754939  0.80779308  0.24609536  1
  Mo  Mo188  1  0.10663396  0.10270667  0.87275221  1
  Mo  Mo189  1  0.19200556  0.38787887  0.24315605  1
  Mo  Mo190  1  0.37629576  -0.01729232  0.22227259  1
  Mo  Mo191  1  0.80806698  0.19970512  0.75748509  1
  Mo  Mo192  1  0.60056392  -0.00678940  0.74914533  1
  Mo  Mo193  1  0.20732370  0.60435021  0.00091446  1
  Mo  Mo194  1  0.08938584  0.91266752  0.10984828  1
  Mo  Mo195  1  0.49759690  0.30689132  0.61452801  1
  Mo  Mo196  1  0.09950491  0.89349237  0.87175956  1
  Mo  Mo197  1  0.68773852  0.91014781  0.86986094  1
  Mo  Mo198  1  0.30170414  0.49365681  0.12294721  1
  Mo  Mo199  1  0.20728571  0.79555346  0.75512898  1
