# generated using pymatgen
data_HfZrTaTiMo
_symmetry_space_group_name_H-M   'P 1'
_cell_length_a   15.19618568
_cell_length_b   15.20844861
_cell_length_c   16.84065263
_cell_angle_alpha   90.04528681
_cell_angle_beta   89.98090496
_cell_angle_gamma   90.07558109
_symmetry_Int_Tables_number   1
_chemical_formula_structural   HfZrTaTiMo
_chemical_formula_sum   'Hf40 Zr40 Ta40 Ti40 Mo40'
_cell_volume   3892.04530004
_cell_formula_units_Z   40
loop_
 _symmetry_equiv_pos_site_id
 _symmetry_equiv_pos_as_xyz
  1  'x, y, z'
loop_
 _atom_site_type_symbol
 _atom_site_label
 _atom_site_symmetry_multiplicity
 _atom_site_fract_x
 _atom_site_fract_y
 _atom_site_fract_z
 _atom_site_occupancy
  Hf  Hf0  1  0.11444475  0.70087654  0.62733019  1
  Hf  Hf1  1  0.01113138  0.60050975  0.74912766  1
  Hf  Hf2  1  0.59019095  0.77471131  0.51012189  1
  Hf  Hf3  1  0.19960054  0.79806831  0.49253574  1
  Hf  Hf4  1  -0.00245644  0.40899392  0.75729685  1
  Hf  Hf5  1  0.39064874  0.79656392  0.73761011  1
  Hf  Hf6  1  0.07496705  0.89703017  0.61706062  1
  Hf  Hf7  1  0.49401391  0.09973348  0.11186781  1
  Hf  Hf8  1  0.60391389  0.60452422  -0.00857411  1
  Hf  Hf9  1  0.80077749  0.79475416  0.27046315  1
  Hf  Hf10  1  0.10986169  0.30503716  0.87003465  1
  Hf  Hf11  1  0.20994362  0.80574008  0.01352219  1
  Hf  Hf12  1  0.89112858  0.88115032  0.87466567  1
  Hf  Hf13  1  0.29569545  0.30982183  0.37398614  1
  Hf  Hf14  1  0.79136402  0.19941598  -0.01232095  1
  Hf  Hf15  1  -0.01160951  -0.01340160  0.74851414  1
  Hf  Hf16  1  0.81215509  0.78083236  0.48427729  1
  Hf  Hf17  1  0.18266610  0.00743211  0.49242804  1
  Hf  Hf18  1  0.39863309  0.40634565  0.50704674  1
  Hf  Hf19  1  0.29591872  0.89637686  0.86924633  1
  Hf  Hf20  1  0.39294711  0.19580777  0.24287031  1
  Hf  Hf21  1  0.89924640  0.08763685  0.87198992  1
  Hf  Hf22  1  -0.00549760  0.20323468  -0.01437969  1
  Hf  Hf23  1  0.49386082  0.90213307  0.61150749  1
  Hf  Hf24  1  0.50859351  0.89416399  0.87307539  1
  Hf  Hf25  1  0.00088723  0.80860957  0.25334691  1
  Hf  Hf26  1  0.37739874  0.20142482  0.77173486  1
  Hf  Hf27  1  0.70588176  0.67690997  0.62259666  1
  Hf  Hf28  1  0.08994997  0.29695693  0.37357092  1
  Hf  Hf29  1  0.50614023  0.49597610  0.11539549  1
  Hf  Hf30  1  0.69750642  0.09162955  0.62180002  1
  Hf  Hf31  1  0.29739218  0.90019547  0.37272697  1
  Hf  Hf32  1  0.20240778  0.00375142  0.74977013  1
  Hf  Hf33  1  0.79997878  0.39371474  0.76604490  1
  Hf  Hf34  1  0.50498357  0.30310503  0.12279338  1
  Hf  Hf35  1  0.08913839  0.11389836  0.12169553  1
  Hf  Hf36  1  0.58687726  0.19368035  0.76092436  1
  Hf  Hf37  1  0.18245883  0.40922998  0.50881282  1
  Hf  Hf38  1  0.00608154  0.60127538  0.24748240  1
  Hf  Hf39  1  0.00166178  0.61006321  -0.00614708  1
  Zr  Zr40  1  0.30018850  0.52212522  0.62391873  1
  Zr  Zr41  1  0.38366587  -0.00698846  0.00815002  1
  Zr  Zr42  1  0.69839321  0.88386507  0.13554951  1
  Zr  Zr43  1  0.00610669  0.80444003  0.01588343  1
  Zr  Zr44  1  0.51020854  0.30048282  0.36085339  1
  Zr  Zr45  1  0.68549402  0.90136058  0.38833925  1
  Zr  Zr46  1  0.79029785  0.00998564  0.26134352  1
  Zr  Zr47  1  0.69062022  0.07281563  0.87143186  1
  Zr  Zr48  1  0.50222084  0.50378645  0.38418093  1
  Zr  Zr49  1  0.11032000  0.71857424  0.86454783  1
  Zr  Zr50  1  0.70858982  0.29171788  0.36811799  1
  Zr  Zr51  1  0.79885968  0.20623132  0.50706199  1
  Zr  Zr52  1  0.80163637  0.78917813  0.00645975  1
  Zr  Zr53  1  0.21068295  0.19849754  -0.01258010  1
  Zr  Zr54  1  0.89563866  0.49510492  0.11982431  1
  Zr  Zr55  1  0.59786825  -0.01186375  0.73737356  1
  Zr  Zr56  1  0.51092173  0.70992642  0.13451683  1
  Zr  Zr57  1  0.79241748  -0.00965547  0.00971491  1
  Zr  Zr58  1  0.19474166  0.40694647  0.24611269  1
  Zr  Zr59  1  0.60921036  0.58278608  0.25060009  1
  Zr  Zr60  1  0.70853727  0.30078710  0.12471991  1
  Zr  Zr61  1  -0.00562161  0.01494095  0.25969614  1
  Zr  Zr62  1  0.58091345  -0.02471600  0.23804146  1
  Zr  Zr63  1  0.40205575  0.20505087  0.50179787  1
  Zr  Zr64  1  0.39941640  0.41260410  0.24593939  1
  Zr  Zr65  1  0.48514850  0.89390637  0.39220642  1
  Zr  Zr66  1  0.00124285  0.59353575  0.50754979  1
  Zr  Zr67  1  0.51506890  0.50941640  0.62578854  1
  Zr  Zr68  1  0.09940942  0.11017020  0.63195683  1
  Zr  Zr69  1  0.51413452  0.08952083  0.37740571  1
  Zr  Zr70  1  0.29994884  0.10430019  0.37254872  1
  Zr  Zr71  1  0.81376957  0.59978717  0.76039183  1
  Zr  Zr72  1  0.29137205  0.30212441  0.63526164  1
  Zr  Zr73  1  0.80594518  0.59590680  -0.01435720  1
  Zr  Zr74  1  0.62166141  0.17739653  0.24123658  1
  Zr  Zr75  1  0.39728318  0.60188136  -0.00273952  1
  Zr  Zr76  1  0.71252017  0.49850850  0.38915156  1
  Zr  Zr77  1  0.90281566  0.30062945  0.62785537  1
  Zr  Zr78  1  0.61092012  0.38765393  0.51120015  1
  Zr  Zr79  1  0.20489249  0.60417797  0.25486233  1
  Ta  Ta80  1  0.50615000  0.70333174  0.36547016  1
  Ta  Ta81  1  0.20042188  0.41883419  0.74808152  1
  Ta  Ta82  1  0.59669646  0.19501022  -0.01268250  1
  Ta  Ta83  1  0.30075646  0.10217091  0.62535049  1
  Ta  Ta84  1  0.90448637  0.31081170  0.37865221  1
  Ta  Ta85  1  0.18733745  -0.00140607  -0.00284802  1
  Ta  Ta86  1  0.12023767  0.50613107  0.88339811  1
  Ta  Ta87  1  0.10310529  0.91179988  0.13228547  1
  Ta  Ta88  1  0.19689175  0.20503005  0.50117316  1
  Ta  Ta89  1  0.19175961  0.00358375  0.25686396  1
  Ta  Ta90  1  0.40083509  0.00583310  0.74399289  1
  Ta  Ta91  1  0.90274043  0.08586383  0.62089588  1
  Ta  Ta92  1  0.91079480  0.49716778  0.37707789  1
  Ta  Ta93  1  0.70913172  0.68283988  0.13227806  1
  Ta  Ta94  1  0.29806631  0.30224741  0.11335726  1
  Ta  Ta95  1  0.50392393  0.70182383  0.86576026  1
  Ta  Ta96  1  0.09968452  0.31153590  0.11351350  1
  Ta  Ta97  1  0.80861126  0.59802635  0.25619950  1
  Ta  Ta98  1  0.70108733  0.71446573  0.86490662  1
  Ta  Ta99  1  0.48498467  0.09057342  0.88542693  1
  Ta  Ta100  1  0.49784697  0.29449031  0.63818165  1
  Ta  Ta101  1  0.79908092  0.19023220  0.75404929  1
  Ta  Ta102  1  0.18699085  0.20247188  0.24333616  1
  Ta  Ta103  1  0.10157037  0.50344533  0.11207788  1
  Ta  Ta104  1  0.90646888  0.11489615  0.38443721  1
  Ta  Ta105  1  0.30138261  0.70421456  0.13204571  1
  Ta  Ta106  1  0.60022953  0.38814106  -0.02157623  1
  Ta  Ta107  1  0.88767101  0.10264618  0.12297341  1
  Ta  Ta108  1  0.80484321  0.39128117  -0.02480713  1
  Ta  Ta109  1  0.59501885  0.39636072  0.76430333  1
  Ta  Ta110  1  0.80244262  0.80378679  0.73836466  1
  Ta  Ta111  1  -0.00351483  0.19846781  0.75674891  1
  Ta  Ta112  1  0.41215842  0.62868732  0.50408453  1
  Ta  Ta113  1  0.90912726  0.29770304  0.11934553  1
  Ta  Ta114  1  0.19946558  0.80389974  0.24865195  1
  Ta  Ta115  1  0.60274898  0.79102125  0.73377517  1
  Ta  Ta116  1  0.59622082  0.18958707  0.50968458  1
  Ta  Ta117  1  -0.00427469  -0.00249643  0.00608429  1
  Ta  Ta118  1  0.20196163  0.60834557  0.00505480  1
  Ta  Ta119  1  0.69461239  0.49959255  0.87331444  1
  Ti  Ti120  1  -0.00091159  0.40431805  -0.01472688  1
  Ti  Ti121  1  0.31296302  0.70566985  0.37143654  1
  Ti  Ti122  1  0.40175473  0.21190393  -0.01571347  1
  Ti  Ti123  1  0.82191647  0.20126467  0.25047068  1
  Ti  Ti124  1  0.30350865  0.33672308  0.88380403  1
  Ti  Ti125  1  0.60096654  0.59452942  0.76025029  1
  Ti  Ti126  1  0.71008960  0.89152747  0.60527545  1
  Ti  Ti127  1  0.09415382  0.90367896  0.87199371  1
  Ti  Ti128  1  0.71198249  0.48892637  0.62946014  1
  Ti  Ti129  1  0.48676951  0.49359237  0.87918421  1
  Ti  Ti130  1  -0.00308805  0.39675663  0.24306531  1
  Ti  Ti131  1  0.30642620  0.69968341  0.87638232  1
  Ti  Ti132  1  0.00633474  0.20033566  0.50411960  1
  Ti  Ti133  1  0.59659303  -0.00915671  0.01017263  1
  Ti  Ti134  1  0.39914333  0.60490821  0.24857135  1
  Ti  Ti135  1  0.70197972  0.48905224  0.11641824  1
  Ti  Ti136  1  0.40723788  0.79839388  0.00618012  1
  Ti  Ti137  1  0.28493572  0.89877116  0.62227931  1
  Ti  Ti138  1  0.30394912  0.51134692  0.38342456  1
  Ti  Ti139  1  0.29890327  0.49789521  0.11666760  1
  Ti  Ti140  1  0.39310853  0.00775928  0.50997875  1
  Ti  Ti141  1  0.40542100  0.80769458  0.24337069  1
  Ti  Ti142  1  0.09821327  0.49889617  0.37768234  1
  Ti  Ti143  1  0.90061632  0.70615281  0.13384690  1
  Ti  Ti144  1  0.80111182  0.40274404  0.24956107  1
  Ti  Ti145  1  0.91147528  0.71438160  0.62196674  1
  Ti  Ti146  1  0.80774580  -0.00223852  0.49074935  1
  Ti  Ti147  1  0.69444343  0.29597283  0.64021206  1
  Ti  Ti148  1  0.10421619  0.09633399  0.86921841  1
  Ti  Ti149  1  0.20751410  0.60545515  0.49269066  1
  Ti  Ti150  1  0.09831965  0.30546712  0.63572061  1
  Ti  Ti151  1  0.09204632  0.70561444  0.37999124  1
  Ti  Ti152  1  0.79460663  -0.01308043  0.73995421  1
  Ti  Ti153  1  0.82127034  0.40950787  0.51104508  1
  Ti  Ti154  1  0.28402671  0.09691575  0.12633805  1
  Ti  Ti155  1  0.21632993  0.61344531  0.75192853  1
  Ti  Ti156  1  0.40129742  0.40767091  0.75246795  1
  Ti  Ti157  1  0.40538600  0.60060676  0.75446768  1
  Ti  Ti158  1  0.60368382  0.80072820  -0.00093860  1
  Ti  Ti159  1  0.38751270  -0.00568202  0.23452371  1
  Mo  Mo160  1  0.29392455  0.90143013  0.13766974  1
  Mo  Mo161  1  0.69519541  0.29160549  0.86714750  1
  Mo  Mo162  1  0.09866868  0.11157315  0.37562129  1
  Mo  Mo163  1  0.91046857  0.49778629  0.88202303  1
  Mo  Mo164  1  0.38879318  0.79956477  0.50916900  1
  Mo  Mo165  1  -0.01144214  0.79432677  0.74594659  1
  Mo  Mo166  1  0.61132978  0.39696832  0.24347964  1
  Mo  Mo167  1  0.69645443  0.68639786  0.37952296  1
  Mo  Mo168  1  0.00091129  0.39424306  0.50378630  1
  Mo  Mo169  1  0.30023688  0.51212201  0.87005755  1
  Mo  Mo170  1  0.00203793  0.80543693  0.48356913  1
  Mo  Mo171  1  0.90508806  0.70380206  0.86606604  1
  Mo  Mo172  1  0.69205367  0.88561787  0.86829132  1
  Mo  Mo173  1  0.60524218  0.59782753  0.49813667  1
  Mo  Mo174  1  0.19431172  0.80567013  0.74535855  1
  Mo  Mo175  1  0.19356959  0.20860415  0.76146531  1
  Mo  Mo176  1  0.60266041  0.00173218  0.51063394  1
  Mo  Mo177  1  0.80734845  0.59061574  0.50977205  1
  Mo  Mo178  1  0.48774315  0.10576336  0.62799798  1
  Mo  Mo179  1  0.88741277  0.90064130  0.61322011  1
  Mo  Mo180  1  0.70650078  0.10087309  0.39225821  1
  Mo  Mo181  1  0.10141604  0.49669771  0.63109360  1
  Mo  Mo182  1  0.90495589  0.90635113  0.13018536  1
  Mo  Mo183  1  0.30297482  0.70800242  0.62112057  1
  Mo  Mo184  1  0.10826126  0.69996976  0.13024788  1
  Mo  Mo185  1  0.50082833  0.69232673  0.64150341  1
  Mo  Mo186  1  0.90273715  0.29216857  0.86692497  1
  Mo  Mo187  1  0.49228480  0.89171572  0.11868579  1
  Mo  Mo188  1  0.09761570  0.90113032  0.37336683  1
  Mo  Mo189  1  0.89405273  0.50911086  0.62414562  1
  Mo  Mo190  1  0.90832280  0.90172312  0.38422821  1
  Mo  Mo191  1  0.49324292  0.30272622  0.87574858  1
  Mo  Mo192  1  0.29524658  0.09148555  0.87522467  1
  Mo  Mo193  1  -0.00474627  0.21370229  0.24448970  1
  Mo  Mo194  1  0.39805322  0.39898448  0.00169536  1
  Mo  Mo195  1  0.90358276  0.68478231  0.37272700  1
  Mo  Mo196  1  0.69579441  0.10187190  0.11672426  1
  Mo  Mo197  1  0.60184908  0.78616304  0.25931503  1
  Mo  Mo198  1  -0.00900189  0.00562982  0.48787475  1
  Mo  Mo199  1  0.19991181  0.41112694  0.00496500  1
