# generated using pymatgen
data_HfZrTaTiMo
_symmetry_space_group_name_H-M   'P 1'
_cell_length_a   15.20741228
_cell_length_b   15.21802557
_cell_length_c   16.86952309
_cell_angle_alpha   90.00692965
_cell_angle_beta   90.02807587
_cell_angle_gamma   89.97208201
_symmetry_Int_Tables_number   1
_chemical_formula_structural   HfZrTaTiMo
_chemical_formula_sum   'Hf40 Zr40 Ta40 Ti40 Mo40'
_cell_volume   3904.05860136
_cell_formula_units_Z   40
loop_
 _symmetry_equiv_pos_site_id
 _symmetry_equiv_pos_as_xyz
  1  'x, y, z'
loop_
 _atom_site_type_symbol
 _atom_site_label
 _atom_site_symmetry_multiplicity
 _atom_site_fract_x
 _atom_site_fract_y
 _atom_site_fract_z
 _atom_site_occupancy
  Hf  Hf0  1  0.29421836  0.70432290  0.37951106  1
  Hf  Hf1  1  0.20415750  0.40646207  0.76011235  1
  Hf  Hf2  1  0.10161067  0.08757926  0.38359005  1
  Hf  Hf3  1  0.79659913  0.39403811  0.27452207  1
  Hf  Hf4  1  -0.01101508  0.02124816  0.73856029  1
  Hf  Hf5  1  0.42619980  0.41458829  0.01433387  1
  Hf  Hf6  1  0.80519097  0.40181402  0.49187964  1
  Hf  Hf7  1  0.39754557  0.60086076  0.50323948  1
  Hf  Hf8  1  0.00533606  0.41150835  0.25729879  1
  Hf  Hf9  1  0.60780724  0.40639995  0.49809024  1
  Hf  Hf10  1  0.31462823  0.09790733  0.87819967  1
  Hf  Hf11  1  0.31337777  0.11839090  0.63191364  1
  Hf  Hf12  1  0.53541420  0.29738546  0.11892544  1
  Hf  Hf13  1  0.52250948  0.31072464  0.88820965  1
  Hf  Hf14  1  0.00077616  0.79260419  -0.01598141  1
  Hf  Hf15  1  0.22037960  0.20526634  0.49972957  1
  Hf  Hf16  1  0.11333010  0.31682922  0.61913509  1
  Hf  Hf17  1  0.49955509  0.50031233  0.62460754  1
  Hf  Hf18  1  0.49358431  0.29212943  0.61067208  1
  Hf  Hf19  1  0.62448565  0.19498034  0.75362267  1
  Hf  Hf20  1  0.59130437  0.80403965  0.24656750  1
  Hf  Hf21  1  0.79390576  -0.00751599  0.25460373  1
  Hf  Hf22  1  0.48479437  0.90708244  0.37042880  1
  Hf  Hf23  1  0.39827503  0.01654042  0.50627681  1
  Hf  Hf24  1  0.00173097  0.40168851  0.00728027  1
  Hf  Hf25  1  0.30751264  0.49435687  0.37712732  1
  Hf  Hf26  1  -0.00614313  -0.00824047  0.00168078  1
  Hf  Hf27  1  -0.01723441  0.60534838  0.48216096  1
  Hf  Hf28  1  0.91637008  0.28207361  0.60403621  1
  Hf  Hf29  1  0.39641834  0.78654123  -0.00482892  1
  Hf  Hf30  1  0.79120753  0.00116502  0.49982698  1
  Hf  Hf31  1  0.20183224  -0.01286493  0.52030889  1
  Hf  Hf32  1  0.31179509  0.09871546  0.35716525  1
  Hf  Hf33  1  0.09934802  0.88486614  0.63723022  1
  Hf  Hf34  1  0.18455495  0.60266499  0.75790000  1
  Hf  Hf35  1  0.69275606  0.11816224  0.13646146  1
  Hf  Hf36  1  0.42049879  0.20950027  0.76021872  1
  Hf  Hf37  1  0.69390165  0.69394960  0.12897946  1
  Hf  Hf38  1  0.28657047  0.49471441  0.62206697  1
  Hf  Hf39  1  0.20175403  0.79273764  0.76286668  1
  Zr  Zr40  1  0.28815967  0.69963676  0.12291833  1
  Zr  Zr41  1  0.79883019  0.79276130  0.49128423  1
  Zr  Zr42  1  0.41028551  0.39358817  0.23425907  1
  Zr  Zr43  1  0.69023778  0.90883654  0.87494026  1
  Zr  Zr44  1  0.79450041  0.58851814  0.75850133  1
  Zr  Zr45  1  0.09919477  0.09948920  0.86993137  1
  Zr  Zr46  1  0.39291831  0.60911885  0.74499234  1
  Zr  Zr47  1  0.49550926  0.89803232  0.87571305  1
  Zr  Zr48  1  0.60110800  -0.00039490  0.49484703  1
  Zr  Zr49  1  0.80317592  0.38511589  0.73843451  1
  Zr  Zr50  1  0.89838831  0.70305206  0.12800010  1
  Zr  Zr51  1  0.19350551  0.60215017  0.25410704  1
  Zr  Zr52  1  0.19692455  0.00256198  0.00597173  1
  Zr  Zr53  1  0.38418692  0.81353914  0.51043162  1
  Zr  Zr54  1  0.88687021  0.50275308  0.12905900  1
  Zr  Zr55  1  0.12259625  0.28683348  0.12747148  1
  Zr  Zr56  1  0.91359392  0.28950910  0.38704374  1
  Zr  Zr57  1  0.50110913  0.29948480  0.38019663  1
  Zr  Zr58  1  0.79710418  0.80420057  -0.00200527  1
  Zr  Zr59  1  0.78874199  0.59036140  -0.01112691  1
  Zr  Zr60  1  0.60232395  0.39583777  0.73904738  1
  Zr  Zr61  1  -0.00763745  -0.00131463  0.51231562  1
  Zr  Zr62  1  0.20315142  0.20659401  0.75245019  1
  Zr  Zr63  1  0.17878920  -0.01066328  0.23815485  1
  Zr  Zr64  1  -0.00454979  0.19602024  0.00267827  1
  Zr  Zr65  1  0.32424745  0.50928457  0.88179918  1
  Zr  Zr66  1  0.89004889  0.88739279  0.63498239  1
  Zr  Zr67  1  0.40748189  0.20141768  0.01174465  1
  Zr  Zr68  1  0.20603875  0.39512915  0.24670619  1
  Zr  Zr69  1  0.89246863  0.91028917  0.86154623  1
  Zr  Zr70  1  0.27807681  0.89992750  0.37100461  1
  Zr  Zr71  1  0.78973888  0.02033921  0.00291381  1
  Zr  Zr72  1  0.90385536  0.29520353  0.13911071  1
  Zr  Zr73  1  0.57490284  0.59360473  -0.01449656  1
  Zr  Zr74  1  0.50530061  0.70788656  0.62304167  1
  Zr  Zr75  1  -0.00943136  0.61558618  0.26719014  1
  Zr  Zr76  1  0.19129918  0.61057334  -0.01377111  1
  Zr  Zr77  1  0.20965088  0.39686264  0.00130346  1
  Zr  Zr78  1  0.01654286  0.19109739  0.25663690  1
  Zr  Zr79  1  0.41069799  0.60002540  0.25190411  1
  Ta  Ta80  1  0.69980640  0.69683561  0.62485875  1
  Ta  Ta81  1  0.00428984  0.81909862  0.25279079  1
  Ta  Ta82  1  0.29764028  0.90741988  0.87383490  1
  Ta  Ta83  1  0.71862098  0.30696411  0.12750741  1
  Ta  Ta84  1  0.31242745  0.30544526  0.87827900  1
  Ta  Ta85  1  0.60812656  0.41000480  0.26304110  1
  Ta  Ta86  1  0.49671153  0.70868730  0.38115660  1
  Ta  Ta87  1  0.68309193  0.69376276  0.37196745  1
  Ta  Ta88  1  0.78802314  0.78913706  0.75306605  1
  Ta  Ta89  1  0.68982854  0.90716851  0.12692440  1
  Ta  Ta90  1  0.20624046  0.00014937  0.73943042  1
  Ta  Ta91  1  0.29073999  0.11265182  0.13230131  1
  Ta  Ta92  1  0.59777623  0.00357981  0.74549826  1
  Ta  Ta93  1  0.91024890  0.49901075  0.61861505  1
  Ta  Ta94  1  0.39960480  -0.00753210  0.22306235  1
  Ta  Ta95  1  0.90037317  0.48179497  0.87467150  1
  Ta  Ta96  1  0.39135020  0.80325229  0.24179164  1
  Ta  Ta97  1  0.08946620  0.11915948  0.62122488  1
  Ta  Ta98  1  0.58565550  0.01293478  0.24801938  1
  Ta  Ta99  1  0.89162157  0.68650551  0.62908597  1
  Ta  Ta100  1  0.68565064  0.49344281  0.12757294  1
  Ta  Ta101  1  0.78685969  0.59252047  0.26916193  1
  Ta  Ta102  1  0.42316654  0.18805528  0.23143712  1
  Ta  Ta103  1  0.30397625  0.50484824  0.11779118  1
  Ta  Ta104  1  0.09885865  0.51549295  0.12358305  1
  Ta  Ta105  1  0.51874130  0.10482016  0.62167364  1
  Ta  Ta106  1  0.40631508  -0.00650771  0.02031491  1
  Ta  Ta107  1  0.19175973  0.80536144  -0.02017085  1
  Ta  Ta108  1  0.89470832  0.09892290  0.14074917  1
  Ta  Ta109  1  0.59917195  0.60262532  0.76148541  1
  Ta  Ta110  1  0.18531025  0.60127095  0.49977493  1
  Ta  Ta111  1  0.68708913  0.89173665  0.63128239  1
  Ta  Ta112  1  0.89271734  0.09645388  0.37249389  1
  Ta  Ta113  1  0.82043774  0.19069619  0.74029888  1
  Ta  Ta114  1  -0.00607975  0.77838148  0.75896165  1
  Ta  Ta115  1  0.52356766  0.09556148  0.89080083  1
  Ta  Ta116  1  0.08321185  0.68619524  0.62280442  1
  Ta  Ta117  1  0.40591938  0.00519735  0.74786587  1
  Ta  Ta118  1  0.09296082  0.30325508  0.87442053  1
  Ta  Ta119  1  0.49599203  0.90651301  0.63182853  1
  Ti  Ti120  1  0.27991426  0.71240478  0.61881613  1
  Ti  Ti121  1  0.51467863  0.51703487  0.38275883  1
  Ti  Ti122  1  0.10414449  0.50256387  0.37627552  1
  Ti  Ti123  1  0.80128311  0.79418383  0.25794968  1
  Ti  Ti124  1  0.30910628  0.28906668  0.36363499  1
  Ti  Ti125  1  0.59868477  0.79983651  0.49830987  1
  Ti  Ti126  1  0.78934368  0.59672848  0.48508363  1
  Ti  Ti127  1  0.69069586  0.89863444  0.36886436  1
  Ti  Ti128  1  0.09007611  0.08910053  0.12716525  1
  Ti  Ti129  1  -0.00139549  0.79811984  0.49996883  1
  Ti  Ti130  1  -0.00802406  0.59801450  -0.00418766  1
  Ti  Ti131  1  0.11668494  0.29520841  0.37693234  1
  Ti  Ti132  1  0.90868550  0.89988576  0.37341847  1
  Ti  Ti133  1  0.20555197  0.20229229  -0.00743175  1
  Ti  Ti134  1  0.69059058  0.47856428  0.87554926  1
  Ti  Ti135  1  0.39505008  0.80489039  0.75201365  1
  Ti  Ti136  1  0.08975439  0.49863473  0.87912315  1
  Ti  Ti137  1  0.51039916  0.11083674  0.37327827  1
  Ti  Ti138  1  0.18952962  0.79919345  0.24563075  1
  Ti  Ti139  1  0.09455817  0.90445511  0.85916218  1
  Ti  Ti140  1  0.38944971  0.38936513  0.49934128  1
  Ti  Ti141  1  0.59294185  0.80676365  0.00825815  1
  Ti  Ti142  1  0.78573262  0.00864878  0.73941643  1
  Ti  Ti143  1  0.00072767  0.39550063  0.74622747  1
  Ti  Ti144  1  0.49610052  0.69176869  0.12538949  1
  Ti  Ti145  1  0.70546356  0.27430882  0.60559112  1
  Ti  Ti146  1  0.80376573  0.38955760  -0.00263867  1
  Ti  Ti147  1  0.90172079  0.90181785  0.13099779  1
  Ti  Ti148  1  0.28603223  0.89361459  0.11834723  1
  Ti  Ti149  1  0.70531979  0.51139953  0.61972341  1
  Ti  Ti150  1  0.72521402  0.28193676  0.88318686  1
  Ti  Ti151  1  0.01305451  0.41043747  0.49263339  1
  Ti  Ti152  1  0.89309136  0.68828609  0.87152628  1
  Ti  Ti153  1  0.20239550  0.40463711  0.49177939  1
  Ti  Ti154  1  0.09290839  0.71196458  0.12143479  1
  Ti  Ti155  1  0.68463413  0.70624107  0.87845963  1
  Ti  Ti156  1  0.59341218  0.79738812  0.75202772  1
  Ti  Ti157  1  -0.00643457  0.58595279  0.75291905  1
  Ti  Ti158  1  0.09811966  0.72227307  0.38188234  1
  Ti  Ti159  1  0.89205621  0.11924977  0.87403624  1
  Mo  Mo160  1  0.80712423  0.20647679  0.00445581  1
  Mo  Mo161  1  0.00037581  0.21355610  0.74982773  1
  Mo  Mo162  1  0.79998536  0.18753412  0.49478013  1
  Mo  Mo163  1  0.08790290  0.50516299  0.62027042  1
  Mo  Mo164  1  0.61170879  0.19443962  0.49560323  1
  Mo  Mo165  1  0.59628859  -0.00073043  0.01136867  1
  Mo  Mo166  1  0.50472699  0.49584984  0.86169233  1
  Mo  Mo167  1  0.30916255  0.31228606  0.62650564  1
  Mo  Mo168  1  0.09173180  0.89491704  0.38417518  1
  Mo  Mo169  1  0.31432120  0.29614656  0.12701612  1
  Mo  Mo170  1  0.59880288  0.60177641  0.25097899  1
  Mo  Mo171  1  0.09212003  0.88578490  0.11641215  1
  Mo  Mo172  1  0.39813262  0.60206665  0.00353953  1
  Mo  Mo173  1  0.30333291  0.90199888  0.64233995  1
  Mo  Mo174  1  0.69737599  0.10227659  0.36176293  1
  Mo  Mo175  1  0.39727014  0.39412343  0.74959462  1
  Mo  Mo176  1  0.62582422  0.40062668  -0.00202315  1
  Mo  Mo177  1  0.08524133  0.69459509  0.87141785  1
  Mo  Mo178  1  0.60505826  0.61033016  0.50178220  1
  Mo  Mo179  1  0.70832809  0.09885867  0.87195914  1
  Mo  Mo180  1  0.88883373  0.71309737  0.36805907  1
  Mo  Mo181  1  0.90754414  0.30223142  0.87123343  1
  Mo  Mo182  1  0.60859381  0.21253617  0.25702360  1
  Mo  Mo183  1  0.18473567  0.79131680  0.51104007  1
  Mo  Mo184  1  0.30238663  0.71267998  0.87461580  1
  Mo  Mo185  1  0.01401392  0.19771281  0.48945725  1
  Mo  Mo186  1  -0.01105454  -0.00462954  0.24889832  1
  Mo  Mo187  1  0.70412893  0.09401619  0.62534115  1
  Mo  Mo188  1  0.90086604  0.50261803  0.37944800  1
  Mo  Mo189  1  0.21457833  0.19573893  0.25763171  1
  Mo  Mo190  1  0.49545652  0.69943473  0.86449919  1
  Mo  Mo191  1  0.69339969  0.49887388  0.38097114  1
  Mo  Mo192  1  0.62776008  0.19493577  -0.00779781  1
  Mo  Mo193  1  0.51219849  0.50670316  0.13061369  1
  Mo  Mo194  1  0.69842820  0.28267551  0.38643617  1
  Mo  Mo195  1  0.40741779  0.19965161  0.49332534  1
  Mo  Mo196  1  0.79939853  0.19694504  0.26177711  1
  Mo  Mo197  1  0.49822237  0.88748944  0.12356872  1
  Mo  Mo198  1  0.50866707  0.09296014  0.11774701  1
  Mo  Mo199  1  0.89583230  0.10218157  0.61877556  1
