# generated using pymatgen
data_HfZrTaTiMo
_symmetry_space_group_name_H-M   'P 1'
_cell_length_a   15.20451899
_cell_length_b   15.20996602
_cell_length_c   16.81311999
_cell_angle_alpha   89.98764321
_cell_angle_beta   89.92439256
_cell_angle_gamma   89.98973802
_symmetry_Int_Tables_number   1
_chemical_formula_structural   HfZrTaTiMo
_chemical_formula_sum   'Hf40 Zr40 Ta40 Ti40 Mo40'
_cell_volume   3888.20223959
_cell_formula_units_Z   40
loop_
 _symmetry_equiv_pos_site_id
 _symmetry_equiv_pos_as_xyz
  1  'x, y, z'
loop_
 _atom_site_type_symbol
 _atom_site_label
 _atom_site_symmetry_multiplicity
 _atom_site_fract_x
 _atom_site_fract_y
 _atom_site_fract_z
 _atom_site_occupancy
  Hf  Hf0  1  0.41207578  -0.01852766  -0.00006066  1
  Hf  Hf1  1  0.70444014  0.51469763  0.86733033  1
  Hf  Hf2  1  0.39589739  0.18919562  0.27161010  1
  Hf  Hf3  1  0.49670978  0.50753579  0.12622301  1
  Hf  Hf4  1  0.60764180  0.82149563  -0.00547251  1
  Hf  Hf5  1  0.77865164  0.61157767  0.73373043  1
  Hf  Hf6  1  0.20200840  -0.02266205  0.49574441  1
  Hf  Hf7  1  0.69293764  0.51518774  0.38243326  1
  Hf  Hf8  1  0.29923498  0.29685318  0.11886419  1
  Hf  Hf9  1  0.60081379  0.78728987  0.72857332  1
  Hf  Hf10  1  0.89462827  0.09304134  0.37598245  1
  Hf  Hf11  1  0.69104889  0.30634221  0.38697224  1
  Hf  Hf12  1  0.10358178  0.30672296  0.62719321  1
  Hf  Hf13  1  0.89497729  0.30086202  0.37453131  1
  Hf  Hf14  1  0.30722135  0.29307954  0.61576730  1
  Hf  Hf15  1  0.38570829  0.79652461  0.49922519  1
  Hf  Hf16  1  0.28511003  0.49009612  0.38617867  1
  Hf  Hf17  1  0.50044913  0.50383102  0.86293220  1
  Hf  Hf18  1  0.08465977  0.88679116  0.12337162  1
  Hf  Hf19  1  0.80507572  0.40165548  0.50488459  1
  Hf  Hf20  1  0.81070688  0.80971019  0.51891975  1
  Hf  Hf21  1  0.09724747  0.09240445  0.37497910  1
  Hf  Hf22  1  0.50934754  0.89741928  0.14250250  1
  Hf  Hf23  1  0.40879129  0.59847947  0.49295307  1
  Hf  Hf24  1  0.29845761  0.69351945  0.64377997  1
  Hf  Hf25  1  0.29190810  0.48929397  0.86563803  1
  Hf  Hf26  1  -0.00306643  -0.00249001  -0.00674136  1
  Hf  Hf27  1  0.20188440  -0.00662918  0.23620610  1
  Hf  Hf28  1  -0.00482630  -0.01219063  0.50614451  1
  Hf  Hf29  1  0.89754617  0.51624685  0.37479046  1
  Hf  Hf30  1  0.40062040  0.78209684  0.24238456  1
  Hf  Hf31  1  0.10691111  0.09193109  0.63310203  1
  Hf  Hf32  1  0.80355386  0.41705886  -0.00698868  1
  Hf  Hf33  1  0.30645221  0.09755693  0.11849315  1
  Hf  Hf34  1  -0.00134936  0.39796193  0.24560962  1
  Hf  Hf35  1  0.09520510  0.70023169  0.87540572  1
  Hf  Hf36  1  0.71558743  0.71741660  0.38433014  1
  Hf  Hf37  1  0.20564990  0.79417367  0.00644589  1
  Hf  Hf38  1  0.09216822  0.28104723  0.11076513  1
  Hf  Hf39  1  0.10025278  0.50804743  0.61918788  1
  Zr  Zr40  1  0.90050669  0.49989415  0.63319016  1
  Zr  Zr41  1  0.89944967  0.10796468  0.10837220  1
  Zr  Zr42  1  0.40013992  0.58888380  0.26430249  1
  Zr  Zr43  1  0.78366919  0.20814436  0.76158452  1
  Zr  Zr44  1  0.19797752  0.62399920  0.49885888  1
  Zr  Zr45  1  0.08863873  0.88959215  0.36011914  1
  Zr  Zr46  1  0.50039732  0.28938729  0.12237679  1
  Zr  Zr47  1  0.60669129  0.62177954  0.24237776  1
  Zr  Zr48  1  0.40190525  0.40351570  -0.00125206  1
  Zr  Zr49  1  0.10410789  0.30816534  0.38108353  1
  Zr  Zr50  1  0.70414255  0.31026073  0.12520424  1
  Zr  Zr51  1  0.77867369  -0.00200789  -0.01634541  1
  Zr  Zr52  1  0.31920219  0.08897777  0.62577813  1
  Zr  Zr53  1  0.60072642  0.20422575  0.25535317  1
  Zr  Zr54  1  0.89678188  0.51325590  0.12821847  1
  Zr  Zr55  1  -0.00162027  0.40637194  -0.00735860  1
  Zr  Zr56  1  0.29709129  0.48947664  0.62247404  1
  Zr  Zr57  1  0.21196733  0.19235417  0.49063680  1
  Zr  Zr58  1  0.30431726  0.28610026  0.88336176  1
  Zr  Zr59  1  0.89871741  0.89580246  0.85872639  1
  Zr  Zr60  1  0.91110928  0.90693651  0.65128269  1
  Zr  Zr61  1  0.30945428  0.09006467  0.87786575  1
  Zr  Zr62  1  0.10657905  0.30058778  0.88074251  1
  Zr  Zr63  1  0.40927293  0.78846433  0.00632271  1
  Zr  Zr64  1  0.19898287  0.19639424  0.25470620  1
  Zr  Zr65  1  0.69586240  0.10071495  0.12130571  1
  Zr  Zr66  1  0.69031412  0.91803961  0.37285745  1
  Zr  Zr67  1  0.40076127  0.38703884  0.26857135  1
  Zr  Zr68  1  0.59144281  0.20515048  0.74523253  1
  Zr  Zr69  1  -0.01313300  0.20149723  0.50963941  1
  Zr  Zr70  1  0.60472491  0.40656831  -0.00186433  1
  Zr  Zr71  1  0.30624317  0.69449993  0.86612858  1
  Zr  Zr72  1  0.51897211  0.09043065  0.38451445  1
  Zr  Zr73  1  0.29351836  0.89431038  0.63793211  1
  Zr  Zr74  1  0.89395216  0.10597483  0.64244581  1
  Zr  Zr75  1  0.59280153  0.80734230  0.51910010  1
  Zr  Zr76  1  0.20376639  -0.01012342  0.00636330  1
  Zr  Zr77  1  0.40766107  0.38005462  0.74708797  1
  Zr  Zr78  1  0.88284337  0.69626626  0.86940570  1
  Zr  Zr79  1  -0.01387248  -0.00408106  0.23549622  1
  Ta  Ta80  1  0.01293222  0.41192085  0.76216066  1
  Ta  Ta81  1  0.90944943  0.70686890  0.63958074  1
  Ta  Ta82  1  0.19766594  0.40142177  0.24555246  1
  Ta  Ta83  1  0.30002451  0.68084859  0.12131295  1
  Ta  Ta84  1  -0.00391014  0.19530353  0.24589779  1
  Ta  Ta85  1  0.20584734  0.19992966  0.74866042  1
  Ta  Ta86  1  0.09980536  0.70082502  0.36848406  1
  Ta  Ta87  1  0.80539672  0.20583626  0.24971371  1
  Ta  Ta88  1  0.51135167  0.70134952  0.37868838  1
  Ta  Ta89  1  0.40800377  0.39314907  0.48682620  1
  Ta  Ta90  1  0.70729261  0.91709473  0.64168811  1
  Ta  Ta91  1  0.29382026  0.88185910  0.36317075  1
  Ta  Ta92  1  -0.02166119  0.78134181  0.24117165  1
  Ta  Ta93  1  0.69051439  0.49560915  0.62221590  1
  Ta  Ta94  1  0.19508392  0.78324558  0.23317278  1
  Ta  Ta95  1  0.19900393  0.40469937  0.00611369  1
  Ta  Ta96  1  0.19852454  0.59563456  0.25088616  1
  Ta  Ta97  1  0.49898360  0.49764046  0.63069347  1
  Ta  Ta98  1  0.89354927  0.31394586  0.86155872  1
  Ta  Ta99  1  0.09966165  0.70946631  0.64498111  1
  Ta  Ta100  1  0.00261629  0.40856049  0.50029981  1
  Ta  Ta101  1  0.18870858  0.58470020  0.75500758  1
  Ta  Ta102  1  0.87457191  0.88453852  0.11671856  1
  Ta  Ta103  1  0.79568684  0.00932623  0.50722494  1
  Ta  Ta104  1  0.39923442  -0.00539058  0.25731423  1
  Ta  Ta105  1  0.71901740  0.71963623  0.11668045  1
  Ta  Ta106  1  0.50982683  0.69514235  0.86409490  1
  Ta  Ta107  1  0.00935972  0.60094025  0.24869506  1
  Ta  Ta108  1  0.51016148  0.29028453  0.87993138  1
  Ta  Ta109  1  0.09379486  0.50541718  0.38042773  1
  Ta  Ta110  1  0.69305797  0.90739110  0.84811620  1
  Ta  Ta111  1  0.88890689  0.88582559  0.37408874  1
  Ta  Ta112  1  0.89466042  0.30067850  0.12228069  1
  Ta  Ta113  1  0.59621303  0.41304873  0.25612032  1
  Ta  Ta114  1  0.10475875  0.10581460  0.88248289  1
  Ta  Ta115  1  0.60123440  0.61709155  0.00458113  1
  Ta  Ta116  1  0.49893124  0.88986216  0.36494267  1
  Ta  Ta117  1  0.01460437  0.79435546  0.50676399  1
  Ta  Ta118  1  0.51092276  0.29567321  0.60405189  1
  Ta  Ta119  1  0.81546033  0.63056012  0.24967255  1
  Ti  Ti120  1  0.69480777  0.71323496  0.87335109  1
  Ti  Ti121  1  0.59685010  0.00370788  0.51649475  1
  Ti  Ti122  1  0.60816748  0.19100390  -0.00923988  1
  Ti  Ti123  1  0.10456988  0.49729121  0.12359169  1
  Ti  Ti124  1  0.61473239  0.39660881  0.74948379  1
  Ti  Ti125  1  0.69515861  0.11142479  0.61853507  1
  Ti  Ti126  1  0.51212071  0.08976143  0.87730149  1
  Ti  Ti127  1  0.80163394  0.61056119  0.51504602  1
  Ti  Ti128  1  0.50653952  0.09150392  0.12826464  1
  Ti  Ti129  1  0.79329363  0.00594107  0.24889027  1
  Ti  Ti130  1  0.70929347  0.11250820  0.38541740  1
  Ti  Ti131  1  0.21306898  -0.00301456  0.76289149  1
  Ti  Ti132  1  0.09157575  0.68322267  0.11527424  1
  Ti  Ti133  1  -0.00680606  0.61177131  0.50229434  1
  Ti  Ti134  1  -0.00390527  0.59904061  0.75988784  1
  Ti  Ti135  1  0.10466690  0.89208454  0.64480140  1
  Ti  Ti136  1  -0.01398072  0.59463011  -0.01086266  1
  Ti  Ti137  1  0.19706094  0.59004947  -0.00308386  1
  Ti  Ti138  1  0.70431646  0.51833159  0.12603820  1
  Ti  Ti139  1  0.59867208  0.60610869  0.51374158  1
  Ti  Ti140  1  0.89862053  0.30724919  0.64255204  1
  Ti  Ti141  1  0.41228748  0.18876044  -0.00181372  1
  Ti  Ti142  1  0.40803487  0.18238520  0.74777725  1
  Ti  Ti143  1  0.40021722  -0.00760533  0.48576912  1
  Ti  Ti144  1  0.49918336  0.89756330  0.86036289  1
  Ti  Ti145  1  0.00679728  0.20547078  0.75771289  1
  Ti  Ti146  1  -0.01396263  0.79174054  -0.00021373  1
  Ti  Ti147  1  0.40098799  0.59884209  -0.00145283  1
  Ti  Ti148  1  0.59443574  0.01323754  0.74022373  1
  Ti  Ti149  1  0.79688225  0.21349477  -0.01998203  1
  Ti  Ti150  1  0.70429387  0.30326365  0.61438402  1
  Ti  Ti151  1  0.01365709  0.00931639  0.76618939  1
  Ti  Ti152  1  0.41082652  0.19151080  0.48458234  1
  Ti  Ti153  1  0.11226094  0.89700508  0.86963402  1
  Ti  Ti154  1  0.69446688  0.90759680  0.13827989  1
  Ti  Ti155  1  0.79237474  0.41028946  0.25112939  1
  Ti  Ti156  1  0.89951655  0.10795543  0.87225929  1
  Ti  Ti157  1  0.29592155  0.49693043  0.12713502  1
  Ti  Ti158  1  0.40293902  0.80076211  0.75055996  1
  Ti  Ti159  1  0.48829745  0.91444585  0.63288522  1
  Mo  Mo160  1  0.59170896  0.59653204  0.73699372  1
  Mo  Mo161  1  0.79454840  0.80411885  0.73595831  1
  Mo  Mo162  1  0.19669148  0.40238650  0.49835691  1
  Mo  Mo163  1  0.41492793  -0.00430557  0.75664361  1
  Mo  Mo164  1  0.60123403  0.00480313  0.25533999  1
  Mo  Mo165  1  0.29957548  0.88897200  0.13950923  1
  Mo  Mo166  1  0.68891084  0.10264789  0.87608059  1
  Mo  Mo167  1  0.79844966  0.40303218  0.74563672  1
  Mo  Mo168  1  0.89936575  0.50532626  0.86131021  1
  Mo  Mo169  1  0.79822233  0.80948484  0.24986752  1
  Mo  Mo170  1  0.59688848  0.41259176  0.50538703  1
  Mo  Mo171  1  0.19660655  0.19132951  0.00437529  1
  Mo  Mo172  1  0.30489884  0.89133071  0.86492622  1
  Mo  Mo173  1  0.20036543  0.80072831  0.76514564  1
  Mo  Mo174  1  0.30071014  0.29242777  0.38524369  1
  Mo  Mo175  1  0.78947007  0.01308441  0.76159202  1
  Mo  Mo176  1  0.70104636  0.70185010  0.60927912  1
  Mo  Mo177  1  0.00673234  0.79864276  0.75744580  1
  Mo  Mo178  1  0.91045768  0.70655021  0.38237275  1
  Mo  Mo179  1  0.58925900  0.00195391  -0.00546194  1
  Mo  Mo180  1  0.19129448  0.80101003  0.50186555  1
  Mo  Mo181  1  0.69492803  0.30796560  0.87958777  1
  Mo  Mo182  1  0.79108546  0.60912442  -0.00170036  1
  Mo  Mo183  1  0.09541397  0.10061248  0.10632581  1
  Mo  Mo184  1  0.90589717  0.70274969  0.11219585  1
  Mo  Mo185  1  0.79981099  0.19959512  0.50841850  1
  Mo  Mo186  1  0.10190372  0.50680608  0.87933497  1
  Mo  Mo187  1  0.60800275  0.19911079  0.50651183  1
  Mo  Mo188  1  0.29538373  0.70263241  0.36881726  1
  Mo  Mo189  1  0.79344652  0.80290932  -0.00889487  1
  Mo  Mo190  1  0.50692648  0.30114613  0.39124709  1
  Mo  Mo191  1  0.50149861  0.10020918  0.61179523  1
  Mo  Mo192  1  0.50772539  0.69614432  0.11736514  1
  Mo  Mo193  1  0.30610494  0.07640934  0.37822071  1
  Mo  Mo194  1  -0.01522778  0.19987817  -0.01923652  1
  Mo  Mo195  1  0.60520573  0.79973415  0.25247236  1
  Mo  Mo196  1  0.40623829  0.59907750  0.74561506  1
  Mo  Mo197  1  0.19811709  0.39087447  0.74915934  1
  Mo  Mo198  1  0.48999808  0.69448107  0.62975553  1
  Mo  Mo199  1  0.51257303  0.50145797  0.38090208  1
