# generated using pymatgen
data_HfZrTaTiMo
_symmetry_space_group_name_H-M   'P 1'
_cell_length_a   15.18724819
_cell_length_b   15.18478134
_cell_length_c   16.81643466
_cell_angle_alpha   90.00661212
_cell_angle_beta   89.91384644
_cell_angle_gamma   90.05209948
_symmetry_Int_Tables_number   1
_chemical_formula_structural   HfZrTaTiMo
_chemical_formula_sum   'Hf40 Zr40 Ta40 Ti40 Mo40'
_cell_volume   3878.11678811
_cell_formula_units_Z   40
loop_
 _symmetry_equiv_pos_site_id
 _symmetry_equiv_pos_as_xyz
  1  'x, y, z'
loop_
 _atom_site_type_symbol
 _atom_site_label
 _atom_site_symmetry_multiplicity
 _atom_site_fract_x
 _atom_site_fract_y
 _atom_site_fract_z
 _atom_site_occupancy
  Hf  Hf0  1  0.79060195  0.39480560  0.49770861  1
  Hf  Hf1  1  0.90192675  0.49625571  0.61972777  1
  Hf  Hf2  1  0.49949128  0.71172934  0.86755274  1
  Hf  Hf3  1  0.09808066  0.88746409  0.13212173  1
  Hf  Hf4  1  0.59869484  0.60994277  -0.00940300  1
  Hf  Hf5  1  0.09917024  0.48943763  0.36492467  1
  Hf  Hf6  1  0.89866818  0.29691845  0.62822489  1
  Hf  Hf7  1  0.28842786  0.49693433  0.62713401  1
  Hf  Hf8  1  0.48485990  0.90992338  0.87114444  1
  Hf  Hf9  1  0.00078248  0.59404048  0.74615705  1
  Hf  Hf10  1  0.19644828  0.60111213  0.75215038  1
  Hf  Hf11  1  0.68806690  0.89756308  0.87897352  1
  Hf  Hf12  1  0.59675223  0.41163716  0.25338861  1
  Hf  Hf13  1  0.49956431  0.30883383  0.38424640  1
  Hf  Hf14  1  0.70366602  0.50027337  0.62487637  1
  Hf  Hf15  1  0.91078314  0.69783218  0.87418098  1
  Hf  Hf16  1  0.71110512  0.70047617  0.12831056  1
  Hf  Hf17  1  0.29307778  0.90792444  0.60190940  1
  Hf  Hf18  1  0.22245198  0.20701846  0.74483207  1
  Hf  Hf19  1  0.51240566  0.88911282  0.39507173  1
  Hf  Hf20  1  0.79861621  0.40088623  0.77149277  1
  Hf  Hf21  1  0.31601649  0.68103373  0.36899095  1
  Hf  Hf22  1  0.09579021  0.89643080  0.88010795  1
  Hf  Hf23  1  0.59210130  0.01318792  0.74627571  1
  Hf  Hf24  1  0.88883363  0.49392912  0.36502400  1
  Hf  Hf25  1  0.49192726  0.52423651  0.38726541  1
  Hf  Hf26  1  0.79995453  0.80229319  0.75220686  1
  Hf  Hf27  1  0.68535539  0.29530140  0.62933157  1
  Hf  Hf28  1  0.80489084  0.78913180  -0.00458582  1
  Hf  Hf29  1  0.89407083  0.10461029  0.63798307  1
  Hf  Hf30  1  0.39325446  0.00828329  0.73504069  1
  Hf  Hf31  1  0.20379826  0.40122362  0.00337896  1
  Hf  Hf32  1  0.60880616  0.81373923  0.25218856  1
  Hf  Hf33  1  0.11112763  0.29797120  0.88316547  1
  Hf  Hf34  1  0.60039786  0.58916207  0.75998866  1
  Hf  Hf35  1  0.37837016  0.40684496  0.49427124  1
  Hf  Hf36  1  0.40016758  0.59966316  -0.00043211  1
  Hf  Hf37  1  0.88718427  0.48389716  0.13141246  1
  Hf  Hf38  1  0.89760598  0.07987545  0.37292178  1
  Hf  Hf39  1  0.19071838  0.80702209  0.73496094  1
  Zr  Zr40  1  0.30268166  0.10987844  0.38422457  1
  Zr  Zr41  1  0.01431180  0.19167928  0.24718454  1
  Zr  Zr42  1  0.59025510  0.37877927  0.77449031  1
  Zr  Zr43  1  0.71750501  0.31302763  0.12278390  1
  Zr  Zr44  1  0.19861640  0.77953311  0.49978641  1
  Zr  Zr45  1  0.50389826  0.31132982  0.12054232  1
  Zr  Zr46  1  0.89829231  0.70430520  0.37125403  1
  Zr  Zr47  1  0.43533696  0.20007806  0.74214682  1
  Zr  Zr48  1  0.30500560  0.89358284  0.38300689  1
  Zr  Zr49  1  0.61097482  0.41401074  -0.01763759  1
  Zr  Zr50  1  0.29787079  0.71076759  0.87193753  1
  Zr  Zr51  1  0.50701216  0.10021512  0.38805167  1
  Zr  Zr52  1  0.88193904  0.89296767  0.12260742  1
  Zr  Zr53  1  0.29897029  0.90012797  0.13561359  1
  Zr  Zr54  1  0.40494962  0.20994995  0.24950428  1
  Zr  Zr55  1  0.79981130  0.57780256  -0.00918520  1
  Zr  Zr56  1  0.41087072  0.79139910  0.24996028  1
  Zr  Zr57  1  0.08366929  0.29118624  0.10296662  1
  Zr  Zr58  1  0.70505480  0.30122411  0.36583881  1
  Zr  Zr59  1  0.41707419  0.00227103  0.24804012  1
  Zr  Zr60  1  0.39082210  0.38975727  0.75034036  1
  Zr  Zr61  1  0.00750971  0.59386939  0.49471527  1
  Zr  Zr62  1  0.19372867  0.60262953  0.00621690  1
  Zr  Zr63  1  0.50985821  0.48664596  0.61332721  1
  Zr  Zr64  1  0.00061534  0.00856084  0.00945620  1
  Zr  Zr65  1  0.29752474  0.49364933  0.87276891  1
  Zr  Zr66  1  0.39624679  0.80157577  0.72535086  1
  Zr  Zr67  1  0.18912498  0.39155418  0.23868294  1
  Zr  Zr68  1  0.90731543  0.28915324  0.37775684  1
  Zr  Zr69  1  -0.00369860  0.79908179  0.50859747  1
  Zr  Zr70  1  0.62667863  -0.00357843  0.50570962  1
  Zr  Zr71  1  -0.01489432  -0.00160292  0.51074351  1
  Zr  Zr72  1  0.40105974  0.81185370  0.00916789  1
  Zr  Zr73  1  0.30570003  0.09672783  0.88128902  1
  Zr  Zr74  1  0.00015285  -0.00481760  0.74751363  1
  Zr  Zr75  1  0.07832306  0.89567521  0.36448931  1
  Zr  Zr76  1  0.70895137  0.10026934  0.11292335  1
  Zr  Zr77  1  0.78752025  0.81943038  0.49982161  1
  Zr  Zr78  1  0.18968631  0.00736439  0.25783758  1
  Zr  Zr79  1  0.18183035  0.00862604  0.49306783  1
  Ta  Ta80  1  0.50825546  0.71078906  0.12043784  1
  Ta  Ta81  1  0.31522949  0.11565485  0.60443110  1
  Ta  Ta82  1  0.09903182  0.30348258  0.62948106  1
  Ta  Ta83  1  0.50403629  0.11214848  0.88726335  1
  Ta  Ta84  1  0.79182648  0.60880517  0.49644131  1
  Ta  Ta85  1  0.89029850  0.69504851  0.62434661  1
  Ta  Ta86  1  0.30827789  0.49552621  0.12333052  1
  Ta  Ta87  1  0.10527839  0.10943033  0.62964864  1
  Ta  Ta88  1  0.91427840  0.30298094  0.88815365  1
  Ta  Ta89  1  0.40251856  0.59866076  0.73832696  1
  Ta  Ta90  1  0.40522861  0.62477709  0.52115595  1
  Ta  Ta91  1  -0.00353441  0.61359551  0.01834973  1
  Ta  Ta92  1  0.10748971  0.09868383  0.87198690  1
  Ta  Ta93  1  0.79867078  0.18413086  0.50230129  1
  Ta  Ta94  1  0.60653212  0.19647405  0.24568542  1
  Ta  Ta95  1  0.19636069  0.21625798  0.50270361  1
  Ta  Ta96  1  0.00172448  0.39746427  0.75631493  1
  Ta  Ta97  1  0.70051580  0.70168034  0.86880272  1
  Ta  Ta98  1  0.68665870  0.89716646  0.11253051  1
  Ta  Ta99  1  0.30605725  0.29890446  0.11516391  1
  Ta  Ta100  1  0.58815951  0.61370570  0.25242715  1
  Ta  Ta101  1  0.80332872  0.59759178  0.75814248  1
  Ta  Ta102  1  0.29642979  0.69545560  0.13627875  1
  Ta  Ta103  1  0.20293771  0.20016977  0.24179367  1
  Ta  Ta104  1  -0.00000196  0.79506760  0.73710174  1
  Ta  Ta105  1  0.19963243  0.00492056  0.73873696  1
  Ta  Ta106  1  0.09600261  0.70455006  0.87789425  1
  Ta  Ta107  1  0.70819666  0.09905385  0.36595365  1
  Ta  Ta108  1  0.28859706  0.90524294  0.87418938  1
  Ta  Ta109  1  0.90040532  0.89841573  0.87813994  1
  Ta  Ta110  1  0.79263842  0.00845841  0.76547030  1
  Ta  Ta111  1  0.19020666  0.79577487  0.00732289  1
  Ta  Ta112  1  0.30081338  0.10485292  0.12291310  1
  Ta  Ta113  1  0.39028584  0.41699057  0.25715269  1
  Ta  Ta114  1  0.81345220  0.19440222  0.23810563  1
  Ta  Ta115  1  0.58885412  -0.00209210  0.00124280  1
  Ta  Ta116  1  -0.01773861  0.00214608  0.23372922  1
  Ta  Ta117  1  0.70152620  0.10381914  0.88884912  1
  Ta  Ta118  1  -0.01181433  0.78959246  0.24059534  1
  Ta  Ta119  1  0.68675371  0.70651473  0.37827416  1
  Ti  Ti120  1  0.69993126  0.10517061  0.63335149  1
  Ti  Ti121  1  0.20216864  -0.00542003  0.00619008  1
  Ti  Ti122  1  0.80090871  0.00009169  -0.00913106  1
  Ti  Ti123  1  -0.01364322  0.38507615  0.24464895  1
  Ti  Ti124  1  0.20857522  0.58701157  0.49350457  1
  Ti  Ti125  1  0.90834102  0.10123715  0.87362898  1
  Ti  Ti126  1  0.60859590  0.00601857  0.24519896  1
  Ti  Ti127  1  0.28681762  0.31015813  0.37008672  1
  Ti  Ti128  1  0.18708864  0.39854358  0.49607954  1
  Ti  Ti129  1  0.10090705  0.68932038  0.62049502  1
  Ti  Ti130  1  0.00376461  0.38767013  0.49584769  1
  Ti  Ti131  1  0.10748668  0.69402649  0.35635344  1
  Ti  Ti132  1  0.20962735  0.58979403  0.24529116  1
  Ti  Ti133  1  0.82109389  0.19994458  0.00054627  1
  Ti  Ti134  1  0.79053451  0.60416518  0.25615781  1
  Ti  Ti135  1  0.18899034  0.40011673  0.75325278  1
  Ti  Ti136  1  0.09584210  0.49145954  0.62128059  1
  Ti  Ti137  1  0.59576584  0.80231928  0.73737547  1
  Ti  Ti138  1  0.79835073  0.20374247  0.76782967  1
  Ti  Ti139  1  0.69217520  0.50573087  0.13291359  1
  Ti  Ti140  1  0.68918979  0.50831404  0.38165427  1
  Ti  Ti141  1  0.08278755  0.50262943  0.88666787  1
  Ti  Ti142  1  0.00802609  0.19419111  0.49936368  1
  Ti  Ti143  1  0.00065943  0.59581590  0.23842978  1
  Ti  Ti144  1  0.48473812  0.28763248  0.59892497  1
  Ti  Ti145  1  0.49828347  0.51156814  0.12766813  1
  Ti  Ti146  1  0.31999043  0.28512767  0.89412893  1
  Ti  Ti147  1  0.89134390  0.90189275  0.63320278  1
  Ti  Ti148  1  0.50094726  0.90750664  0.60940935  1
  Ti  Ti149  1  0.41221175  0.40187045  -0.00683108  1
  Ti  Ti150  1  0.58765968  0.77385133  0.51728977  1
  Ti  Ti151  1  0.00866877  0.20356553  0.75752005  1
  Ti  Ti152  1  0.69988906  0.69720442  0.63082488  1
  Ti  Ti153  1  0.60151994  0.20810739  -0.00166305  1
  Ti  Ti154  1  0.50343735  0.10446704  0.11854226  1
  Ti  Ti155  1  0.39755919  0.00868577  0.00879435  1
  Ti  Ti156  1  0.70287043  0.90559262  0.63713847  1
  Ti  Ti157  1  0.20113790  0.18519118  0.00577750  1
  Ti  Ti158  1  0.09456359  0.49900249  0.12471625  1
  Ti  Ti159  1  0.60733995  0.20375513  0.49773866  1
  Mo  Mo160  1  0.78985081  -0.00030791  0.24116258  1
  Mo  Mo161  1  0.00669752  0.19524844  -0.01207921  1
  Mo  Mo162  1  0.79633732  0.40503898  0.25484457  1
  Mo  Mo163  1  0.89907740  0.68838074  0.13590255  1
  Mo  Mo164  1  0.71765545  0.91391076  0.36502664  1
  Mo  Mo165  1  0.00485264  0.79136793  0.00820692  1
  Mo  Mo166  1  0.80069216  0.00555730  0.50940046  1
  Mo  Mo167  1  0.50695591  0.91299454  0.12458182  1
  Mo  Mo168  1  0.09452015  0.90310048  0.62749860  1
  Mo  Mo169  1  0.09340925  0.11114032  0.37728449  1
  Mo  Mo170  1  0.79574611  0.80068629  0.25435461  1
  Mo  Mo171  1  0.61037776  0.60200506  0.50475280  1
  Mo  Mo172  1  0.48999995  0.50583932  0.87222357  1
  Mo  Mo173  1  0.59976508  0.80229351  -0.00012118  1
  Mo  Mo174  1  0.59741275  0.39858591  0.49688938  1
  Mo  Mo175  1  0.39310181  0.20853961  0.49109609  1
  Mo  Mo176  1  0.70408475  0.50416365  0.86892355  1
  Mo  Mo177  1  0.80672380  0.39235611  -0.01445580  1
  Mo  Mo178  1  0.40478475  0.19960099  0.00988502  1
  Mo  Mo179  1  0.51011381  0.10585917  0.60539486  1
  Mo  Mo180  1  0.40417297  0.79932441  0.51252220  1
  Mo  Mo181  1  0.10332114  0.69239701  0.14256972  1
  Mo  Mo182  1  0.28986861  0.30356070  0.61987768  1
  Mo  Mo183  1  0.62178678  0.18863124  0.76439177  1
  Mo  Mo184  1  0.11109252  0.09178940  0.12071100  1
  Mo  Mo185  1  0.88974692  0.89756746  0.35957270  1
  Mo  Mo186  1  0.29235711  0.50089037  0.37631100  1
  Mo  Mo187  1  0.90429724  0.10750778  0.11968843  1
  Mo  Mo188  1  -0.00520099  0.41422649  -0.00182224  1
  Mo  Mo189  1  0.10385260  0.29085130  0.37685400  1
  Mo  Mo190  1  0.50995343  0.69677620  0.63964689  1
  Mo  Mo191  1  0.19303864  0.78378110  0.25431169  1
  Mo  Mo192  1  0.50547229  0.70233871  0.38134983  1
  Mo  Mo193  1  0.40642545  0.59441532  0.23877304  1
  Mo  Mo194  1  0.91228097  0.49969341  0.87738643  1
  Mo  Mo195  1  0.89752859  0.29352519  0.11635566  1
  Mo  Mo196  1  0.50071864  0.29364853  0.88882774  1
  Mo  Mo197  1  0.40913214  0.00378786  0.50736259  1
  Mo  Mo198  1  0.29417543  0.69240227  0.62496494  1
  Mo  Mo199  1  0.71210541  0.28958121  0.89108815  1
