# generated using pymatgen
data_HfZrTaTiMo
_symmetry_space_group_name_H-M   'P 1'
_cell_length_a   15.21103244
_cell_length_b   15.21837340
_cell_length_c   16.85507309
_cell_angle_alpha   89.97318724
_cell_angle_beta   90.01785376
_cell_angle_gamma   90.03925161
_symmetry_Int_Tables_number   1
_chemical_formula_structural   HfZrTaTiMo
_chemical_formula_sum   'Hf40 Zr40 Ta40 Ti40 Mo40'
_cell_volume   3901.73166217
_cell_formula_units_Z   40
loop_
 _symmetry_equiv_pos_site_id
 _symmetry_equiv_pos_as_xyz
  1  'x, y, z'
loop_
 _atom_site_type_symbol
 _atom_site_label
 _atom_site_symmetry_multiplicity
 _atom_site_fract_x
 _atom_site_fract_y
 _atom_site_fract_z
 _atom_site_occupancy
  Hf  Hf0  1  0.70827046  0.49167249  0.10924027  1
  Hf  Hf1  1  0.40521466  0.38653813  0.48920031  1
  Hf  Hf2  1  0.20410100  0.17787387  0.24147826  1
  Hf  Hf3  1  0.69405342  0.10681469  0.89927017  1
  Hf  Hf4  1  0.39046306  0.59214489  0.00748503  1
  Hf  Hf5  1  0.49750108  0.69976704  0.87233798  1
  Hf  Hf6  1  0.29259979  0.91065916  0.63616498  1
  Hf  Hf7  1  0.28285609  0.69938172  0.13671383  1
  Hf  Hf8  1  0.10335678  0.08796359  0.38302427  1
  Hf  Hf9  1  0.77783783  0.01271101  0.25650079  1
  Hf  Hf10  1  0.90102079  0.90922459  0.12709622  1
  Hf  Hf11  1  0.50716480  0.09477245  0.10899522  1
  Hf  Hf12  1  0.10555384  0.88575384  0.12698455  1
  Hf  Hf13  1  0.49577811  0.29409320  0.63218930  1
  Hf  Hf14  1  0.39685775  0.00714125  0.24451796  1
  Hf  Hf15  1  0.80533413  0.80430247  -0.01074242  1
  Hf  Hf16  1  0.92338296  0.50686263  0.87373024  1
  Hf  Hf17  1  0.20012972  0.77905344  0.74110585  1
  Hf  Hf18  1  -0.00324277  0.17525777  0.75585367  1
  Hf  Hf19  1  0.38773465  0.01771796  0.49700193  1
  Hf  Hf20  1  0.01219508  0.21219042  0.00239697  1
  Hf  Hf21  1  0.61153751  0.61487564  0.50820153  1
  Hf  Hf22  1  0.09900534  0.68567509  0.86686693  1
  Hf  Hf23  1  0.39150562  0.79808014  -0.00480824  1
  Hf  Hf24  1  0.37362905  0.38692267  0.75595067  1
  Hf  Hf25  1  0.50132357  0.71038287  0.36609057  1
  Hf  Hf26  1  0.00834246  0.80872084  -0.01523010  1
  Hf  Hf27  1  0.20993929  0.19885242  0.76403261  1
  Hf  Hf28  1  0.08388758  0.88562759  0.61944368  1
  Hf  Hf29  1  0.38428381  0.60368585  0.73431665  1
  Hf  Hf30  1  0.60826607  0.18004876  0.24987596  1
  Hf  Hf31  1  0.59613450  0.19581555  0.49405566  1
  Hf  Hf32  1  0.40755184  0.80172370  0.51300624  1
  Hf  Hf33  1  0.70806416  0.10611355  0.62543585  1
  Hf  Hf34  1  0.68776731  0.90456976  0.11514208  1
  Hf  Hf35  1  0.80782940  0.22264359  0.24172255  1
  Hf  Hf36  1  0.69458462  0.29361844  0.09908478  1
  Hf  Hf37  1  0.59793445  -0.00097686  0.49696877  1
  Hf  Hf38  1  0.50122979  0.49928667  0.62496803  1
  Hf  Hf39  1  0.80165231  0.79580396  0.49994398  1
  Zr  Zr40  1  0.10804267  0.31110956  0.87112781  1
  Zr  Zr41  1  -0.02204611  0.40934959  0.24223260  1
  Zr  Zr42  1  0.69145684  0.51405430  0.88472297  1
  Zr  Zr43  1  0.30220461  0.89983844  0.37258512  1
  Zr  Zr44  1  0.80504978  0.61181644  -0.00399253  1
  Zr  Zr45  1  0.50184400  0.91248538  0.63799162  1
  Zr  Zr46  1  0.59766140  0.40582935  0.75503725  1
  Zr  Zr47  1  0.70166780  0.30459985  0.62678687  1
  Zr  Zr48  1  0.18879497  0.60530945  0.49140047  1
  Zr  Zr49  1  0.07349227  0.49330272  0.38772156  1
  Zr  Zr50  1  0.40116754  0.60871609  0.49953692  1
  Zr  Zr51  1  0.82005521  0.41795384  0.50870073  1
  Zr  Zr52  1  0.60679318  0.00844650  0.75718993  1
  Zr  Zr53  1  0.90758276  0.10495120  0.11690310  1
  Zr  Zr54  1  0.70266118  0.30893782  0.89388741  1
  Zr  Zr55  1  0.81120176  0.62416038  0.75987952  1
  Zr  Zr56  1  0.29194909  0.30021348  0.12006849  1
  Zr  Zr57  1  0.28942906  0.48312657  0.60828111  1
  Zr  Zr58  1  0.30345907  0.27263086  0.37092680  1
  Zr  Zr59  1  0.60381554  0.61957224  0.73758250  1
  Zr  Zr60  1  0.71601123  0.29363983  0.38241026  1
  Zr  Zr61  1  0.60365541  0.59997456  0.23838996  1
  Zr  Zr62  1  0.09679117  0.07932912  0.61940283  1
  Zr  Zr63  1  0.90123620  0.90984655  0.37613754  1
  Zr  Zr64  1  0.80042481  0.79728019  0.25235427  1
  Zr  Zr65  1  0.81219247  0.59006293  0.23615642  1
  Zr  Zr66  1  0.90070439  0.11930662  0.36909151  1
  Zr  Zr67  1  0.79646707  0.81379537  0.76017811  1
  Zr  Zr68  1  0.18464699  0.38738546  0.25495917  1
  Zr  Zr69  1  0.20489665  0.79293152  0.50384181  1
  Zr  Zr70  1  0.90580756  0.29761442  0.63461486  1
  Zr  Zr71  1  0.89993318  0.09108342  0.89965417  1
  Zr  Zr72  1  0.80736783  0.40990934  0.75396367  1
  Zr  Zr73  1  0.29768834  0.49322788  0.37480823  1
  Zr  Zr74  1  0.11052759  0.28982312  0.62370352  1
  Zr  Zr75  1  0.48412827  0.50115141  0.87495833  1
  Zr  Zr76  1  0.49293757  0.71027274  0.13405930  1
  Zr  Zr77  1  0.70653815  0.09593475  0.09806262  1
  Zr  Zr78  1  0.60630019  0.40818522  0.49891271  1
  Zr  Zr79  1  0.60903382  0.39036078  0.24230241  1
  Ta  Ta80  1  -0.01339114  0.19017894  0.50688866  1
  Ta  Ta81  1  0.08752171  0.28287471  0.38622231  1
  Ta  Ta82  1  0.70207750  0.91276665  0.88656577  1
  Ta  Ta83  1  -0.00824238  0.80082600  0.76105685  1
  Ta  Ta84  1  0.81651541  0.00904926  0.75368492  1
  Ta  Ta85  1  0.79528511  0.19732891  0.76373495  1
  Ta  Ta86  1  0.50381410  0.29819046  0.36610253  1
  Ta  Ta87  1  0.91260609  0.53011210  0.62841326  1
  Ta  Ta88  1  0.49150945  0.10753595  0.63379296  1
  Ta  Ta89  1  0.40324165  0.79651652  0.74236481  1
  Ta  Ta90  1  0.41018614  0.20442760  0.23220962  1
  Ta  Ta91  1  0.49170067  0.29414547  0.88089499  1
  Ta  Ta92  1  0.70899888  0.90462655  0.62311719  1
  Ta  Ta93  1  0.70706656  0.69699646  0.37324647  1
  Ta  Ta94  1  0.30178267  0.09790163  0.63895865  1
  Ta  Ta95  1  0.00702469  0.79886617  0.26049601  1
  Ta  Ta96  1  0.48969395  0.10529343  0.36885231  1
  Ta  Ta97  1  0.91866814  0.70860386  0.12418979  1
  Ta  Ta98  1  0.49579490  0.90326231  0.86618682  1
  Ta  Ta99  1  0.59557348  0.80094031  -0.00760798  1
  Ta  Ta100  1  0.40408737  0.39889636  0.25029330  1
  Ta  Ta101  1  0.08919211  0.48757722  0.60493285  1
  Ta  Ta102  1  0.21442946  0.17508766  0.49883429  1
  Ta  Ta103  1  0.18822682  0.57327292  0.73650764  1
  Ta  Ta104  1  0.00482999  0.61223843  0.25066905  1
  Ta  Ta105  1  0.59307922  0.60771075  0.00956243  1
  Ta  Ta106  1  0.29860408  0.89367881  0.86277417  1
  Ta  Ta107  1  0.39241778  0.60055780  0.25675196  1
  Ta  Ta108  1  0.71311458  0.50483703  0.37277555  1
  Ta  Ta109  1  0.07640545  0.68172624  0.62563084  1
  Ta  Ta110  1  0.19669351  0.59203803  0.00421539  1
  Ta  Ta111  1  0.59830720  0.20241514  0.76257956  1
  Ta  Ta112  1  0.00786940  0.60619883  0.00755865  1
  Ta  Ta113  1  0.30516937  0.28032218  0.61700233  1
  Ta  Ta114  1  0.01470164  0.21155569  0.23701768  1
  Ta  Ta115  1  0.30249987  0.89429161  0.12864609  1
  Ta  Ta116  1  0.09874430  0.89774846  0.38409966  1
  Ta  Ta117  1  0.50980845  0.50158514  0.36851634  1
  Ta  Ta118  1  0.10325151  0.51007831  0.13172594  1
  Ta  Ta119  1  0.89873706  0.31401210  0.11201513  1
  Ti  Ti120  1  0.71352599  0.51671464  0.62813682  1
  Ti  Ti121  1  0.29621695  0.68492272  0.87125019  1
  Ti  Ti122  1  0.30062843  0.08827523  0.10997602  1
  Ti  Ti123  1  0.50151241  0.90564505  0.36700855  1
  Ti  Ti124  1  0.19063845  0.60334373  0.26698818  1
  Ti  Ti125  1  0.39707677  -0.01164947  -0.00420666  1
  Ti  Ti126  1  0.19453895  0.37879976  0.48934350  1
  Ti  Ti127  1  0.90653542  0.31843127  0.38038302  1
  Ti  Ti128  1  0.60151910  0.81235336  0.25074826  1
  Ti  Ti129  1  0.00969689  0.00715220  0.24620994  1
  Ti  Ti130  1  0.09894051  0.08006411  0.88809298  1
  Ti  Ti131  1  0.57388475  0.40296889  0.00427456  1
  Ti  Ti132  1  0.40194016  0.18885762  0.76595101  1
  Ti  Ti133  1  -0.00350759  0.78280038  0.48849992  1
  Ti  Ti134  1  0.38469325  0.39517438  0.00168941  1
  Ti  Ti135  1  0.60302497  0.80275466  0.50739015  1
  Ti  Ti136  1  0.10936540  0.49690123  0.87660045  1
  Ti  Ti137  1  0.60648313  0.80438242  0.75176021  1
  Ti  Ti138  1  0.40037076  0.20206675  0.00161724  1
  Ti  Ti139  1  0.19921159  0.79101542  0.26424030  1
  Ti  Ti140  1  0.10841866  0.09183290  0.11096766  1
  Ti  Ti141  1  0.01786566  0.41301668  0.74375396  1
  Ti  Ti142  1  0.20097377  -0.02025605  -0.00567200  1
  Ti  Ti143  1  0.19678222  -0.01169576  0.24690474  1
  Ti  Ti144  1  0.69183126  0.90128571  0.37730995  1
  Ti  Ti145  1  0.28423068  0.48693555  0.87743003  1
  Ti  Ti146  1  0.82427136  0.40696887  -0.00896552  1
  Ti  Ti147  1  0.80649242  0.01863455  0.49761936  1
  Ti  Ti148  1  0.90046815  0.91391465  0.62090896  1
  Ti  Ti149  1  0.30005347  0.09194460  0.88404083  1
  Ti  Ti150  1  0.29354211  0.49901356  0.13801746  1
  Ti  Ti151  1  0.90767283  0.30087352  0.87268132  1
  Ti  Ti152  1  0.18665238  -0.00496597  0.76201887  1
  Ti  Ti153  1  0.49570628  0.90010686  0.12748408  1
  Ti  Ti154  1  0.49390948  0.09566305  0.88568019  1
  Ti  Ti155  1  0.02263733  0.41137724  0.01146369  1
  Ti  Ti156  1  0.48931110  0.49241678  0.12939397  1
  Ti  Ti157  1  0.70160019  0.70822274  0.12093276  1
  Ti  Ti158  1  0.20611280  0.20344443  -0.00666801  1
  Ti  Ti159  1  0.20132089  0.78915320  -0.00781446  1
  Mo  Mo160  1  -0.00140514  -0.01364263  0.75655283  1
  Mo  Mo161  1  0.19984392  0.39612395  0.74377534  1
  Mo  Mo162  1  0.69865234  0.09200307  0.37980214  1
  Mo  Mo163  1  0.80910806  0.21420357  -0.00526870  1
  Mo  Mo164  1  -0.02581725  0.60359737  0.49436954  1
  Mo  Mo165  1  0.01806367  -0.00213112  0.00821121  1
  Mo  Mo166  1  0.09759500  0.29746965  0.12097777  1
  Mo  Mo167  1  0.68824316  0.71287008  0.88379837  1
  Mo  Mo168  1  0.19593210  -0.00623360  0.50388240  1
  Mo  Mo169  1  0.89609676  0.09457023  0.62766144  1
  Mo  Mo170  1  0.90560725  0.70266590  0.87733814  1
  Mo  Mo171  1  0.10355700  0.70032130  0.12886815  1
  Mo  Mo172  1  0.50509399  0.71128507  0.63070692  1
  Mo  Mo173  1  0.80436852  -0.00542821  0.00197824  1
  Mo  Mo174  1  0.90969247  0.50660258  0.10981205  1
  Mo  Mo175  1  0.30302267  0.70126105  0.36104348  1
  Mo  Mo176  1  0.38937034  0.00754298  0.76547804  1
  Mo  Mo177  1  0.19966135  0.40945694  0.00861972  1
  Mo  Mo178  1  0.59134975  -0.00806482  0.25635780  1
  Mo  Mo179  1  0.29363491  0.69736121  0.62923086  1
  Mo  Mo180  1  0.30278668  0.29395109  0.89044765  1
  Mo  Mo181  1  0.49352707  0.30336589  0.11838343  1
  Mo  Mo182  1  0.91004824  0.90908843  0.87459245  1
  Mo  Mo183  1  0.09514983  0.70547777  0.37504227  1
  Mo  Mo184  1  0.11235501  0.89620081  0.87083528  1
  Mo  Mo185  1  0.88736070  0.50604095  0.37459064  1
  Mo  Mo186  1  0.70396067  0.71913070  0.62460217  1
  Mo  Mo187  1  0.00047715  0.39269037  0.50362154  1
  Mo  Mo188  1  0.79762293  0.40077260  0.24178358  1
  Mo  Mo189  1  0.39856670  0.80365548  0.24963954  1
  Mo  Mo190  1  0.40567864  0.19421655  0.50156518  1
  Mo  Mo191  1  0.80499814  0.20101172  0.50115820  1
  Mo  Mo192  1  0.30068458  0.09457322  0.36544144  1
  Mo  Mo193  1  0.58520046  -0.01105475  -0.01024938  1
  Mo  Mo194  1  -0.00756131  -0.01057034  0.49697913  1
  Mo  Mo195  1  0.89879281  0.69227605  0.36995932  1
  Mo  Mo196  1  0.80094294  0.61122830  0.50375239  1
  Mo  Mo197  1  0.00773834  0.60025140  0.74963461  1
  Mo  Mo198  1  0.58292866  0.20587140  -0.00874379  1
  Mo  Mo199  1  0.90712137  0.72396815  0.62670147  1
