# generated using pymatgen
data_HfZrTaTiMo
_symmetry_space_group_name_H-M   'P 1'
_cell_length_a   15.18529272
_cell_length_b   15.18117379
_cell_length_c   16.80967977
_cell_angle_alpha   89.97132179
_cell_angle_beta   90.02391756
_cell_angle_gamma   90.00848666
_symmetry_Int_Tables_number   1
_chemical_formula_structural   HfZrTaTiMo
_chemical_formula_sum   'Hf40 Zr40 Ta40 Ti40 Mo40'
_cell_volume   3875.14415805
_cell_formula_units_Z   40
loop_
 _symmetry_equiv_pos_site_id
 _symmetry_equiv_pos_as_xyz
  1  'x, y, z'
loop_
 _atom_site_type_symbol
 _atom_site_label
 _atom_site_symmetry_multiplicity
 _atom_site_fract_x
 _atom_site_fract_y
 _atom_site_fract_z
 _atom_site_occupancy
  Hf  Hf0  1  0.90224243  0.69691010  0.12789239  1
  Hf  Hf1  1  0.10173904  0.48661849  0.38773414  1
  Hf  Hf2  1  0.19681059  0.20418192  0.75004351  1
  Hf  Hf3  1  0.41571180  0.21879990  0.27020405  1
  Hf  Hf4  1  0.09886377  0.69479155  0.87800244  1
  Hf  Hf5  1  0.09936877  0.49042797  0.61369541  1
  Hf  Hf6  1  0.88980692  0.49764556  0.12026113  1
  Hf  Hf7  1  0.60194670  0.40205883  -0.01194437  1
  Hf  Hf8  1  0.49593848  0.48999326  0.11642960  1
  Hf  Hf9  1  0.39475906  0.82422621  -0.00259695  1
  Hf  Hf10  1  0.09048432  0.49735683  0.11723122  1
  Hf  Hf11  1  -0.01031091  0.23149410  0.01759290  1
  Hf  Hf12  1  0.70196712  0.68424366  0.12100779  1
  Hf  Hf13  1  0.29403408  0.31120728  0.38284902  1
  Hf  Hf14  1  0.49632234  0.31050062  0.62559643  1
  Hf  Hf15  1  -0.00401816  0.82203951  0.48088544  1
  Hf  Hf16  1  0.49235948  0.70497327  0.12662217  1
  Hf  Hf17  1  0.30293513  0.89570969  0.61136972  1
  Hf  Hf18  1  0.59643175  0.79370979  -0.00327596  1
  Hf  Hf19  1  0.31008667  0.89929886  0.14915007  1
  Hf  Hf20  1  0.00589740  0.00479631  0.76791924  1
  Hf  Hf21  1  0.00795746  0.80260436  0.25993425  1
  Hf  Hf22  1  0.29316144  0.89368535  0.35818072  1
  Hf  Hf23  1  0.79970791  -0.00061656  0.75679660  1
  Hf  Hf24  1  0.19856615  0.39208854  0.00516326  1
  Hf  Hf25  1  0.29589987  0.09059769  0.61188264  1
  Hf  Hf26  1  -0.00746012  0.60183123  0.49676590  1
  Hf  Hf27  1  0.29505175  0.51017313  0.11675639  1
  Hf  Hf28  1  0.30205906  0.70602591  0.86879359  1
  Hf  Hf29  1  0.39661740  0.60785226  -0.00622014  1
  Hf  Hf30  1  0.89108127  0.48850783  0.62353224  1
  Hf  Hf31  1  -0.00195033  0.01063053  0.00542797  1
  Hf  Hf32  1  0.77691703  0.59158114  0.51055825  1
  Hf  Hf33  1  0.39816810  -0.00091141  0.47673906  1
  Hf  Hf34  1  0.59143091  0.80432486  0.75844896  1
  Hf  Hf35  1  0.10526741  0.10343883  0.12405325  1
  Hf  Hf36  1  0.18659402  0.19180471  0.48884725  1
  Hf  Hf37  1  0.31429192  0.48825971  0.60931309  1
  Hf  Hf38  1  0.90633803  0.89987069  0.62471987  1
  Hf  Hf39  1  0.10915958  0.89199056  0.12470033  1
  Zr  Zr40  1  0.57395354  0.19454515  -0.00491275  1
  Zr  Zr41  1  -0.00346842  0.80059303  0.75913174  1
  Zr  Zr42  1  0.70258313  0.88921951  0.62689705  1
  Zr  Zr43  1  -0.00889333  0.20172276  0.76027002  1
  Zr  Zr44  1  0.90131069  0.90156187  0.88994894  1
  Zr  Zr45  1  0.30924746  0.49664962  0.39370313  1
  Zr  Zr46  1  0.69521466  0.31109554  0.37234976  1
  Zr  Zr47  1  0.80250289  0.20732892  0.49672238  1
  Zr  Zr48  1  0.40455214  0.59599242  0.25482327  1
  Zr  Zr49  1  0.90506697  0.09363949  0.62226405  1
  Zr  Zr50  1  0.70711600  0.89270444  0.12165505  1
  Zr  Zr51  1  0.78854626  0.80241638  0.49137391  1
  Zr  Zr52  1  0.69780521  0.28802833  0.12703639  1
  Zr  Zr53  1  0.20165656  0.00920436  0.75928757  1
  Zr  Zr54  1  0.70364980  0.10665927  0.36384455  1
  Zr  Zr55  1  0.90079518  0.90095813  0.11927728  1
  Zr  Zr56  1  -0.00532221  0.58897903  0.26071964  1
  Zr  Zr57  1  0.80075294  0.59625293  0.75605059  1
  Zr  Zr58  1  0.29212235  0.29820660  0.61190248  1
  Zr  Zr59  1  0.09432954  0.71293399  0.62052328  1
  Zr  Zr60  1  0.19522657  0.60304284  0.25915917  1
  Zr  Zr61  1  0.88822138  0.69352295  0.37369543  1
  Zr  Zr62  1  0.69970105  0.89811956  0.88611167  1
  Zr  Zr63  1  0.59251708  0.79584087  0.25807990  1
  Zr  Zr64  1  0.39938181  -0.02216909  0.75855065  1
  Zr  Zr65  1  0.21058347  0.81069166  0.74727990  1
  Zr  Zr66  1  0.32178345  0.30294842  0.13112490  1
  Zr  Zr67  1  0.10700209  0.11114571  0.89858709  1
  Zr  Zr68  1  0.40636889  0.59462396  0.74397283  1
  Zr  Zr69  1  0.50811082  0.92214483  0.13019521  1
  Zr  Zr70  1  0.19976021  0.81082025  0.49287442  1
  Zr  Zr71  1  0.70035085  0.28962760  0.87555971  1
  Zr  Zr72  1  0.60474179  -0.00703388  0.48465697  1
  Zr  Zr73  1  0.20054572  0.59821442  0.73573344  1
  Zr  Zr74  1  0.09569279  0.31600093  0.87781533  1
  Zr  Zr75  1  0.69574627  0.10077056  0.61646614  1
  Zr  Zr76  1  0.69983398  0.31917023  0.62533667  1
  Zr  Zr77  1  0.81597514  0.38279312  -0.00702123  1
  Zr  Zr78  1  0.39897610  0.18822809  0.75265810  1
  Zr  Zr79  1  0.50095409  0.89936988  0.61718364  1
  Ta  Ta80  1  0.11639032  0.90170593  0.89369075  1
  Ta  Ta81  1  0.29393943  0.49574697  0.87949404  1
  Ta  Ta82  1  0.19727739  0.20384948  0.25001095  1
  Ta  Ta83  1  0.20416043  0.60372148  0.50468355  1
  Ta  Ta84  1  0.08900687  0.29748472  0.62060075  1
  Ta  Ta85  1  0.10429874  0.69380262  0.11667272  1
  Ta  Ta86  1  0.52045568  0.69783427  0.61879768  1
  Ta  Ta87  1  0.20372840  0.40275145  0.75042689  1
  Ta  Ta88  1  0.68822105  0.08841644  0.13345272  1
  Ta  Ta89  1  0.30819872  0.69546908  0.38453220  1
  Ta  Ta90  1  0.31954680  0.70180419  0.60931953  1
  Ta  Ta91  1  0.79617579  0.40128584  0.24628877  1
  Ta  Ta92  1  0.79003086  0.59355205  0.25297786  1
  Ta  Ta93  1  0.80560191  0.00011096  0.25292504  1
  Ta  Ta94  1  0.58779630  0.21245831  0.49523652  1
  Ta  Ta95  1  -0.00399438  0.20091315  0.23958085  1
  Ta  Ta96  1  -0.01391642  0.38120609  0.49419080  1
  Ta  Ta97  1  0.59481320  0.20082723  0.75444265  1
  Ta  Ta98  1  0.60382209  0.59892458  0.75302764  1
  Ta  Ta99  1  0.41857568  0.00859193  0.26978527  1
  Ta  Ta100  1  0.20049577  0.39929485  0.24614930  1
  Ta  Ta101  1  0.60033942  0.58659514  0.24855654  1
  Ta  Ta102  1  0.42333592  0.79318388  0.47997514  1
  Ta  Ta103  1  0.29106130  0.10154997  0.36558590  1
  Ta  Ta104  1  0.89046748  0.70261561  0.62400747  1
  Ta  Ta105  1  0.90008580  0.29681606  0.62889160  1
  Ta  Ta106  1  0.59607898  0.01284108  0.75112820  1
  Ta  Ta107  1  0.68967936  0.08975519  0.88505081  1
  Ta  Ta108  1  0.40301803  0.19804089  0.48558574  1
  Ta  Ta109  1  0.10009133  0.92244085  0.61835075  1
  Ta  Ta110  1  -0.00402658  0.59678031  0.74987185  1
  Ta  Ta111  1  0.20599328  0.79446805  0.00142179  1
  Ta  Ta112  1  0.80778207  0.77845109  -0.00776586  1
  Ta  Ta113  1  -0.00661453  0.19082761  0.48957125  1
  Ta  Ta114  1  0.22548954  -0.00406373  0.00905689  1
  Ta  Ta115  1  0.80472080  0.39523853  0.76365598  1
  Ta  Ta116  1  0.79220893  0.19575275  0.75151598  1
  Ta  Ta117  1  0.29357805  0.70841171  0.12930180  1
  Ta  Ta118  1  0.69387530  0.50010057  0.37345134  1
  Ta  Ta119  1  0.57985752  0.39047092  0.24693710  1
  Ti  Ti120  1  0.80072877  0.79615006  0.25488553  1
  Ti  Ti121  1  0.60106691  0.59606685  -0.01049579  1
  Ti  Ti122  1  0.88224708  0.11521976  0.89301258  1
  Ti  Ti123  1  0.49758619  0.50156731  0.87454579  1
  Ti  Ti124  1  0.41338972  0.02710487  0.00535001  1
  Ti  Ti125  1  0.19306270  0.00234540  0.24912595  1
  Ti  Ti126  1  0.39874815  0.39627967  0.75915451  1
  Ti  Ti127  1  0.89576578  0.29247839  0.36117094  1
  Ti  Ti128  1  0.30087567  0.29543854  0.87734580  1
  Ti  Ti129  1  0.10409502  0.50528542  0.88008059  1
  Ti  Ti130  1  0.68535598  0.69153538  0.37295747  1
  Ti  Ti131  1  0.69424340  0.49205674  0.12358302  1
  Ti  Ti132  1  0.10903721  0.70479327  0.37972219  1
  Ti  Ti133  1  -0.00542418  0.00432083  0.24532260  1
  Ti  Ti134  1  0.49771662  0.70480789  0.87107138  1
  Ti  Ti135  1  -0.00102642  0.39261969  0.24844517  1
  Ti  Ti136  1  0.50136854  0.12060466  0.14070487  1
  Ti  Ti137  1  -0.00947298  0.60136874  -0.00751629  1
  Ti  Ti138  1  0.50921640  0.49113751  0.38245264  1
  Ti  Ti139  1  0.30910745  0.09571893  0.88610559  1
  Ti  Ti140  1  0.09181294  0.29477512  0.36836764  1
  Ti  Ti141  1  0.00293844  0.40415875  0.74944226  1
  Ti  Ti142  1  0.09553425  0.10254960  0.61948425  1
  Ti  Ti143  1  0.70205601  0.89721992  0.36593823  1
  Ti  Ti144  1  0.40730333  0.38390469  -0.01431855  1
  Ti  Ti145  1  0.88614032  0.48382602  0.38048691  1
  Ti  Ti146  1  0.42279272  0.59304228  0.50467515  1
  Ti  Ti147  1  0.59978093  0.40842233  0.76073866  1
  Ti  Ti148  1  0.21561644  0.19805459  0.01496688  1
  Ti  Ti149  1  0.80097242  0.78947828  0.75932801  1
  Ti  Ti150  1  0.00361767  0.79430844  -0.00315987  1
  Ti  Ti151  1  0.09062001  0.09247348  0.36473349  1
  Ti  Ti152  1  0.87982574  0.11131711  0.12380885  1
  Ti  Ti153  1  0.82844832  0.00123633  0.47513188  1
  Ti  Ti154  1  0.49767718  0.10076817  0.61723690  1
  Ti  Ti155  1  0.50431498  0.92355606  0.88656550  1
  Ti  Ti156  1  0.70055467  0.69188035  0.87711724  1
  Ti  Ti157  1  0.91154440  0.49239769  0.87584878  1
  Ti  Ti158  1  0.79349985  0.58567807  -0.01701264  1
  Ti  Ti159  1  0.31233451  0.09986666  0.14138690  1
  Mo  Mo160  1  0.30532051  0.90541821  0.88418764  1
  Mo  Mo161  1  0.70112551  0.70198951  0.63499537  1
  Mo  Mo162  1  0.39980879  0.41223857  0.25426070  1
  Mo  Mo163  1  0.49990019  0.10349639  0.87156632  1
  Mo  Mo164  1  0.51423138  0.49688110  0.63004382  1
  Mo  Mo165  1  0.69698125  0.50032994  0.87385303  1
  Mo  Mo166  1  0.48978321  0.30679559  0.86211993  1
  Mo  Mo167  1  0.01287680  0.00877708  0.48959780  1
  Mo  Mo168  1  0.90008512  0.29930537  0.86732070  1
  Mo  Mo169  1  0.50504085  0.10800138  0.37621207  1
  Mo  Mo170  1  0.80464392  0.20085721  0.24583631  1
  Mo  Mo171  1  0.80398412  0.40133231  0.49573655  1
  Mo  Mo172  1  0.41807998  0.39156815  0.50209572  1
  Mo  Mo173  1  0.59856401  0.19934080  0.24955825  1
  Mo  Mo174  1  0.59757499  0.60582360  0.49946366  1
  Mo  Mo175  1  0.00113707  0.41338084  0.00084203  1
  Mo  Mo176  1  0.19832807  0.60274147  -0.00331819  1
  Mo  Mo177  1  0.59525333  0.00206827  0.00622978  1
  Mo  Mo178  1  0.79344726  0.18714446  0.00585346  1
  Mo  Mo179  1  0.50205094  0.31469627  0.38586039  1
  Mo  Mo180  1  0.60614117  0.00416572  0.25988535  1
  Mo  Mo181  1  0.19966134  0.78980067  0.25196411  1
  Mo  Mo182  1  0.10714592  0.30314003  0.13771054  1
  Mo  Mo183  1  0.50729156  0.89573776  0.36892594  1
  Mo  Mo184  1  0.09916899  0.90998031  0.35741619  1
  Mo  Mo185  1  0.38730720  0.19936813  -0.00203830  1
  Mo  Mo186  1  0.40567951  0.78786937  0.74384157  1
  Mo  Mo187  1  0.18866663  0.00385345  0.48703376  1
  Mo  Mo188  1  0.50420568  0.68266766  0.37593160  1
  Mo  Mo189  1  0.60574249  0.78854637  0.48700670  1
  Mo  Mo190  1  0.68794526  0.50210544  0.63522670  1
  Mo  Mo191  1  0.39963498  0.79434701  0.26627573  1
  Mo  Mo192  1  0.60712056  0.42139265  0.50532369  1
  Mo  Mo193  1  0.18519189  0.39460762  0.50051076  1
  Mo  Mo194  1  0.89970071  0.30429768  0.14050059  1
  Mo  Mo195  1  0.79330673  0.00831355  0.00670222  1
  Mo  Mo196  1  0.50031140  0.30321086  0.12303411  1
  Mo  Mo197  1  0.90650177  0.10652534  0.36144328  1
  Mo  Mo198  1  0.89601576  0.91037883  0.36085505  1
  Mo  Mo199  1  0.90109288  0.69037532  0.87995614  1
