# generated using pymatgen
data_HfZrTaTiMo
_symmetry_space_group_name_H-M   'P 1'
_cell_length_a   15.22392727
_cell_length_b   15.19606727
_cell_length_c   16.84029209
_cell_angle_alpha   90.04146253
_cell_angle_beta   89.96477117
_cell_angle_gamma   89.91452873
_symmetry_Int_Tables_number   1
_chemical_formula_structural   HfZrTaTiMo
_chemical_formula_sum   'Hf40 Zr40 Ta40 Ti40 Mo40'
_cell_volume   3895.89145492
_cell_formula_units_Z   40
loop_
 _symmetry_equiv_pos_site_id
 _symmetry_equiv_pos_as_xyz
  1  'x, y, z'
loop_
 _atom_site_type_symbol
 _atom_site_label
 _atom_site_symmetry_multiplicity
 _atom_site_fract_x
 _atom_site_fract_y
 _atom_site_fract_z
 _atom_site_occupancy
  Hf  Hf0  1  0.89309669  0.91462286  0.61459625  1
  Hf  Hf1  1  0.78786230  0.60002960  0.49457228  1
  Hf  Hf2  1  0.81573060  0.21021434  0.73643273  1
  Hf  Hf3  1  0.58182965  0.60254873  0.50502149  1
  Hf  Hf4  1  0.41442405  0.00782258  0.47293415  1
  Hf  Hf5  1  0.77270648  0.61017204  -0.01404439  1
  Hf  Hf6  1  0.49423932  0.68329546  0.89149587  1
  Hf  Hf7  1  0.41221407  0.20987615  0.24692619  1
  Hf  Hf8  1  0.49656157  0.91371373  0.11845200  1
  Hf  Hf9  1  0.72112065  0.10937288  0.14552454  1
  Hf  Hf10  1  0.67821682  0.51381213  0.12490619  1
  Hf  Hf11  1  0.61044390  -0.02664068  0.48209594  1
  Hf  Hf12  1  0.01812135  0.02189483  0.73013833  1
  Hf  Hf13  1  0.49865775  0.30908887  0.38411978  1
  Hf  Hf14  1  0.41267503  0.59382957  0.24011873  1
  Hf  Hf15  1  0.59496516  0.19035782  0.50102820  1
  Hf  Hf16  1  0.21024111  0.79548238  0.49319453  1
  Hf  Hf17  1  -0.01323997  0.58764409  0.73946740  1
  Hf  Hf18  1  0.68939795  0.49337286  0.62591575  1
  Hf  Hf19  1  0.21896084  0.00375158  0.47913961  1
  Hf  Hf20  1  0.49571237  0.50199476  0.64743460  1
  Hf  Hf21  1  0.58806765  0.40554662  0.24929112  1
  Hf  Hf22  1  0.18574859  0.79326948  0.02280353  1
  Hf  Hf23  1  0.90100091  0.70463325  0.38169288  1
  Hf  Hf24  1  0.49813030  0.08643849  0.62356995  1
  Hf  Hf25  1  0.00747219  0.18909943  0.01654266  1
  Hf  Hf26  1  0.80077528  0.19894656  -0.00194803  1
  Hf  Hf27  1  0.91007173  0.70059141  0.88102631  1
  Hf  Hf28  1  0.30925485  0.09300601  0.12124748  1
  Hf  Hf29  1  0.58937674  -0.00618494  0.77886843  1
  Hf  Hf30  1  0.60892733  0.78540751  0.00704403  1
  Hf  Hf31  1  0.59797289  0.02143628  -0.01401256  1
  Hf  Hf32  1  0.01811521  0.79564320  0.73215233  1
  Hf  Hf33  1  0.91522946  0.11400855  0.86731369  1
  Hf  Hf34  1  0.10130822  0.70260916  0.36523542  1
  Hf  Hf35  1  0.91441009  0.31192004  0.86989800  1
  Hf  Hf36  1  0.79361185  0.01132554  0.76331875  1
  Hf  Hf37  1  0.29406737  0.49241752  0.37382297  1
  Hf  Hf38  1  0.78343370  0.60693821  0.75930776  1
  Hf  Hf39  1  0.30411162  0.08950120  0.89122141  1
  Zr  Zr40  1  0.70924526  0.08886216  0.61163047  1
  Zr  Zr41  1  0.81542867  0.00048888  -0.00941934  1
  Zr  Zr42  1  0.78564630  0.40199755  0.00004620  1
  Zr  Zr43  1  0.69613773  0.30521129  0.86810787  1
  Zr  Zr44  1  0.30666520  0.30061437  0.87804674  1
  Zr  Zr45  1  0.92901790  0.90447053  0.86819445  1
  Zr  Zr46  1  0.66924743  0.70757673  0.37528935  1
  Zr  Zr47  1  0.12691500  0.90607328  0.61974060  1
  Zr  Zr48  1  0.41001491  0.00372530  0.25711354  1
  Zr  Zr49  1  0.89291808  0.49625530  0.12291940  1
  Zr  Zr50  1  0.60361645  0.19223849  0.74702383  1
  Zr  Zr51  1  0.39983591  0.40612020  0.50809465  1
  Zr  Zr52  1  0.68348607  0.89012719  0.63789892  1
  Zr  Zr53  1  0.79806785  0.80500832  0.76035795  1
  Zr  Zr54  1  0.41385094  0.80947340  0.49381100  1
  Zr  Zr55  1  0.00232834  0.39920463  0.25830659  1
  Zr  Zr56  1  0.70817893  0.90762072  0.12497637  1
  Zr  Zr57  1  0.29879567  0.09483838  0.62258112  1
  Zr  Zr58  1  0.30479936  0.31047013  0.11857100  1
  Zr  Zr59  1  0.78162098  0.59072887  0.26385600  1
  Zr  Zr60  1  0.08996998  0.50181800  0.87254390  1
  Zr  Zr61  1  0.39658963  -0.00632986  0.76691368  1
  Zr  Zr62  1  0.88648390  0.70245420  0.61929348  1
  Zr  Zr63  1  0.79213002  0.80117320  0.25502330  1
  Zr  Zr64  1  0.39082809  0.61237252  0.50296405  1
  Zr  Zr65  1  0.10643494  0.09446833  0.87884082  1
  Zr  Zr66  1  -0.00029744  0.40089106  0.01189301  1
  Zr  Zr67  1  0.80478057  0.40788124  0.74534232  1
  Zr  Zr68  1  0.19790154  0.60004580  0.50527859  1
  Zr  Zr69  1  -0.00610654  0.60239053  0.24890448  1
  Zr  Zr70  1  0.42426059  0.19567453  0.00466829  1
  Zr  Zr71  1  0.91432962  0.11954705  0.60372018  1
  Zr  Zr72  1  0.88181494  0.70310204  0.12057184  1
  Zr  Zr73  1  0.77767694  0.81324739  0.49517934  1
  Zr  Zr74  1  0.70350134  0.29426268  0.38168151  1
  Zr  Zr75  1  0.09365317  0.47860363  0.61443047  1
  Zr  Zr76  1  0.00474555  0.18906453  0.26011046  1
  Zr  Zr77  1  0.10724903  0.29652755  0.88037516  1
  Zr  Zr78  1  0.18712782  0.60841922  0.74386914  1
  Zr  Zr79  1  0.30693209  0.88466798  0.34701545  1
  Ta  Ta80  1  0.29259708  0.70123558  0.88871131  1
  Ta  Ta81  1  0.29272894  0.29855794  0.62166538  1
  Ta  Ta82  1  0.58729272  0.78305122  0.22317854  1
  Ta  Ta83  1  0.20705087  0.21000007  0.25092860  1
  Ta  Ta84  1  0.29556054  0.89617970  0.13759183  1
  Ta  Ta85  1  0.49597246  0.70977393  0.64120072  1
  Ta  Ta86  1  0.50000322  0.29867489  0.62631700  1
  Ta  Ta87  1  0.82679482  0.00061030  0.25989617  1
  Ta  Ta88  1  0.19575439  0.19113739  0.74160773  1
  Ta  Ta89  1  0.11067111  0.30747640  0.38841291  1
  Ta  Ta90  1  0.20868895  0.42046165  0.00147714  1
  Ta  Ta91  1  0.89013078  0.28456733  0.13625979  1
  Ta  Ta92  1  0.18586118  0.38403270  0.74161710  1
  Ta  Ta93  1  0.10085528  0.71173987  0.88044557  1
  Ta  Ta94  1  0.92276493  0.07789296  0.13125908  1
  Ta  Ta95  1  0.01589840  0.61470497  0.01206318  1
  Ta  Ta96  1  0.38870561  0.60805704  0.75579338  1
  Ta  Ta97  1  0.29521524  0.49736652  0.63846874  1
  Ta  Ta98  1  0.90352894  0.90591164  0.38845832  1
  Ta  Ta99  1  0.79732541  0.39101055  0.25436443  1
  Ta  Ta100  1  0.48746191  0.48669917  0.85967328  1
  Ta  Ta101  1  0.08895844  0.92529992  0.13786296  1
  Ta  Ta102  1  0.29094686  0.68087029  0.12819345  1
  Ta  Ta103  1  0.29908152  0.71142199  0.63403535  1
  Ta  Ta104  1  0.11553097  0.50686111  0.12696470  1
  Ta  Ta105  1  0.38861314  0.79116135  0.01861619  1
  Ta  Ta106  1  -0.00118699  0.81547441  0.01758000  1
  Ta  Ta107  1  0.71368742  0.09515607  0.36608967  1
  Ta  Ta108  1  0.29919592  0.69588349  0.35004281  1
  Ta  Ta109  1  0.69304342  0.29979384  0.13501459  1
  Ta  Ta110  1  0.38849592  0.40109722  0.24733038  1
  Ta  Ta111  1  0.10362070  0.30505825  0.13023549  1
  Ta  Ta112  1  0.09707257  0.90017144  0.36756263  1
  Ta  Ta113  1  -0.00956865  0.81638022  0.24161869  1
  Ta  Ta114  1  -0.00072220  0.60362352  0.50256090  1
  Ta  Ta115  1  0.19578998  0.01490776  0.25631691  1
  Ta  Ta116  1  0.89277426  0.49272232  0.60555040  1
  Ta  Ta117  1  0.39677742  0.80111625  0.76517070  1
  Ta  Ta118  1  0.01485619  0.00231568  0.49534902  1
  Ta  Ta119  1  0.01041245  0.80043388  0.50798661  1
  Ti  Ti120  1  0.59266321  0.78907904  0.77363206  1
  Ti  Ti121  1  0.70343746  0.30141030  0.60833555  1
  Ti  Ti122  1  0.80502533  0.80430037  -0.00583540  1
  Ti  Ti123  1  0.39750591  0.19473042  0.75139810  1
  Ti  Ti124  1  0.19800013  0.58517816  0.25073620  1
  Ti  Ti125  1  0.31931775  0.90066349  0.62420595  1
  Ti  Ti126  1  0.90302415  0.10453754  0.39055843  1
  Ti  Ti127  1  0.38869444  0.38901387  0.74628378  1
  Ti  Ti128  1  0.52988621  0.11374572  0.14101680  1
  Ti  Ti129  1  0.29494734  0.29726297  0.37806348  1
  Ti  Ti130  1  0.19721857  -0.00681976  0.01218911  1
  Ti  Ti131  1  0.89679961  0.50414691  0.88365672  1
  Ti  Ti132  1  0.40495606  0.41266028  -0.00009529  1
  Ti  Ti133  1  0.48477334  0.70533907  0.36127399  1
  Ti  Ti134  1  0.50007582  0.50668658  0.37679268  1
  Ti  Ti135  1  0.50061653  0.89291890  0.63314471  1
  Ti  Ti136  1  0.09796254  0.49615040  0.38425725  1
  Ti  Ti137  1  0.11192260  0.11152516  0.38332204  1
  Ti  Ti138  1  0.20971518  -0.00565067  0.75426061  1
  Ti  Ti139  1  0.52197813  0.10637204  0.35848457  1
  Ti  Ti140  1  0.67064658  0.50518002  0.86390278  1
  Ti  Ti141  1  0.39165099  0.19749351  0.49380060  1
  Ti  Ti142  1  0.58740429  0.39856871  0.00256870  1
  Ti  Ti143  1  0.11587605  0.89855076  0.87957059  1
  Ti  Ti144  1  0.20281868  0.20404020  0.01157308  1
  Ti  Ti145  1  0.29331697  0.50196236  0.86584190  1
  Ti  Ti146  1  0.52034855  0.88608263  0.34886805  1
  Ti  Ti147  1  0.47814988  0.89439441  0.90139196  1
  Ti  Ti148  1  0.09776344  0.28296573  0.59968499  1
  Ti  Ti149  1  0.50368995  0.66701868  0.10471239  1
  Ti  Ti150  1  0.89349970  0.48967897  0.38963872  1
  Ti  Ti151  1  0.21266641  0.80429399  0.75491166  1
  Ti  Ti152  1  0.90916170  0.31059917  0.59910360  1
  Ti  Ti153  1  0.69915824  0.89503820  0.88427114  1
  Ti  Ti154  1  0.60996070  0.21066826  -0.00315875  1
  Ti  Ti155  1  0.18905145  0.79527034  0.23489657  1
  Ti  Ti156  1  0.50194739  0.29995303  0.86506045  1
  Ti  Ti157  1  0.67990618  0.69887533  0.63151420  1
  Ti  Ti158  1  0.89921432  0.29743305  0.39135127  1
  Ti  Ti159  1  0.68716125  0.48676258  0.38711835  1
  Mo  Mo160  1  0.02015937  0.22328975  0.73590913  1
  Mo  Mo161  1  0.00735554  0.00290513  0.27120918  1
  Mo  Mo162  1  0.21196820  0.20118666  0.49437445  1
  Mo  Mo163  1  0.39986618  0.78833194  0.22037210  1
  Mo  Mo164  1  0.39249499  -0.01313025  0.00290934  1
  Mo  Mo165  1  0.51118487  0.30438651  0.12304406  1
  Mo  Mo166  1  0.81419784  0.20323827  0.25711478  1
  Mo  Mo167  1  0.61424733  -0.00376268  0.25382924  1
  Mo  Mo168  1  0.59367050  0.39972845  0.50624407  1
  Mo  Mo169  1  0.80056584  0.20144332  0.50079241  1
  Mo  Mo170  1  0.09950552  0.70021065  0.62057241  1
  Mo  Mo171  1  0.19714167  0.60189158  -0.00223481  1
  Mo  Mo172  1  0.28796195  0.88474810  0.89074492  1
  Mo  Mo173  1  0.01529518  -0.00460440  0.00174111  1
  Mo  Mo174  1  0.59066400  0.39153077  0.74588420  1
  Mo  Mo175  1  0.69953082  0.90212126  0.35472063  1
  Mo  Mo176  1  0.49581883  0.11197536  0.87890311  1
  Mo  Mo177  1  0.00042842  0.40485558  0.48418408  1
  Mo  Mo178  1  -0.00379447  0.38810099  0.73546785  1
  Mo  Mo179  1  0.19640740  0.39657832  0.25330683  1
  Mo  Mo180  1  0.58604426  0.79280792  0.50193667  1
  Mo  Mo181  1  0.20667295  0.39586911  0.50445031  1
  Mo  Mo182  1  0.59181669  0.59859567  0.25387409  1
  Mo  Mo183  1  0.80551027  0.00408424  0.48372985  1
  Mo  Mo184  1  0.29772098  0.49975136  0.12732045  1
  Mo  Mo185  1  0.09453062  0.70178094  0.14045055  1
  Mo  Mo186  1  0.58830417  0.60234375  0.75527888  1
  Mo  Mo187  1  0.30686597  0.11195485  0.36449017  1
  Mo  Mo188  1  0.37867203  0.58324083  -0.00122911  1
  Mo  Mo189  1  0.00810517  0.20116769  0.48021947  1
  Mo  Mo190  1  0.11258321  0.10628605  0.60666033  1
  Mo  Mo191  1  0.58220104  0.57744204  -0.01057918  1
  Mo  Mo192  1  0.89952673  0.90637334  0.12664393  1
  Mo  Mo193  1  0.48795342  0.48385759  0.12002290  1
  Mo  Mo194  1  0.79582760  0.40040714  0.50027330  1
  Mo  Mo195  1  0.11563824  0.10704125  0.13199406  1
  Mo  Mo196  1  0.69061489  0.69742318  0.12299027  1
  Mo  Mo197  1  0.70351603  0.10555111  0.87392099  1
  Mo  Mo198  1  0.60887153  0.20389531  0.25567401  1
  Mo  Mo199  1  0.69335268  0.70393241  0.87338123  1
