# generated using pymatgen
data_HfZrTaTiMo
_symmetry_space_group_name_H-M   'P 1'
_cell_length_a   15.17205199
_cell_length_b   15.17766584
_cell_length_c   16.81051828
_cell_angle_alpha   89.97921351
_cell_angle_beta   90.05010394
_cell_angle_gamma   90.13134674
_symmetry_Int_Tables_number   1
_chemical_formula_structural   HfZrTaTiMo
_chemical_formula_sum   'Hf40 Zr40 Ta40 Ti40 Mo40'
_cell_volume   3871.05263957
_cell_formula_units_Z   40
loop_
 _symmetry_equiv_pos_site_id
 _symmetry_equiv_pos_as_xyz
  1  'x, y, z'
loop_
 _atom_site_type_symbol
 _atom_site_label
 _atom_site_symmetry_multiplicity
 _atom_site_fract_x
 _atom_site_fract_y
 _atom_site_fract_z
 _atom_site_occupancy
  Hf  Hf0  1  0.30744759  0.71570983  0.87361938  1
  Hf  Hf1  1  0.39572569  0.20283263  0.00368981  1
  Hf  Hf2  1  0.71703525  0.69610868  0.13936150  1
  Hf  Hf3  1  0.37515184  -0.01518032  0.74963476  1
  Hf  Hf4  1  0.40466893  0.58760040  0.00075280  1
  Hf  Hf5  1  0.10849815  0.90539733  0.88574318  1
  Hf  Hf6  1  0.51161293  0.70154620  0.14879978  1
  Hf  Hf7  1  -0.01097796  0.59382928  -0.00793801  1
  Hf  Hf8  1  0.58618608  0.38958221  0.49039575  1
  Hf  Hf9  1  0.52260285  0.90885474  0.13677144  1
  Hf  Hf10  1  0.20004599  0.40446511  -0.00822224  1
  Hf  Hf11  1  0.29874389  0.10645557  0.36693771  1
  Hf  Hf12  1  0.19598669  0.81228208  0.23885914  1
  Hf  Hf13  1  0.10199157  0.91415401  0.10960575  1
  Hf  Hf14  1  0.80771422  0.40597331  -0.00083809  1
  Hf  Hf15  1  0.19273418  0.60880079  -0.01216302  1
  Hf  Hf16  1  0.49897477  0.69195030  0.35691501  1
  Hf  Hf17  1  0.51503784  0.69562199  0.87397311  1
  Hf  Hf18  1  0.28804817  0.89982403  0.38299990  1
  Hf  Hf19  1  0.40452708  0.78836276  0.50062677  1
  Hf  Hf20  1  0.69548057  0.89026512  0.86324807  1
  Hf  Hf21  1  0.90596267  0.70124846  0.84877967  1
  Hf  Hf22  1  0.59596842  -0.01602918  0.51237286  1
  Hf  Hf23  1  0.71835434  0.48104589  0.38255130  1
  Hf  Hf24  1  0.28512667  0.10439489  0.12838777  1
  Hf  Hf25  1  -0.01758845  -0.00611546  0.50390154  1
  Hf  Hf26  1  0.28426927  0.08644873  0.61443448  1
  Hf  Hf27  1  0.69868223  0.10783133  0.63185049  1
  Hf  Hf28  1  0.00532469  0.79067466  -0.00301696  1
  Hf  Hf29  1  0.19228961  0.39477259  0.75751072  1
  Hf  Hf30  1  0.30006377  0.69516000  0.13267861  1
  Hf  Hf31  1  0.40372702  0.40493717  0.24374570  1
  Hf  Hf32  1  0.60275092  0.39898451  0.00369435  1
  Hf  Hf33  1  0.77765054  -0.00699329  -0.00460133  1
  Hf  Hf34  1  0.91342980  0.29794164  0.12672479  1
  Hf  Hf35  1  0.40198539  0.21061789  0.50315967  1
  Hf  Hf36  1  0.31793523  0.51039998  0.37749202  1
  Hf  Hf37  1  0.87787961  0.09644719  0.37879956  1
  Hf  Hf38  1  0.49916928  0.89215930  0.35479206  1
  Hf  Hf39  1  0.61523078  0.78390329  0.50580166  1
  Zr  Zr40  1  0.59940158  0.18175892  0.49484447  1
  Zr  Zr41  1  0.50612950  0.30039898  0.88391260  1
  Zr  Zr42  1  0.29775352  0.29730385  0.87946689  1
  Zr  Zr43  1  0.41369167  0.79883376  0.01283098  1
  Zr  Zr44  1  0.19290663  0.41218811  0.25169057  1
  Zr  Zr45  1  0.70470167  0.90427454  0.37445914  1
  Zr  Zr46  1  0.69723610  0.29203845  0.12497055  1
  Zr  Zr47  1  0.70982019  0.68011727  0.86182963  1
  Zr  Zr48  1  0.91363226  0.51663940  0.38744108  1
  Zr  Zr49  1  0.12365609  0.90500821  0.60759733  1
  Zr  Zr50  1  0.00226966  0.40217945  0.50569999  1
  Zr  Zr51  1  0.08002211  0.11955483  0.12036617  1
  Zr  Zr52  1  -0.00053250  0.39638506  0.26285460  1
  Zr  Zr53  1  0.30103733  0.70225891  0.35356170  1
  Zr  Zr54  1  -0.01213117  0.80017109  0.24377025  1
  Zr  Zr55  1  0.09244296  0.11271246  0.61539313  1
  Zr  Zr56  1  0.49872195  0.89106997  0.87154186  1
  Zr  Zr57  1  0.51217584  0.49986120  0.12927649  1
  Zr  Zr58  1  0.88939281  0.89782546  0.12108286  1
  Zr  Zr59  1  0.89725356  0.50837765  0.13581792  1
  Zr  Zr60  1  0.39388422  0.19053865  0.75265324  1
  Zr  Zr61  1  0.87290195  0.50390889  0.85123783  1
  Zr  Zr62  1  0.80028521  0.61645171  0.50659995  1
  Zr  Zr63  1  0.08811609  0.90158478  0.38640051  1
  Zr  Zr64  1  0.29149679  0.29479921  0.62671990  1
  Zr  Zr65  1  0.31004144  0.50243861  0.62896769  1
  Zr  Zr66  1  -0.00873826  0.40066931  0.74109663  1
  Zr  Zr67  1  0.38498004  -0.00602603  0.24044845  1
  Zr  Zr68  1  0.21265006  0.61925030  0.51327434  1
  Zr  Zr69  1  0.79893011  0.00010553  0.74966835  1
  Zr  Zr70  1  0.40633258  0.00199271  0.49510784  1
  Zr  Zr71  1  0.89356846  0.09975641  0.87198527  1
  Zr  Zr72  1  0.29812462  0.30714517  0.37320642  1
  Zr  Zr73  1  0.80597485  0.78548228  -0.00408141  1
  Zr  Zr74  1  0.79056756  0.19538815  0.24853025  1
  Zr  Zr75  1  0.78787799  0.19848575  -0.00882732  1
  Zr  Zr76  1  0.41168130  0.39803614  0.75014977  1
  Zr  Zr77  1  0.60707726  0.19838593  0.75986660  1
  Zr  Zr78  1  0.01110575  0.81423239  0.73661770  1
  Zr  Zr79  1  0.09709268  0.70435546  0.38173288  1
  Ta  Ta80  1  0.89688482  0.10788472  0.63006015  1
  Ta  Ta81  1  0.22089688  0.82179972  0.74946852  1
  Ta  Ta82  1  0.60885022  0.58302199  0.74067127  1
  Ta  Ta83  1  0.79048545  0.00673521  0.51204926  1
  Ta  Ta84  1  0.30754793  0.50655543  0.86866043  1
  Ta  Ta85  1  0.40912213  0.00952877  0.01006728  1
  Ta  Ta86  1  0.18996786  0.18274551  0.76184416  1
  Ta  Ta87  1  -0.01341436  0.00804610  0.25207540  1
  Ta  Ta88  1  0.82336956  0.81397692  0.49818499  1
  Ta  Ta89  1  0.59877376  0.59355551  0.48348419  1
  Ta  Ta90  1  0.61796718  0.58852588  0.27040497  1
  Ta  Ta91  1  0.20356000  0.60802223  0.75002676  1
  Ta  Ta92  1  0.49260895  0.08550247  0.87480378  1
  Ta  Ta93  1  -0.00340543  0.21321749  -0.01398960  1
  Ta  Ta94  1  0.49559896  0.29070865  0.35896979  1
  Ta  Ta95  1  0.01323773  0.01125140  0.74812613  1
  Ta  Ta96  1  0.31125043  0.71585614  0.63751431  1
  Ta  Ta97  1  0.68196771  0.07956778  0.12669864  1
  Ta  Ta98  1  0.20630689  0.40325681  0.50046018  1
  Ta  Ta99  1  0.10084261  0.49764671  0.12019227  1
  Ta  Ta100  1  0.10668382  0.50225912  0.62522395  1
  Ta  Ta101  1  -0.00330733  0.20075515  0.26679287  1
  Ta  Ta102  1  0.09815420  0.69417658  0.12300780  1
  Ta  Ta103  1  0.18286140  0.21206777  0.25402726  1
  Ta  Ta104  1  0.89134103  0.29358216  0.62061784  1
  Ta  Ta105  1  0.00093165  0.20535783  0.75824375  1
  Ta  Ta106  1  0.60343112  0.78717061  0.73244537  1
  Ta  Ta107  1  0.11411628  0.50867230  0.38821937  1
  Ta  Ta108  1  0.41218554  0.60439588  0.75129250  1
  Ta  Ta109  1  0.50923516  0.49999005  0.87739905  1
  Ta  Ta110  1  0.88152657  0.30893370  0.38414413  1
  Ta  Ta111  1  0.49586883  0.29203045  0.13193340  1
  Ta  Ta112  1  0.01682324  0.60145650  0.25164059  1
  Ta  Ta113  1  0.00479067  0.61993437  0.52554116  1
  Ta  Ta114  1  0.61196194  0.38859182  0.25928870  1
  Ta  Ta115  1  0.29841723  0.91343722  0.89803846  1
  Ta  Ta116  1  0.29042698  0.30431203  0.12391003  1
  Ta  Ta117  1  0.49267742  0.09294942  0.63446327  1
  Ta  Ta118  1  0.50778371  0.49122930  0.62054625  1
  Ta  Ta119  1  0.18651557  0.20808176  0.48746255  1
  Ti  Ti120  1  0.17795758  0.01040195  0.25188598  1
  Ti  Ti121  1  0.70840874  0.31450272  0.87112698  1
  Ti  Ti122  1  -0.01277188  0.20414875  0.48881855  1
  Ti  Ti123  1  0.81752354  0.60730999  0.26670711  1
  Ti  Ti124  1  0.61669212  0.80207594  0.00813731  1
  Ti  Ti125  1  0.41617267  0.58984513  0.50314925  1
  Ti  Ti126  1  0.00745843  0.39937299  -0.00825254  1
  Ti  Ti127  1  0.71535261  0.88565148  0.63201100  1
  Ti  Ti128  1  0.59183870  -0.00734138  0.74211439  1
  Ti  Ti129  1  0.90466978  0.89925941  0.87024693  1
  Ti  Ti130  1  0.09180862  0.50633266  0.86293800  1
  Ti  Ti131  1  0.29785731  0.50341634  0.12483074  1
  Ti  Ti132  1  0.79541499  0.59510777  0.00278252  1
  Ti  Ti133  1  0.59480570  0.17453338  -0.00513421  1
  Ti  Ti134  1  0.50779111  0.68442398  0.62510822  1
  Ti  Ti135  1  0.89099537  0.49943845  0.62447467  1
  Ti  Ti136  1  0.09254522  0.10269063  0.37967058  1
  Ti  Ti137  1  0.90176917  0.30908169  0.86956503  1
  Ti  Ti138  1  0.70228569  0.30457617  0.61818794  1
  Ti  Ti139  1  0.69751746  0.49892877  0.61063206  1
  Ti  Ti140  1  0.48781040  0.88534855  0.63453840  1
  Ti  Ti141  1  0.70782825  0.49612052  0.14218163  1
  Ti  Ti142  1  0.79363724  -0.00875988  0.24483267  1
  Ti  Ti143  1  0.80137678  0.21319518  0.75646336  1
  Ti  Ti144  1  0.50427822  0.09895362  0.35370296  1
  Ti  Ti145  1  0.61117814  0.39924304  0.74769320  1
  Ti  Ti146  1  0.10587995  0.70565210  0.85982211  1
  Ti  Ti147  1  0.70028785  0.27936510  0.37930416  1
  Ti  Ti148  1  0.61144422  0.60106864  0.00434537  1
  Ti  Ti149  1  0.18844235  0.20456863  -0.00496345  1
  Ti  Ti150  1  0.00556593  0.60334357  0.72819918  1
  Ti  Ti151  1  0.09624421  0.29959382  0.62319650  1
  Ti  Ti152  1  0.29654579  0.90028528  0.10653094  1
  Ti  Ti153  1  0.10345850  0.09913782  0.88358846  1
  Ti  Ti154  1  0.89045850  0.71805142  0.63793157  1
  Ti  Ti155  1  0.49864821  0.10714661  0.13933926  1
  Ti  Ti156  1  -0.01066550  0.00996753  -0.00411898  1
  Ti  Ti157  1  0.50628918  0.29377793  0.62925435  1
  Ti  Ti158  1  0.88691022  0.10101522  0.12129274  1
  Ti  Ti159  1  0.80211320  0.79487156  0.26588032  1
  Mo  Mo160  1  0.39099137  0.20419121  0.23951191  1
  Mo  Mo161  1  0.40394130  0.59266064  0.24236665  1
  Mo  Mo162  1  0.09194456  0.29786755  0.87329683  1
  Mo  Mo163  1  0.89816566  0.90355819  0.37181674  1
  Mo  Mo164  1  0.59342460  -0.00536491  -0.00220140  1
  Mo  Mo165  1  0.50662626  0.49188015  0.37072548  1
  Mo  Mo166  1  0.10087143  0.30417975  0.12041273  1
  Mo  Mo167  1  0.70981029  0.69562260  0.37182393  1
  Mo  Mo168  1  0.68145020  0.09377913  0.87030405  1
  Mo  Mo169  1  0.19732863  0.01349335  0.48455568  1
  Mo  Mo170  1  0.20803225  0.79932252  0.50646242  1
  Mo  Mo171  1  0.80004655  0.20018132  0.50341943  1
  Mo  Mo172  1  0.19201029  0.00071165  0.75551933  1
  Mo  Mo173  1  0.20165062  0.01371855  0.00288049  1
  Mo  Mo174  1  0.79747884  0.59605793  0.72294509  1
  Mo  Mo175  1  0.39667323  0.80511104  0.23392719  1
  Mo  Mo176  1  -0.00195591  0.79401852  0.51784625  1
  Mo  Mo177  1  0.80066674  0.80203952  0.74650786  1
  Mo  Mo178  1  0.60814794  0.00879642  0.25572958  1
  Mo  Mo179  1  0.11032638  0.70155196  0.63989913  1
  Mo  Mo180  1  0.61661255  0.79714222  0.25444132  1
  Mo  Mo181  1  0.90827053  0.71234037  0.38346333  1
  Mo  Mo182  1  0.70058358  0.69487655  0.62647576  1
  Mo  Mo183  1  0.90233140  0.91252186  0.63008663  1
  Mo  Mo184  1  0.09233696  0.30092800  0.38312922  1
  Mo  Mo185  1  0.40561807  0.40100353  0.50204490  1
  Mo  Mo186  1  0.79690977  0.39459275  0.51362548  1
  Mo  Mo187  1  0.19405352  0.59675670  0.24452217  1
  Mo  Mo188  1  0.90725672  0.68811443  0.12823728  1
  Mo  Mo189  1  0.78329269  0.39732302  0.73147790  1
  Mo  Mo190  1  0.79604901  0.40339384  0.25616170  1
  Mo  Mo191  1  0.29320492  0.09263938  0.88790737  1
  Mo  Mo192  1  0.69022624  0.09476587  0.37781826  1
  Mo  Mo193  1  0.68909032  0.49642418  0.87340324  1
  Mo  Mo194  1  0.40900205  0.79538896  0.74805266  1
  Mo  Mo195  1  0.20033446  0.79939240  0.00518960  1
  Mo  Mo196  1  0.39739159  0.40223823  0.01201136  1
  Mo  Mo197  1  0.30744122  0.89875900  0.61219257  1
  Mo  Mo198  1  0.70090944  0.88992699  0.13600052  1
  Mo  Mo199  1  0.59380429  0.19739753  0.25238842  1
