# generated using pymatgen
data_HfZrTaTiMo
_symmetry_space_group_name_H-M   'P 1'
_cell_length_a   15.21249498
_cell_length_b   15.21154826
_cell_length_c   16.83496556
_cell_angle_alpha   90.04483654
_cell_angle_beta   90.03327037
_cell_angle_gamma   90.05014167
_symmetry_Int_Tables_number   1
_chemical_formula_structural   HfZrTaTiMo
_chemical_formula_sum   'Hf40 Zr40 Ta40 Ti40 Mo40'
_cell_volume   3895.70198904
_cell_formula_units_Z   40
loop_
 _symmetry_equiv_pos_site_id
 _symmetry_equiv_pos_as_xyz
  1  'x, y, z'
loop_
 _atom_site_type_symbol
 _atom_site_label
 _atom_site_symmetry_multiplicity
 _atom_site_fract_x
 _atom_site_fract_y
 _atom_site_fract_z
 _atom_site_occupancy
  Hf  Hf0  1  0.50146546  0.69966928  0.38713301  1
  Hf  Hf1  1  0.70073565  0.69293436  0.86563424  1
  Hf  Hf2  1  0.89577973  0.10205653  0.36566708  1
  Hf  Hf3  1  0.89801272  0.70530896  0.38740222  1
  Hf  Hf4  1  0.49723171  0.89444943  0.37094677  1
  Hf  Hf5  1  0.40394927  0.60528179  -0.00071345  1
  Hf  Hf6  1  0.08680003  0.10242162  0.12215640  1
  Hf  Hf7  1  0.29419821  0.88949315  0.88748514  1
  Hf  Hf8  1  0.49850555  0.70797250  0.87242603  1
  Hf  Hf9  1  0.01792580  0.79159982  0.75506117  1
  Hf  Hf10  1  0.60660666  0.00242221  0.01772854  1
  Hf  Hf11  1  0.30243663  0.70048749  0.38004567  1
  Hf  Hf12  1  0.39625307  0.18464247  0.01157414  1
  Hf  Hf13  1  0.40409183  0.41153707  0.74235112  1
  Hf  Hf14  1  0.50358538  0.90309665  0.61886523  1
  Hf  Hf15  1  0.19459779  0.21794033  0.00056210  1
  Hf  Hf16  1  0.19525618  -0.00568769  0.23904612  1
  Hf  Hf17  1  0.50170662  0.70024824  0.61522807  1
  Hf  Hf18  1  0.79017020  0.61155475  0.26218890  1
  Hf  Hf19  1  0.40988435  0.00676006  0.75104469  1
  Hf  Hf20  1  0.08876773  0.08857064  0.87975333  1
  Hf  Hf21  1  0.69812381  0.51647233  0.13061800  1
  Hf  Hf22  1  -0.00991511  -0.00923258  0.73801865  1
  Hf  Hf23  1  0.19535804  0.59629246  -0.01654450  1
  Hf  Hf24  1  0.39900323  0.79250983  0.24125825  1
  Hf  Hf25  1  0.28786419  0.70268208  0.62434315  1
  Hf  Hf26  1  0.09816414  0.29998394  0.14278350  1
  Hf  Hf27  1  0.80383804  0.58900882  0.74582280  1
  Hf  Hf28  1  0.09668081  0.30258963  0.85956640  1
  Hf  Hf29  1  0.90750350  0.50221338  0.61083849  1
  Hf  Hf30  1  0.30384742  0.09898652  0.87521356  1
  Hf  Hf31  1  0.60897161  0.18864277  0.25745526  1
  Hf  Hf32  1  0.20561257  0.39358139  0.26631267  1
  Hf  Hf33  1  0.90329006  0.29227132  0.14413426  1
  Hf  Hf34  1  0.09112464  0.69430778  0.10506119  1
  Hf  Hf35  1  0.29682582  0.09861353  0.61603249  1
  Hf  Hf36  1  0.27435614  0.32327514  0.62129221  1
  Hf  Hf37  1  0.49808434  0.50103536  0.12893180  1
  Hf  Hf38  1  0.00811594  0.80156294  0.24468455  1
  Hf  Hf39  1  0.60126324  0.19535379  0.00755304  1
  Zr  Zr40  1  0.39241352  0.20685432  0.73862582  1
  Zr  Zr41  1  0.50631207  0.91644335  0.88338966  1
  Zr  Zr42  1  0.61136853  0.40260000  0.26357346  1
  Zr  Zr43  1  0.81415508  0.80997861  0.24400535  1
  Zr  Zr44  1  0.90111970  0.50220496  0.13012258  1
  Zr  Zr45  1  0.02484143  0.38607953  0.50484959  1
  Zr  Zr46  1  0.09259216  0.50164779  0.37302082  1
  Zr  Zr47  1  0.39537173  0.00900266  0.23415532  1
  Zr  Zr48  1  0.09565801  0.49626938  0.12918987  1
  Zr  Zr49  1  0.49857918  0.09394683  0.38351924  1
  Zr  Zr50  1  0.49881640  0.09907330  0.60114476  1
  Zr  Zr51  1  0.49946535  0.29661481  0.13505510  1
  Zr  Zr52  1  0.01227708  0.39897664  -0.00487700  1
  Zr  Zr53  1  0.69988535  0.31235369  0.86767408  1
  Zr  Zr54  1  0.89841126  0.29474972  0.86998288  1
  Zr  Zr55  1  0.71697322  0.89870108  0.37041566  1
  Zr  Zr56  1  0.09763633  0.71103303  0.37948437  1
  Zr  Zr57  1  0.29250941  0.49042097  0.12348142  1
  Zr  Zr58  1  0.51119094  0.89105337  0.13191712  1
  Zr  Zr59  1  0.61443236  -0.00463378  0.49078789  1
  Zr  Zr60  1  0.60542240  0.40605070  0.00539293  1
  Zr  Zr61  1  0.38255995  0.39254201  -0.00131977  1
  Zr  Zr62  1  0.38199264  0.20968121  0.48873251  1
  Zr  Zr63  1  0.17836577  0.21645744  0.48907152  1
  Zr  Zr64  1  0.09666080  0.89400234  0.10027466  1
  Zr  Zr65  1  0.69799660  0.09947310  0.62538218  1
  Zr  Zr66  1  0.51459389  0.50528377  0.87613705  1
  Zr  Zr67  1  0.49373904  0.29397113  0.87612344  1
  Zr  Zr68  1  0.39315255  0.79861072  0.74965388  1
  Zr  Zr69  1  0.80185016  0.39343239  0.00743244  1
  Zr  Zr70  1  0.58833556  0.18865738  0.75267074  1
  Zr  Zr71  1  0.50661705  0.30672900  0.60256143  1
  Zr  Zr72  1  0.79964453  0.39226284  0.48457315  1
  Zr  Zr73  1  0.20107599  0.60897464  0.24945655  1
  Zr  Zr74  1  0.11642197  0.50166137  0.63344244  1
  Zr  Zr75  1  0.82002957  -0.00202147  0.51056918  1
  Zr  Zr76  1  0.80090481  0.19046616  0.75297500  1
  Zr  Zr77  1  0.10469653  0.10349629  0.62734777  1
  Zr  Zr78  1  0.50295747  0.50156719  0.39502026  1
  Zr  Zr79  1  0.00092516  0.81312432  0.51446478  1
  Ta  Ta80  1  0.90530983  0.90208009  0.88341827  1
  Ta  Ta81  1  0.50161084  0.50192148  0.60871782  1
  Ta  Ta82  1  0.09080495  0.08630005  0.37218696  1
  Ta  Ta83  1  0.19276969  0.59657085  0.50026849  1
  Ta  Ta84  1  0.50499901  0.30278470  0.38726342  1
  Ta  Ta85  1  -0.00433519  0.19236148  0.74439980  1
  Ta  Ta86  1  0.89345425  0.70169439  0.10961258  1
  Ta  Ta87  1  0.40113438  0.79940205  0.01146320  1
  Ta  Ta88  1  0.79630758  0.79915146  0.51257742  1
  Ta  Ta89  1  0.40291769  0.39869011  0.26221897  1
  Ta  Ta90  1  0.81295768  0.80089455  0.75114033  1
  Ta  Ta91  1  0.88678077  0.49772498  0.87265988  1
  Ta  Ta92  1  0.69895724  0.49728372  0.61527059  1
  Ta  Ta93  1  0.07936761  0.51793986  0.86171689  1
  Ta  Ta94  1  0.61010875  0.78902585  0.00369496  1
  Ta  Ta95  1  -0.01539830  0.19213545  -0.00261560  1
  Ta  Ta96  1  0.29470378  0.90565311  0.62367727  1
  Ta  Ta97  1  0.60924283  0.40860740  0.74059445  1
  Ta  Ta98  1  -0.01371045  0.40529152  0.74380218  1
  Ta  Ta99  1  0.79424318  0.01427190  0.23987246  1
  Ta  Ta100  1  0.79666166  -0.00901259  0.75148158  1
  Ta  Ta101  1  0.79475932  0.18812552  -0.00131043  1
  Ta  Ta102  1  0.78881680  0.60140541  -0.00720643  1
  Ta  Ta103  1  -0.01682202  0.19350362  0.50374694  1
  Ta  Ta104  1  0.40404721  0.59610814  0.25042791  1
  Ta  Ta105  1  0.61546323  0.78509509  0.25092570  1
  Ta  Ta106  1  0.29245180  0.90106671  0.37428968  1
  Ta  Ta107  1  0.70565847  0.89596486  0.87576215  1
  Ta  Ta108  1  0.19612842  0.62659576  0.76717364  1
  Ta  Ta109  1  0.20409552  0.80463695  0.23984939  1
  Ta  Ta110  1  0.89721662  0.29201559  0.62607594  1
  Ta  Ta111  1  0.90180787  0.69888779  0.62508739  1
  Ta  Ta112  1  0.19954079  0.81029024  0.50153620  1
  Ta  Ta113  1  0.39419199  0.20466864  0.26275027  1
  Ta  Ta114  1  0.29309317  0.30456863  0.86566901  1
  Ta  Ta115  1  0.59508419  0.59909355  0.73690266  1
  Ta  Ta116  1  0.01028134  0.00289542  0.51144312  1
  Ta  Ta117  1  0.21124527  0.00899683  0.01123058  1
  Ta  Ta118  1  0.70194256  0.30274070  0.62263393  1
  Ta  Ta119  1  0.68947845  0.08604505  0.87325804  1
  Ti  Ti120  1  0.70343698  0.69986576  0.63143249  1
  Ti  Ti121  1  0.19554592  -0.01535505  0.75364354  1
  Ti  Ti122  1  0.90521322  0.50357586  0.38242703  1
  Ti  Ti123  1  -0.01041787  0.60309485  0.24982450  1
  Ti  Ti124  1  0.09967776  0.89231607  0.89588853  1
  Ti  Ti125  1  0.91539489  0.69083312  0.87909274  1
  Ti  Ti126  1  0.61829053  0.60207389  0.49911314  1
  Ti  Ti127  1  0.39437318  0.80909647  0.50164273  1
  Ti  Ti128  1  0.80337586  0.00487902  -0.00070715  1
  Ti  Ti129  1  0.71345641  0.89442622  0.12363625  1
  Ti  Ti130  1  0.80156330  0.40621313  0.26651683  1
  Ti  Ti131  1  0.60636214  0.80755740  0.74818503  1
  Ti  Ti132  1  0.90279008  0.29591106  0.36004244  1
  Ti  Ti133  1  0.19933808  0.41475945  0.76028312  1
  Ti  Ti134  1  0.29739082  0.29182522  0.13882685  1
  Ti  Ti135  1  0.09618808  0.69665334  0.62236276  1
  Ti  Ti136  1  0.19514927  -0.00532334  0.49577362  1
  Ti  Ti137  1  0.40200136  0.00015163  0.02299496  1
  Ti  Ti138  1  0.20249093  0.18794927  0.25795019  1
  Ti  Ti139  1  0.29149839  0.09475999  0.37948651  1
  Ti  Ti140  1  0.29865201  0.69897329  0.12078727  1
  Ti  Ti141  1  0.19594730  0.19666198  0.75055170  1
  Ti  Ti142  1  0.30162422  0.50598394  0.86904672  1
  Ti  Ti143  1  0.30518514  0.50024266  0.37793129  1
  Ti  Ti144  1  0.71013654  0.29426666  0.13610267  1
  Ti  Ti145  1  0.90616878  0.90366018  0.10625686  1
  Ti  Ti146  1  0.60831557  -0.00361903  0.24351112  1
  Ti  Ti147  1  0.60016599  0.60282360  0.26519980  1
  Ti  Ti148  1  -0.00579316  -0.00614340  0.24391534  1
  Ti  Ti149  1  0.08588929  0.28638070  0.35694138  1
  Ti  Ti150  1  0.38399541  0.59150441  0.51066704  1
  Ti  Ti151  1  0.61258741  0.79684824  0.50048746  1
  Ti  Ti152  1  0.80142411  0.79885720  -0.00482559  1
  Ti  Ti153  1  0.92156964  0.90657617  0.37593812  1
  Ti  Ti154  1  0.80026771  0.60522371  0.49824696  1
  Ti  Ti155  1  0.39549026  0.60035397  0.74411702  1
  Ti  Ti156  1  0.79148315  0.19615878  0.49351533  1
  Ti  Ti157  1  0.70528895  0.89441955  0.63327713  1
  Ti  Ti158  1  0.89172522  0.10058570  0.12872613  1
  Ti  Ti159  1  0.51745667  0.68997668  0.12606773  1
  Mo  Mo160  1  0.29124282  0.10861210  0.12744269  1
  Mo  Mo161  1  0.11351268  0.89583050  0.62871920  1
  Mo  Mo162  1  0.60763382  0.40316260  0.49698100  1
  Mo  Mo163  1  0.29902901  0.29932021  0.36752522  1
  Mo  Mo164  1  -0.00806458  0.79439120  -0.01143906  1
  Mo  Mo165  1  0.21758874  0.41146330  0.48385095  1
  Mo  Mo166  1  0.50030460  0.10176046  0.13808591  1
  Mo  Mo167  1  0.70227093  0.70706767  0.12240592  1
  Mo  Mo168  1  0.70563569  0.09869299  0.37313139  1
  Mo  Mo169  1  0.70200894  0.50344469  0.86679811  1
  Mo  Mo170  1  0.60634339  0.60777727  0.00104409  1
  Mo  Mo171  1  0.70701590  0.10065880  0.12541993  1
  Mo  Mo172  1  0.10321812  0.90782844  0.37082228  1
  Mo  Mo173  1  0.79708099  0.39848559  0.73444954  1
  Mo  Mo174  1  0.30547612  0.69815359  0.87435732  1
  Mo  Mo175  1  0.79661238  0.20434893  0.25121757  1
  Mo  Mo176  1  0.49951432  0.09461324  0.88221778  1
  Mo  Mo177  1  0.61805293  0.20956025  0.48251278  1
  Mo  Mo178  1  -0.00288965  0.60252645  0.50449758  1
  Mo  Mo179  1  0.70812019  0.29517192  0.37208540  1
  Mo  Mo180  1  0.38147791  -0.01126605  0.49310093  1
  Mo  Mo181  1  0.39139228  0.40715911  0.49874882  1
  Mo  Mo182  1  0.70872221  0.50902665  0.38250646  1
  Mo  Mo183  1  -0.00110515  0.60302309  0.74935024  1
  Mo  Mo184  1  0.19801790  0.81106039  0.75142681  1
  Mo  Mo185  1  -0.01827695  0.59631817  -0.00667421  1
  Mo  Mo186  1  -0.00881227  0.00453153  -0.00082505  1
  Mo  Mo187  1  0.69810744  0.70335567  0.38524443  1
  Mo  Mo188  1  0.89775062  0.89237712  0.63476053  1
  Mo  Mo189  1  0.89032844  0.08776295  0.87891764  1
  Mo  Mo190  1  0.89779276  0.10089292  0.62130924  1
  Mo  Mo191  1  0.19647039  0.40497922  -0.02805628  1
  Mo  Mo192  1  0.20988310  0.79550321  0.00272856  1
  Mo  Mo193  1  0.30188557  0.51320033  0.63317850  1
  Mo  Mo194  1  0.08883264  0.30041289  0.64847703  1
  Mo  Mo195  1  0.10197185  0.71015777  0.88963874  1
  Mo  Mo196  1  0.00053033  0.18559307  0.25249562  1
  Mo  Mo197  1  -0.00772099  0.40175573  0.26346463  1
  Mo  Mo198  1  0.29808201  0.89313259  0.11425013  1
  Mo  Mo199  1  0.60886963  -0.01102464  0.75084402  1
