# generated using pymatgen
data_HfZrTaTiMo
_symmetry_space_group_name_H-M   'P 1'
_cell_length_a   15.20039467
_cell_length_b   15.22571056
_cell_length_c   16.86066492
_cell_angle_alpha   90.04810468
_cell_angle_beta   90.01479530
_cell_angle_gamma   89.96822425
_symmetry_Int_Tables_number   1
_chemical_formula_structural   HfZrTaTiMo
_chemical_formula_sum   'Hf40 Zr40 Ta40 Ti40 Mo40'
_cell_volume   3902.17639270
_cell_formula_units_Z   40
loop_
 _symmetry_equiv_pos_site_id
 _symmetry_equiv_pos_as_xyz
  1  'x, y, z'
loop_
 _atom_site_type_symbol
 _atom_site_label
 _atom_site_symmetry_multiplicity
 _atom_site_fract_x
 _atom_site_fract_y
 _atom_site_fract_z
 _atom_site_occupancy
  Hf  Hf0  1  0.11083854  0.09656386  0.12906176  1
  Hf  Hf1  1  0.08982357  0.68950993  0.60790451  1
  Hf  Hf2  1  0.68370597  0.69186786  0.88156930  1
  Hf  Hf3  1  0.59065484  0.00528757  0.26257655  1
  Hf  Hf4  1  0.78968223  0.40426875  0.24382740  1
  Hf  Hf5  1  0.39777179  0.78499134  0.00397179  1
  Hf  Hf6  1  0.47970541  0.29611543  0.11552309  1
  Hf  Hf7  1  0.09550367  0.91141463  0.36731123  1
  Hf  Hf8  1  -0.00108895  0.19941939  0.00417260  1
  Hf  Hf9  1  0.79778426  -0.01024517  0.25584170  1
  Hf  Hf10  1  0.10168316  0.90714497  0.86139434  1
  Hf  Hf11  1  0.07756856  0.70314846  0.39267449  1
  Hf  Hf12  1  -0.00941031  0.80534530  -0.00181046  1
  Hf  Hf13  1  0.58221140  0.40197107  0.23453789  1
  Hf  Hf14  1  0.60843592  0.80508240  0.26894064  1
  Hf  Hf15  1  0.09782103  0.90897462  0.63079182  1
  Hf  Hf16  1  0.11857623  0.50214779  0.12911429  1
  Hf  Hf17  1  0.61241243  0.00437751  0.00572382  1
  Hf  Hf18  1  0.50594103  0.48520604  0.38507708  1
  Hf  Hf19  1  0.09178366  0.90216846  0.14077941  1
  Hf  Hf20  1  0.89186176  0.90796268  0.63227305  1
  Hf  Hf21  1  0.49753514  0.49681733  0.86770338  1
  Hf  Hf22  1  0.39595008  0.19708636  0.73991151  1
  Hf  Hf23  1  0.19708756  0.80994048  0.00342715  1
  Hf  Hf24  1  0.29869292  0.89295479  0.86470923  1
  Hf  Hf25  1  0.40380307  -0.00137756  0.49606013  1
  Hf  Hf26  1  0.28921270  0.69060749  0.39101604  1
  Hf  Hf27  1  0.21553737  0.21826888  0.00135659  1
  Hf  Hf28  1  0.20014775  0.39310300  0.49364559  1
  Hf  Hf29  1  0.01489897  0.40131807  -0.00423317  1
  Hf  Hf30  1  0.40480626  0.00115485  0.74515117  1
  Hf  Hf31  1  0.89709333  0.91344720  0.86373385  1
  Hf  Hf32  1  0.10048671  0.30077161  0.37018733  1
  Hf  Hf33  1  0.79545842  0.20275410  0.23576141  1
  Hf  Hf34  1  0.90626298  0.51049936  0.36773220  1
  Hf  Hf35  1  0.59887740  0.80693685  0.47990492  1
  Hf  Hf36  1  0.50781624  0.10346401  0.88559880  1
  Hf  Hf37  1  0.10375786  0.10772125  0.87895450  1
  Hf  Hf38  1  0.90967879  0.50248536  0.12276146  1
  Hf  Hf39  1  0.70092025  0.89513529  0.87506993  1
  Zr  Zr40  1  0.81939036  0.00322151  0.00968761  1
  Zr  Zr41  1  -0.00628521  0.78639078  0.74610376  1
  Zr  Zr42  1  0.20752240  0.20589538  0.25296675  1
  Zr  Zr43  1  0.50122114  0.89614746  0.62119923  1
  Zr  Zr44  1  0.49185036  0.69055787  0.36570233  1
  Zr  Zr45  1  0.59002932  0.79039092  0.74424344  1
  Zr  Zr46  1  0.68917437  0.31256314  0.38060362  1
  Zr  Zr47  1  0.69913818  0.89530054  0.12378534  1
  Zr  Zr48  1  0.28910452  0.69080950  0.13354759  1
  Zr  Zr49  1  0.70335413  0.29714489  0.87912437  1
  Zr  Zr50  1  0.18701265  0.58028240  0.74924419  1
  Zr  Zr51  1  0.31428681  0.11135332  0.13183034  1
  Zr  Zr52  1  0.80734603  0.60973538  0.24168002  1
  Zr  Zr53  1  0.19215986  0.79034370  0.25594657  1
  Zr  Zr54  1  0.50358761  0.89103285  0.88126228  1
  Zr  Zr55  1  0.29393195  0.10076522  0.38468072  1
  Zr  Zr56  1  0.69952364  0.89634153  0.62112731  1
  Zr  Zr57  1  0.58294499  0.59673317  0.00373061  1
  Zr  Zr58  1  0.59734397  0.60003486  0.50430057  1
  Zr  Zr59  1  0.79456850  0.58526170  0.75926983  1
  Zr  Zr60  1  0.10222745  0.69373275  0.87671669  1
  Zr  Zr61  1  0.37806940  0.00196919  -0.00313726  1
  Zr  Zr62  1  0.01473375  0.21260017  0.74797508  1
  Zr  Zr63  1  0.29947390  0.89536839  0.61967504  1
  Zr  Zr64  1  0.81657870  0.79470480  0.49384556  1
  Zr  Zr65  1  0.49117214  0.89837098  0.12761013  1
  Zr  Zr66  1  0.29967233  0.51349232  0.61343695  1
  Zr  Zr67  1  0.49287349  0.69191652  0.14027642  1
  Zr  Zr68  1  0.91497993  0.10105527  0.36481177  1
  Zr  Zr69  1  0.01037189  0.20613483  0.50298433  1
  Zr  Zr70  1  0.60896780  0.19685300  0.73666571  1
  Zr  Zr71  1  0.71610695  0.09051286  0.61738882  1
  Zr  Zr72  1  0.69965616  0.11247227  0.37841113  1
  Zr  Zr73  1  0.79089450  0.20433738  0.01833706  1
  Zr  Zr74  1  0.89758025  0.31606067  0.62986685  1
  Zr  Zr75  1  0.21752259  0.78010923  0.73975574  1
  Zr  Zr76  1  0.70299337  0.68807987  0.62497899  1
  Zr  Zr77  1  0.69870797  0.70295391  0.11910525  1
  Zr  Zr78  1  0.80511511  0.21059498  0.50411873  1
  Zr  Zr79  1  0.49866933  0.29816159  0.87538965  1
  Ta  Ta80  1  0.29052429  0.10325108  0.61071357  1
  Ta  Ta81  1  0.60726110  0.58696015  0.24796212  1
  Ta  Ta82  1  0.31838690  0.29980018  0.37813234  1
  Ta  Ta83  1  0.00187318  0.60214678  -0.00141370  1
  Ta  Ta84  1  0.59084111  0.20237716  0.51636946  1
  Ta  Ta85  1  0.10932424  0.30982231  0.62741989  1
  Ta  Ta86  1  0.89823964  0.30942888  0.36836886  1
  Ta  Ta87  1  0.80486538  0.59458686  -0.00237741  1
  Ta  Ta88  1  0.59733939  0.20390891  0.23699933  1
  Ta  Ta89  1  -0.01288080  0.02440002  0.74534252  1
  Ta  Ta90  1  0.29703329  0.30127183  0.62467632  1
  Ta  Ta91  1  0.59728802  0.00502371  0.48403049  1
  Ta  Ta92  1  0.60948704  0.40368133  0.74321846  1
  Ta  Ta93  1  0.81310364  0.59295317  0.49835184  1
  Ta  Ta94  1  0.71082112  0.47763435  0.61439028  1
  Ta  Ta95  1  0.00903491  0.42119502  0.75790365  1
  Ta  Ta96  1  0.41155661  0.39621030  0.50872771  1
  Ta  Ta97  1  0.89264199  0.69705102  0.87960333  1
  Ta  Ta98  1  0.39463492  0.40745008  0.74457844  1
  Ta  Ta99  1  0.38331184  0.58521445  -0.00468504  1
  Ta  Ta100  1  0.60606722  0.00347372  0.75107273  1
  Ta  Ta101  1  -0.00211932  -0.00324238  0.50373040  1
  Ta  Ta102  1  0.81919242  0.18297810  0.74901337  1
  Ta  Ta103  1  0.70049391  0.49279355  0.10998970  1
  Ta  Ta104  1  0.71363558  0.69198043  0.37161249  1
  Ta  Ta105  1  0.50638709  0.10194737  0.11845190  1
  Ta  Ta106  1  -0.00949077  0.41164519  0.49630378  1
  Ta  Ta107  1  0.90597107  0.30050192  0.87518206  1
  Ta  Ta108  1  0.90744192  0.51824907  0.62873868  1
  Ta  Ta109  1  0.71641637  0.09653065  0.87238761  1
  Ta  Ta110  1  0.90451948  0.30896995  0.12666977  1
  Ta  Ta111  1  0.12584890  0.31698675  0.86709265  1
  Ta  Ta112  1  0.47615836  0.69181238  0.86366232  1
  Ta  Ta113  1  0.40160816  0.57079874  0.25216716  1
  Ta  Ta114  1  0.20105485  0.02156198  0.74457598  1
  Ta  Ta115  1  0.28774265  0.91072504  0.13719344  1
  Ta  Ta116  1  0.50328355  0.50050070  0.62652432  1
  Ta  Ta117  1  0.50239602  0.30711180  0.63019550  1
  Ta  Ta118  1  0.38259904  0.39339353  -0.00913848  1
  Ta  Ta119  1  0.01240686  -0.00074469  0.00084870  1
  Ti  Ti120  1  0.30963575  0.49711896  0.38750034  1
  Ti  Ti121  1  0.29443296  0.90222295  0.37674403  1
  Ti  Ti122  1  0.00677503  0.40429331  0.25045590  1
  Ti  Ti123  1  0.19105301  0.81283220  0.50025068  1
  Ti  Ti124  1  0.19955766  0.59046441  -0.00633101  1
  Ti  Ti125  1  0.40173937  0.20295724  0.51233562  1
  Ti  Ti126  1  0.29966346  0.11367234  0.87394463  1
  Ti  Ti127  1  0.59885702  0.38967948  0.01023095  1
  Ti  Ti128  1  0.80225492  -0.00362005  0.48367771  1
  Ti  Ti129  1  0.79617598  0.79159883  0.75118678  1
  Ti  Ti130  1  0.90420401  0.49847971  0.88027780  1
  Ti  Ti131  1  0.49242996  0.11578653  0.37489139  1
  Ti  Ti132  1  0.79399586  0.79721523  -0.00431263  1
  Ti  Ti133  1  0.20476298  0.59335305  0.26072734  1
  Ti  Ti134  1  0.90018478  0.70564507  0.11737062  1
  Ti  Ti135  1  0.40046993  0.79351777  0.49255015  1
  Ti  Ti136  1  0.10515309  0.10846980  0.61759265  1
  Ti  Ti137  1  -0.01850185  0.79224926  0.24924363  1
  Ti  Ti138  1  0.59064210  0.59151247  0.74284987  1
  Ti  Ti139  1  0.10518012  0.50838114  0.38158070  1
  Ti  Ti140  1  0.10314557  0.30840655  0.13226331  1
  Ti  Ti141  1  0.10541134  0.09773720  0.37573786  1
  Ti  Ti142  1  0.00031917  0.20633875  0.24451016  1
  Ti  Ti143  1  0.70201164  0.49841604  0.38459555  1
  Ti  Ti144  1  0.39500595  0.00391718  0.25905375  1
  Ti  Ti145  1  0.21462878  0.40947657  0.26392774  1
  Ti  Ti146  1  0.90036933  0.89631709  0.13466523  1
  Ti  Ti147  1  0.80302442  0.39196820  0.75558434  1
  Ti  Ti148  1  0.29455359  0.31097522  0.13497330  1
  Ti  Ti149  1  0.28511542  0.48768788  0.86901016  1
  Ti  Ti150  1  0.09315689  0.69774410  0.12158995  1
  Ti  Ti151  1  0.91154610  0.09209455  0.13774482  1
  Ti  Ti152  1  0.46748446  0.69143212  0.63114957  1
  Ti  Ti153  1  0.90487454  0.89077909  0.37097407  1
  Ti  Ti154  1  0.09379216  0.49627914  0.61341758  1
  Ti  Ti155  1  0.31317197  0.49064229  0.12700950  1
  Ti  Ti156  1  0.39288945  0.80520379  0.25980356  1
  Ti  Ti157  1  0.70299305  0.48566613  0.89110437  1
  Ti  Ti158  1  0.50099463  0.29627354  0.37824062  1
  Ti  Ti159  1  0.01241905  0.60675688  0.24728041  1
  Mo  Mo160  1  0.60097914  0.19711442  0.01145144  1
  Mo  Mo161  1  0.41658288  0.19879972  0.25725249  1
  Mo  Mo162  1  0.19558211  0.00143263  -0.00133994  1
  Mo  Mo163  1  0.40146591  0.20329250  -0.00557743  1
  Mo  Mo164  1  0.79662108  0.00295594  0.75388582  1
  Mo  Mo165  1  0.30470557  0.30226713  0.86331685  1
  Mo  Mo166  1  0.19949626  0.39403903  0.73998282  1
  Mo  Mo167  1  0.80782627  0.40557012  0.49473161  1
  Mo  Mo168  1  0.39061975  0.39209161  0.25629330  1
  Mo  Mo169  1  0.59335087  0.79454781  -0.00769010  1
  Mo  Mo170  1  0.39414678  0.78963735  0.74650135  1
  Mo  Mo171  1  0.91291489  0.09717732  0.61898465  1
  Mo  Mo172  1  0.70417174  0.30044805  0.63179858  1
  Mo  Mo173  1  -0.01041779  0.59741857  0.75591010  1
  Mo  Mo174  1  0.20653688  0.19978737  0.74569976  1
  Mo  Mo175  1  0.21045412  0.41045314  0.00376243  1
  Mo  Mo176  1  0.50101669  0.09842504  0.61764897  1
  Mo  Mo177  1  0.89493167  0.69904418  0.62883375  1
  Mo  Mo178  1  0.40080917  0.59857499  0.49900917  1
  Mo  Mo179  1  0.20533477  0.20398013  0.49868777  1
  Mo  Mo180  1  0.69641189  0.09925116  0.13723770  1
  Mo  Mo181  1  0.60337044  0.39168051  0.51376019  1
  Mo  Mo182  1  0.90317523  0.11074502  0.87877938  1
  Mo  Mo183  1  0.20583312  -0.00186534  0.25484593  1
  Mo  Mo184  1  0.70296324  0.90309541  0.38106680  1
  Mo  Mo185  1  0.80781246  0.40377737  -0.00045684  1
  Mo  Mo186  1  0.29999069  0.68494336  0.87944157  1
  Mo  Mo187  1  -0.00219727  0.00562427  0.24937606  1
  Mo  Mo188  1  0.38982729  0.60249243  0.74975905  1
  Mo  Mo189  1  0.09507737  0.49741165  0.88096372  1
  Mo  Mo190  1  0.80475978  0.80037974  0.25738731  1
  Mo  Mo191  1  0.29623548  0.69913810  0.59748592  1
  Mo  Mo192  1  -0.00753666  0.59963352  0.50056392  1
  Mo  Mo193  1  -0.00373477  0.81337095  0.50618182  1
  Mo  Mo194  1  0.49065190  0.49538806  0.11778693  1
  Mo  Mo195  1  0.69427338  0.30448232  0.11882710  1
  Mo  Mo196  1  0.48555206  0.90755844  0.37323210  1
  Mo  Mo197  1  0.90097732  0.70149204  0.37014944  1
  Mo  Mo198  1  0.19289197  0.59255527  0.49250016  1
  Mo  Mo199  1  0.18979895  0.00390660  0.50402132  1
