# generated using pymatgen
data_HfZrTaTiMo
_symmetry_space_group_name_H-M   'P 1'
_cell_length_a   15.21511714
_cell_length_b   15.21038787
_cell_length_c   16.83175701
_cell_angle_alpha   89.94034373
_cell_angle_beta   89.96979227
_cell_angle_gamma   90.12766677
_symmetry_Int_Tables_number   1
_chemical_formula_structural   HfZrTaTiMo
_chemical_formula_sum   'Hf40 Zr40 Ta40 Ti40 Mo40'
_cell_volume   3895.32472722
_cell_formula_units_Z   40
loop_
 _symmetry_equiv_pos_site_id
 _symmetry_equiv_pos_as_xyz
  1  'x, y, z'
loop_
 _atom_site_type_symbol
 _atom_site_label
 _atom_site_symmetry_multiplicity
 _atom_site_fract_x
 _atom_site_fract_y
 _atom_site_fract_z
 _atom_site_occupancy
  Hf  Hf0  1  0.71170146  0.50538736  0.37119556  1
  Hf  Hf1  1  0.20300358  0.19113409  -0.01877917  1
  Hf  Hf2  1  0.09991142  0.89063357  0.86904356  1
  Hf  Hf3  1  0.70043045  0.89283902  0.86354805  1
  Hf  Hf4  1  0.70638258  0.09903811  0.87720185  1
  Hf  Hf5  1  0.37701534  0.80245552  0.01108208  1
  Hf  Hf6  1  0.70036994  0.49848248  0.11472433  1
  Hf  Hf7  1  0.19355639  0.00028643  0.49779343  1
  Hf  Hf8  1  0.89122803  0.87951925  0.13661235  1
  Hf  Hf9  1  0.49101918  0.49884088  0.12464672  1
  Hf  Hf10  1  0.80188900  0.80811590  0.49542513  1
  Hf  Hf11  1  0.81433160  0.19656057  0.00214913  1
  Hf  Hf12  1  0.20240144  -0.01414757  -0.00202972  1
  Hf  Hf13  1  0.90384462  0.70139150  0.85942218  1
  Hf  Hf14  1  0.59489752  0.01498296  0.74189719  1
  Hf  Hf15  1  0.90417736  0.91525045  0.62032288  1
  Hf  Hf16  1  0.28998026  0.11363840  0.36363969  1
  Hf  Hf17  1  0.71580763  0.10913000  0.62689133  1
  Hf  Hf18  1  0.90749872  0.50017641  0.11424792  1
  Hf  Hf19  1  0.70097253  0.30851508  0.62016426  1
  Hf  Hf20  1  0.68784852  0.91030266  0.37244327  1
  Hf  Hf21  1  0.59570314  0.20273612  0.25047913  1
  Hf  Hf22  1  0.70474634  0.30458252  0.37284374  1
  Hf  Hf23  1  0.49590470  0.70539329  0.36734815  1
  Hf  Hf24  1  0.39541573  0.80527314  0.25014456  1
  Hf  Hf25  1  0.49182155  0.90168520  0.62757179  1
  Hf  Hf26  1  0.79750342  -0.01344529  0.00679614  1
  Hf  Hf27  1  0.29851719  0.30094788  0.11791193  1
  Hf  Hf28  1  -0.01425933  0.77752953  0.27767022  1
  Hf  Hf29  1  0.39032385  -0.00726100  0.75334213  1
  Hf  Hf30  1  0.30717101  0.90089257  0.38082537  1
  Hf  Hf31  1  0.00738760  0.19139188  0.26326637  1
  Hf  Hf32  1  0.58496378  0.60367179  0.50740825  1
  Hf  Hf33  1  0.90015779  0.89736987  0.86283928  1
  Hf  Hf34  1  0.59702652  0.01170691  0.50707826  1
  Hf  Hf35  1  0.80667286  0.59495584  0.72963970  1
  Hf  Hf36  1  0.40357117  0.19409762  0.76666188  1
  Hf  Hf37  1  0.49521491  0.11215000  0.11999688  1
  Hf  Hf38  1  0.72049427  0.71328714  0.12222758  1
  Hf  Hf39  1  -0.00043260  -0.00017370  -0.00348438  1
  Zr  Zr40  1  0.49290931  0.50290817  0.35601104  1
  Zr  Zr41  1  0.60216156  0.40756025  0.49520870  1
  Zr  Zr42  1  0.08653359  0.69225519  0.13344830  1
  Zr  Zr43  1  0.49393114  0.69259123  0.88078089  1
  Zr  Zr44  1  0.30019785  0.10411884  0.63037741  1
  Zr  Zr45  1  0.39741640  0.78320614  0.50443983  1
  Zr  Zr46  1  0.30122568  0.31202858  0.86563157  1
  Zr  Zr47  1  0.90434592  0.30610030  0.38883618  1
  Zr  Zr48  1  0.60972467  0.21993365  0.76431235  1
  Zr  Zr49  1  0.09315842  0.89244184  0.14099819  1
  Zr  Zr50  1  0.59874686  0.81317972  0.23880515  1
  Zr  Zr51  1  0.78569698  0.39964629  0.75256131  1
  Zr  Zr52  1  0.19135886  0.20079886  0.50528117  1
  Zr  Zr53  1  0.00267829  0.40124760  0.25249740  1
  Zr  Zr54  1  0.90227842  0.50264481  0.87532140  1
  Zr  Zr55  1  0.90387848  0.29685162  0.61828722  1
  Zr  Zr56  1  0.59817888  0.00082017  0.01062476  1
  Zr  Zr57  1  0.21453808  0.40744620  0.50661837  1
  Zr  Zr58  1  0.10421127  0.48928673  0.12058863  1
  Zr  Zr59  1  0.92332706  0.52118145  0.38867525  1
  Zr  Zr60  1  0.91014767  0.09723795  0.13028006  1
  Zr  Zr61  1  0.10856903  0.10047253  0.12689187  1
  Zr  Zr62  1  0.60467158  0.60783286  0.23872738  1
  Zr  Zr63  1  0.59821840  0.20121886  0.49015611  1
  Zr  Zr64  1  0.60304290  0.80370008  0.01049526  1
  Zr  Zr65  1  0.40106703  0.19625214  0.49222430  1
  Zr  Zr66  1  0.68480549  0.49040848  0.88908313  1
  Zr  Zr67  1  0.49186958  0.89523193  0.87592640  1
  Zr  Zr68  1  0.40564322  0.39729934  0.49193310  1
  Zr  Zr69  1  0.20041774  0.78921941  0.73283838  1
  Zr  Zr70  1  0.29931078  0.50507790  0.13742745  1
  Zr  Zr71  1  0.59492407  0.80790150  0.50309723  1
  Zr  Zr72  1  0.10453011  0.28802585  0.64169053  1
  Zr  Zr73  1  0.49388424  0.29594373  0.63204242  1
  Zr  Zr74  1  0.20118421  0.60935190  -0.00177301  1
  Zr  Zr75  1  0.59255922  0.57872468  0.74430275  1
  Zr  Zr76  1  0.82427232  0.60961323  0.24728619  1
  Zr  Zr77  1  0.10068111  0.69240386  0.86778541  1
  Zr  Zr78  1  0.59167409  0.79252136  0.74441097  1
  Zr  Zr79  1  0.69521647  0.70466330  0.62525641  1
  Ta  Ta80  1  0.01042033  0.01206886  0.74750961  1
  Ta  Ta81  1  0.20489170  0.38538430  0.25771441  1
  Ta  Ta82  1  0.49817569  0.30793421  0.11228157  1
  Ta  Ta83  1  0.70831298  0.10295192  0.36439036  1
  Ta  Ta84  1  0.19234877  0.00176757  0.26009275  1
  Ta  Ta85  1  0.70532491  0.09818585  0.13470337  1
  Ta  Ta86  1  0.18947577  0.78367895  0.49045383  1
  Ta  Ta87  1  -0.00193528  0.39994871  0.74950041  1
  Ta  Ta88  1  0.38815343  0.00773906  -0.00110326  1
  Ta  Ta89  1  0.70266981  0.29712907  0.12102064  1
  Ta  Ta90  1  0.38567899  0.59552047  0.75027905  1
  Ta  Ta91  1  0.28718513  0.66495638  0.61122112  1
  Ta  Ta92  1  0.70314292  0.69655474  0.38135399  1
  Ta  Ta93  1  0.00070936  0.79444348  0.00006118  1
  Ta  Ta94  1  0.59780828  0.60678215  0.00691529  1
  Ta  Ta95  1  0.80463684  0.38625805  -0.00095419  1
  Ta  Ta96  1  0.40224424  0.00706029  0.24956120  1
  Ta  Ta97  1  0.60038270  0.39394958  0.24312487  1
  Ta  Ta98  1  0.00971021  0.20958053  -0.01938853  1
  Ta  Ta99  1  0.28494609  0.70647073  0.14115034  1
  Ta  Ta100  1  0.11101425  0.29799445  0.38094115  1
  Ta  Ta101  1  0.30072641  0.10192398  0.13409295  1
  Ta  Ta102  1  0.80654664  0.20635715  0.24438393  1
  Ta  Ta103  1  0.19341083  0.39406701  -0.01054734  1
  Ta  Ta104  1  0.01626248  0.59364534  0.72487717  1
  Ta  Ta105  1  0.19325429  0.79176016  0.27416850  1
  Ta  Ta106  1  0.80292242  0.39603112  0.23824914  1
  Ta  Ta107  1  0.29013173  0.89010715  0.61293670  1
  Ta  Ta108  1  0.81703595  0.20423929  0.76078946  1
  Ta  Ta109  1  0.01990846  0.41058741  0.51247483  1
  Ta  Ta110  1  0.09346202  0.90275214  0.37541184  1
  Ta  Ta111  1  0.19686708  -0.00410404  0.74563862  1
  Ta  Ta112  1  0.91005708  0.09844337  0.87165824  1
  Ta  Ta113  1  0.50006652  0.10202761  0.88751329  1
  Ta  Ta114  1  0.80280381  0.59874697  0.51652368  1
  Ta  Ta115  1  0.70501145  0.69363397  0.87174229  1
  Ta  Ta116  1  0.80824692  0.00725360  0.74620852  1
  Ta  Ta117  1  -0.00045627  0.80167893  0.48927380  1
  Ta  Ta118  1  0.39996427  0.20361611  -0.01021992  1
  Ta  Ta119  1  0.28850484  0.90626013  0.13889599  1
  Ti  Ti120  1  0.00006845  0.38966630  -0.01150693  1
  Ti  Ti121  1  0.29888564  0.50721541  0.87918843  1
  Ti  Ti122  1  0.48782913  0.49533108  0.89352027  1
  Ti  Ti123  1  0.39649887  0.21737054  0.25304216  1
  Ti  Ti124  1  0.00243040  0.80165001  0.73219823  1
  Ti  Ti125  1  0.09470488  0.29437862  0.12183586  1
  Ti  Ti126  1  0.29710243  0.70183943  0.87292574  1
  Ti  Ti127  1  0.48541499  0.50306094  0.62314078  1
  Ti  Ti128  1  0.91279808  0.70410634  0.61514963  1
  Ti  Ti129  1  0.29718546  0.68226508  0.37647137  1
  Ti  Ti130  1  0.80861438  0.00172482  0.25694209  1
  Ti  Ti131  1  0.50094432  0.09056065  0.36681501  1
  Ti  Ti132  1  -0.00156152  0.59960230  -0.00682399  1
  Ti  Ti133  1  0.61007430  0.20868716  -0.00134226  1
  Ti  Ti134  1  0.20064595  0.42021849  0.74805470  1
  Ti  Ti135  1  0.80443686  0.00841142  0.49128244  1
  Ti  Ti136  1  0.41429406  0.40838062  0.75640421  1
  Ti  Ti137  1  0.80337683  0.60470528  -0.00332026  1
  Ti  Ti138  1  0.48561855  0.69845796  0.12688013  1
  Ti  Ti139  1  0.18781565  0.18208294  0.76872823  1
  Ti  Ti140  1  0.59847190  0.00253057  0.24135916  1
  Ti  Ti141  1  0.92174739  0.11082375  0.62610105  1
  Ti  Ti142  1  0.18043277  0.59435457  0.26706028  1
  Ti  Ti143  1  0.80714871  0.79372598  -0.00816249  1
  Ti  Ti144  1  0.29501685  0.89017848  0.87219618  1
  Ti  Ti145  1  0.80712894  0.41226498  0.50923509  1
  Ti  Ti146  1  0.10275693  0.49609583  0.87027071  1
  Ti  Ti147  1  0.51267534  0.31509337  0.89125547  1
  Ti  Ti148  1  0.80313515  0.80151060  0.73749325  1
  Ti  Ti149  1  0.48702344  0.90839609  0.12260668  1
  Ti  Ti150  1  0.30139268  0.30521422  0.64624768  1
  Ti  Ti151  1  -0.00368244  0.01939674  0.48505062  1
  Ti  Ti152  1  0.40334874  0.00261780  0.50222366  1
  Ti  Ti153  1  0.39176422  0.78464335  0.73425055  1
  Ti  Ti154  1  0.81090991  0.19304681  0.49361058  1
  Ti  Ti155  1  0.29900078  0.49676778  0.36062403  1
  Ti  Ti156  1  0.79606174  0.80360966  0.27185825  1
  Ti  Ti157  1  0.39385613  0.60212867  0.00471530  1
  Ti  Ti158  1  0.09559237  0.90313926  0.61362009  1
  Ti  Ti159  1  0.70536970  0.90937616  0.62776846  1
  Mo  Mo160  1  0.10231046  0.09291295  0.87521220  1
  Mo  Mo161  1  0.90974505  0.49642240  0.61821579  1
  Mo  Mo162  1  0.11853551  0.50575076  0.63045167  1
  Mo  Mo163  1  0.70237776  0.29758483  0.88999048  1
  Mo  Mo164  1  0.30357383  0.30623122  0.36731070  1
  Mo  Mo165  1  0.39146260  0.40447828  -0.00536345  1
  Mo  Mo166  1  0.89234441  0.10255992  0.37297992  1
  Mo  Mo167  1  0.19812713  0.59065132  0.48735046  1
  Mo  Mo168  1  0.89614577  0.90910016  0.37849430  1
  Mo  Mo169  1  0.49865618  0.29851790  0.36032618  1
  Mo  Mo170  1  0.20389753  0.59474489  0.75315192  1
  Mo  Mo171  1  0.49475327  0.91681252  0.37266042  1
  Mo  Mo172  1  0.00241056  0.20065036  0.49214448  1
  Mo  Mo173  1  0.20034359  0.20484071  0.24627817  1
  Mo  Mo174  1  0.19943028  0.80054941  0.00313254  1
  Mo  Mo175  1  0.89148714  0.69806162  0.39656361  1
  Mo  Mo176  1  0.40452120  0.39471288  0.25183406  1
  Mo  Mo177  1  0.09236789  0.08913499  0.62667556  1
  Mo  Mo178  1  0.09673545  0.09898061  0.37178201  1
  Mo  Mo179  1  0.10256626  0.70732794  0.61488849  1
  Mo  Mo180  1  0.70590689  0.90845794  0.14216196  1
  Mo  Mo181  1  0.47886057  0.68992474  0.63009701  1
  Mo  Mo182  1  0.09965669  0.30957831  0.86000610  1
  Mo  Mo183  1  0.00138360  0.20190922  0.76523882  1
  Mo  Mo184  1  0.01426395  0.60479301  0.52185580  1
  Mo  Mo185  1  0.10921287  0.49138734  0.37887217  1
  Mo  Mo186  1  0.38469298  0.61000884  0.24644023  1
  Mo  Mo187  1  0.30269980  0.08851334  0.87203858  1
  Mo  Mo188  1  0.90710754  0.30138108  0.12195064  1
  Mo  Mo189  1  0.50060037  0.09785458  0.62861850  1
  Mo  Mo190  1  0.38675708  0.58574779  0.49519357  1
  Mo  Mo191  1  0.90241304  0.30192263  0.87164052  1
  Mo  Mo192  1  -0.00557505  -0.01002661  0.26837005  1
  Mo  Mo193  1  0.69860296  0.49792214  0.61826135  1
  Mo  Mo194  1  0.58724086  0.40237227  0.75347527  1
  Mo  Mo195  1  0.59688054  0.39779776  0.01113704  1
  Mo  Mo196  1  0.90657052  0.69688581  0.11327824  1
  Mo  Mo197  1  0.00334664  0.59410520  0.25480495  1
  Mo  Mo198  1  0.30955983  0.48745472  0.63206965  1
  Mo  Mo199  1  0.09231500  0.68329453  0.38494229  1
