# generated using pymatgen
data_HfZrTaTiMo
_symmetry_space_group_name_H-M   'P 1'
_cell_length_a   15.21865605
_cell_length_b   15.21257764
_cell_length_c   16.82548873
_cell_angle_alpha   90.03078410
_cell_angle_beta   89.98708035
_cell_angle_gamma   89.99452319
_symmetry_Int_Tables_number   1
_chemical_formula_structural   HfZrTaTiMo
_chemical_formula_sum   'Hf40 Zr40 Ta40 Ti40 Mo40'
_cell_volume   3895.35211963
_cell_formula_units_Z   40
loop_
 _symmetry_equiv_pos_site_id
 _symmetry_equiv_pos_as_xyz
  1  'x, y, z'
loop_
 _atom_site_type_symbol
 _atom_site_label
 _atom_site_symmetry_multiplicity
 _atom_site_fract_x
 _atom_site_fract_y
 _atom_site_fract_z
 _atom_site_occupancy
  Hf  Hf0  1  0.20416360  0.81308742  0.75851973  1
  Hf  Hf1  1  0.60137518  0.00621230  0.75367038  1
  Hf  Hf2  1  0.78430912  0.39739416  0.26856693  1
  Hf  Hf3  1  0.60489417  0.17804008  0.23484919  1
  Hf  Hf4  1  0.71509848  0.48944561  0.62921671  1
  Hf  Hf5  1  0.81103086  0.19498055  0.25727496  1
  Hf  Hf6  1  0.70569052  0.71306072  0.61502104  1
  Hf  Hf7  1  0.40517286  0.81244220  0.00590186  1
  Hf  Hf8  1  0.10872340  0.69618792  0.36984923  1
  Hf  Hf9  1  0.31886149  0.90559227  0.14871924  1
  Hf  Hf10  1  0.38899875  0.79611518  0.49282350  1
  Hf  Hf11  1  0.39480429  -0.00819373  0.75509638  1
  Hf  Hf12  1  0.58682640  0.38856791  0.48490183  1
  Hf  Hf13  1  0.10821905  0.70588595  0.62825511  1
  Hf  Hf14  1  0.49811947  0.69172126  0.87470842  1
  Hf  Hf15  1  -0.00874752  0.80647830  0.76137414  1
  Hf  Hf16  1  0.90628297  0.09109579  0.61354953  1
  Hf  Hf17  1  0.59781475  0.59196760  0.49380131  1
  Hf  Hf18  1  0.58353049  0.21528770  0.76278504  1
  Hf  Hf19  1  0.30388835  0.31010645  0.35943710  1
  Hf  Hf20  1  0.29945066  0.50095052  0.87448918  1
  Hf  Hf21  1  -0.01598733  0.38724563  0.01548737  1
  Hf  Hf22  1  0.39428181  0.39151938  0.00001029  1
  Hf  Hf23  1  0.88706602  0.88862442  0.61399747  1
  Hf  Hf24  1  0.29827153  0.51164022  0.35170008  1
  Hf  Hf25  1  0.40739482  0.38802790  0.76139604  1
  Hf  Hf26  1  0.00287919  0.39469518  0.74493678  1
  Hf  Hf27  1  0.21345414  0.60461983  0.50086015  1
  Hf  Hf28  1  -0.01527295  0.38469752  0.23826712  1
  Hf  Hf29  1  0.19711206  0.20390521  0.01610531  1
  Hf  Hf30  1  0.49460946  0.90356718  0.61000828  1
  Hf  Hf31  1  0.90250420  0.49663156  0.87788119  1
  Hf  Hf32  1  0.19295577  0.40306994  0.01994328  1
  Hf  Hf33  1  -0.02574415  0.80073456  -0.00226409  1
  Hf  Hf34  1  0.00372586  0.60511310  0.23385337  1
  Hf  Hf35  1  0.88470962  0.30575785  0.62831908  1
  Hf  Hf36  1  0.11795073  0.49259066  0.63304103  1
  Hf  Hf37  1  0.09972566  0.29769713  0.88337483  1
  Hf  Hf38  1  0.18893595  0.79652169  0.23670833  1
  Hf  Hf39  1  0.60288334  0.81118716  0.75657919  1
  Zr  Zr40  1  0.79630103  0.19782666  0.48918758  1
  Zr  Zr41  1  0.50343043  0.11490021  0.62017106  1
  Zr  Zr42  1  0.31698908  0.10268861  0.13760801  1
  Zr  Zr43  1  0.80358423  0.62019431  -0.01042395  1
  Zr  Zr44  1  0.20037486  0.40230222  0.49402035  1
  Zr  Zr45  1  0.29062653  0.09258490  0.88500906  1
  Zr  Zr46  1  0.60313802  0.20537184  0.00290688  1
  Zr  Zr47  1  0.49653407  0.69634314  0.62580751  1
  Zr  Zr48  1  0.30179193  0.89754496  0.35021658  1
  Zr  Zr49  1  0.49846162  0.91442565  0.37795450  1
  Zr  Zr50  1  0.80320860  -0.01257526  0.75834844  1
  Zr  Zr51  1  -0.00843670  0.40048697  0.50371740  1
  Zr  Zr52  1  0.30407531  0.10034748  0.61854320  1
  Zr  Zr53  1  0.09848324  0.49634338  0.36529496  1
  Zr  Zr54  1  0.71282758  0.70403140  0.12684462  1
  Zr  Zr55  1  0.30202831  0.70422410  0.88173733  1
  Zr  Zr56  1  0.10505518  0.10483273  0.61531186  1
  Zr  Zr57  1  0.10077206  0.69488876  0.88866965  1
  Zr  Zr58  1  0.29498121  0.30678572  0.62748131  1
  Zr  Zr59  1  0.60907095  0.59937430  0.74761042  1
  Zr  Zr60  1  0.51473317  0.48624099  0.88048542  1
  Zr  Zr61  1  0.60169511  0.80019958  0.25983367  1
  Zr  Zr62  1  0.18997129  0.39630234  0.22285643  1
  Zr  Zr63  1  0.31544742  0.09665649  0.36073536  1
  Zr  Zr64  1  0.09308184  0.90955330  0.62152636  1
  Zr  Zr65  1  0.89647375  0.91570117  0.39449697  1
  Zr  Zr66  1  0.70761206  0.10556899  0.88330317  1
  Zr  Zr67  1  0.00301023  0.60132993  0.74720638  1
  Zr  Zr68  1  0.78874712  0.39733892  0.47589829  1
  Zr  Zr69  1  0.20820033  -0.00688098  0.48572200  1
  Zr  Zr70  1  0.79188390  0.19732222  0.74663500  1
  Zr  Zr71  1  0.69892841  0.90152213  0.11498338  1
  Zr  Zr72  1  0.68519680  0.50322253  0.13307744  1
  Zr  Zr73  1  0.20854701  -0.00021513  0.01715459  1
  Zr  Zr74  1  0.57937026  0.38991064  0.25921409  1
  Zr  Zr75  1  0.88942754  0.29646354  0.86932251  1
  Zr  Zr76  1  0.90520903  0.70747124  0.37804114  1
  Zr  Zr77  1  0.88102237  0.50721529  0.13129497  1
  Zr  Zr78  1  0.81100418  0.59458611  0.49670056  1
  Zr  Zr79  1  0.10212145  0.91392488  0.89111754  1
  Ta  Ta80  1  0.00283640  0.59317587  0.01005708  1
  Ta  Ta81  1  0.39729761  0.40882484  0.50004335  1
  Ta  Ta82  1  0.30702829  0.70107568  0.13061317  1
  Ta  Ta83  1  0.40003794  0.59404786  0.49834463  1
  Ta  Ta84  1  0.08117107  0.90818348  0.11864387  1
  Ta  Ta85  1  0.41309784  0.21209534  0.24558766  1
  Ta  Ta86  1  0.79550620  0.78689465  0.77290684  1
  Ta  Ta87  1  0.81882294  -0.00279811  -0.01256985  1
  Ta  Ta88  1  0.00811195  0.59597656  0.50890228  1
  Ta  Ta89  1  0.51419262  0.11444227  0.37938814  1
  Ta  Ta90  1  0.68887931  0.32123205  0.87888046  1
  Ta  Ta91  1  0.00162316  0.19948627  0.48211042  1
  Ta  Ta92  1  0.41450930  0.60436068  0.23680252  1
  Ta  Ta93  1  0.49502714  0.29881810  0.11750913  1
  Ta  Ta94  1  0.70077717  0.89573325  0.39665998  1
  Ta  Ta95  1  0.20405197  0.80235462  0.01625946  1
  Ta  Ta96  1  0.51001583  0.70132465  0.12200138  1
  Ta  Ta97  1  0.20129635  0.20418164  0.48377148  1
  Ta  Ta98  1  0.72078494  0.09442974  0.11268363  1
  Ta  Ta99  1  0.40744325  0.21364445  0.49236626  1
  Ta  Ta100  1  0.29660329  0.89630676  0.62221043  1
  Ta  Ta101  1  0.00523084  0.79321943  0.50206641  1
  Ta  Ta102  1  0.39073790  0.19734109  0.76697232  1
  Ta  Ta103  1  0.40322485  0.60008627  0.01401548  1
  Ta  Ta104  1  0.80334299  0.81092301  0.25673696  1
  Ta  Ta105  1  0.91630509  0.10075027  0.12157208  1
  Ta  Ta106  1  0.19488485  0.01030821  0.75416200  1
  Ta  Ta107  1  0.49525263  0.09564836  0.88702946  1
  Ta  Ta108  1  0.00389901  0.18941458  0.75198313  1
  Ta  Ta109  1  0.19737928  0.21021717  0.75747905  1
  Ta  Ta110  1  0.30439450  0.69990413  0.63368784  1
  Ta  Ta111  1  -0.01129755  0.00090886  0.25281493  1
  Ta  Ta112  1  0.10466947  0.49612071  0.88008348  1
  Ta  Ta113  1  0.90422363  0.50404610  0.36429415  1
  Ta  Ta114  1  0.50419461  0.48345570  0.62943876  1
  Ta  Ta115  1  0.81390979  0.20658730  0.00349347  1
  Ta  Ta116  1  0.19345749  0.19723890  0.24376792  1
  Ta  Ta117  1  0.67454241  0.29780462  0.62329778  1
  Ta  Ta118  1  0.09520355  0.70275071  0.11483952  1
  Ta  Ta119  1  -0.00879333  0.80931464  0.24095759  1
  Ti  Ti120  1  0.17829925  0.00289550  0.24511723  1
  Ti  Ti121  1  0.70631073  0.08114931  0.37886416  1
  Ti  Ti122  1  0.00016906  0.00461244  0.76015211  1
  Ti  Ti123  1  0.60310021  -0.01155720  -0.00960133  1
  Ti  Ti124  1  0.49346757  0.90072757  0.87966480  1
  Ti  Ti125  1  0.61071257  0.78969930  -0.01293946  1
  Ti  Ti126  1  0.09725233  0.29739553  0.36779492  1
  Ti  Ti127  1  0.20371163  0.59855296  0.01439853  1
  Ti  Ti128  1  0.39836026  0.79778194  0.75300514  1
  Ti  Ti129  1  0.31494471  0.50803832  0.64044230  1
  Ti  Ti130  1  0.88745831  0.90531158  0.12212685  1
  Ti  Ti131  1  0.51121683  0.08616329  0.11171331  1
  Ti  Ti132  1  0.20960137  0.59921517  0.75483247  1
  Ti  Ti133  1  0.30870626  0.69986608  0.35130219  1
  Ti  Ti134  1  0.09762609  0.29089791  0.62122566  1
  Ti  Ti135  1  0.09186884  0.89570676  0.37451035  1
  Ti  Ti136  1  0.69935772  0.70570161  0.38743329  1
  Ti  Ti137  1  0.50978377  0.90275900  0.13125119  1
  Ti  Ti138  1  0.09608916  0.09148898  0.37681319  1
  Ti  Ti139  1  0.67547004  0.27366318  0.37230530  1
  Ti  Ti140  1  0.78279474  0.40226363  0.00552792  1
  Ti  Ti141  1  0.70203741  0.09948090  0.61947862  1
  Ti  Ti142  1  0.19959286  0.79811269  0.49506283  1
  Ti  Ti143  1  0.30481011  0.50403815  0.13416617  1
  Ti  Ti144  1  0.49951647  0.49805965  0.12089964  1
  Ti  Ti145  1  0.79701169  0.00080519  0.25047256  1
  Ti  Ti146  1  0.70175248  0.30032641  0.12591535  1
  Ti  Ti147  1  0.00056688  0.18843551  0.26366263  1
  Ti  Ti148  1  0.49560425  0.69953296  0.37575604  1
  Ti  Ti149  1  0.69402157  0.90334088  0.60567573  1
  Ti  Ti150  1  0.39514222  0.19596940  -0.00246114  1
  Ti  Ti151  1  0.60308150  0.59451129  -0.00231290  1
  Ti  Ti152  1  0.80984548  0.59832142  0.75166487  1
  Ti  Ti153  1  0.79582174  0.61262012  0.26356198  1
  Ti  Ti154  1  0.59870358  0.01222279  0.50065782  1
  Ti  Ti155  1  0.70699975  0.50140376  0.86930727  1
  Ti  Ti156  1  0.90091016  0.69391833  0.62357475  1
  Ti  Ti157  1  0.60322081  0.60005202  0.26296711  1
  Ti  Ti158  1  0.48836656  0.50002448  0.36820276  1
  Ti  Ti159  1  0.07162033  0.27154455  0.12464631  1
  Mo  Mo160  1  0.20279101  0.60480593  0.22807800  1
  Mo  Mo161  1  0.60769249  0.39654762  0.74940859  1
  Mo  Mo162  1  0.89823283  0.90288078  0.87214284  1
  Mo  Mo163  1  0.91575873  0.10072152  0.87704462  1
  Mo  Mo164  1  0.09637578  0.10586234  0.87381713  1
  Mo  Mo165  1  0.88068578  0.28865561  0.12569561  1
  Mo  Mo166  1  0.39960346  0.59953328  0.74711689  1
  Mo  Mo167  1  0.30491128  0.29795283  0.13399978  1
  Mo  Mo168  1  0.69321377  0.69090674  0.87195204  1
  Mo  Mo169  1  0.90650161  0.50433615  0.62961052  1
  Mo  Mo170  1  0.41202413  0.79692332  0.24307987  1
  Mo  Mo171  1  0.60249442  0.19924274  0.49920488  1
  Mo  Mo172  1  0.00358191  0.00207545  0.49374763  1
  Mo  Mo173  1  0.89794519  0.71902003  0.13152738  1
  Mo  Mo174  1  0.60282889  0.40240724  0.01011086  1
  Mo  Mo175  1  0.30590749  0.89771180  0.87913350  1
  Mo  Mo176  1  0.48908264  0.30442834  0.62407073  1
  Mo  Mo177  1  0.41496700  0.00080514  0.00228546  1
  Mo  Mo178  1  0.59661456  0.79830096  0.49175292  1
  Mo  Mo179  1  0.62065063  0.00005191  0.25076797  1
  Mo  Mo180  1  0.90009156  0.69300517  0.87059183  1
  Mo  Mo181  1  0.79130761  0.80952516  -0.02294970  1
  Mo  Mo182  1  0.44687534  0.01383581  0.24608936  1
  Mo  Mo183  1  0.90386192  0.09921590  0.37735178  1
  Mo  Mo184  1  0.48853154  0.29577615  0.37102339  1
  Mo  Mo185  1  0.90906127  0.30055894  0.37285524  1
  Mo  Mo186  1  -0.00273228  0.18591003  -0.00346444  1
  Mo  Mo187  1  0.69209354  0.89898026  0.88294503  1
  Mo  Mo188  1  0.49491456  0.28937089  0.88956986  1
  Mo  Mo189  1  -0.00085553  0.00716052  0.00238963  1
  Mo  Mo190  1  0.79113006  0.40546359  0.75148785  1
  Mo  Mo191  1  0.19984072  0.40071690  0.75812247  1
  Mo  Mo192  1  0.39972444  0.40526688  0.23464087  1
  Mo  Mo193  1  0.69300853  0.51365996  0.36617044  1
  Mo  Mo194  1  0.78970136  0.00400340  0.50843142  1
  Mo  Mo195  1  0.09466536  0.50171750  0.11646866  1
  Mo  Mo196  1  0.09785160  0.09539214  0.13758170  1
  Mo  Mo197  1  0.40078578  0.00931718  0.49917489  1
  Mo  Mo198  1  0.79879977  0.79514522  0.50317307  1
  Mo  Mo199  1  0.29573146  0.29729615  0.87645836  1
