# generated using pymatgen
data_HfZrTaTiMo
_symmetry_space_group_name_H-M   'P 1'
_cell_length_a   15.18518923
_cell_length_b   15.18761132
_cell_length_c   16.79868962
_cell_angle_alpha   89.97603761
_cell_angle_beta   90.01052869
_cell_angle_gamma   90.06863168
_symmetry_Int_Tables_number   1
_chemical_formula_structural   HfZrTaTiMo
_chemical_formula_sum   'Hf40 Zr40 Ta40 Ti40 Mo40'
_cell_volume   3874.22404102
_cell_formula_units_Z   40
loop_
 _symmetry_equiv_pos_site_id
 _symmetry_equiv_pos_as_xyz
  1  'x, y, z'
loop_
 _atom_site_type_symbol
 _atom_site_label
 _atom_site_symmetry_multiplicity
 _atom_site_fract_x
 _atom_site_fract_y
 _atom_site_fract_z
 _atom_site_occupancy
  Hf  Hf0  1  0.91637471  0.30554964  0.13104657  1
  Hf  Hf1  1  0.28064121  0.71501905  0.12568042  1
  Hf  Hf2  1  0.19376520  0.39540976  0.24261976  1
  Hf  Hf3  1  0.10336831  0.11243624  0.12950212  1
  Hf  Hf4  1  -0.00846665  0.80382410  0.73661736  1
  Hf  Hf5  1  0.37738980  0.40463112  0.01024972  1
  Hf  Hf6  1  0.69302370  0.49684399  0.86400281  1
  Hf  Hf7  1  0.40967768  0.60065467  0.51033952  1
  Hf  Hf8  1  0.70486369  0.29965219  0.86031313  1
  Hf  Hf9  1  0.92277274  0.89007614  0.37562208  1
  Hf  Hf10  1  0.20242194  -0.00378286  0.48435055  1
  Hf  Hf11  1  0.38799530  0.59625500  0.23643154  1
  Hf  Hf12  1  0.30141305  0.50286234  0.38253106  1
  Hf  Hf13  1  0.92668933  0.09276986  0.37154624  1
  Hf  Hf14  1  0.28701030  0.29625957  0.37027957  1
  Hf  Hf15  1  0.69152376  0.49937207  0.64262008  1
  Hf  Hf16  1  0.49471212  0.09090940  0.88395516  1
  Hf  Hf17  1  -0.00162550  0.41661643  0.26161570  1
  Hf  Hf18  1  0.59310484  0.40109394  -0.00685730  1
  Hf  Hf19  1  0.29371220  0.91188375  0.62601989  1
  Hf  Hf20  1  0.69556008  0.49755170  0.11559789  1
  Hf  Hf21  1  0.70564616  0.10882094  0.37693670  1
  Hf  Hf22  1  0.01185175  -0.00226351  0.74073261  1
  Hf  Hf23  1  0.09774292  0.49183249  0.87062566  1
  Hf  Hf24  1  0.70609888  0.07582271  0.87566943  1
  Hf  Hf25  1  0.48101586  0.30147453  0.87270492  1
  Hf  Hf26  1  0.40559669  0.00012519  0.48564778  1
  Hf  Hf27  1  0.58952926  0.18878898  0.75723644  1
  Hf  Hf28  1  0.59813486  -0.00546585  0.01833850  1
  Hf  Hf29  1  -0.00560657  0.60662481  -0.01098571  1
  Hf  Hf30  1  0.49595840  0.68117235  0.36558080  1
  Hf  Hf31  1  -0.00595585  0.40284828  0.50537946  1
  Hf  Hf32  1  0.20836627  0.20850258  0.00540466  1
  Hf  Hf33  1  0.71276550  0.69622089  0.12068546  1
  Hf  Hf34  1  0.69966118  0.09588599  0.62694195  1
  Hf  Hf35  1  0.79215803  0.61898355  0.75620364  1
  Hf  Hf36  1  0.90171082  0.29600678  0.36611093  1
  Hf  Hf37  1  0.18874436  0.80293974  0.27823324  1
  Hf  Hf38  1  0.49915111  0.30765522  0.12381925  1
  Hf  Hf39  1  0.39579006  0.19594101  0.49804547  1
  Zr  Zr40  1  0.37917316  0.79935152  0.48299790  1
  Zr  Zr41  1  0.60279856  0.21213236  0.49782326  1
  Zr  Zr42  1  0.80191061  0.58935887  0.25503698  1
  Zr  Zr43  1  0.50527260  0.88664348  0.62386262  1
  Zr  Zr44  1  0.01614494  0.20521301  0.50943184  1
  Zr  Zr45  1  0.30395785  0.90787264  0.87069009  1
  Zr  Zr46  1  0.80801917  0.20646370  0.50829174  1
  Zr  Zr47  1  0.70541956  0.90122079  0.37027155  1
  Zr  Zr48  1  0.10940519  0.10477535  0.87235009  1
  Zr  Zr49  1  0.40608345  0.80138907  0.75198646  1
  Zr  Zr50  1  0.48895681  0.69552992  0.88195795  1
  Zr  Zr51  1  0.71318610  0.89465861  0.13149245  1
  Zr  Zr52  1  0.39388586  0.39530020  0.51128817  1
  Zr  Zr53  1  0.17917454  0.59889387  0.25656723  1
  Zr  Zr54  1  0.91552916  0.30558907  0.86282476  1
  Zr  Zr55  1  0.78776033  0.39594439  0.50793741  1
  Zr  Zr56  1  0.81107870  0.18876649  0.74812919  1
  Zr  Zr57  1  0.80349968  0.79267640  0.49375971  1
  Zr  Zr58  1  0.91801154  0.68565825  0.37958027  1
  Zr  Zr59  1  0.61040492  0.00898731  0.24075112  1
  Zr  Zr60  1  0.50011969  0.30381469  0.63765615  1
  Zr  Zr61  1  0.61809794  0.80085463  -0.01089434  1
  Zr  Zr62  1  0.88925626  0.69952761  0.62201873  1
  Zr  Zr63  1  0.70441814  0.88702793  0.61982149  1
  Zr  Zr64  1  0.81266870  0.00008438  0.50394567  1
  Zr  Zr65  1  0.49798052  0.70954452  0.11942961  1
  Zr  Zr66  1  0.67583662  0.50245078  0.37681919  1
  Zr  Zr67  1  0.21338994  -0.00321631  0.00955984  1
  Zr  Zr68  1  0.28458166  0.70359490  0.62834942  1
  Zr  Zr69  1  0.60512970  0.19691331  0.00425599  1
  Zr  Zr70  1  0.20167185  0.59384627  -0.00109812  1
  Zr  Zr71  1  0.80622338  0.19575874  0.00452123  1
  Zr  Zr72  1  0.49616828  0.31463327  0.36590907  1
  Zr  Zr73  1  0.49643766  0.09262149  0.62493494  1
  Zr  Zr74  1  0.89469004  0.50805482  0.11778356  1
  Zr  Zr75  1  0.20567677  0.00296753  0.25154294  1
  Zr  Zr76  1  0.58998047  0.78447204  0.48893757  1
  Zr  Zr77  1  0.80531722  0.18665626  0.24017589  1
  Zr  Zr78  1  0.39281278  0.81460300  0.00072231  1
  Zr  Zr79  1  0.91271787  0.09466152  0.87576447  1
  Ta  Ta80  1  0.70858250  0.30612193  0.13233570  1
  Ta  Ta81  1  0.39542356  0.19701710  0.01571639  1
  Ta  Ta82  1  0.80759932  0.40028467  -0.00816795  1
  Ta  Ta83  1  0.02438386  0.80422109  0.51817643  1
  Ta  Ta84  1  0.59093367  0.59813997  0.23796639  1
  Ta  Ta85  1  0.01724385  -0.00014875  0.51582232  1
  Ta  Ta86  1  0.70078700  0.30911416  0.35606850  1
  Ta  Ta87  1  0.08721423  0.49595297  0.11782956  1
  Ta  Ta88  1  0.09451829  0.70240147  0.86442246  1
  Ta  Ta89  1  0.10143718  0.50890518  0.62049099  1
  Ta  Ta90  1  0.12695717  0.10690702  0.63388957  1
  Ta  Ta91  1  0.10618177  0.88414217  0.12414457  1
  Ta  Ta92  1  0.60003679  0.20712639  0.24182515  1
  Ta  Ta93  1  0.59172801  0.59472639  -0.00804352  1
  Ta  Ta94  1  0.39107581  0.40791579  0.23292350  1
  Ta  Ta95  1  0.90834482  0.09048272  0.12316073  1
  Ta  Ta96  1  0.31024305  0.11286311  0.87575664  1
  Ta  Ta97  1  0.38803604  0.59555382  0.74806385  1
  Ta  Ta98  1  0.91397316  0.09841787  0.63138025  1
  Ta  Ta99  1  0.89807392  0.50158552  0.86511708  1
  Ta  Ta100  1  0.49948027  0.90219735  0.35841137  1
  Ta  Ta101  1  0.28631209  0.69597985  0.86951988  1
  Ta  Ta102  1  0.28982332  0.49432959  0.62329758  1
  Ta  Ta103  1  0.89733600  0.89619496  0.88406183  1
  Ta  Ta104  1  0.38830863  0.20145766  0.23674625  1
  Ta  Ta105  1  0.09312218  0.89731923  0.87878499  1
  Ta  Ta106  1  0.80957984  -0.02338095  0.74439308  1
  Ta  Ta107  1  0.50017199  0.50850231  0.63929730  1
  Ta  Ta108  1  0.81184210  0.79477216  0.25532714  1
  Ta  Ta109  1  0.59235704  0.41092407  0.23939877  1
  Ta  Ta110  1  0.00965603  -0.00923058  0.24241806  1
  Ta  Ta111  1  0.62091385  0.79234581  0.76629956  1
  Ta  Ta112  1  0.00668236  -0.00511959  0.00733551  1
  Ta  Ta113  1  0.78622621  0.59363339  0.50374292  1
  Ta  Ta114  1  0.40239622  -0.00185102  0.23852894  1
  Ta  Ta115  1  0.60100533  0.79433114  0.25167186  1
  Ta  Ta116  1  0.00966772  0.21233795  0.00191235  1
  Ta  Ta117  1  0.69993216  0.30691755  0.64936532  1
  Ta  Ta118  1  0.91432085  0.88652678  0.12296475  1
  Ta  Ta119  1  0.38905224  0.40149154  0.74608506  1
  Ti  Ti120  1  0.18232129  0.39398109  0.00927857  1
  Ti  Ti121  1  0.09029933  0.50885646  0.38968878  1
  Ti  Ti122  1  0.40420543  0.01179224  0.74849842  1
  Ti  Ti123  1  0.28759942  0.28353518  0.63226659  1
  Ti  Ti124  1  0.89273581  0.49923659  0.63315972  1
  Ti  Ti125  1  0.19689342  0.39811241  0.74113688  1
  Ti  Ti126  1  0.20114067  0.19715994  0.49746360  1
  Ti  Ti127  1  0.59958411  0.00031769  0.48909243  1
  Ti  Ti128  1  0.81456492  -0.00714480  0.24575629  1
  Ti  Ti129  1  0.67544720  0.69230423  0.62431863  1
  Ti  Ti130  1  0.90634802  0.70289702  0.12665329  1
  Ti  Ti131  1  0.79289718  0.60556078  -0.01701169  1
  Ti  Ti132  1  0.19360071  0.59649678  0.74883378  1
  Ti  Ti133  1  0.30287530  0.49722149  0.86930792  1
  Ti  Ti134  1  0.21074508  0.00785277  0.75283508  1
  Ti  Ti135  1  0.10242530  0.29793438  0.86367461  1
  Ti  Ti136  1  0.59022820  0.41275109  0.50455227  1
  Ti  Ti137  1  0.50396765  0.10399987  0.13146654  1
  Ti  Ti138  1  0.18714947  0.79686357  -0.00849134  1
  Ti  Ti139  1  0.40113454  0.00215978  0.02804306  1
  Ti  Ti140  1  0.18816026  0.39214624  0.50371777  1
  Ti  Ti141  1  0.60589221  -0.01562064  0.75200313  1
  Ti  Ti142  1  0.39063670  0.80289604  0.25648324  1
  Ti  Ti143  1  0.28931678  0.30207980  0.86808807  1
  Ti  Ti144  1  0.00509275  0.40428630  0.73609008  1
  Ti  Ti145  1  0.58287555  0.60324107  0.76462528  1
  Ti  Ti146  1  0.50126626  0.10603407  0.36163614  1
  Ti  Ti147  1  0.51099942  0.90414811  0.87346580  1
  Ti  Ti148  1  0.19469294  0.61768372  0.49627900  1
  Ti  Ti149  1  0.08452275  0.69949761  0.12623006  1
  Ti  Ti150  1  0.80339097  -0.01196784  0.00832562  1
  Ti  Ti151  1  0.70137938  0.69375828  0.37059684  1
  Ti  Ti152  1  0.30350438  0.10121394  0.36340299  1
  Ti  Ti153  1  0.39425221  0.59561091  0.00604269  1
  Ti  Ti154  1  0.89671608  0.71185933  0.87320705  1
  Ti  Ti155  1  0.90459271  0.30141793  0.63935201  1
  Ti  Ti156  1  0.88585154  0.49586343  0.38246172  1
  Ti  Ti157  1  0.18950700  0.80498137  0.75218242  1
  Ti  Ti158  1  0.00067820  0.60399691  0.51378096  1
  Ti  Ti159  1  0.00070754  0.60091808  0.74533899  1
  Mo  Mo160  1  0.09421431  0.70190625  0.38886987  1
  Mo  Mo161  1  0.71216512  0.10241453  0.12244692  1
  Mo  Mo162  1  0.09874620  0.30424942  0.37994635  1
  Mo  Mo163  1  0.90710085  0.90637637  0.61766374  1
  Mo  Mo164  1  0.50265225  0.69277199  0.63819299  1
  Mo  Mo165  1  0.01701187  0.20045746  0.25388239  1
  Mo  Mo166  1  0.30619449  0.10255721  0.13017328  1
  Mo  Mo167  1  0.19321339  0.80164416  0.48441338  1
  Mo  Mo168  1  0.30906796  0.90563642  0.36517913  1
  Mo  Mo169  1  0.79275256  0.39758022  0.25122229  1
  Mo  Mo170  1  0.49853440  0.89674430  0.14388161  1
  Mo  Mo171  1  0.38764770  0.19799200  0.75150745  1
  Mo  Mo172  1  0.01812556  0.20807957  0.73290808  1
  Mo  Mo173  1  0.00258884  0.60181779  0.24960896  1
  Mo  Mo174  1  0.48141767  0.49868871  0.86915135  1
  Mo  Mo175  1  0.11599868  0.90020553  0.63066083  1
  Mo  Mo176  1  0.49084409  0.49338132  0.36915876  1
  Mo  Mo177  1  0.82001059  0.79328226  0.00084199  1
  Mo  Mo178  1  0.58928173  0.40355010  0.75957121  1
  Mo  Mo179  1  0.59767834  0.59296784  0.50615610  1
  Mo  Mo180  1  0.79955210  0.80286296  0.75164810  1
  Mo  Mo181  1  0.09258726  0.91454344  0.37740656  1
  Mo  Mo182  1  0.29647339  0.69432882  0.37538401  1
  Mo  Mo183  1  0.21128388  0.20542004  0.75395437  1
  Mo  Mo184  1  0.28733513  0.50235428  0.12034936  1
  Mo  Mo185  1  0.19569263  0.20271916  0.25187081  1
  Mo  Mo186  1  0.10856926  0.11598138  0.36911884  1
  Mo  Mo187  1  0.10321146  0.69488335  0.63355420  1
  Mo  Mo188  1  0.30288428  0.10023880  0.62371264  1
  Mo  Mo189  1  0.80910126  0.40717120  0.74528352  1
  Mo  Mo190  1  0.00624378  0.79900819  -0.00420983  1
  Mo  Mo191  1  0.29912842  0.89213482  0.13265189  1
  Mo  Mo192  1  -0.00157771  0.40157319  -0.00898243  1
  Mo  Mo193  1  0.70459640  0.69650958  0.88227076  1
  Mo  Mo194  1  0.71090886  0.89980682  0.87783221  1
  Mo  Mo195  1  0.09319016  0.30664985  0.12376555  1
  Mo  Mo196  1  0.00281569  0.79410009  0.24616465  1
  Mo  Mo197  1  0.49587109  0.50712461  0.11655822  1
  Mo  Mo198  1  0.10915799  0.31145650  0.62982170  1
  Mo  Mo199  1  0.28943325  0.29838505  0.12955229  1
