# generated using pymatgen
data_HfZrTaTiMo
_symmetry_space_group_name_H-M   'P 1'
_cell_length_a   15.21463870
_cell_length_b   15.21366036
_cell_length_c   16.87287236
_cell_angle_alpha   89.99847546
_cell_angle_beta   90.00499054
_cell_angle_gamma   90.00652369
_symmetry_Int_Tables_number   1
_chemical_formula_structural   HfZrTaTiMo
_chemical_formula_sum   'Hf40 Zr40 Ta40 Ti40 Mo40'
_cell_volume   3905.56955733
_cell_formula_units_Z   40
loop_
 _symmetry_equiv_pos_site_id
 _symmetry_equiv_pos_as_xyz
  1  'x, y, z'
loop_
 _atom_site_type_symbol
 _atom_site_label
 _atom_site_symmetry_multiplicity
 _atom_site_fract_x
 _atom_site_fract_y
 _atom_site_fract_z
 _atom_site_occupancy
  Hf  Hf0  1  0.38361655  0.39979544  0.23862008  1
  Hf  Hf1  1  0.10087025  0.89848096  0.37696667  1
  Hf  Hf2  1  0.09811086  0.68944519  0.38408579  1
  Hf  Hf3  1  0.90484944  0.11029598  0.37344356  1
  Hf  Hf4  1  0.17350603  0.79776374  0.73223930  1
  Hf  Hf5  1  0.90686732  0.30883939  0.86709301  1
  Hf  Hf6  1  0.38774864  0.78838454  0.73608097  1
  Hf  Hf7  1  0.30378573  0.90064239  0.38165713  1
  Hf  Hf8  1  0.70701513  0.10053404  0.13606277  1
  Hf  Hf9  1  0.80208132  0.20788469  0.74254196  1
  Hf  Hf10  1  0.20773477  -0.00746467  -0.00039700  1
  Hf  Hf11  1  0.50214604  0.90898804  0.12207181  1
  Hf  Hf12  1  0.92126550  0.70067759  0.87089931  1
  Hf  Hf13  1  0.29062095  0.90994764  0.85260700  1
  Hf  Hf14  1  0.20298457  0.79921480  0.51458551  1
  Hf  Hf15  1  0.49882692  0.10536895  0.12415900  1
  Hf  Hf16  1  0.71187752  0.69851388  0.63223134  1
  Hf  Hf17  1  0.28740724  0.71061700  0.12220153  1
  Hf  Hf18  1  0.58234312  0.19372718  0.49766248  1
  Hf  Hf19  1  0.40288291  0.03064708  0.49310423  1
  Hf  Hf20  1  0.80826540  0.81321598  0.76162500  1
  Hf  Hf21  1  0.17873833  0.40165031  0.00722674  1
  Hf  Hf22  1  -0.00046333  0.57339177  -0.00661998  1
  Hf  Hf23  1  0.60562817  0.79839621  0.24693098  1
  Hf  Hf24  1  0.50285524  0.70109156  0.37625013  1
  Hf  Hf25  1  0.10205465  0.49724396  0.85948798  1
  Hf  Hf26  1  0.91067312  0.11128415  0.12973887  1
  Hf  Hf27  1  0.90677292  0.09944162  0.87354384  1
  Hf  Hf28  1  0.39728275  0.80238547  0.25293704  1
  Hf  Hf29  1  0.20489662  0.19028840  0.24208144  1
  Hf  Hf30  1  0.71055749  0.90081334  0.37741279  1
  Hf  Hf31  1  0.39584936  0.58553072  0.73919826  1
  Hf  Hf32  1  0.89820357  0.89700200  0.61795069  1
  Hf  Hf33  1  0.69527727  0.09138570  0.63104836  1
  Hf  Hf34  1  0.40550049  0.59689178  0.51012470  1
  Hf  Hf35  1  0.70901876  0.10118105  0.37606752  1
  Hf  Hf36  1  0.50593004  0.50861459  0.13137575  1
  Hf  Hf37  1  0.00707794  0.20873492  -0.00207996  1
  Hf  Hf38  1  0.81277087  0.59308992  0.26146581  1
  Hf  Hf39  1  0.60358471  0.20814021  0.25712302  1
  Zr  Zr40  1  0.49423970  0.30581974  0.88067693  1
  Zr  Zr41  1  0.39839293  0.01563178  0.26100094  1
  Zr  Zr42  1  0.80724837  0.80811060  0.24069428  1
  Zr  Zr43  1  0.91287797  0.67991558  0.12312956  1
  Zr  Zr44  1  0.80252898  0.79494185  0.00299231  1
  Zr  Zr45  1  0.00533820  -0.01702274  0.74536344  1
  Zr  Zr46  1  0.08712042  0.28497463  0.36470350  1
  Zr  Zr47  1  0.70245289  0.69144534  0.86742288  1
  Zr  Zr48  1  0.20481745  0.60015448  0.25627166  1
  Zr  Zr49  1  0.00851007  -0.00296387  0.25250658  1
  Zr  Zr50  1  0.79195338  0.58303195  -0.00718064  1
  Zr  Zr51  1  0.60554905  0.79923342  0.50528359  1
  Zr  Zr52  1  0.29476053  0.92528018  0.63684821  1
  Zr  Zr53  1  0.10367384  0.50280703  0.62312379  1
  Zr  Zr54  1  0.69685789  0.31082390  0.86747326  1
  Zr  Zr55  1  0.49706609  0.69887301  0.11990189  1
  Zr  Zr56  1  0.89387462  0.10093911  0.62194398  1
  Zr  Zr57  1  0.48589880  0.69374022  0.87403507  1
  Zr  Zr58  1  0.30205035  0.50544690  0.87934673  1
  Zr  Zr59  1  0.49971383  0.91105475  0.85877689  1
  Zr  Zr60  1  0.40404711  0.80440472  0.51506129  1
  Zr  Zr61  1  0.79274045  0.00233303  0.00203577  1
  Zr  Zr62  1  -0.00009697  0.21457258  0.50756205  1
  Zr  Zr63  1  0.38582359  0.81581040  -0.00868388  1
  Zr  Zr64  1  0.60600993  0.58511333  0.74886246  1
  Zr  Zr65  1  0.90535178  0.69354929  0.63237995  1
  Zr  Zr66  1  0.60763679  0.80482732  -0.00382006  1
  Zr  Zr67  1  0.49075094  0.11571780  0.64506298  1
  Zr  Zr68  1  0.51026776  0.91220939  0.64027177  1
  Zr  Zr69  1  0.91648415  0.90319412  0.11316139  1
  Zr  Zr70  1  0.69768938  0.09697828  0.85867555  1
  Zr  Zr71  1  0.30534181  0.11061533  0.87238666  1
  Zr  Zr72  1  0.60708668  0.20283327  0.00217815  1
  Zr  Zr73  1  0.09306669  0.48571019  0.37487207  1
  Zr  Zr74  1  0.08369645  0.50731338  0.14741204  1
  Zr  Zr75  1  0.08493078  0.29905114  0.14058643  1
  Zr  Zr76  1  0.00335473  0.00291742  0.49754660  1
  Zr  Zr77  1  0.48791739  0.30300908  0.37346004  1
  Zr  Zr78  1  0.39334680  0.40062853  0.01692589  1
  Zr  Zr79  1  0.58505159  0.40195355  0.51045623  1
  Ta  Ta80  1  0.11454701  0.88459696  0.12381566  1
  Ta  Ta81  1  0.61054315  0.41028750  0.00654118  1
  Ta  Ta82  1  -0.03297257  0.39011937  0.26077203  1
  Ta  Ta83  1  0.60542172  0.60099737  0.50354530  1
  Ta  Ta84  1  0.09720088  0.88387717  0.88089034  1
  Ta  Ta85  1  0.19574212  0.38693647  0.50166759  1
  Ta  Ta86  1  0.70021485  0.50026447  0.13244500  1
  Ta  Ta87  1  0.70839228  0.30033818  0.39115256  1
  Ta  Ta88  1  0.49744077  0.50444851  0.37021885  1
  Ta  Ta89  1  -0.00200268  0.79410631  0.49394506  1
  Ta  Ta90  1  0.10475855  0.29588446  0.86639211  1
  Ta  Ta91  1  0.69798362  0.68995172  0.12662857  1
  Ta  Ta92  1  0.89805599  0.50170037  0.63356169  1
  Ta  Ta93  1  0.50780614  0.30503492  0.12766467  1
  Ta  Ta94  1  0.00199500  0.39358331  0.73809163  1
  Ta  Ta95  1  0.81564520  0.40176916  0.50138154  1
  Ta  Ta96  1  0.70841190  0.49913054  0.61438028  1
  Ta  Ta97  1  0.28918996  0.30043567  0.37505721  1
  Ta  Ta98  1  0.19926527  0.80299724  0.25529662  1
  Ta  Ta99  1  0.60659751  -0.00020882  0.25451052  1
  Ta  Ta100  1  0.59388233  0.00287373  -0.00661940  1
  Ta  Ta101  1  0.30447766  0.29517803  0.62036089  1
  Ta  Ta102  1  0.10372103  0.09201149  0.87678462  1
  Ta  Ta103  1  0.88893280  0.47313141  0.12728198  1
  Ta  Ta104  1  0.71149665  0.31218559  0.12736369  1
  Ta  Ta105  1  0.69818055  0.49965749  0.38856859  1
  Ta  Ta106  1  0.20360279  0.19079904  0.49802700  1
  Ta  Ta107  1  0.80865720  0.79129994  0.49416299  1
  Ta  Ta108  1  0.30296140  0.49206501  0.38089160  1
  Ta  Ta109  1  0.50717179  0.90900457  0.37725598  1
  Ta  Ta110  1  0.20140177  0.00768242  0.49700901  1
  Ta  Ta111  1  0.18815420  0.61311161  0.00445498  1
  Ta  Ta112  1  0.30890378  0.48260869  0.61767690  1
  Ta  Ta113  1  0.00722913  0.78189474  0.25286547  1
  Ta  Ta114  1  0.58344071  0.38966791  0.72951809  1
  Ta  Ta115  1  0.91052366  0.90355250  0.89040964  1
  Ta  Ta116  1  0.60234092  0.00066992  0.49659608  1
  Ta  Ta117  1  0.50172630  0.10609030  0.85645831  1
  Ta  Ta118  1  0.29086026  0.30916754  0.87856948  1
  Ta  Ta119  1  0.10876009  0.29489497  0.63076834  1
  Ti  Ti120  1  0.39983385  0.20005896  0.00252698  1
  Ti  Ti121  1  0.50833497  0.69426653  0.63101247  1
  Ti  Ti122  1  0.00971804  0.19662610  0.74536237  1
  Ti  Ti123  1  0.89865928  0.30799540  0.62544577  1
  Ti  Ti124  1  0.80619877  0.39842151  -0.00596676  1
  Ti  Ti125  1  0.60038523  0.40385507  0.25562055  1
  Ti  Ti126  1  0.20545748  -0.00149791  0.25030564  1
  Ti  Ti127  1  0.20440307  0.20509269  0.00692359  1
  Ti  Ti128  1  0.80245703  0.20823466  0.00049535  1
  Ti  Ti129  1  0.59964237  0.59438118  -0.00545237  1
  Ti  Ti130  1  0.28822999  0.50334478  0.12503233  1
  Ti  Ti131  1  0.29455192  0.11286506  0.63645577  1
  Ti  Ti132  1  0.21258274  0.39961217  0.74487581  1
  Ti  Ti133  1  0.09314142  0.69433361  0.61093688  1
  Ti  Ti134  1  0.70821312  0.90395900  0.62610138  1
  Ti  Ti135  1  0.39200735  0.60347776  0.00107941  1
  Ti  Ti136  1  0.89804851  0.89962668  0.37568243  1
  Ti  Ti137  1  0.19876052  0.20336949  0.75196600  1
  Ti  Ti138  1  0.27462592  0.70154936  0.86980977  1
  Ti  Ti139  1  0.81565917  0.21741082  0.25222371  1
  Ti  Ti140  1  0.50608641  0.49302464  0.87675834  1
  Ti  Ti141  1  0.78688841  0.41002588  0.74028253  1
  Ti  Ti142  1  0.39932491  0.22788431  0.75337292  1
  Ti  Ti143  1  0.39694115  0.20485069  0.24502987  1
  Ti  Ti144  1  0.30384045  0.90880174  0.12744117  1
  Ti  Ti145  1  0.02841601  0.78127109  0.00401262  1
  Ti  Ti146  1  0.20624338  0.59205766  0.49994397  1
  Ti  Ti147  1  0.60519073  0.80204980  0.75355694  1
  Ti  Ti148  1  0.60776854  0.59835397  0.25793884  1
  Ti  Ti149  1  0.71107943  0.69572572  0.37838282  1
  Ti  Ti150  1  0.89113872  0.49873621  0.85285789  1
  Ti  Ti151  1  0.39993560  0.60267276  0.25233961  1
  Ti  Ti152  1  0.30535079  0.09874762  0.11461937  1
  Ti  Ti153  1  -0.02446676  0.58831437  0.49178191  1
  Ti  Ti154  1  0.78588994  0.39835581  0.26642076  1
  Ti  Ti155  1  0.69774209  0.29360375  0.61512844  1
  Ti  Ti156  1  0.10854339  0.09181803  0.63062221  1
  Ti  Ti157  1  0.10323311  0.08607364  0.11721659  1
  Ti  Ti158  1  0.30326289  0.69579495  0.38000570  1
  Ti  Ti159  1  0.01386723  0.60703382  0.74870318  1
  Mo  Mo160  1  0.48306130  0.30862873  0.62191881  1
  Mo  Mo161  1  0.29995881  0.28916219  0.11882104  1
  Mo  Mo162  1  0.60699341  -0.00438984  0.75262485  1
  Mo  Mo163  1  0.10676524  0.69204431  0.87145667  1
  Mo  Mo164  1  0.38712581  0.40234005  0.49281386  1
  Mo  Mo165  1  0.50304983  0.10057512  0.36944779  1
  Mo  Mo166  1  0.79048317  0.20483767  0.51000095  1
  Mo  Mo167  1  0.89370777  0.49387932  0.38243865  1
  Mo  Mo168  1  -0.00140462  0.19608566  0.24817178  1
  Mo  Mo169  1  0.88948993  0.30059570  0.38345066  1
  Mo  Mo170  1  0.88908903  0.30081938  0.12293999  1
  Mo  Mo171  1  0.59875765  0.20943195  0.74196448  1
  Mo  Mo172  1  0.80646510  0.59131911  0.75277656  1
  Mo  Mo173  1  0.79705373  0.59887082  0.49383587  1
  Mo  Mo174  1  0.09870885  0.70044701  0.13178772  1
  Mo  Mo175  1  -0.00917762  0.39811400  -0.00705191  1
  Mo  Mo176  1  0.00055477  0.40043732  0.51708258  1
  Mo  Mo177  1  -0.00786653  0.59321218  0.26165081  1
  Mo  Mo178  1  0.90172694  0.70529893  0.37696000  1
  Mo  Mo179  1  0.29452853  0.10972554  0.37228206  1
  Mo  Mo180  1  0.70379364  0.90448861  0.87036247  1
  Mo  Mo181  1  0.20170529  0.79971743  -0.00425114  1
  Mo  Mo182  1  0.28509257  0.67968230  0.62486514  1
  Mo  Mo183  1  0.38665880  0.20982643  0.49834605  1
  Mo  Mo184  1  0.39543087  0.40014734  0.75202685  1
  Mo  Mo185  1  0.79377096  -0.00817635  0.49851136  1
  Mo  Mo186  1  0.50268663  0.50120161  0.62127754  1
  Mo  Mo187  1  0.80126682  -0.00562917  0.75961562  1
  Mo  Mo188  1  0.18701691  0.01459028  0.75119564  1
  Mo  Mo189  1  0.09400126  0.90119689  0.60858272  1
  Mo  Mo190  1  0.20393332  0.60088577  0.73746144  1
  Mo  Mo191  1  0.69770514  0.90596027  0.13179638  1
  Mo  Mo192  1  0.20637370  0.39588872  0.24876045  1
  Mo  Mo193  1  0.39333640  0.01504594  0.74874155  1
  Mo  Mo194  1  0.01211851  -0.00384809  -0.00375342  1
  Mo  Mo195  1  0.00118254  0.79735400  0.75175556  1
  Mo  Mo196  1  0.69448002  0.48713842  0.87137084  1
  Mo  Mo197  1  0.11394580  0.09526755  0.37250512  1
  Mo  Mo198  1  0.40805809  0.01337890  -0.00315084  1
  Mo  Mo199  1  0.79808435  0.00141340  0.24387838  1
