# generated using pymatgen
data_HfZrTaTiMo
_symmetry_space_group_name_H-M   'P 1'
_cell_length_a   15.16929058
_cell_length_b   15.17712034
_cell_length_c   16.79751639
_cell_angle_alpha   89.96006733
_cell_angle_beta   90.04865732
_cell_angle_gamma   90.07950033
_symmetry_Int_Tables_number   1
_chemical_formula_structural   HfZrTaTiMo
_chemical_formula_sum   'Hf40 Zr40 Ta40 Ti40 Mo40'
_cell_volume   3867.22145237
_cell_formula_units_Z   40
loop_
 _symmetry_equiv_pos_site_id
 _symmetry_equiv_pos_as_xyz
  1  'x, y, z'
loop_
 _atom_site_type_symbol
 _atom_site_label
 _atom_site_symmetry_multiplicity
 _atom_site_fract_x
 _atom_site_fract_y
 _atom_site_fract_z
 _atom_site_occupancy
  Hf  Hf0  1  0.71010084  0.29673760  0.37130072  1
  Hf  Hf1  1  0.60603838  0.79126742  0.01115082  1
  Hf  Hf2  1  0.68810762  0.10374458  0.38160101  1
  Hf  Hf3  1  0.50329813  0.28966061  0.37073813  1
  Hf  Hf4  1  0.70707288  0.69942069  0.37256556  1
  Hf  Hf5  1  0.58332288  -0.01165233  -0.00006998  1
  Hf  Hf6  1  0.09698612  0.29810121  0.62644337  1
  Hf  Hf7  1  0.19837663  0.59733216  0.74717235  1
  Hf  Hf8  1  0.38842575  0.17915230  0.00002558  1
  Hf  Hf9  1  0.69026788  0.89825727  0.86516584  1
  Hf  Hf10  1  0.09407122  0.51236517  0.12213964  1
  Hf  Hf11  1  0.38983641  -0.00982339  0.74264806  1
  Hf  Hf12  1  0.20601048  0.00991630  0.01495100  1
  Hf  Hf13  1  0.89906850  0.91424149  0.86815376  1
  Hf  Hf14  1  0.30499722  0.28773426  0.13089177  1
  Hf  Hf15  1  0.70855523  0.09155275  0.85593680  1
  Hf  Hf16  1  0.89210722  0.70138613  0.62314660  1
  Hf  Hf17  1  0.30108628  0.71146055  0.86562358  1
  Hf  Hf18  1  0.10105656  0.11004381  0.14436021  1
  Hf  Hf19  1  0.21832585  0.40158089  0.00138669  1
  Hf  Hf20  1  0.69127827  0.52365111  0.12657146  1
  Hf  Hf21  1  0.79889551  0.41344162  -0.00600312  1
  Hf  Hf22  1  0.20037746  0.19851941  0.49625079  1
  Hf  Hf23  1  0.30489646  0.49847602  0.37044154  1
  Hf  Hf24  1  0.69565140  0.49941785  0.36458712  1
  Hf  Hf25  1  0.11557492  0.27849022  0.89320294  1
  Hf  Hf26  1  0.59807882  0.39148662  0.00199298  1
  Hf  Hf27  1  0.59363795  0.39391739  0.50492470  1
  Hf  Hf28  1  0.40011116  -0.01335256  0.27333476  1
  Hf  Hf29  1  0.00669731  0.80701278  0.75274203  1
  Hf  Hf30  1  -0.00493757  0.59785866  0.76595195  1
  Hf  Hf31  1  0.01072434  0.39990167  0.76864006  1
  Hf  Hf32  1  0.80920890  0.40822014  0.76472980  1
  Hf  Hf33  1  0.21939613  0.80962116  -0.00213194  1
  Hf  Hf34  1  0.71712111  0.28083253  0.11966588  1
  Hf  Hf35  1  -0.01609788  0.81247184  0.48461375  1
  Hf  Hf36  1  0.49423821  0.71346728  0.87968541  1
  Hf  Hf37  1  0.20943757  0.61459691  0.24765416  1
  Hf  Hf38  1  0.59273275  0.19215462  0.51356330  1
  Hf  Hf39  1  0.49499613  0.08751533  0.86664383  1
  Zr  Zr40  1  0.50854253  0.50865222  0.88453598  1
  Zr  Zr41  1  0.59455012  0.39215982  0.23673481  1
  Zr  Zr42  1  0.01146308  0.80711298  0.26496712  1
  Zr  Zr43  1  0.49380046  0.69292475  0.61197197  1
  Zr  Zr44  1  0.90404876  0.49683059  0.62551168  1
  Zr  Zr45  1  0.70578646  0.09355145  0.63436434  1
  Zr  Zr46  1  0.59923296  0.18662444  0.00435871  1
  Zr  Zr47  1  0.30120313  0.30032831  0.36369545  1
  Zr  Zr48  1  0.20641077  0.81982244  0.73648322  1
  Zr  Zr49  1  0.00464165  0.40462564  0.49761427  1
  Zr  Zr50  1  0.48679318  0.89679801  0.13551593  1
  Zr  Zr51  1  0.91619296  0.70435314  0.11603547  1
  Zr  Zr52  1  0.80642088  -0.00979818  0.49887103  1
  Zr  Zr53  1  0.48362625  0.48314475  0.11344290  1
  Zr  Zr54  1  0.48226961  0.48149472  0.62299387  1
  Zr  Zr55  1  0.69416457  0.29056605  0.87192697  1
  Zr  Zr56  1  0.70916038  0.30361523  0.63166726  1
  Zr  Zr57  1  0.80843465  0.81734354  0.01146854  1
  Zr  Zr58  1  0.88415276  0.11888534  0.13136896  1
  Zr  Zr59  1  0.00011296  0.60542720  0.26099855  1
  Zr  Zr60  1  0.38547584  0.60534982  0.00761807  1
  Zr  Zr61  1  0.27495915  0.09106993  0.86942317  1
  Zr  Zr62  1  0.81322141  0.40096612  0.23628385  1
  Zr  Zr63  1  0.09170757  0.70587396  0.61810573  1
  Zr  Zr64  1  0.60203438  0.79850362  0.50039330  1
  Zr  Zr65  1  0.70276176  0.90210157  0.37154593  1
  Zr  Zr66  1  0.90478124  0.29034324  0.89506382  1
  Zr  Zr67  1  0.91161083  0.10967528  0.62089287  1
  Zr  Zr68  1  0.18678952  0.60301710  -0.00619681  1
  Zr  Zr69  1  0.59243242  0.79126435  0.73581195  1
  Zr  Zr70  1  0.31593705  0.30644622  0.62612267  1
  Zr  Zr71  1  0.51126873  0.68941054  0.12987036  1
  Zr  Zr72  1  0.59888834  0.40198867  0.75168881  1
  Zr  Zr73  1  0.02303244  0.01302136  0.74449388  1
  Zr  Zr74  1  -0.00633670  0.00224531  0.00938959  1
  Zr  Zr75  1  0.88998591  0.10866801  0.36779733  1
  Zr  Zr76  1  0.69496854  0.68895641  0.87591909  1
  Zr  Zr77  1  0.39607926  0.00692722  0.48434357  1
  Zr  Zr78  1  0.09487479  0.10502381  0.35768200  1
  Zr  Zr79  1  0.20269955  0.59655081  0.50941727  1
  Ta  Ta80  1  0.28816654  0.09836913  0.62542455  1
  Ta  Ta81  1  0.58741677  -0.00745916  0.50968890  1
  Ta  Ta82  1  0.40510667  0.59237833  0.24612545  1
  Ta  Ta83  1  0.60349346  0.58919698  0.49863492  1
  Ta  Ta84  1  0.59797523  0.79467412  0.25640832  1
  Ta  Ta85  1  0.69645752  0.90522088  0.13860956  1
  Ta  Ta86  1  0.40107076  0.39363211  0.76990434  1
  Ta  Ta87  1  -0.00368761  0.60520882  0.48368493  1
  Ta  Ta88  1  0.18981071  0.18886185  0.74396521  1
  Ta  Ta89  1  0.81657187  0.20176702  0.74790496  1
  Ta  Ta90  1  0.79442794  0.60059174  0.75756660  1
  Ta  Ta91  1  0.28889999  0.88413461  0.14309108  1
  Ta  Ta92  1  0.49917331  0.68616182  0.37868270  1
  Ta  Ta93  1  0.10628949  0.49910661  0.37237235  1
  Ta  Ta94  1  0.39183131  0.78293505  0.26442327  1
  Ta  Ta95  1  0.81248726  0.80979272  0.24319933  1
  Ta  Ta96  1  0.29397871  0.10559031  0.35882507  1
  Ta  Ta97  1  0.21260138  0.40280309  0.50256593  1
  Ta  Ta98  1  0.60537078  0.18599383  0.23980059  1
  Ta  Ta99  1  0.11240602  0.70840768  0.38528685  1
  Ta  Ta100  1  0.80179865  0.61224149  0.24582142  1
  Ta  Ta101  1  0.11810810  0.71865497  0.12378734  1
  Ta  Ta102  1  0.01148458  0.42253170  -0.01547439  1
  Ta  Ta103  1  0.20852188  0.39187252  0.76143089  1
  Ta  Ta104  1  0.90361896  0.90216485  0.63141195  1
  Ta  Ta105  1  0.90535521  0.30831425  0.37312239  1
  Ta  Ta106  1  0.58984299  -0.01067384  0.73201073  1
  Ta  Ta107  1  0.70802660  0.89137383  0.62738976  1
  Ta  Ta108  1  0.00068950  0.20557552  0.49347178  1
  Ta  Ta109  1  0.89960077  0.70727013  0.88300251  1
  Ta  Ta110  1  0.80223546  0.79822438  0.74997074  1
  Ta  Ta111  1  0.12054174  0.91564991  0.87672210  1
  Ta  Ta112  1  0.80192567  0.60283257  0.49408654  1
  Ta  Ta113  1  0.39987152  0.59738795  0.74764143  1
  Ta  Ta114  1  0.19733404  0.40498456  0.23714642  1
  Ta  Ta115  1  0.09823893  0.30506201  0.11407157  1
  Ta  Ta116  1  0.78440464  0.01361181  0.00886959  1
  Ta  Ta117  1  0.80126233  0.40588456  0.49907159  1
  Ta  Ta118  1  0.00448605  0.40602335  0.24773869  1
  Ta  Ta119  1  0.10365254  0.30718355  0.36637942  1
  Ti  Ti120  1  0.49314887  0.09299094  0.12856286  1
  Ti  Ti121  1  0.39888609  0.39591755  0.24170105  1
  Ti  Ti122  1  0.19449460  0.80813009  0.50680187  1
  Ti  Ti123  1  0.80799253  0.21308786  0.50714592  1
  Ti  Ti124  1  0.40013259  0.20419394  0.49741475  1
  Ti  Ti125  1  -0.00884724  0.22235939  0.24588554  1
  Ti  Ti126  1  0.30343700  0.69628891  0.38729393  1
  Ti  Ti127  1  0.89535854  0.50402576  0.37283154  1
  Ti  Ti128  1  0.40477679  0.37560991  -0.01781618  1
  Ti  Ti129  1  0.30052035  0.08525415  0.14880567  1
  Ti  Ti130  1  0.00393154  0.20542135  0.75333836  1
  Ti  Ti131  1  0.39865787  0.58241776  0.50163182  1
  Ti  Ti132  1  0.59834942  0.59455446  0.74291262  1
  Ti  Ti133  1  0.40127828  0.80486020  0.49190334  1
  Ti  Ti134  1  0.41115633  0.19045785  0.24946396  1
  Ti  Ti135  1  0.30393188  0.69652679  0.62105597  1
  Ti  Ti136  1  0.91461606  0.30963020  0.10322472  1
  Ti  Ti137  1  -0.01748050  -0.00841213  0.24985574  1
  Ti  Ti138  1  0.39197988  0.20300957  0.75627255  1
  Ti  Ti139  1  0.40345097  0.80276371  0.73801225  1
  Ti  Ti140  1  0.09319900  0.90043668  0.12876487  1
  Ti  Ti141  1  0.90317836  0.50777058  0.11521835  1
  Ti  Ti142  1  0.19427442  0.00146864  0.49282394  1
  Ti  Ti143  1  0.58587600  0.20007214  0.74154459  1
  Ti  Ti144  1  0.10693773  0.49626142  0.62775131  1
  Ti  Ti145  1  0.70354571  0.69320021  0.62058864  1
  Ti  Ti146  1  0.18881595  -0.01607815  0.25866227  1
  Ti  Ti147  1  0.79571364  0.61030106  0.00070581  1
  Ti  Ti148  1  0.30248018  0.90293065  0.60981422  1
  Ti  Ti149  1  0.01367956  0.80601457  -0.00519252  1
  Ti  Ti150  1  0.49835682  0.49354446  0.37424147  1
  Ti  Ti151  1  0.78979307  0.00961444  0.24540402  1
  Ti  Ti152  1  0.00709500  0.00562832  0.49481646  1
  Ti  Ti153  1  0.48368107  0.10090166  0.62876270  1
  Ti  Ti154  1  0.70400188  0.50653809  0.62299596  1
  Ti  Ti155  1  0.28356927  0.88699973  0.37714062  1
  Ti  Ti156  1  0.90565713  0.10473334  0.88002021  1
  Ti  Ti157  1  0.09980753  0.70818963  0.87560029  1
  Ti  Ti158  1  0.58959812  -0.00064349  0.26027056  1
  Ti  Ti159  1  0.30060025  0.50036259  0.87132911  1
  Mo  Mo160  1  0.49494742  0.28545153  0.63127783  1
  Mo  Mo161  1  0.49811136  0.10002126  0.37757329  1
  Mo  Mo162  1  0.80603808  -0.00681751  0.74420146  1
  Mo  Mo163  1  0.29591606  0.49672886  0.13183821  1
  Mo  Mo164  1  0.10228273  0.91340634  0.60323847  1
  Mo  Mo165  1  0.89552944  0.69909529  0.37498305  1
  Mo  Mo166  1  0.30491336  0.29146794  0.87195863  1
  Mo  Mo167  1  0.08763267  0.09604295  0.88042309  1
  Mo  Mo168  1  0.40435613  0.81398929  0.00515961  1
  Mo  Mo169  1  0.70624842  0.70889861  0.14017086  1
  Mo  Mo170  1  0.19717014  0.20517503  0.24535850  1
  Mo  Mo171  1  0.39794109  0.39684593  0.49266903  1
  Mo  Mo172  1  0.80007158  0.79623186  0.50634719  1
  Mo  Mo173  1  0.31686552  0.90063432  0.87406292  1
  Mo  Mo174  1  0.10571352  0.10493919  0.61115588  1
  Mo  Mo175  1  0.80092132  0.19174951  -0.00559723  1
  Mo  Mo176  1  0.10902775  0.49849952  0.87304561  1
  Mo  Mo177  1  0.49694774  0.88567191  0.37409469  1
  Mo  Mo178  1  0.20365942  0.80176738  0.26030408  1
  Mo  Mo179  1  0.89563683  0.90704458  0.36582580  1
  Mo  Mo180  1  0.49333592  0.90349917  0.61523051  1
  Mo  Mo181  1  0.90009957  0.91093041  0.13173171  1
  Mo  Mo182  1  0.29735768  0.50086458  0.63690140  1
  Mo  Mo183  1  0.10278568  0.90741217  0.38659178  1
  Mo  Mo184  1  0.38787602  -0.01798083  0.00540219  1
  Mo  Mo185  1  0.30693514  0.70359036  0.12936972  1
  Mo  Mo186  1  0.20053382  -0.00173752  0.73805253  1
  Mo  Mo187  1  0.70231520  0.50635322  0.87884996  1
  Mo  Mo188  1  0.90280736  0.30193708  0.62732823  1
  Mo  Mo189  1  0.49513035  0.28608594  0.87075590  1
  Mo  Mo190  1  0.49225734  0.89567782  0.87133265  1
  Mo  Mo191  1  0.60688407  0.59618038  0.00094065  1
  Mo  Mo192  1  0.59317040  0.60134490  0.26116636  1
  Mo  Mo193  1  0.49810422  0.28069015  0.12973404  1
  Mo  Mo194  1  0.68565337  0.08692127  0.13182640  1
  Mo  Mo195  1  0.00403312  0.20063452  0.01040440  1
  Mo  Mo196  1  0.79980438  0.20440272  0.25306646  1
  Mo  Mo197  1  0.89787206  0.51503452  0.88457969  1
  Mo  Mo198  1  -0.00508279  0.61279619  -0.01145456  1
  Mo  Mo199  1  0.20040449  0.19560090  0.01611400  1
