# generated using pymatgen
data_HfZrTaTiMo
_symmetry_space_group_name_H-M   'P 1'
_cell_length_a   15.21197985
_cell_length_b   15.21278284
_cell_length_c   16.83907743
_cell_angle_alpha   89.95359065
_cell_angle_beta   90.01001483
_cell_angle_gamma   89.98497179
_symmetry_Int_Tables_number   1
_chemical_formula_structural   HfZrTaTiMo
_chemical_formula_sum   'Hf40 Zr40 Ta40 Ti40 Mo40'
_cell_volume   3896.83966484
_cell_formula_units_Z   40
loop_
 _symmetry_equiv_pos_site_id
 _symmetry_equiv_pos_as_xyz
  1  'x, y, z'
loop_
 _atom_site_type_symbol
 _atom_site_label
 _atom_site_symmetry_multiplicity
 _atom_site_fract_x
 _atom_site_fract_y
 _atom_site_fract_z
 _atom_site_occupancy
  Hf  Hf0  1  0.19813413  -0.00767007  0.26470872  1
  Hf  Hf1  1  0.59636857  0.39585814  0.74558562  1
  Hf  Hf2  1  0.60691962  0.59206663  0.25600563  1
  Hf  Hf3  1  0.29673388  0.10111952  0.11858053  1
  Hf  Hf4  1  0.20725109  0.39645160  0.51140152  1
  Hf  Hf5  1  0.60663032  0.18011484  0.51557010  1
  Hf  Hf6  1  0.60706807  0.20474863  0.24441785  1
  Hf  Hf7  1  0.39027738  0.58871653  0.49885944  1
  Hf  Hf8  1  0.48898561  0.32230497  0.10792789  1
  Hf  Hf9  1  0.78994675  0.60157794  -0.00426683  1
  Hf  Hf10  1  0.78919914  0.00814666  0.75981675  1
  Hf  Hf11  1  0.91463006  0.89386482  0.10871097  1
  Hf  Hf12  1  0.20539663  0.00155731  0.48369193  1
  Hf  Hf13  1  0.69485372  0.49201287  0.39134712  1
  Hf  Hf14  1  0.60656094  0.80434269  0.24301307  1
  Hf  Hf15  1  -0.00062885  0.59777078  0.75400307  1
  Hf  Hf16  1  0.89440419  0.30720187  0.36670116  1
  Hf  Hf17  1  0.38125559  0.40778788  0.76674960  1
  Hf  Hf18  1  0.81004738  0.59988003  0.49481809  1
  Hf  Hf19  1  0.00620786  0.20040984  0.49579433  1
  Hf  Hf20  1  0.49905704  0.28370822  0.86532687  1
  Hf  Hf21  1  0.21010715  0.19532562  0.25885748  1
  Hf  Hf22  1  0.57676686  0.39630153  0.25381894  1
  Hf  Hf23  1  0.91400736  0.30976308  0.88482233  1
  Hf  Hf24  1  0.02704748  -0.00734438  -0.01186373  1
  Hf  Hf25  1  0.39579294  0.80147969  0.48382012  1
  Hf  Hf26  1  0.30974323  0.90414192  0.62566093  1
  Hf  Hf27  1  0.10951264  0.30338073  0.36926837  1
  Hf  Hf28  1  0.68496938  0.91646931  0.62748388  1
  Hf  Hf29  1  -0.00523423  0.79721367  0.76600721  1
  Hf  Hf30  1  0.50482255  0.69236244  0.37243754  1
  Hf  Hf31  1  0.89650822  0.50444028  0.63034463  1
  Hf  Hf32  1  0.40437197  0.00741696  0.48521205  1
  Hf  Hf33  1  0.09650919  0.69153691  0.89551943  1
  Hf  Hf34  1  0.39747999  0.59448618  0.25055837  1
  Hf  Hf35  1  0.31822170  0.49118738  0.11537783  1
  Hf  Hf36  1  0.89740775  0.91452042  0.36877525  1
  Hf  Hf37  1  0.11403321  0.68490984  0.37045945  1
  Hf  Hf38  1  0.01266143  0.20696997  0.75852440  1
  Hf  Hf39  1  0.30388230  0.69270573  0.63202686  1
  Zr  Zr40  1  0.78579692  0.40571323  0.24468562  1
  Zr  Zr41  1  0.71720915  0.29574554  0.62787122  1
  Zr  Zr42  1  0.70631858  0.69696009  0.12845856  1
  Zr  Zr43  1  0.71758874  0.09449978  0.36581161  1
  Zr  Zr44  1  0.78985642  0.00981077  0.50483829  1
  Zr  Zr45  1  0.51121975  0.11256732  0.37227413  1
  Zr  Zr46  1  0.60363669  0.16983187  0.74306708  1
  Zr  Zr47  1  0.28385698  0.50211171  0.36896286  1
  Zr  Zr48  1  0.49547924  0.11598519  0.11219631  1
  Zr  Zr49  1  0.09653543  0.89525066  0.62700643  1
  Zr  Zr50  1  0.20175280  0.79042932  0.24687529  1
  Zr  Zr51  1  0.69152162  0.90673979  0.89434474  1
  Zr  Zr52  1  0.70149997  0.50025495  0.62283798  1
  Zr  Zr53  1  0.48133425  0.89382754  0.90233944  1
  Zr  Zr54  1  0.58877995  0.41814180  -0.02126978  1
  Zr  Zr55  1  0.58673560  0.81348059  0.75182793  1
  Zr  Zr56  1  0.58862029  0.60525106  0.74964886  1
  Zr  Zr57  1  0.69799166  0.09648312  0.10634429  1
  Zr  Zr58  1  0.80090156  0.40736356  -0.00354479  1
  Zr  Zr59  1  0.89879791  0.10910235  0.63402359  1
  Zr  Zr60  1  0.20117727  0.79902729  0.76054249  1
  Zr  Zr61  1  0.42312800  0.59607633  -0.01633153  1
  Zr  Zr62  1  0.00415444  -0.00010493  0.76040706  1
  Zr  Zr63  1  0.19731185  0.58362978  0.75913555  1
  Zr  Zr64  1  -0.00284365  -0.00492441  0.50472872  1
  Zr  Zr65  1  -0.00374235  0.18453691  0.24743319  1
  Zr  Zr66  1  0.57415169  0.38929911  0.51826548  1
  Zr  Zr67  1  0.80874136  0.00256385  0.22768831  1
  Zr  Zr68  1  0.28989686  0.89566499  0.10797101  1
  Zr  Zr69  1  0.60411725  0.80230144  0.49554511  1
  Zr  Zr70  1  0.39471254  0.00966877  0.25941678  1
  Zr  Zr71  1  0.08706723  0.49868649  0.36199919  1
  Zr  Zr72  1  0.49786224  0.90642048  0.11693977  1
  Zr  Zr73  1  -0.00747475  0.41276718  0.50013265  1
  Zr  Zr74  1  0.41902730  -0.00346609  0.75685679  1
  Zr  Zr75  1  0.31656615  0.11356565  0.63404156  1
  Zr  Zr76  1  0.90499499  0.30213376  0.11927714  1
  Zr  Zr77  1  0.19709361  0.79171250  0.49580539  1
  Zr  Zr78  1  0.92166665  0.70828403  0.37172224  1
  Zr  Zr79  1  0.70549088  0.70304720  0.62613677  1
  Ta  Ta80  1  0.69506300  0.10582915  0.89572567  1
  Ta  Ta81  1  0.68310610  0.49817617  0.12097267  1
  Ta  Ta82  1  0.00236011  0.61245321  0.22684059  1
  Ta  Ta83  1  0.19239083  0.58917837  0.51661792  1
  Ta  Ta84  1  0.00203028  0.40412995  0.23577827  1
  Ta  Ta85  1  0.80039773  0.20244829  0.23661535  1
  Ta  Ta86  1  0.59585469  0.78152092  0.00760485  1
  Ta  Ta87  1  0.30158281  0.71251664  0.89691772  1
  Ta  Ta88  1  0.68926781  0.30103937  0.11069498  1
  Ta  Ta89  1  0.20689357  0.59895367  0.01175690  1
  Ta  Ta90  1  0.50827710  0.90345037  0.36316884  1
  Ta  Ta91  1  0.11637612  0.10598525  0.62716056  1
  Ta  Ta92  1  0.90350881  0.71071464  0.62486875  1
  Ta  Ta93  1  0.19718973  0.38798853  -0.00031091  1
  Ta  Ta94  1  0.90655078  0.30793576  0.62903690  1
  Ta  Ta95  1  0.20018325  0.59991686  0.21976888  1
  Ta  Ta96  1  0.70324214  0.50523269  0.86108357  1
  Ta  Ta97  1  0.38529044  0.40103576  -0.02973803  1
  Ta  Ta98  1  0.81208279  0.80558660  0.49825952  1
  Ta  Ta99  1  0.70452661  0.29620359  0.87293611  1
  Ta  Ta100  1  0.89862339  0.10249390  0.88712311  1
  Ta  Ta101  1  0.49131237  0.69289842  0.12689496  1
  Ta  Ta102  1  0.69259525  0.29584910  0.38602807  1
  Ta  Ta103  1  0.09599533  0.49601363  0.11460248  1
  Ta  Ta104  1  0.79950598  0.80273569  0.75847313  1
  Ta  Ta105  1  0.40453361  0.21668080  0.49939062  1
  Ta  Ta106  1  0.00568251  0.40534154  0.75105006  1
  Ta  Ta107  1  0.40549348  0.22478708  0.25438381  1
  Ta  Ta108  1  0.89678663  0.89676248  0.88805979  1
  Ta  Ta109  1  0.30717705  0.09881399  0.87371329  1
  Ta  Ta110  1  0.71769371  0.69945151  0.36703447  1
  Ta  Ta111  1  0.08695963  0.88344913  0.37506255  1
  Ta  Ta112  1  0.38876018  0.20828906  -0.01254633  1
  Ta  Ta113  1  0.80474330  0.20274062  0.00023602  1
  Ta  Ta114  1  0.69602840  0.70494048  0.87666823  1
  Ta  Ta115  1  0.10298231  0.29796029  0.62641240  1
  Ta  Ta116  1  0.39273726  0.60719494  0.77308646  1
  Ta  Ta117  1  0.90741883  0.70193301  0.10923264  1
  Ta  Ta118  1  0.29944173  0.29597879  0.11962311  1
  Ta  Ta119  1  0.81638127  0.79607655  0.24260427  1
  Ti  Ti120  1  0.19439125  0.19524045  -0.00127703  1
  Ti  Ti121  1  0.00486411  -0.01189422  0.24101088  1
  Ti  Ti122  1  0.20491413  0.00415437  0.75366016  1
  Ti  Ti123  1  0.49454621  0.70433933  0.62103871  1
  Ti  Ti124  1  0.89408698  0.51291889  0.35544178  1
  Ti  Ti125  1  0.48091995  0.27860154  0.64518187  1
  Ti  Ti126  1  0.51819296  0.05968523  0.61938439  1
  Ti  Ti127  1  0.80867800  0.00043597  0.00563163  1
  Ti  Ti128  1  0.60830527  -0.00104337  0.23807742  1
  Ti  Ti129  1  0.89513894  0.70162733  0.89241549  1
  Ti  Ti130  1  0.80738833  0.20533906  0.76252994  1
  Ti  Ti131  1  0.21107146  0.19704612  0.49293596  1
  Ti  Ti132  1  0.31887007  0.31047920  0.37845522  1
  Ti  Ti133  1  0.80491584  0.61052975  0.75868173  1
  Ti  Ti134  1  0.39238878  0.79855572  0.25860455  1
  Ti  Ti135  1  0.10663959  0.29424234  0.12722560  1
  Ti  Ti136  1  0.00739458  0.60815977  0.50876324  1
  Ti  Ti137  1  0.09164074  0.48476339  0.89851572  1
  Ti  Ti138  1  0.89407828  0.89639507  0.63060212  1
  Ti  Ti139  1  0.11533557  0.10738766  0.87107643  1
  Ti  Ti140  1  0.18392311  0.39378665  0.75484596  1
  Ti  Ti141  1  0.09531081  0.69549148  0.62879426  1
  Ti  Ti142  1  0.70224727  0.89536747  0.37026668  1
  Ti  Ti143  1  0.59291355  0.60025454  0.50513891  1
  Ti  Ti144  1  0.09973015  0.71723169  0.10466410  1
  Ti  Ti145  1  0.20654363  0.39986801  0.23689231  1
  Ti  Ti146  1  0.47086031  0.50219580  0.63527268  1
  Ti  Ti147  1  0.48494137  0.47836909  0.38578859  1
  Ti  Ti148  1  0.27555313  0.28923404  0.86564423  1
  Ti  Ti149  1  0.80989505  0.40409591  0.76049135  1
  Ti  Ti150  1  0.50765885  0.09049199  0.89591029  1
  Ti  Ti151  1  0.08797995  0.09200008  0.37398496  1
  Ti  Ti152  1  0.00918743  0.19851067  0.00078803  1
  Ti  Ti153  1  0.39734282  0.79588871  0.75771817  1
  Ti  Ti154  1  0.90804876  0.50870592  0.88215126  1
  Ti  Ti155  1  0.89307802  0.50982809  0.12674628  1
  Ti  Ti156  1  0.09985508  0.08790069  0.12360248  1
  Ti  Ti157  1  0.28501041  0.90734587  0.89593278  1
  Ti  Ti158  1  0.81078488  0.20698863  0.49706364  1
  Ti  Ti159  1  0.29735354  0.30180949  0.63943217  1
  Mo  Mo160  1  0.00613190  0.80257280  0.24042201  1
  Mo  Mo161  1  0.39278470  0.01093800  -0.00264683  1
  Mo  Mo162  1  0.00546424  0.39708711  0.01507144  1
  Mo  Mo163  1  0.20023879  0.19966161  0.74993694  1
  Mo  Mo164  1  0.09656876  0.49581925  0.62934161  1
  Mo  Mo165  1  0.60084201  -0.00268774  0.00925653  1
  Mo  Mo166  1  0.60607068  0.60079536  -0.00960727  1
  Mo  Mo167  1  0.18580259  0.81115481  -0.00420448  1
  Mo  Mo168  1  0.80541863  0.60323720  0.24957184  1
  Mo  Mo169  1  0.39270855  0.39362429  0.51672166  1
  Mo  Mo170  1  0.70495685  0.89260993  0.10884576  1
  Mo  Mo171  1  0.10613961  0.90198076  0.86529179  1
  Mo  Mo172  1  0.30026647  0.69130905  0.37247808  1
  Mo  Mo173  1  0.59630215  -0.01122293  0.48874126  1
  Mo  Mo174  1  0.30114293  0.89742003  0.36917672  1
  Mo  Mo175  1  -0.00123021  0.79844137  -0.01521463  1
  Mo  Mo176  1  0.28167461  0.50475844  0.88791011  1
  Mo  Mo177  1  0.48778000  0.88755375  0.62164883  1
  Mo  Mo178  1  0.39566663  0.19943988  0.76311595  1
  Mo  Mo179  1  0.29874259  0.11863089  0.37887860  1
  Mo  Mo180  1  0.79677167  0.80161003  0.00004178  1
  Mo  Mo181  1  0.50115441  0.70561916  0.87554871  1
  Mo  Mo182  1  0.91128782  0.10146442  0.10182523  1
  Mo  Mo183  1  0.49868714  0.49770305  0.85658076  1
  Mo  Mo184  1  -0.00374366  0.59350432  0.01277009  1
  Mo  Mo185  1  0.20132795  0.01423576  -0.00690134  1
  Mo  Mo186  1  0.10086119  0.29937272  0.88297568  1
  Mo  Mo187  1  0.30251817  0.69804666  0.10918392  1
  Mo  Mo188  1  0.80206038  0.39229697  0.49519961  1
  Mo  Mo189  1  0.39305093  0.79296061  0.00808574  1
  Mo  Mo190  1  0.39085114  0.39774489  0.24935523  1
  Mo  Mo191  1  -0.00346608  0.79557856  0.50664419  1
  Mo  Mo192  1  0.90411194  0.10944438  0.36917812  1
  Mo  Mo193  1  0.59855727  -0.00454019  0.76334086  1
  Mo  Mo194  1  0.50681240  0.50688329  0.12263190  1
  Mo  Mo195  1  0.10165436  0.90184497  0.12672332  1
  Mo  Mo196  1  0.70561360  0.10013436  0.62719027  1
  Mo  Mo197  1  0.50565375  0.30420041  0.38347421  1
  Mo  Mo198  1  0.29675065  0.49585902  0.63389270  1
  Mo  Mo199  1  0.60056307  0.21021795  -0.00664218  1
