# generated using pymatgen
data_HfZrTaTiMo
_symmetry_space_group_name_H-M   'P 1'
_cell_length_a   15.22038275
_cell_length_b   15.20579419
_cell_length_c   16.83612529
_cell_angle_alpha   90.01923930
_cell_angle_beta   89.99375475
_cell_angle_gamma   89.95706961
_symmetry_Int_Tables_number   1
_chemical_formula_structural   HfZrTaTiMo
_chemical_formula_sum   'Hf40 Zr40 Ta40 Ti40 Mo40'
_cell_volume   3896.51795713
_cell_formula_units_Z   40
loop_
 _symmetry_equiv_pos_site_id
 _symmetry_equiv_pos_as_xyz
  1  'x, y, z'
loop_
 _atom_site_type_symbol
 _atom_site_label
 _atom_site_symmetry_multiplicity
 _atom_site_fract_x
 _atom_site_fract_y
 _atom_site_fract_z
 _atom_site_occupancy
  Hf  Hf0  1  0.29680203  0.12111272  0.88416543  1
  Hf  Hf1  1  0.02936061  0.59341806  0.49718732  1
  Hf  Hf2  1  0.89462021  0.88482363  0.36353743  1
  Hf  Hf3  1  0.30237229  0.91232696  0.88116965  1
  Hf  Hf4  1  0.39707760  0.01034401  0.50369879  1
  Hf  Hf5  1  0.59704132  0.58492612  -0.00372635  1
  Hf  Hf6  1  0.91857240  0.09416695  0.87658512  1
  Hf  Hf7  1  0.60232075  0.80959381  0.50737998  1
  Hf  Hf8  1  0.19561314  0.39359025  0.74347574  1
  Hf  Hf9  1  0.80474558  0.78633995  -0.01323887  1
  Hf  Hf10  1  0.49161996  0.50041710  0.86721803  1
  Hf  Hf11  1  0.19669150  0.40731128  0.47570640  1
  Hf  Hf12  1  0.70065443  0.68998163  0.62633497  1
  Hf  Hf13  1  0.79117708  0.17941862  0.48812278  1
  Hf  Hf14  1  0.40125298  0.21769326  0.49032627  1
  Hf  Hf15  1  0.78630127  0.39527628  0.26813461  1
  Hf  Hf16  1  0.09712241  0.70130400  0.86853877  1
  Hf  Hf17  1  0.49934332  0.10843283  0.36283953  1
  Hf  Hf18  1  0.10844197  0.27854498  0.87930256  1
  Hf  Hf19  1  0.80294275  -0.01147449  -0.00388402  1
  Hf  Hf20  1  0.10100666  0.49923775  0.14570943  1
  Hf  Hf21  1  0.68395807  0.29286818  0.38563411  1
  Hf  Hf22  1  0.19735246  0.01433283  0.74595097  1
  Hf  Hf23  1  0.09318551  0.29230049  0.59528471  1
  Hf  Hf24  1  0.20192140  0.59848089  -0.01137895  1
  Hf  Hf25  1  0.09561538  0.91064850  0.87286308  1
  Hf  Hf26  1  0.60010181  0.21198659  0.00774081  1
  Hf  Hf27  1  0.01544546  0.18978094  0.74026182  1
  Hf  Hf28  1  0.77900214  0.38074367  0.74056728  1
  Hf  Hf29  1  -0.00389072  0.38399346  0.26260005  1
  Hf  Hf30  1  0.70029528  0.09781483  0.13350929  1
  Hf  Hf31  1  0.40241270  0.40901741  0.01005410  1
  Hf  Hf32  1  0.50831961  0.69463299  0.38146287  1
  Hf  Hf33  1  0.89340851  0.89907670  0.63766257  1
  Hf  Hf34  1  0.49784438  0.91147608  0.86975096  1
  Hf  Hf35  1  0.10652995  0.69969573  0.12524148  1
  Hf  Hf36  1  -0.00478981  0.59194704  -0.00254234  1
  Hf  Hf37  1  0.39421121  0.62521580  -0.01281412  1
  Hf  Hf38  1  -0.01833383  0.38998886  0.00552182  1
  Hf  Hf39  1  0.21056810  0.59090242  0.76548444  1
  Zr  Zr40  1  0.29016784  0.91219240  0.61685640  1
  Zr  Zr41  1  0.51006202  0.30669774  0.87704906  1
  Zr  Zr42  1  0.50182897  0.32130213  0.62533667  1
  Zr  Zr43  1  0.69463505  0.47061418  0.87073170  1
  Zr  Zr44  1  0.59563663  0.21142400  0.24191848  1
  Zr  Zr45  1  0.60655025  0.01376485  0.49412355  1
  Zr  Zr46  1  0.11107287  0.67739699  0.63596420  1
  Zr  Zr47  1  0.40429129  0.61382743  0.74629843  1
  Zr  Zr48  1  0.71567615  0.70906706  0.38823290  1
  Zr  Zr49  1  0.19166756  0.01638027  0.00614105  1
  Zr  Zr50  1  0.80194038  0.58745032  -0.00000176  1
  Zr  Zr51  1  0.38935535  0.80372136  0.74237483  1
  Zr  Zr52  1  0.71664170  0.10734449  0.63543594  1
  Zr  Zr53  1  0.19782835  0.39896830  0.00424441  1
  Zr  Zr54  1  0.00129882  0.79592138  0.00052802  1
  Zr  Zr55  1  0.50908952  0.10951564  0.62766309  1
  Zr  Zr56  1  0.80926854  0.20309955  0.00440173  1
  Zr  Zr57  1  0.69944194  0.48209501  0.60653762  1
  Zr  Zr58  1  0.59508703  0.78786412  -0.01272974  1
  Zr  Zr59  1  0.69429781  0.90989806  0.64390426  1
  Zr  Zr60  1  0.50056860  0.70176944  0.12924997  1
  Zr  Zr61  1  -0.00660094  -0.00975722  0.49796077  1
  Zr  Zr62  1  0.70671310  0.88348913  0.12812913  1
  Zr  Zr63  1  0.01794125  0.18732695  0.00939935  1
  Zr  Zr64  1  0.88099537  0.29862308  0.60246114  1
  Zr  Zr65  1  0.10651411  0.29031650  0.13437132  1
  Zr  Zr66  1  0.61999950  0.21946904  0.75432330  1
  Zr  Zr67  1  0.60892050  0.78772546  0.25165742  1
  Zr  Zr68  1  0.89111327  0.48839171  0.13769123  1
  Zr  Zr69  1  0.90494058  0.09122295  0.13653957  1
  Zr  Zr70  1  0.78961210  0.60383643  0.25681016  1
  Zr  Zr71  1  0.58836784  0.78495987  0.75381250  1
  Zr  Zr72  1  -0.00225943  0.78639883  0.50353802  1
  Zr  Zr73  1  0.47384999  0.09896976  0.12945277  1
  Zr  Zr74  1  -0.00554765  0.39279972  0.74316221  1
  Zr  Zr75  1  0.39425715  0.21326739  0.74420416  1
  Zr  Zr76  1  0.30106587  0.51536032  0.14262402  1
  Zr  Zr77  1  0.00289197  0.18726360  0.26511679  1
  Zr  Zr78  1  0.59011966  -0.00515238  0.00955297  1
  Zr  Zr79  1  0.82328282  0.59864795  0.50052063  1
  Ta  Ta80  1  0.09933314  0.89541661  0.62305823  1
  Ta  Ta81  1  0.21498355  0.80029396  -0.00064470  1
  Ta  Ta82  1  0.79561430  -0.01341159  0.49305023  1
  Ta  Ta83  1  0.90261055  0.68958709  0.64799046  1
  Ta  Ta84  1  0.30467070  0.71158705  0.37009811  1
  Ta  Ta85  1  0.90202102  0.89186930  0.86244727  1
  Ta  Ta86  1  0.21217665  0.81767101  0.25030317  1
  Ta  Ta87  1  0.91111178  0.89007046  0.13917955  1
  Ta  Ta88  1  0.30511504  0.72109213  0.13139580  1
  Ta  Ta89  1  0.70081371  0.67779056  0.85984527  1
  Ta  Ta90  1  0.30804224  0.31753624  0.87725728  1
  Ta  Ta91  1  0.40129752  0.80071858  0.50880208  1
  Ta  Ta92  1  0.01944083  0.79228722  0.25217248  1
  Ta  Ta93  1  0.31574477  0.91878714  0.11958656  1
  Ta  Ta94  1  0.30619941  0.30680582  0.14977326  1
  Ta  Ta95  1  0.49952784  0.90794901  0.63383835  1
  Ta  Ta96  1  0.20349462  0.78168276  0.50145738  1
  Ta  Ta97  1  0.39896610  0.01623684  0.74439865  1
  Ta  Ta98  1  0.90116194  0.69956838  0.13856403  1
  Ta  Ta99  1  0.80513000  0.20253368  0.25782655  1
  Ta  Ta100  1  0.80679030  0.80307603  0.51196037  1
  Ta  Ta101  1  0.28467064  0.51074904  0.61380208  1
  Ta  Ta102  1  0.10660305  0.09348828  0.38982943  1
  Ta  Ta103  1  0.00292737  0.00001540  0.73847207  1
  Ta  Ta104  1  0.68295003  0.51253814  0.39033785  1
  Ta  Ta105  1  0.90026792  0.68467856  0.85205067  1
  Ta  Ta106  1  0.29063326  0.30713097  0.61034217  1
  Ta  Ta107  1  0.69381379  0.09743916  0.87431407  1
  Ta  Ta108  1  0.38938759  0.60745575  0.49814764  1
  Ta  Ta109  1  0.79626539  0.79259903  0.75721816  1
  Ta  Ta110  1  0.09914113  0.51008504  0.35483647  1
  Ta  Ta111  1  0.28809763  0.11795526  0.13829150  1
  Ta  Ta112  1  0.89980672  0.29353248  0.39249774  1
  Ta  Ta113  1  0.20135237  0.80053211  0.74980207  1
  Ta  Ta114  1  0.57785741  0.40230904  0.48387340  1
  Ta  Ta115  1  0.68430660  0.49079509  0.13165518  1
  Ta  Ta116  1  0.29851431  0.10070011  0.36959253  1
  Ta  Ta117  1  0.58210322  -0.01367685  0.24246640  1
  Ta  Ta118  1  0.49519716  0.90213252  0.37546874  1
  Ta  Ta119  1  -0.00213685  -0.01060662  0.00795350  1
  Ti  Ti120  1  0.41189116  0.60844821  0.25591757  1
  Ti  Ti121  1  0.69720382  0.90055846  0.36688018  1
  Ti  Ti122  1  -0.00790971  0.40814668  0.49064964  1
  Ti  Ti123  1  0.89896188  0.50143749  0.37160957  1
  Ti  Ti124  1  0.60292554  0.58320108  0.74203902  1
  Ti  Ti125  1  0.19957487  0.62191310  0.25892587  1
  Ti  Ti126  1  0.19662130  0.21245917  0.27384575  1
  Ti  Ti127  1  0.11050744  0.89046947  0.38189007  1
  Ti  Ti128  1  0.69785845  0.89958448  0.86600046  1
  Ti  Ti129  1  0.81887023  0.19406311  0.75616543  1
  Ti  Ti130  1  0.70414398  0.68562152  0.12400362  1
  Ti  Ti131  1  0.78459897  0.38973309  0.00404325  1
  Ti  Ti132  1  0.40576813  0.81945100  0.25188854  1
  Ti  Ti133  1  0.01515330  -0.01360326  0.25910971  1
  Ti  Ti134  1  0.92177140  0.69211540  0.36165076  1
  Ti  Ti135  1  0.20677722  0.20160042  0.73525846  1
  Ti  Ti136  1  0.11863774  0.09391726  0.59612272  1
  Ti  Ti137  1  0.89347984  0.49676690  0.86044581  1
  Ti  Ti138  1  0.79829188  -0.00830966  0.24996944  1
  Ti  Ti139  1  0.91290156  0.49993170  0.62731513  1
  Ti  Ti140  1  0.80256928  0.00266670  0.76289857  1
  Ti  Ti141  1  0.38913238  0.41591071  0.74104842  1
  Ti  Ti142  1  0.10495868  0.09152741  0.14062500  1
  Ti  Ti143  1  0.58371879  0.41555935  0.26871958  1
  Ti  Ti144  1  0.29972711  0.90433296  0.38581400  1
  Ti  Ti145  1  0.49309929  0.10549829  0.88283399  1
  Ti  Ti146  1  0.89777104  0.08655758  0.37180038  1
  Ti  Ti147  1  0.69729425  0.08931375  0.35706677  1
  Ti  Ti148  1  0.09090229  0.48746280  0.87396978  1
  Ti  Ti149  1  0.30599264  0.50558469  0.35649016  1
  Ti  Ti150  1  0.20480921  0.00047031  0.25639077  1
  Ti  Ti151  1  0.89554401  0.30223422  0.87318223  1
  Ti  Ti152  1  0.49532737  0.51524836  0.61575725  1
  Ti  Ti153  1  0.00425643  0.79889866  0.74594904  1
  Ti  Ti154  1  0.91287566  0.09911374  0.61624587  1
  Ti  Ti155  1  0.11109012  0.89848504  0.12706069  1
  Ti  Ti156  1  0.50122372  0.50109689  0.13435158  1
  Ti  Ti157  1  0.70326331  0.30751161  0.13381701  1
  Ti  Ti158  1  0.39078470  0.41423433  0.48782876  1
  Ti  Ti159  1  0.49568188  0.30985854  0.13172620  1
  Mo  Mo160  1  0.40004930  0.81640358  0.00248964  1
  Mo  Mo161  1  0.80055610  0.58628170  0.74285583  1
  Mo  Mo162  1  0.59374494  0.00842931  0.76463384  1
  Mo  Mo163  1  0.49095285  0.89569506  0.12682832  1
  Mo  Mo164  1  0.59411623  0.20362345  0.49597010  1
  Mo  Mo165  1  0.38986664  0.20414639  0.25783437  1
  Mo  Mo166  1  0.29573882  0.11676198  0.61719008  1
  Mo  Mo167  1  0.00319999  0.58537823  0.75392677  1
  Mo  Mo168  1  0.10570701  0.09829677  0.87252401  1
  Mo  Mo169  1  0.58639916  0.40794949  0.73865552  1
  Mo  Mo170  1  0.48621421  0.31305451  0.36761181  1
  Mo  Mo171  1  0.29948894  0.69917700  0.61810824  1
  Mo  Mo172  1  0.81183850  0.79887310  0.24909616  1
  Mo  Mo173  1  0.50561049  0.70212063  0.87462323  1
  Mo  Mo174  1  0.68756171  0.29793978  0.59226127  1
  Mo  Mo175  1  0.21721867  0.21031710  0.01081321  1
  Mo  Mo176  1  0.10506726  0.48472574  0.61813702  1
  Mo  Mo177  1  0.00097006  0.59972800  0.25216815  1
  Mo  Mo178  1  0.58941478  0.60256884  0.51011438  1
  Mo  Mo179  1  0.09513807  0.29815347  0.39022270  1
  Mo  Mo180  1  0.79866772  0.40356026  0.47812112  1
  Mo  Mo181  1  0.60081402  0.39751805  0.01343192  1
  Mo  Mo182  1  0.11267689  0.70682081  0.36838923  1
  Mo  Mo183  1  0.20074877  0.40211307  0.26822808  1
  Mo  Mo184  1  0.20143687  -0.00954617  0.49207271  1
  Mo  Mo185  1  0.48963362  0.51084193  0.37860556  1
  Mo  Mo186  1  0.30211736  0.30639437  0.36014907  1
  Mo  Mo187  1  0.49912703  0.70092268  0.61147348  1
  Mo  Mo188  1  0.39568189  0.01538723  0.00070951  1
  Mo  Mo189  1  0.21313618  0.59712989  0.48080263  1
  Mo  Mo190  1  0.38985068  0.21410753  0.00783524  1
  Mo  Mo191  1  0.88889736  0.29540513  0.13439160  1
  Mo  Mo192  1  -0.00168003  0.19019968  0.48733567  1
  Mo  Mo193  1  0.38551568  -0.00753263  0.25934927  1
  Mo  Mo194  1  0.59985085  0.59128917  0.25052442  1
  Mo  Mo195  1  0.29707421  0.71439160  0.87673277  1
  Mo  Mo196  1  0.71082800  0.28689961  0.87898065  1
  Mo  Mo197  1  0.29790692  0.49531439  0.87285390  1
  Mo  Mo198  1  0.20847284  0.19824792  0.48502533  1
  Mo  Mo199  1  0.40551185  0.40767606  0.25127732  1
