# generated using pymatgen
data_HfZrTaTiMo
_symmetry_space_group_name_H-M   'P 1'
_cell_length_a   15.23140553
_cell_length_b   15.20687622
_cell_length_c   16.83964305
_cell_angle_alpha   89.98860015
_cell_angle_beta   90.00400348
_cell_angle_gamma   90.01865056
_symmetry_Int_Tables_number   1
_chemical_formula_structural   HfZrTaTiMo
_chemical_formula_sum   'Hf40 Zr40 Ta40 Ti40 Mo40'
_cell_volume   3900.43316763
_cell_formula_units_Z   40
loop_
 _symmetry_equiv_pos_site_id
 _symmetry_equiv_pos_as_xyz
  1  'x, y, z'
loop_
 _atom_site_type_symbol
 _atom_site_label
 _atom_site_symmetry_multiplicity
 _atom_site_fract_x
 _atom_site_fract_y
 _atom_site_fract_z
 _atom_site_occupancy
  Hf  Hf0  1  0.59649399  0.81470927  0.00147483  1
  Hf  Hf1  1  0.29910375  0.11306658  0.11912602  1
  Hf  Hf2  1  0.49799745  0.69421023  0.88511658  1
  Hf  Hf3  1  0.58563373  0.00871079  0.75348063  1
  Hf  Hf4  1  0.20123359  -0.01313371  0.01246907  1
  Hf  Hf5  1  0.59267904  0.80970366  0.25806798  1
  Hf  Hf6  1  0.91208932  0.49756443  0.37355462  1
  Hf  Hf7  1  0.29191629  0.69779133  0.87155237  1
  Hf  Hf8  1  0.49830338  0.69541160  0.61478926  1
  Hf  Hf9  1  0.18710195  0.79129892  0.48660608  1
  Hf  Hf10  1  0.21667671  0.40267123  0.26524590  1
  Hf  Hf11  1  0.39854829  0.42862652  -0.01476457  1
  Hf  Hf12  1  0.49493114  0.30318145  0.37230809  1
  Hf  Hf13  1  0.69494645  0.69891797  0.63665657  1
  Hf  Hf14  1  0.80284958  0.21773714  0.52224287  1
  Hf  Hf15  1  0.70850130  0.70939513  0.12323596  1
  Hf  Hf16  1  0.80350655  0.59277021  0.49912134  1
  Hf  Hf17  1  0.10504899  0.47970188  0.63176095  1
  Hf  Hf18  1  0.38827097  0.00899741  0.50195439  1
  Hf  Hf19  1  0.71144941  0.30839620  0.37689621  1
  Hf  Hf20  1  0.81011825  0.19912133  0.73672200  1
  Hf  Hf21  1  0.39260419  0.00151380  0.24958323  1
  Hf  Hf22  1  -0.00438828  0.78909401  0.24461583  1
  Hf  Hf23  1  0.80135042  0.80807179  0.25656654  1
  Hf  Hf24  1  0.30405229  0.32017049  0.11436862  1
  Hf  Hf25  1  0.18936423  0.00023637  0.24586726  1
  Hf  Hf26  1  0.81042531  0.20598606  0.25477753  1
  Hf  Hf27  1  0.10557084  0.29376808  0.11270166  1
  Hf  Hf28  1  0.19976705  0.58351134  0.49933034  1
  Hf  Hf29  1  0.19257570  -0.01513310  0.50897255  1
  Hf  Hf30  1  0.39037697  0.79715255  0.26279410  1
  Hf  Hf31  1  0.49692696  0.10473177  0.37007369  1
  Hf  Hf32  1  0.60301448  0.40212902  0.24854036  1
  Hf  Hf33  1  0.69532605  0.49901516  0.64029178  1
  Hf  Hf34  1  0.30028255  0.10352237  0.88095636  1
  Hf  Hf35  1  0.39106312  0.80031088  0.74621062  1
  Hf  Hf36  1  0.71747901  0.71330402  0.87183524  1
  Hf  Hf37  1  0.69835134  0.31364487  0.85533536  1
  Hf  Hf38  1  0.89504733  0.87506741  0.87773299  1
  Hf  Hf39  1  0.38986462  0.21555935  0.50340412  1
  Zr  Zr40  1  0.22062665  0.38098563  0.48845446  1
  Zr  Zr41  1  0.90970544  0.09305746  0.87031106  1
  Zr  Zr42  1  0.60555086  0.20412112  -0.00931410  1
  Zr  Zr43  1  0.79544945  0.41335671  -0.00826535  1
  Zr  Zr44  1  0.10874074  0.49081712  0.86888515  1
  Zr  Zr45  1  0.59111370  0.80370452  0.75501338  1
  Zr  Zr46  1  0.41064562  0.57886088  0.75574397  1
  Zr  Zr47  1  0.18575829  0.20068335  0.74789939  1
  Zr  Zr48  1  0.60018914  0.60854318  0.25530968  1
  Zr  Zr49  1  0.69801489  0.89607132  0.62165092  1
  Zr  Zr50  1  0.19885627  0.79646081  0.26952634  1
  Zr  Zr51  1  0.81659756  0.61253556  -0.00305170  1
  Zr  Zr52  1  0.79467578  0.79552244  0.48761653  1
  Zr  Zr53  1  0.60723027  0.60378947  0.48956427  1
  Zr  Zr54  1  0.69881677  0.11000003  0.38622060  1
  Zr  Zr55  1  0.60385240  0.58958272  -0.00097078  1
  Zr  Zr56  1  0.69857456  0.91898680  0.37496186  1
  Zr  Zr57  1  0.08826636  0.70597697  0.87108799  1
  Zr  Zr58  1  0.48110052  0.69859214  0.11902217  1
  Zr  Zr59  1  0.70236633  0.10918643  0.12684127  1
  Zr  Zr60  1  -0.00635849  0.39818841  -0.00124282  1
  Zr  Zr61  1  0.00797376  0.19172925  0.25702641  1
  Zr  Zr62  1  0.80967177  0.21191050  -0.01331066  1
  Zr  Zr63  1  0.89781987  0.70475778  0.62763629  1
  Zr  Zr64  1  0.38401496  0.00033734  0.74266598  1
  Zr  Zr65  1  0.81665141  0.39811219  0.73521562  1
  Zr  Zr66  1  -0.01021375  -0.00697759  0.23760549  1
  Zr  Zr67  1  0.79173380  -0.00549049  -0.00124987  1
  Zr  Zr68  1  0.69415539  0.10151152  0.62208949  1
  Zr  Zr69  1  0.27984883  0.89969140  0.87751977  1
  Zr  Zr70  1  0.29744941  0.69417192  0.62216425  1
  Zr  Zr71  1  0.38057607  0.80591741  0.48798831  1
  Zr  Zr72  1  0.41321188  0.20646361  -0.00737862  1
  Zr  Zr73  1  0.21214769  0.59553206  -0.00012484  1
  Zr  Zr74  1  0.61201002  0.39564616  0.50532085  1
  Zr  Zr75  1  0.01124874  0.39311139  0.25814634  1
  Zr  Zr76  1  -0.01876061  0.78476535  0.01919103  1
  Zr  Zr77  1  0.81176081  -0.01352263  0.74211270  1
  Zr  Zr78  1  0.48266734  0.49969375  0.37871404  1
  Zr  Zr79  1  0.10000310  0.08809949  0.88359643  1
  Ta  Ta80  1  0.91351813  0.91052395  0.38107421  1
  Ta  Ta81  1  -0.00707571  -0.01224519  0.01408588  1
  Ta  Ta82  1  0.58913347  0.01149959  -0.00894508  1
  Ta  Ta83  1  0.49258216  0.70072114  0.38269216  1
  Ta  Ta84  1  0.49375842  0.90965783  0.37903269  1
  Ta  Ta85  1  0.90430467  0.69742673  0.37630611  1
  Ta  Ta86  1  0.90047581  0.10108821  0.39609176  1
  Ta  Ta87  1  0.49146423  0.90275941  0.61436602  1
  Ta  Ta88  1  0.60151165  0.20154717  0.24718915  1
  Ta  Ta89  1  0.10452380  0.28802682  0.89009451  1
  Ta  Ta90  1  0.18541726  0.81227212  0.73759619  1
  Ta  Ta91  1  0.40464978  -0.00250898  0.00698258  1
  Ta  Ta92  1  0.68849735  0.91465454  0.13441438  1
  Ta  Ta93  1  0.50389243  0.09969087  0.13376047  1
  Ta  Ta94  1  0.59296803  0.80573176  0.48851711  1
  Ta  Ta95  1  0.89849584  0.30244655  0.12500083  1
  Ta  Ta96  1  0.69375583  0.90674894  0.87209143  1
  Ta  Ta97  1  0.10784946  0.68242286  0.13412913  1
  Ta  Ta98  1  0.39749393  0.20353263  0.75576453  1
  Ta  Ta99  1  0.49794315  0.31159081  0.85994183  1
  Ta  Ta100  1  0.70353305  0.30949684  0.12722771  1
  Ta  Ta101  1  0.59730156  0.39783172  0.00149295  1
  Ta  Ta102  1  0.49513302  0.49483338  0.12870002  1
  Ta  Ta103  1  0.90904660  0.50722450  0.13518382  1
  Ta  Ta104  1  0.09136280  0.08132506  0.38900398  1
  Ta  Ta105  1  0.49589147  0.31078778  0.63915815  1
  Ta  Ta106  1  0.80957191  0.60597380  0.25314035  1
  Ta  Ta107  1  0.48995470  0.11101331  0.62581830  1
  Ta  Ta108  1  0.09731191  0.10265451  0.10887430  1
  Ta  Ta109  1  0.28532688  0.11285926  0.37361989  1
  Ta  Ta110  1  0.70664157  0.50109966  0.13060817  1
  Ta  Ta111  1  0.90645942  0.50371755  0.86168504  1
  Ta  Ta112  1  0.09483657  0.69424975  0.62770790  1
  Ta  Ta113  1  0.48633611  0.90762505  0.88170203  1
  Ta  Ta114  1  0.00477752  0.59124518  0.00409262  1
  Ta  Ta115  1  0.20325709  0.59916997  0.74533073  1
  Ta  Ta116  1  0.90384147  0.10657304  0.11657756  1
  Ta  Ta117  1  0.00166307  0.80255088  0.49774082  1
  Ta  Ta118  1  0.91559462  0.09640456  0.61461473  1
  Ta  Ta119  1  0.00590804  0.59845803  0.50237856  1
  Ti  Ti120  1  0.70940057  0.50561667  0.36918746  1
  Ti  Ti121  1  0.30243529  0.51807239  0.12868887  1
  Ti  Ti122  1  0.92017799  0.29841319  0.85859991  1
  Ti  Ti123  1  0.09135034  0.67487913  0.36664983  1
  Ti  Ti124  1  0.94453559  0.29851311  0.62782970  1
  Ti  Ti125  1  0.49504730  0.90712609  0.12643469  1
  Ti  Ti126  1  0.38673334  0.59408001  0.25102408  1
  Ti  Ti127  1  0.90957647  0.29598972  0.38955935  1
  Ti  Ti128  1  0.80739013  -0.00320574  0.50894373  1
  Ti  Ti129  1  0.29768790  0.88284702  0.12579390  1
  Ti  Ti130  1  0.10071171  0.88507507  0.12262474  1
  Ti  Ti131  1  0.59457515  0.20645493  0.51188196  1
  Ti  Ti132  1  0.29853259  0.67073945  0.37797600  1
  Ti  Ti133  1  0.50384807  0.30048248  0.12793599  1
  Ti  Ti134  1  0.01895841  -0.00419128  0.73425249  1
  Ti  Ti135  1  0.11040146  0.49217993  0.12754086  1
  Ti  Ti136  1  0.39381273  0.21528465  0.24720094  1
  Ti  Ti137  1  0.21087452  0.39775766  0.75291720  1
  Ti  Ti138  1  0.29011068  0.10333187  0.62824908  1
  Ti  Ti139  1  0.69740224  0.10312321  0.86540410  1
  Ti  Ti140  1  0.31279708  0.48813094  0.62423404  1
  Ti  Ti141  1  0.81632336  0.40241330  0.51599814  1
  Ti  Ti142  1  0.29197684  0.31140715  0.88214584  1
  Ti  Ti143  1  0.11440990  0.27660250  0.38587174  1
  Ti  Ti144  1  0.80707968  0.40355759  0.24842702  1
  Ti  Ti145  1  0.80980764  0.60756859  0.75434854  1
  Ti  Ti146  1  0.69393878  0.50755918  0.85578589  1
  Ti  Ti147  1  0.19983536  0.20030875  0.24936427  1
  Ti  Ti148  1  -0.01177862  0.80392797  0.74123061  1
  Ti  Ti149  1  0.01549961  0.39772729  0.49425126  1
  Ti  Ti150  1  0.80083012  0.00946971  0.24998343  1
  Ti  Ti151  1  0.91468919  0.50009605  0.62676936  1
  Ti  Ti152  1  0.37852124  0.79847873  0.00223215  1
  Ti  Ti153  1  0.49754556  0.49937779  0.61813414  1
  Ti  Ti154  1  0.59564269  0.20533147  0.74711110  1
  Ti  Ti155  1  0.59023061  0.00507482  0.50573356  1
  Ti  Ti156  1  0.08968417  0.89738704  0.87811314  1
  Ti  Ti157  1  0.00485140  0.59161319  0.74593877  1
  Ti  Ti158  1  0.09666242  0.11021442  0.61201689  1
  Ti  Ti159  1  0.29944077  0.29940331  0.63280039  1
  Mo  Mo160  1  0.78999696  0.81159793  0.01405851  1
  Mo  Mo161  1  0.00292936  0.19319306  0.74428295  1
  Mo  Mo162  1  0.51332435  0.49439623  0.87317841  1
  Mo  Mo163  1  0.30995732  0.29181980  0.36594607  1
  Mo  Mo164  1  0.09053710  0.89353868  0.37409266  1
  Mo  Mo165  1  0.19063382  -0.00386528  0.73258858  1
  Mo  Mo166  1  0.59364810  0.00606029  0.24791173  1
  Mo  Mo167  1  0.58766095  0.41069192  0.74534030  1
  Mo  Mo168  1  0.90203344  0.69223490  0.13493732  1
  Mo  Mo169  1  0.29126918  0.92251118  0.37130233  1
  Mo  Mo170  1  -0.00409170  0.19467765  0.00224303  1
  Mo  Mo171  1  0.90691342  0.90233437  0.61671731  1
  Mo  Mo172  1  0.30163174  0.50112620  0.86611311  1
  Mo  Mo173  1  -0.00199688  -0.00440880  0.50793834  1
  Mo  Mo174  1  0.20327044  0.20180805  -0.00381074  1
  Mo  Mo175  1  0.00731417  0.59284190  0.24852734  1
  Mo  Mo176  1  0.11403634  0.29350083  0.61562236  1
  Mo  Mo177  1  0.19922808  0.59465035  0.25109382  1
  Mo  Mo178  1  0.88150890  0.90043526  0.12717393  1
  Mo  Mo179  1  0.29149357  0.70460218  0.12872353  1
  Mo  Mo180  1  0.19070651  0.79462651  0.01171943  1
  Mo  Mo181  1  0.30543667  0.49659907  0.37411904  1
  Mo  Mo182  1  0.01880372  0.38202573  0.75528499  1
  Mo  Mo183  1  0.20464862  0.18567665  0.50333465  1
  Mo  Mo184  1  0.60300927  0.60133461  0.75727490  1
  Mo  Mo185  1  0.70085298  0.69865880  0.36825912  1
  Mo  Mo186  1  0.68751289  0.29961417  0.63815088  1
  Mo  Mo187  1  0.29336258  0.89975114  0.62724089  1
  Mo  Mo188  1  0.39607208  0.59183244  0.50212049  1
  Mo  Mo189  1  0.40642150  0.40389916  0.23877540  1
  Mo  Mo190  1  0.40474185  0.40152088  0.50989890  1
  Mo  Mo191  1  0.08945376  0.89066746  0.62488715  1
  Mo  Mo192  1  0.91076352  0.68875237  0.86190797  1
  Mo  Mo193  1  0.50098513  0.10281830  0.86783338  1
  Mo  Mo194  1  0.38981417  0.39187464  0.75595353  1
  Mo  Mo195  1  0.00567187  0.20333965  0.49296412  1
  Mo  Mo196  1  0.40427829  0.60802302  0.00067023  1
  Mo  Mo197  1  0.10319287  0.49595728  0.38070561  1
  Mo  Mo198  1  0.80171725  0.80149958  0.74913082  1
  Mo  Mo199  1  0.20059858  0.40189156  -0.00000968  1
