# generated using pymatgen
data_HfZrTaTiMo
_symmetry_space_group_name_H-M   'P 1'
_cell_length_a   15.22072436
_cell_length_b   15.21303233
_cell_length_c   16.84466861
_cell_angle_alpha   89.96413564
_cell_angle_beta   90.03416254
_cell_angle_gamma   90.06183412
_symmetry_Int_Tables_number   1
_chemical_formula_structural   HfZrTaTiMo
_chemical_formula_sum   'Hf40 Zr40 Ta40 Ti40 Mo40'
_cell_volume   3900.43608528
_cell_formula_units_Z   40
loop_
 _symmetry_equiv_pos_site_id
 _symmetry_equiv_pos_as_xyz
  1  'x, y, z'
loop_
 _atom_site_type_symbol
 _atom_site_label
 _atom_site_symmetry_multiplicity
 _atom_site_fract_x
 _atom_site_fract_y
 _atom_site_fract_z
 _atom_site_occupancy
  Hf  Hf0  1  -0.01919033  0.40762087  0.51506615  1
  Hf  Hf1  1  0.40447072  0.00291347  0.49954566  1
  Hf  Hf2  1  0.78525639  0.41981293  0.51141411  1
  Hf  Hf3  1  0.60496339  0.19197809  0.74786376  1
  Hf  Hf4  1  0.68780798  0.47643912  0.12284019  1
  Hf  Hf5  1  -0.00126107  -0.00354050  -0.00133768  1
  Hf  Hf6  1  0.09581555  0.30285950  0.87719950  1
  Hf  Hf7  1  0.89404014  0.90082463  0.63271684  1
  Hf  Hf8  1  0.40459118  0.19168364  0.76354682  1
  Hf  Hf9  1  0.41017875  0.59457933  0.75258545  1
  Hf  Hf10  1  0.90025748  0.71337523  0.13211095  1
  Hf  Hf11  1  0.09762474  0.89251137  0.38224720  1
  Hf  Hf12  1  0.30178321  0.30784452  0.89061615  1
  Hf  Hf13  1  0.51331559  0.07687694  0.88325437  1
  Hf  Hf14  1  0.29717862  0.88915329  0.62165289  1
  Hf  Hf15  1  0.40211849  0.00297900  0.23458791  1
  Hf  Hf16  1  0.50329617  0.69038442  0.11806495  1
  Hf  Hf17  1  0.09762025  0.89364454  0.13110392  1
  Hf  Hf18  1  0.31198386  0.90512394  0.87865052  1
  Hf  Hf19  1  0.59304225  0.37650179  -0.00791360  1
  Hf  Hf20  1  0.09773479  0.10039342  0.87933192  1
  Hf  Hf21  1  0.28774445  0.51414112  0.61458256  1
  Hf  Hf22  1  0.71122007  0.10516306  0.87806244  1
  Hf  Hf23  1  0.39862718  0.79755444  0.25100062  1
  Hf  Hf24  1  0.90345075  0.10874356  0.61821777  1
  Hf  Hf25  1  0.40932190  0.79457283  0.49578465  1
  Hf  Hf26  1  0.20170959  0.20806136  0.75281552  1
  Hf  Hf27  1  0.40477434  0.79789616  0.74568252  1
  Hf  Hf28  1  0.10597580  0.89568206  0.86941862  1
  Hf  Hf29  1  0.29517860  0.70058925  0.12190734  1
  Hf  Hf30  1  0.61101063  0.18838811  0.50218591  1
  Hf  Hf31  1  0.62747104  0.79568364  0.49344069  1
  Hf  Hf32  1  0.49025260  0.50293335  0.60351590  1
  Hf  Hf33  1  0.70808944  0.69091951  0.11523043  1
  Hf  Hf34  1  0.90121943  0.31593508  0.36373071  1
  Hf  Hf35  1  0.41012806  -0.00521890  0.01996134  1
  Hf  Hf36  1  0.80390432  0.80714848  -0.01132462  1
  Hf  Hf37  1  0.70352673  0.31113742  0.86254607  1
  Hf  Hf38  1  0.39598520  0.20171029  0.24380513  1
  Hf  Hf39  1  0.77972051  0.79808645  0.76273772  1
  Zr  Zr40  1  0.08528491  0.48649292  0.37382978  1
  Zr  Zr41  1  0.89619705  0.09691397  0.37871098  1
  Zr  Zr42  1  0.18059783  0.39068585  0.49757095  1
  Zr  Zr43  1  0.39798395  0.60204855  0.26110320  1
  Zr  Zr44  1  -0.01163956  0.78000589  0.50854670  1
  Zr  Zr45  1  0.51917405  0.69523597  0.61873270  1
  Zr  Zr46  1  0.01109758  0.21196990  0.49143756  1
  Zr  Zr47  1  0.29721012  0.70346150  0.87676925  1
  Zr  Zr48  1  0.49121572  0.29197601  0.61985835  1
  Zr  Zr49  1  0.78835193  0.19261910  0.25027445  1
  Zr  Zr50  1  0.11941741  0.69586596  0.63946743  1
  Zr  Zr51  1  0.19181441  0.59775381  0.00715289  1
  Zr  Zr52  1  0.29151483  0.90243222  0.37730150  1
  Zr  Zr53  1  0.60744085  0.79739598  0.24562718  1
  Zr  Zr54  1  0.30584934  0.10085675  0.61650992  1
  Zr  Zr55  1  0.79965979  0.22646871  0.00587766  1
  Zr  Zr56  1  0.20737089  0.00211667  0.74940584  1
  Zr  Zr57  1  0.88158857  0.52057974  0.36610219  1
  Zr  Zr58  1  0.79863342  0.00426622  -0.00288166  1
  Zr  Zr59  1  0.00407899  -0.00120908  0.25945916  1
  Zr  Zr60  1  0.50812947  0.10592506  0.36991599  1
  Zr  Zr61  1  0.41899466  0.20801028  0.00038443  1
  Zr  Zr62  1  -0.00705969  0.60569470  -0.00131612  1
  Zr  Zr63  1  0.51179728  0.70273362  0.88319500  1
  Zr  Zr64  1  0.88197001  0.50991021  0.12557574  1
  Zr  Zr65  1  0.39785733  0.40827061  0.25653167  1
  Zr  Zr66  1  0.59694883  0.39326690  0.50348787  1
  Zr  Zr67  1  0.10229350  0.69925897  0.85777743  1
  Zr  Zr68  1  0.09963318  0.49402309  0.85837388  1
  Zr  Zr69  1  0.58911933  0.41297650  0.74402979  1
  Zr  Zr70  1  0.38371812  0.39681080  0.74999738  1
  Zr  Zr71  1  0.90285272  0.10288852  0.13066781  1
  Zr  Zr72  1  0.79455175  -0.00277050  0.50150881  1
  Zr  Zr73  1  -0.01070548  0.39426171  0.01287300  1
  Zr  Zr74  1  0.29212959  0.30388190  0.61174407  1
  Zr  Zr75  1  0.88655370  0.49019239  0.87475689  1
  Zr  Zr76  1  0.50701176  0.90022187  0.36900530  1
  Zr  Zr77  1  0.10456297  0.68504539  0.38047469  1
  Zr  Zr78  1  0.60326165  0.58214006  0.25741435  1
  Zr  Zr79  1  0.69159898  0.30905609  0.36196352  1
  Ta  Ta80  1  0.29318716  0.49937360  0.87914759  1
  Ta  Ta81  1  0.09715910  0.29465223  0.12749339  1
  Ta  Ta82  1  -0.00067894  0.19456638  0.74635658  1
  Ta  Ta83  1  0.10690039  0.09810923  0.12464168  1
  Ta  Ta84  1  0.11740505  0.10114610  0.38202459  1
  Ta  Ta85  1  0.10091659  0.90240804  0.61999071  1
  Ta  Ta86  1  0.19817520  0.58855836  0.24229380  1
  Ta  Ta87  1  -0.00054710  0.40453345  0.23449290  1
  Ta  Ta88  1  0.60509035  -0.00599464  0.50158857  1
  Ta  Ta89  1  0.70903875  0.90709715  0.36632820  1
  Ta  Ta90  1  0.19741618  0.39387790  0.24194158  1
  Ta  Ta91  1  0.28520447  0.50584850  0.38508802  1
  Ta  Ta92  1  0.28742025  0.29587234  0.37856477  1
  Ta  Ta93  1  0.10671603  0.09902297  0.61311233  1
  Ta  Ta94  1  0.90115984  0.90887280  0.86215291  1
  Ta  Ta95  1  0.20344822  0.19464926  0.24295114  1
  Ta  Ta96  1  0.00444910  -0.00440031  0.49822401  1
  Ta  Ta97  1  0.73040713  0.70103610  0.36414594  1
  Ta  Ta98  1  0.09656400  0.70282257  0.13036431  1
  Ta  Ta99  1  0.89845512  0.89862904  0.13226033  1
  Ta  Ta100  1  0.19611184  0.40050383  0.01546630  1
  Ta  Ta101  1  0.00013375  0.19776985  0.00532794  1
  Ta  Ta102  1  0.61100413  0.01096228  0.23928084  1
  Ta  Ta103  1  0.79037944  0.41214208  0.73236026  1
  Ta  Ta104  1  0.81393495  0.62561831  0.50302829  1
  Ta  Ta105  1  0.80111367  0.21535954  0.50050362  1
  Ta  Ta106  1  0.01009278  0.20478634  0.25384356  1
  Ta  Ta107  1  0.40236955  0.80221863  0.00888891  1
  Ta  Ta108  1  0.40120950  0.58913060  -0.00139727  1
  Ta  Ta109  1  0.20072480  0.19679981  0.00985721  1
  Ta  Ta110  1  0.51534504  0.30813490  0.13625860  1
  Ta  Ta111  1  0.89114831  0.51887219  0.63259747  1
  Ta  Ta112  1  -0.01503293  0.38800558  0.73668738  1
  Ta  Ta113  1  0.51136078  0.90094897  0.62540703  1
  Ta  Ta114  1  0.30428121  0.30007792  0.11807036  1
  Ta  Ta115  1  0.00205230  0.60500776  0.24313284  1
  Ta  Ta116  1  0.09515113  0.49857085  0.63999718  1
  Ta  Ta117  1  0.89639954  0.70055845  0.86727683  1
  Ta  Ta118  1  0.50921369  0.08972213  0.62705612  1
  Ta  Ta119  1  0.79876131  0.00822048  0.75396001  1
  Ti  Ti120  1  0.30566828  0.49631289  0.12127360  1
  Ti  Ti121  1  0.51315486  0.10686738  0.12293978  1
  Ti  Ti122  1  0.70221564  0.90356265  0.12574940  1
  Ti  Ti123  1  0.00139892  0.80669441  0.74699758  1
  Ti  Ti124  1  0.49313742  0.30171838  0.37137360  1
  Ti  Ti125  1  0.90032045  0.29127545  0.87117432  1
  Ti  Ti126  1  0.89428019  0.87994119  0.37093735  1
  Ti  Ti127  1  0.70448337  0.29642288  0.62979316  1
  Ti  Ti128  1  0.29940433  0.10112465  0.38185378  1
  Ti  Ti129  1  0.69708935  0.50698912  0.87938551  1
  Ti  Ti130  1  0.09361208  0.29591278  0.63161209  1
  Ti  Ti131  1  0.40079689  0.20848174  0.49199004  1
  Ti  Ti132  1  0.79770568  -0.00481537  0.24921335  1
  Ti  Ti133  1  0.19693808  0.79049475  0.25472738  1
  Ti  Ti134  1  0.20476361  0.00036342  0.00707491  1
  Ti  Ti135  1  0.19711078  0.80488584  0.00323413  1
  Ti  Ti136  1  0.50044628  0.49514277  0.39071857  1
  Ti  Ti137  1  0.21244364  0.77956402  0.50128424  1
  Ti  Ti138  1  0.51319982  0.69211389  0.38123214  1
  Ti  Ti139  1  0.69423526  0.11207572  0.11479583  1
  Ti  Ti140  1  0.59425669  0.81980734  0.00796566  1
  Ti  Ti141  1  0.29424617  0.89843816  0.12718288  1
  Ti  Ti142  1  0.62627951  0.59456045  0.49188739  1
  Ti  Ti143  1  0.59852973  0.58452089  0.00029813  1
  Ti  Ti144  1  0.69996867  0.69563164  0.89032999  1
  Ti  Ti145  1  0.20664748  0.00449424  0.24628568  1
  Ti  Ti146  1  0.88313894  0.30892384  0.13970994  1
  Ti  Ti147  1  0.38284298  0.60939973  0.48705303  1
  Ti  Ti148  1  0.00063658  0.80169164  -0.00744213  1
  Ti  Ti149  1  0.00069860  0.00667100  0.74564504  1
  Ti  Ti150  1  0.67267696  0.90639548  0.87325717  1
  Ti  Ti151  1  0.81328169  0.20738650  0.74357314  1
  Ti  Ti152  1  0.89020500  0.70294338  0.64369740  1
  Ti  Ti153  1  0.69467336  0.89106433  0.63458068  1
  Ti  Ti154  1  0.30161049  0.09933089  0.88642406  1
  Ti  Ti155  1  0.49322924  0.48380334  0.88139362  1
  Ti  Ti156  1  0.62218418  0.61364608  0.74914539  1
  Ti  Ti157  1  0.41693347  -0.00524517  0.74996856  1
  Ti  Ti158  1  -0.01009911  0.59826113  0.75077434  1
  Ti  Ti159  1  0.70340173  0.09010049  0.63065061  1
  Mo  Mo160  1  0.91034974  0.70792907  0.36171579  1
  Mo  Mo161  1  0.69902896  0.09244668  0.37528521  1
  Mo  Mo162  1  0.18987420  0.59943915  0.50041013  1
  Mo  Mo163  1  0.21550124  0.59330886  0.75254679  1
  Mo  Mo164  1  0.10105938  0.49950569  0.13136339  1
  Mo  Mo165  1  0.80277480  0.80399169  0.50075857  1
  Mo  Mo166  1  0.79602425  0.60159871  0.76022450  1
  Mo  Mo167  1  0.69557961  0.29557578  0.13839340  1
  Mo  Mo168  1  0.59653494  0.80087711  0.75246579  1
  Mo  Mo169  1  -0.00421549  0.59577580  0.51635334  1
  Mo  Mo170  1  0.39880778  0.40689032  0.00573097  1
  Mo  Mo171  1  0.59170959  0.19691129  0.24810775  1
  Mo  Mo172  1  0.00476829  0.79890296  0.25455004  1
  Mo  Mo173  1  0.19962027  0.80541896  0.74347340  1
  Mo  Mo174  1  0.79127282  0.60191937  -0.00883915  1
  Mo  Mo175  1  0.79505077  0.60665550  0.24585786  1
  Mo  Mo176  1  0.60756582  -0.01015855  0.74608825  1
  Mo  Mo177  1  0.58904649  0.39757778  0.25851484  1
  Mo  Mo178  1  0.69435710  0.52462917  0.62581303  1
  Mo  Mo179  1  0.10124495  0.29486615  0.35579879  1
  Mo  Mo180  1  0.60512123  0.19104678  -0.00066170  1
  Mo  Mo181  1  0.90616729  0.10635669  0.86534216  1
  Mo  Mo182  1  0.39221761  0.40387539  0.47891616  1
  Mo  Mo183  1  0.20388529  0.19214005  0.49321039  1
  Mo  Mo184  1  0.71380567  0.69877352  0.62586973  1
  Mo  Mo185  1  0.49934835  0.89271415  0.87936292  1
  Mo  Mo186  1  0.89301190  0.30285714  0.62745386  1
  Mo  Mo187  1  0.79106068  0.40900138  0.25040850  1
  Mo  Mo188  1  0.50779520  0.89870343  0.13262023  1
  Mo  Mo189  1  0.29594183  0.10165826  0.12232031  1
  Mo  Mo190  1  0.19423814  -0.00668862  0.50209296  1
  Mo  Mo191  1  0.79191364  0.40467686  -0.00492556  1
  Mo  Mo192  1  0.60446258  -0.00398157  0.01547758  1
  Mo  Mo193  1  0.18984692  0.40029564  0.74739048  1
  Mo  Mo194  1  0.50466714  0.29410689  0.86973526  1
  Mo  Mo195  1  0.69541153  0.50952992  0.37651492  1
  Mo  Mo196  1  0.49163097  0.49508001  0.11564016  1
  Mo  Mo197  1  0.29787367  0.69618130  0.37154480  1
  Mo  Mo198  1  0.80204361  0.81050575  0.24397402  1
  Mo  Mo199  1  0.31221173  0.69523848  0.62492521  1
