# generated using pymatgen
data_HfZrTaTiMo
_symmetry_space_group_name_H-M   'P 1'
_cell_length_a   15.22497145
_cell_length_b   15.20571544
_cell_length_c   16.81179759
_cell_angle_alpha   89.94677450
_cell_angle_beta   89.98006295
_cell_angle_gamma   90.11402154
_symmetry_Int_Tables_number   1
_chemical_formula_structural   HfZrTaTiMo
_chemical_formula_sum   'Hf40 Zr40 Ta40 Ti40 Mo40'
_cell_volume   3892.03219907
_cell_formula_units_Z   40
loop_
 _symmetry_equiv_pos_site_id
 _symmetry_equiv_pos_as_xyz
  1  'x, y, z'
loop_
 _atom_site_type_symbol
 _atom_site_label
 _atom_site_symmetry_multiplicity
 _atom_site_fract_x
 _atom_site_fract_y
 _atom_site_fract_z
 _atom_site_occupancy
  Hf  Hf0  1  0.90033483  0.69220413  0.13115976  1
  Hf  Hf1  1  0.19633599  0.79301363  0.23640096  1
  Hf  Hf2  1  0.89651493  0.30345292  0.87986116  1
  Hf  Hf3  1  0.59364479  0.79787141  0.24652170  1
  Hf  Hf4  1  0.01276825  0.80163782  0.73647491  1
  Hf  Hf5  1  0.70730587  0.70286119  0.36569484  1
  Hf  Hf6  1  0.00216634  0.82394358  0.23166689  1
  Hf  Hf7  1  0.59091603  0.18973162  0.25623485  1
  Hf  Hf8  1  0.00462712  0.38562062  0.74187452  1
  Hf  Hf9  1  0.80352044  0.80834814  0.72989732  1
  Hf  Hf10  1  0.59634061  0.40453430  0.00499660  1
  Hf  Hf11  1  0.03601315  0.60282312  0.24299213  1
  Hf  Hf12  1  0.49352808  0.30634449  0.87216365  1
  Hf  Hf13  1  0.49342260  0.49853026  0.61411031  1
  Hf  Hf14  1  0.00059886  0.80228605  0.51554149  1
  Hf  Hf15  1  0.39486264  0.60089433  0.74576256  1
  Hf  Hf16  1  0.10075689  0.10683754  0.13814814  1
  Hf  Hf17  1  0.20563246  0.78886540  0.52327078  1
  Hf  Hf18  1  0.90938540  0.50992874  0.62247081  1
  Hf  Hf19  1  0.00017169  0.80385931  0.00893182  1
  Hf  Hf20  1  0.59707548  -0.00455003  0.75987505  1
  Hf  Hf21  1  0.49854279  0.69938057  0.87436828  1
  Hf  Hf22  1  0.60678201  -0.00414741  0.50468284  1
  Hf  Hf23  1  0.79351024  0.19629465  0.49561553  1
  Hf  Hf24  1  0.30568759  0.50060677  0.87285755  1
  Hf  Hf25  1  0.70118715  0.29609043  0.36664807  1
  Hf  Hf26  1  0.80389092  0.18879661  0.25126339  1
  Hf  Hf27  1  0.10824218  0.49566368  0.61494026  1
  Hf  Hf28  1  0.59805249  0.39828628  0.74559183  1
  Hf  Hf29  1  0.60170050  0.59964086  0.48582094  1
  Hf  Hf30  1  0.58756967  -0.00856018  -0.01616357  1
  Hf  Hf31  1  0.80859275  0.39960096  0.25175967  1
  Hf  Hf32  1  0.40222092  0.61514141  0.49477195  1
  Hf  Hf33  1  0.80368266  0.20484601  0.74397335  1
  Hf  Hf34  1  0.79652876  0.80886795  0.23461707  1
  Hf  Hf35  1  0.09271363  0.89937242  0.38065270  1
  Hf  Hf36  1  0.79469689  0.81224171  0.51597483  1
  Hf  Hf37  1  0.37508573  0.18621719  0.26949484  1
  Hf  Hf38  1  0.29232408  0.09687726  0.62734261  1
  Hf  Hf39  1  0.60435555  0.39201970  0.48949041  1
  Zr  Zr40  1  0.58597831  0.20304212  0.00553677  1
  Zr  Zr41  1  0.28853248  0.68119216  0.11136624  1
  Zr  Zr42  1  0.59209812  0.79267300  0.49802660  1
  Zr  Zr43  1  0.39863586  0.59465894  0.25896333  1
  Zr  Zr44  1  0.60116959  0.80103340  0.00078075  1
  Zr  Zr45  1  0.50273735  0.89704775  0.63411729  1
  Zr  Zr46  1  0.27656808  0.08747935  0.87073504  1
  Zr  Zr47  1  0.29166795  0.29418669  0.86906645  1
  Zr  Zr48  1  0.91145045  0.28804939  0.13456353  1
  Zr  Zr49  1  0.20727904  0.00697090  0.25163610  1
  Zr  Zr50  1  0.90968465  0.50796884  0.87003950  1
  Zr  Zr51  1  0.91079401  0.08060309  0.13047429  1
  Zr  Zr52  1  0.80497398  0.00387066  0.74936607  1
  Zr  Zr53  1  0.29120408  0.71117848  0.88323635  1
  Zr  Zr54  1  0.10431009  0.50015239  0.86777308  1
  Zr  Zr55  1  0.02673243  -0.00258270  -0.01157695  1
  Zr  Zr56  1  0.79569405  0.40034765  0.01560364  1
  Zr  Zr57  1  0.21300938  0.42345802  0.24153014  1
  Zr  Zr58  1  0.50199650  0.29214605  0.61730189  1
  Zr  Zr59  1  0.29698646  0.90402838  0.37833972  1
  Zr  Zr60  1  0.47759712  0.29783721  0.13899314  1
  Zr  Zr61  1  0.50656670  0.50219012  0.13837444  1
  Zr  Zr62  1  0.92216027  0.49219080  0.13229425  1
  Zr  Zr63  1  0.80713966  0.60723928  0.74069467  1
  Zr  Zr64  1  0.69609211  0.49917331  0.87175688  1
  Zr  Zr65  1  0.17068426  0.19521571  0.73836524  1
  Zr  Zr66  1  0.69003497  0.07527482  0.12731297  1
  Zr  Zr67  1  0.80636501  0.60075944  0.00265193  1
  Zr  Zr68  1  0.20377995  0.40556826  0.01191563  1
  Zr  Zr69  1  0.71204150  0.70481877  0.87262518  1
  Zr  Zr70  1  0.10440335  0.10630576  0.38885999  1
  Zr  Zr71  1  0.70208472  0.10442879  0.88017731  1
  Zr  Zr72  1  0.79448398  0.19752472  0.01237853  1
  Zr  Zr73  1  0.70336207  0.49169304  0.61787991  1
  Zr  Zr74  1  0.29779307  0.30919973  0.61092321  1
  Zr  Zr75  1  0.90976025  0.70769544  0.36588499  1
  Zr  Zr76  1  0.90895559  0.50859219  0.37068043  1
  Zr  Zr77  1  0.89442934  0.29967036  0.61016197  1
  Zr  Zr78  1  0.47958445  0.08916895  0.12934226  1
  Zr  Zr79  1  0.49624413  0.89639238  0.36968070  1
  Ta  Ta80  1  0.48339318  0.10342281  0.86817911  1
  Ta  Ta81  1  0.10170430  0.30520321  0.12704286  1
  Ta  Ta82  1  0.39864380  0.39587919  0.00582064  1
  Ta  Ta83  1  0.59442480  0.18620755  0.49082950  1
  Ta  Ta84  1  0.11203591  0.69996115  0.37961094  1
  Ta  Ta85  1  0.39789266  0.40337193  0.74598728  1
  Ta  Ta86  1  0.00614978  0.20243096  -0.00035757  1
  Ta  Ta87  1  0.90756855  0.89374788  0.87174013  1
  Ta  Ta88  1  0.69056738  0.68857645  0.13212621  1
  Ta  Ta89  1  0.39221224  0.80018053  0.23961942  1
  Ta  Ta90  1  0.80789538  -0.01644595  -0.00504414  1
  Ta  Ta91  1  0.69254880  0.10619862  0.62697788  1
  Ta  Ta92  1  0.29928621  0.70336727  0.37422011  1
  Ta  Ta93  1  0.69818229  0.30098327  0.87424037  1
  Ta  Ta94  1  0.02369931  0.38938455  0.26193202  1
  Ta  Ta95  1  0.48975945  0.29601513  0.37961523  1
  Ta  Ta96  1  0.79709667  0.39685616  0.74567889  1
  Ta  Ta97  1  0.09427641  0.28923205  0.59795974  1
  Ta  Ta98  1  0.59966402  0.59805632  0.00143774  1
  Ta  Ta99  1  0.70488925  0.50715087  0.36347466  1
  Ta  Ta100  1  0.91664526  0.92562678  0.62403540  1
  Ta  Ta101  1  0.07163101  0.09148806  0.60722111  1
  Ta  Ta102  1  0.59578854  0.60071257  0.74759242  1
  Ta  Ta103  1  0.49487319  0.09932592  0.63139501  1
  Ta  Ta104  1  0.09416333  0.29080502  0.87657392  1
  Ta  Ta105  1  0.49500872  0.70048614  0.12051280  1
  Ta  Ta106  1  0.39795814  0.18927624  0.49218142  1
  Ta  Ta107  1  0.91087632  0.10377611  0.87886121  1
  Ta  Ta108  1  0.01207317  0.01020228  0.76074770  1
  Ta  Ta109  1  0.80630191  0.61014040  0.50323265  1
  Ta  Ta110  1  0.30090061  0.49738355  0.39414756  1
  Ta  Ta111  1  0.11377213  0.50601452  0.38917717  1
  Ta  Ta112  1  0.89316454  0.90838212  0.37777994  1
  Ta  Ta113  1  0.40593598  0.58886648  -0.00161408  1
  Ta  Ta114  1  0.18949550  0.22327589  0.25802981  1
  Ta  Ta115  1  0.59868999  0.19843381  0.75103095  1
  Ta  Ta116  1  0.50079091  0.90319221  0.13099128  1
  Ta  Ta117  1  0.19421086  0.61110252  0.73875659  1
  Ta  Ta118  1  0.39958185  0.00019899  0.50716670  1
  Ta  Ta119  1  0.09841749  0.70693185  0.87480994  1
  Ti  Ti120  1  0.39987019  0.81056652  0.00146598  1
  Ti  Ti121  1  0.79995431  0.80159853  0.01210833  1
  Ti  Ti122  1  0.80333322  0.00496731  0.50927016  1
  Ti  Ti123  1  0.39652148  0.20153600  0.74726033  1
  Ti  Ti124  1  0.91134967  0.29280865  0.37613457  1
  Ti  Ti125  1  0.49843566  0.69931554  0.63297809  1
  Ti  Ti126  1  -0.00371926  0.40419306  0.49189148  1
  Ti  Ti127  1  0.80112718  0.40739200  0.48752479  1
  Ti  Ti128  1  0.39385230  0.39185394  0.26596117  1
  Ti  Ti129  1  0.00708544  0.40035023  0.00145273  1
  Ti  Ti130  1  0.59016173  0.40702814  0.26616198  1
  Ti  Ti131  1  0.70764302  0.89361325  0.87390350  1
  Ti  Ti132  1  0.60090212  0.79891729  0.75298823  1
  Ti  Ti133  1  0.80122324  -0.00999096  0.24748496  1
  Ti  Ti134  1  0.19223212  -0.01709271  0.74163798  1
  Ti  Ti135  1  0.69961194  0.08559113  0.36977212  1
  Ti  Ti136  1  0.70187435  0.90424714  0.37251191  1
  Ti  Ti137  1  0.00882044  0.61105858  0.50214430  1
  Ti  Ti138  1  0.29380176  0.10811333  0.12122525  1
  Ti  Ti139  1  0.19856535  -0.00775967  0.51165113  1
  Ti  Ti140  1  0.39362809  0.80556860  0.74940675  1
  Ti  Ti141  1  0.30387690  0.91225509  0.12256526  1
  Ti  Ti142  1  0.10446866  0.30457795  0.39686371  1
  Ti  Ti143  1  0.49308816  0.08478980  0.37110466  1
  Ti  Ti144  1  0.20739658  0.80201980  0.73337774  1
  Ti  Ti145  1  0.02249945  0.60094899  0.00782760  1
  Ti  Ti146  1  0.39056689  -0.00793497  0.75605799  1
  Ti  Ti147  1  0.19326571  0.82018817  0.00575902  1
  Ti  Ti148  1  0.70325414  0.50754396  0.14707007  1
  Ti  Ti149  1  0.91015432  0.70317306  0.87303586  1
  Ti  Ti150  1  0.68718825  0.30533158  0.14223149  1
  Ti  Ti151  1  0.38972640  -0.00560191  -0.01239296  1
  Ti  Ti152  1  0.20527745  0.40130976  0.74178137  1
  Ti  Ti153  1  0.90450791  0.09272845  0.37131249  1
  Ti  Ti154  1  0.39678795  0.80536061  0.51099175  1
  Ti  Ti155  1  0.28856667  0.29785117  0.39712198  1
  Ti  Ti156  1  0.19232670  0.19490873  0.00222170  1
  Ti  Ti157  1  0.29942053  0.50702343  0.60864485  1
  Ti  Ti158  1  0.38526792  0.19901469  -0.00226631  1
  Ti  Ti159  1  0.69226235  0.69988338  0.62529343  1
  Mo  Mo160  1  0.60012071  0.60120760  0.26095556  1
  Mo  Mo161  1  0.49013865  0.70323590  0.36849211  1
  Mo  Mo162  1  0.00913373  0.60646899  0.74798979  1
  Mo  Mo163  1  0.00703286  0.20667196  0.26939229  1
  Mo  Mo164  1  0.19835203  0.40128847  0.49891948  1
  Mo  Mo165  1  0.80202262  0.59976451  0.24554764  1
  Mo  Mo166  1  0.30953709  0.69895531  0.63096021  1
  Mo  Mo167  1  0.19833449  0.60416457  -0.00765191  1
  Mo  Mo168  1  0.09796003  0.69103731  0.63005629  1
  Mo  Mo169  1  -0.00934797  0.20072576  0.48542681  1
  Mo  Mo170  1  0.21045411  0.00193713  0.01087900  1
  Mo  Mo171  1  0.12014757  0.89387481  0.86801317  1
  Mo  Mo172  1  0.11531017  0.51125036  0.11718981  1
  Mo  Mo173  1  0.30606720  0.90409819  0.62785577  1
  Mo  Mo174  1  -0.00539456  0.19517027  0.74863685  1
  Mo  Mo175  1  0.40314531  0.40052269  0.48785857  1
  Mo  Mo176  1  0.21072932  0.60534546  0.25792067  1
  Mo  Mo177  1  0.90101094  0.70151214  0.61733234  1
  Mo  Mo178  1  0.29552235  0.89391052  0.87463136  1
  Mo  Mo179  1  0.89823161  0.10463444  0.62099056  1
  Mo  Mo180  1  0.70251628  0.90660292  0.62962850  1
  Mo  Mo181  1  0.69801140  0.89623784  0.11792194  1
  Mo  Mo182  1  0.09952905  0.10336082  0.87616952  1
  Mo  Mo183  1  0.60690985  -0.00613560  0.25565987  1
  Mo  Mo184  1  0.89538048  0.90530398  0.11698795  1
  Mo  Mo185  1  -0.00713961  0.00512919  0.26013622  1
  Mo  Mo186  1  0.19872972  0.19236477  0.50837527  1
  Mo  Mo187  1  -0.01126112  -0.00173834  0.49344118  1
  Mo  Mo188  1  0.69409163  0.29029399  0.61992870  1
  Mo  Mo189  1  0.49692648  0.50253350  0.87637132  1
  Mo  Mo190  1  0.48436973  0.89607102  0.86621506  1
  Mo  Mo191  1  0.31518333  0.49143206  0.12123202  1
  Mo  Mo192  1  0.49999816  0.49349416  0.37430229  1
  Mo  Mo193  1  0.10682807  0.91212874  0.12617204  1
  Mo  Mo194  1  0.20210380  0.60518648  0.50458728  1
  Mo  Mo195  1  0.10711898  0.90993052  0.62345199  1
  Mo  Mo196  1  0.30000797  0.09924615  0.39064945  1
  Mo  Mo197  1  0.40077938  -0.00590787  0.24701284  1
  Mo  Mo198  1  0.29344171  0.28552018  0.12583376  1
  Mo  Mo199  1  0.10326497  0.70380093  0.11168226  1
