# generated using pymatgen
data_HfZrTaTiMo
_symmetry_space_group_name_H-M   'P 1'
_cell_length_a   15.19705966
_cell_length_b   15.22187429
_cell_length_c   16.82831197
_cell_angle_alpha   90.06439944
_cell_angle_beta   89.97472506
_cell_angle_gamma   90.06214100
_symmetry_Int_Tables_number   1
_chemical_formula_structural   HfZrTaTiMo
_chemical_formula_sum   'Hf40 Zr40 Ta40 Ti40 Mo40'
_cell_volume   3892.85011030
_cell_formula_units_Z   40
loop_
 _symmetry_equiv_pos_site_id
 _symmetry_equiv_pos_as_xyz
  1  'x, y, z'
loop_
 _atom_site_type_symbol
 _atom_site_label
 _atom_site_symmetry_multiplicity
 _atom_site_fract_x
 _atom_site_fract_y
 _atom_site_fract_z
 _atom_site_occupancy
  Hf  Hf0  1  0.20544588  0.00697277  0.75131638  1
  Hf  Hf1  1  0.51888689  0.49356360  0.13519078  1
  Hf  Hf2  1  0.69360486  0.29032635  0.62696643  1
  Hf  Hf3  1  0.51117190  0.09709139  0.88821898  1
  Hf  Hf4  1  0.29519509  0.90170450  0.89150541  1
  Hf  Hf5  1  0.40951062  -0.01285744  0.50916967  1
  Hf  Hf6  1  0.29388149  0.89887060  0.62709184  1
  Hf  Hf7  1  0.19910325  0.40291259  0.24933071  1
  Hf  Hf8  1  0.40617871  0.17926489  0.24252638  1
  Hf  Hf9  1  0.48644522  0.89242779  0.10802669  1
  Hf  Hf10  1  0.09957939  0.11193056  0.11940778  1
  Hf  Hf11  1  0.79625214  0.40732542  -0.00668242  1
  Hf  Hf12  1  0.69628974  0.91484088  0.61415563  1
  Hf  Hf13  1  0.41358055  -0.00335604  0.74763726  1
  Hf  Hf14  1  0.90199640  0.71827994  0.61067325  1
  Hf  Hf15  1  0.11265292  0.50871594  0.38397514  1
  Hf  Hf16  1  0.87933887  0.90062319  0.89193010  1
  Hf  Hf17  1  0.38721061  0.79366333  0.75085933  1
  Hf  Hf18  1  0.60471774  0.78804706  0.00582432  1
  Hf  Hf19  1  0.39393533  0.78255961  0.51258023  1
  Hf  Hf20  1  0.29377707  0.09516297  0.37566731  1
  Hf  Hf21  1  0.20663088  0.80316529  0.23310929  1
  Hf  Hf22  1  0.81064846  0.59375951  0.24920153  1
  Hf  Hf23  1  0.80853167  0.60652768  0.74150627  1
  Hf  Hf24  1  0.32695026  0.49842887  0.63358558  1
  Hf  Hf25  1  -0.00009279  0.21322083  0.76316526  1
  Hf  Hf26  1  0.69416524  0.70669136  0.62037415  1
  Hf  Hf27  1  0.80549700  0.39653986  0.73806438  1
  Hf  Hf28  1  0.10406400  0.29372888  0.38721071  1
  Hf  Hf29  1  0.70392513  0.49123608  0.37431606  1
  Hf  Hf30  1  -0.01039582  0.80186127  0.76155432  1
  Hf  Hf31  1  0.69090654  0.29620644  0.86125891  1
  Hf  Hf32  1  0.80099806  0.39437990  0.50903651  1
  Hf  Hf33  1  0.41784151  0.60002169  0.00417360  1
  Hf  Hf34  1  0.31089914  0.29642035  0.38339958  1
  Hf  Hf35  1  0.50840913  0.68871724  0.86061967  1
  Hf  Hf36  1  0.69353220  0.69404627  0.14129398  1
  Hf  Hf37  1  0.30490581  0.10156483  0.90052131  1
  Hf  Hf38  1  0.21442012  0.40317273  0.50969255  1
  Hf  Hf39  1  0.79553619  0.81023959  0.48192511  1
  Zr  Zr40  1  0.88896035  0.30725934  0.13533008  1
  Zr  Zr41  1  0.11600444  0.50539613  0.87268831  1
  Zr  Zr42  1  0.59276819  0.59831171  0.49841632  1
  Zr  Zr43  1  0.40238497  0.37962008  0.76102042  1
  Zr  Zr44  1  0.61423941  0.57982973  -0.00140137  1
  Zr  Zr45  1  0.39709362  0.39161071  0.24663048  1
  Zr  Zr46  1  0.78925834  0.20675031  0.00290007  1
  Zr  Zr47  1  0.81323745  0.02061978  0.47647166  1
  Zr  Zr48  1  -0.01156886  0.00012145  0.01237026  1
  Zr  Zr49  1  0.30000593  0.69161506  0.37260707  1
  Zr  Zr50  1  0.40722241  0.61341693  0.23567819  1
  Zr  Zr51  1  -0.01892050  0.18487735  0.48365830  1
  Zr  Zr52  1  0.90528975  0.51035620  0.38707912  1
  Zr  Zr53  1  0.67776001  0.91158236  0.36876248  1
  Zr  Zr54  1  -0.01039232  0.00920992  0.76226224  1
  Zr  Zr55  1  0.10580214  0.10240523  0.89437336  1
  Zr  Zr56  1  0.89854150  0.50514860  0.87120700  1
  Zr  Zr57  1  0.69274592  0.69395376  0.37019968  1
  Zr  Zr58  1  0.29446950  0.69450941  0.88874104  1
  Zr  Zr59  1  0.29609969  0.89518755  0.37615768  1
  Zr  Zr60  1  -0.00114863  0.40374192  0.73684915  1
  Zr  Zr61  1  0.08298674  0.90423183  0.63091305  1
  Zr  Zr62  1  0.10733500  0.69119500  0.12624175  1
  Zr  Zr63  1  0.20438772  0.20609032  0.75650465  1
  Zr  Zr64  1  0.20204072  0.20256176  0.24488813  1
  Zr  Zr65  1  0.01004165  0.60949536  0.74036673  1
  Zr  Zr66  1  -0.00029594  0.40521796  0.51009275  1
  Zr  Zr67  1  0.79073981  0.82141147  0.74676484  1
  Zr  Zr68  1  0.49292985  0.67204157  0.64566468  1
  Zr  Zr69  1  0.00827155  0.60186261  -0.00181323  1
  Zr  Zr70  1  0.90744919  0.71586369  0.13350749  1
  Zr  Zr71  1  0.29337152  0.29575125  0.10784860  1
  Zr  Zr72  1  0.80529993  0.61405800  0.00570590  1
  Zr  Zr73  1  0.71465697  0.70994787  0.87157035  1
  Zr  Zr74  1  0.50162162  0.49361027  0.36175201  1
  Zr  Zr75  1  0.70488310  0.08928710  0.87205252  1
  Zr  Zr76  1  0.19954251  0.39915933  0.74298138  1
  Zr  Zr77  1  0.18527907  0.00116989  0.49954557  1
  Zr  Zr78  1  0.10480560  0.70381787  0.36463033  1
  Zr  Zr79  1  0.51650502  0.28593255  0.12794751  1
  Ta  Ta80  1  0.50017742  0.08564286  0.37603803  1
  Ta  Ta81  1  0.39951925  0.18786081  0.75140091  1
  Ta  Ta82  1  0.09653249  0.89906536  0.88928608  1
  Ta  Ta83  1  0.91199693  0.49880558  0.12821979  1
  Ta  Ta84  1  0.29745926  0.50521237  0.11072470  1
  Ta  Ta85  1  0.58005906  0.00388528  0.24197241  1
  Ta  Ta86  1  -0.00171014  0.82455065  0.48466730  1
  Ta  Ta87  1  -0.00186393  0.39604334  -0.00758863  1
  Ta  Ta88  1  0.21306748  0.61344444  0.73851589  1
  Ta  Ta89  1  0.21048572  0.60723538  0.51929535  1
  Ta  Ta90  1  0.68627751  0.11739943  0.13727945  1
  Ta  Ta91  1  0.58727762  0.19483469  0.74488647  1
  Ta  Ta92  1  0.49346782  0.29196195  0.62031589  1
  Ta  Ta93  1  0.78460677  0.00231662  0.02317994  1
  Ta  Ta94  1  0.57985576  0.81173394  0.50100599  1
  Ta  Ta95  1  0.69397844  0.90259717  0.13691701  1
  Ta  Ta96  1  0.01171900  0.62100731  0.50898708  1
  Ta  Ta97  1  0.58230193  0.79739360  0.24707237  1
  Ta  Ta98  1  0.89276380  0.91807385  0.61673634  1
  Ta  Ta99  1  0.10323132  0.49065094  0.12114002  1
  Ta  Ta100  1  0.10083114  0.70979178  0.88392413  1
  Ta  Ta101  1  0.79887986  0.80877517  0.26309872  1
  Ta  Ta102  1  0.59723134  0.39057855  0.50194007  1
  Ta  Ta103  1  0.40432447  0.18817858  0.50301584  1
  Ta  Ta104  1  -0.00013446  0.40428145  0.25916298  1
  Ta  Ta105  1  0.60012536  0.38106658  -0.00613671  1
  Ta  Ta106  1  0.40027414  0.58607911  0.49944130  1
  Ta  Ta107  1  0.10038334  0.28952774  0.61066020  1
  Ta  Ta108  1  -0.00813433  0.21301455  -0.00594441  1
  Ta  Ta109  1  -0.00766680  0.20679538  0.25916811  1
  Ta  Ta110  1  0.49955977  0.89692611  0.88995552  1
  Ta  Ta111  1  0.08648255  0.08469090  0.35895517  1
  Ta  Ta112  1  0.90693213  0.70884391  0.37369143  1
  Ta  Ta113  1  0.79303497  0.00820065  0.25041037  1
  Ta  Ta114  1  0.18609100  0.79302195  0.50685061  1
  Ta  Ta115  1  0.20405670  0.00086520  0.22836042  1
  Ta  Ta116  1  0.19137270  0.80444452  0.01180232  1
  Ta  Ta117  1  0.69490531  0.50512152  0.62445984  1
  Ta  Ta118  1  0.89305097  0.10616243  0.14119499  1
  Ta  Ta119  1  0.10115381  0.10905816  0.62252050  1
  Ti  Ti120  1  0.50707712  0.09584017  0.62361314  1
  Ti  Ti121  1  0.90429126  0.09855784  0.62570765  1
  Ti  Ti122  1  0.08873267  0.30750166  0.12176072  1
  Ti  Ti123  1  0.59404879  0.39905918  0.74188445  1
  Ti  Ti124  1  0.08645917  0.89567677  0.12564259  1
  Ti  Ti125  1  0.39095464  -0.00918191  0.23853036  1
  Ti  Ti126  1  0.69496217  0.50176453  0.85928043  1
  Ti  Ti127  1  0.31490690  0.71237352  0.10566082  1
  Ti  Ti128  1  0.59746281  0.00642515  0.49835064  1
  Ti  Ti129  1  0.18833454  0.80005531  0.75185193  1
  Ti  Ti130  1  0.01075539  0.59729652  0.24927577  1
  Ti  Ti131  1  0.68543379  0.90671803  0.88567728  1
  Ti  Ti132  1  0.30556144  0.49989911  0.37804667  1
  Ti  Ti133  1  0.29871415  0.27677119  0.61603335  1
  Ti  Ti134  1  0.09171381  0.90253293  0.35528389  1
  Ti  Ti135  1  0.71204309  0.29178988  0.38026579  1
  Ti  Ti136  1  0.40918277  0.40103526  -0.00509890  1
  Ti  Ti137  1  0.41365776  0.39301714  0.50068009  1
  Ti  Ti138  1  0.89406240  0.90251659  0.13699401  1
  Ti  Ti139  1  0.71233248  0.10270251  0.62403432  1
  Ti  Ti140  1  0.89200064  0.10468655  0.88171311  1
  Ti  Ti141  1  0.89955895  0.28318233  0.62053750  1
  Ti  Ti142  1  0.39917357  0.80741490  0.24467210  1
  Ti  Ti143  1  0.71240047  0.48021961  0.13983800  1
  Ti  Ti144  1  0.30969613  0.50231518  0.87782367  1
  Ti  Ti145  1  0.58938621  0.81169076  0.74612111  1
  Ti  Ti146  1  0.50671047  0.48643023  0.86911493  1
  Ti  Ti147  1  0.51133049  0.28426260  0.37526664  1
  Ti  Ti148  1  0.41222830  0.20951646  -0.00119047  1
  Ti  Ti149  1  0.60768643  -0.00143053  0.74521963  1
  Ti  Ti150  1  0.60285591  0.19435158  0.49899391  1
  Ti  Ti151  1  0.62042903  0.37769373  0.25527143  1
  Ti  Ti152  1  0.21054559  0.59305167  0.24138367  1
  Ti  Ti153  1  0.19527941  0.40345032  -0.00413810  1
  Ti  Ti154  1  0.49902864  0.09081847  0.10504775  1
  Ti  Ti155  1  0.49557764  0.70660216  0.37298776  1
  Ti  Ti156  1  0.80453711  0.19079895  0.75189021  1
  Ti  Ti157  1  0.29597603  0.29995319  0.89001071  1
  Ti  Ti158  1  0.69396132  0.11267405  0.36443698  1
  Ti  Ti159  1  0.10427918  0.50801157  0.62177378  1
  Mo  Mo160  1  0.69444013  0.30865233  0.12841613  1
  Mo  Mo161  1  0.89250670  0.10573236  0.34736191  1
  Mo  Mo162  1  -0.00603891  0.80116008  -0.00435785  1
  Mo  Mo163  1  0.78753446  0.20686524  0.25107197  1
  Mo  Mo164  1  0.89387418  0.30439948  0.36724463  1
  Mo  Mo165  1  0.50286717  0.69890492  0.12835749  1
  Mo  Mo166  1  0.79901798  0.01045684  0.74460398  1
  Mo  Mo167  1  0.79664326  0.81678476  0.01442413  1
  Mo  Mo168  1  0.29441134  0.90081888  0.11284273  1
  Mo  Mo169  1  0.78964584  0.20213512  0.49725646  1
  Mo  Mo170  1  0.90694963  0.71208448  0.88370976  1
  Mo  Mo171  1  0.19235722  0.21384617  0.00127541  1
  Mo  Mo172  1  0.40236922  0.79392171  -0.00857403  1
  Mo  Mo173  1  0.60458697  0.59460830  0.25576937  1
  Mo  Mo174  1  0.89445772  0.51497110  0.60929144  1
  Mo  Mo175  1  0.60458935  0.19785298  -0.00061148  1
  Mo  Mo176  1  0.48926445  0.89595806  0.36893949  1
  Mo  Mo177  1  0.51060808  0.47965441  0.62634321  1
  Mo  Mo178  1  -0.00358113  0.80545282  0.25566388  1
  Mo  Mo179  1  0.30804890  0.09394866  0.10654899  1
  Mo  Mo180  1  -0.00190953  0.00010281  0.49063837  1
  Mo  Mo181  1  0.30626153  0.10339532  0.62272095  1
  Mo  Mo182  1  0.80565383  0.60196869  0.50884839  1
  Mo  Mo183  1  0.20885536  0.59578534  0.00430859  1
  Mo  Mo184  1  0.49648482  0.29244847  0.87617850  1
  Mo  Mo185  1  0.19765004  -0.00131131  0.02202188  1
  Mo  Mo186  1  0.89741331  0.29625686  0.87344703  1
  Mo  Mo187  1  0.90809275  0.90956065  0.35449306  1
  Mo  Mo188  1  0.29618500  0.69800283  0.63037746  1
  Mo  Mo189  1  0.59592324  0.19262491  0.26191035  1
  Mo  Mo190  1  0.00189604  0.00255025  0.23208025  1
  Mo  Mo191  1  0.50915143  0.89392926  0.63048902  1
  Mo  Mo192  1  0.39981695  0.58399013  0.76502677  1
  Mo  Mo193  1  0.60628712  -0.00181416  0.01287630  1
  Mo  Mo194  1  0.60899351  0.58632220  0.75104416  1
  Mo  Mo195  1  0.10079198  0.30626869  0.88611958  1
  Mo  Mo196  1  0.40083967  -0.00000089  0.00168002  1
  Mo  Mo197  1  0.81015061  0.39646046  0.26046362  1
  Mo  Mo198  1  0.20016136  0.19395429  0.50052027  1
  Mo  Mo199  1  0.10163002  0.71188386  0.62379816  1
