# generated using pymatgen
data_HfZrTaTiMo
_symmetry_space_group_name_H-M   'P 1'
_cell_length_a   15.22474532
_cell_length_b   15.19113055
_cell_length_c   16.84351361
_cell_angle_alpha   89.98280840
_cell_angle_beta   89.93512983
_cell_angle_gamma   90.07338139
_symmetry_Int_Tables_number   1
_chemical_formula_structural   HfZrTaTiMo
_chemical_formula_sum   'Hf40 Zr40 Ta40 Ti40 Mo40'
_cell_volume   3895.58038044
_cell_formula_units_Z   40
loop_
 _symmetry_equiv_pos_site_id
 _symmetry_equiv_pos_as_xyz
  1  'x, y, z'
loop_
 _atom_site_type_symbol
 _atom_site_label
 _atom_site_symmetry_multiplicity
 _atom_site_fract_x
 _atom_site_fract_y
 _atom_site_fract_z
 _atom_site_occupancy
  Hf  Hf0  1  0.09083302  0.30775169  0.62332076  1
  Hf  Hf1  1  0.70441287  0.09581862  0.62112922  1
  Hf  Hf2  1  0.69108255  0.48435008  0.38756517  1
  Hf  Hf3  1  0.11255170  0.12163562  0.11996995  1
  Hf  Hf4  1  0.49295641  0.69130776  0.11008092  1
  Hf  Hf5  1  0.41216456  0.00372947  0.74939040  1
  Hf  Hf6  1  -0.01208796  0.80099819  0.75285274  1
  Hf  Hf7  1  0.29951977  0.08991095  0.12591013  1
  Hf  Hf8  1  0.10816883  0.70047747  0.37740193  1
  Hf  Hf9  1  0.49355080  0.89035583  0.36978085  1
  Hf  Hf10  1  0.39934952  0.20958032  0.00959222  1
  Hf  Hf11  1  0.00225182  0.60223823  0.01362526  1
  Hf  Hf12  1  0.48177072  0.29086581  0.85879493  1
  Hf  Hf13  1  -0.01080834  0.40523540  0.49584067  1
  Hf  Hf14  1  0.40968488  0.61368002  0.25152469  1
  Hf  Hf15  1  0.70826728  0.08187179  0.89012395  1
  Hf  Hf16  1  0.50841396  0.08511533  0.89110412  1
  Hf  Hf17  1  0.81280363  0.39761574  0.75285430  1
  Hf  Hf18  1  0.19484820  0.19860319  0.74506800  1
  Hf  Hf19  1  0.61369523  0.00289792  0.24043637  1
  Hf  Hf20  1  0.48894408  0.29146767  0.62363623  1
  Hf  Hf21  1  0.90363093  0.10340621  0.62667231  1
  Hf  Hf22  1  0.89498474  0.89926888  0.88958603  1
  Hf  Hf23  1  -0.00119058  0.18500228  0.49821070  1
  Hf  Hf24  1  0.19101970  0.61477408  0.23908275  1
  Hf  Hf25  1  0.59141168  0.39350376  -0.01126971  1
  Hf  Hf26  1  0.91195555  0.90336600  0.36817309  1
  Hf  Hf27  1  0.09081211  0.69561311  0.87549301  1
  Hf  Hf28  1  -0.00611803  0.21354953  0.75934472  1
  Hf  Hf29  1  0.69195863  0.50944232  0.11058679  1
  Hf  Hf30  1  0.68936163  0.68251060  0.38493177  1
  Hf  Hf31  1  0.30899754  0.10390672  0.87720386  1
  Hf  Hf32  1  0.91305945  0.11494880  0.12143110  1
  Hf  Hf33  1  0.20279151  -0.00085812  0.74622262  1
  Hf  Hf34  1  0.27653203  0.29942643  0.12480671  1
  Hf  Hf35  1  0.80834231  0.79714044  0.48773045  1
  Hf  Hf36  1  0.38076791  0.41097231  -0.01008988  1
  Hf  Hf37  1  0.21673239  0.79018128  0.75144597  1
  Hf  Hf38  1  -0.01002930  0.38489748  0.25328741  1
  Hf  Hf39  1  0.09909962  0.68859898  0.63360794  1
  Zr  Zr40  1  0.48465475  0.51771632  0.86263872  1
  Zr  Zr41  1  0.69704102  0.29160213  0.63297607  1
  Zr  Zr42  1  0.19356413  0.20343402  0.26722135  1
  Zr  Zr43  1  0.10315494  0.90322701  0.87731434  1
  Zr  Zr44  1  0.19102293  0.00871726  0.50127454  1
  Zr  Zr45  1  0.49601444  0.09033930  0.12649707  1
  Zr  Zr46  1  -0.00357297  0.59685606  0.23643840  1
  Zr  Zr47  1  0.70195284  0.29382724  0.87394131  1
  Zr  Zr48  1  0.39789956  0.39108414  0.25473207  1
  Zr  Zr49  1  0.59136468  0.17758913  0.75262075  1
  Zr  Zr50  1  0.49844343  0.49195402  0.11903029  1
  Zr  Zr51  1  0.70055389  0.89965938  0.36889905  1
  Zr  Zr52  1  0.88336311  0.49275304  0.12293029  1
  Zr  Zr53  1  0.39576163  0.41521139  0.50947735  1
  Zr  Zr54  1  0.49762087  0.88217385  0.12907093  1
  Zr  Zr55  1  0.69744378  0.89973029  0.61284486  1
  Zr  Zr56  1  0.01093544  -0.00000158  0.01057126  1
  Zr  Zr57  1  0.31021886  0.90252785  0.61823982  1
  Zr  Zr58  1  0.90304262  0.89688014  0.61785154  1
  Zr  Zr59  1  0.08487858  0.29789970  0.38118826  1
  Zr  Zr60  1  0.01089499  0.59835433  0.49667047  1
  Zr  Zr61  1  0.01440408  0.79703069  0.23346184  1
  Zr  Zr62  1  0.21092640  0.21418038  0.49183195  1
  Zr  Zr63  1  0.50005624  0.30111872  0.38699304  1
  Zr  Zr64  1  0.68967830  0.70540633  0.86989701  1
  Zr  Zr65  1  0.20952738  0.59209580  -0.00647586  1
  Zr  Zr66  1  0.30158390  0.51464731  0.37339961  1
  Zr  Zr67  1  0.80612429  0.58873600  0.51290062  1
  Zr  Zr68  1  0.80073435  0.79221063  0.24823946  1
  Zr  Zr69  1  0.90583158  0.10572209  0.88891195  1
  Zr  Zr70  1  0.80487011  -0.01095425  0.75382596  1
  Zr  Zr71  1  0.79772353  0.20664192  0.23916840  1
  Zr  Zr72  1  0.60792235  0.19295161  0.01900807  1
  Zr  Zr73  1  0.59671214  0.41080857  0.75035317  1
  Zr  Zr74  1  0.51248773  0.87769189  0.88990297  1
  Zr  Zr75  1  0.80703447  0.60243307  0.74878221  1
  Zr  Zr76  1  0.31372505  0.11564595  0.61822580  1
  Zr  Zr77  1  0.69921344  0.70398249  0.62805900  1
  Zr  Zr78  1  0.29548096  0.50450093  0.13028753  1
  Zr  Zr79  1  0.88938399  0.49935414  0.36598071  1
  Ta  Ta80  1  0.50761531  0.08866438  0.61304367  1
  Ta  Ta81  1  0.60754701  0.19702713  0.49727066  1
  Ta  Ta82  1  0.60236331  0.00377048  0.48552169  1
  Ta  Ta83  1  0.58040631  0.58560457  0.52087340  1
  Ta  Ta84  1  0.31466817  0.10387030  0.37904445  1
  Ta  Ta85  1  0.69005043  0.70322519  0.11583914  1
  Ta  Ta86  1  0.20594498  0.80142760  -0.00527565  1
  Ta  Ta87  1  0.81088971  0.21707875  0.00545531  1
  Ta  Ta88  1  0.60667944  0.40345017  0.24604046  1
  Ta  Ta89  1  0.10723365  0.89773476  0.37168082  1
  Ta  Ta90  1  0.20514775  -0.00140941  0.25988591  1
  Ta  Ta91  1  0.17998380  0.38486005  -0.01577654  1
  Ta  Ta92  1  0.70826150  0.31775646  0.11968562  1
  Ta  Ta93  1  0.38675580  0.60913232  0.72421892  1
  Ta  Ta94  1  0.29852081  0.89925167  0.38141547  1
  Ta  Ta95  1  0.29050283  0.31592645  0.62969791  1
  Ta  Ta96  1  0.30409470  0.71541486  0.37749033  1
  Ta  Ta97  1  0.49206335  0.69117338  0.39208976  1
  Ta  Ta98  1  0.42648903  0.79864513  0.73789198  1
  Ta  Ta99  1  0.12332734  0.90136060  0.12561218  1
  Ta  Ta100  1  0.01060688  0.01060516  0.75072867  1
  Ta  Ta101  1  0.50702143  0.50615708  0.37826091  1
  Ta  Ta102  1  0.18809373  0.40771193  0.26403862  1
  Ta  Ta103  1  -0.01169132  0.40076904  -0.01771787  1
  Ta  Ta104  1  0.62053005  -0.02245866  0.02264860  1
  Ta  Ta105  1  0.87705153  0.29244776  0.38094004  1
  Ta  Ta106  1  0.31322414  0.89261812  0.87454716  1
  Ta  Ta107  1  0.59100785  0.77284622  0.25373584  1
  Ta  Ta108  1  0.00785514  0.41778703  0.76635443  1
  Ta  Ta109  1  0.60033708  -0.02387336  0.74944414  1
  Ta  Ta110  1  0.39978854  0.19817666  0.25063516  1
  Ta  Ta111  1  0.01293008  0.00791654  0.24271813  1
  Ta  Ta112  1  0.81189180  -0.00002382  0.23271396  1
  Ta  Ta113  1  0.29805358  0.71611620  0.12162352  1
  Ta  Ta114  1  0.19030630  0.41816847  0.49344389  1
  Ta  Ta115  1  0.21605441  0.60558195  0.50919562  1
  Ta  Ta116  1  0.59577962  0.21237553  0.23519575  1
  Ta  Ta117  1  0.80656400  0.01532040  0.48701105  1
  Ta  Ta118  1  0.78922600  0.38665725  0.51031305  1
  Ta  Ta119  1  0.19523172  0.58594824  0.75870866  1
  Ti  Ti120  1  0.01856124  0.22115763  -0.01007455  1
  Ti  Ti121  1  0.90222672  0.69569649  0.36758855  1
  Ti  Ti122  1  0.69604610  0.49502938  0.62732721  1
  Ti  Ti123  1  0.09698752  0.47696754  0.12016388  1
  Ti  Ti124  1  0.28965112  0.29975910  0.86720540  1
  Ti  Ti125  1  0.39773217  0.79172851  0.51209238  1
  Ti  Ti126  1  0.89349280  0.29916494  0.62197626  1
  Ti  Ti127  1  0.00373453  -0.00504938  0.49746624  1
  Ti  Ti128  1  0.77502059  0.59266045  0.24724770  1
  Ti  Ti129  1  0.79618223  0.60834890  -0.00487837  1
  Ti  Ti130  1  0.88662295  0.70688572  0.11757126  1
  Ti  Ti131  1  0.80399791  -0.00718782  0.03128690  1
  Ti  Ti132  1  0.70498058  0.50252378  0.87904615  1
  Ti  Ti133  1  0.70636069  0.88853629  0.88383684  1
  Ti  Ti134  1  0.21098541  -0.00124088  -0.00454098  1
  Ti  Ti135  1  0.09702427  0.90126711  0.62796414  1
  Ti  Ti136  1  0.19152216  0.40310414  0.76111597  1
  Ti  Ti137  1  0.70897445  0.10914788  0.36971942  1
  Ti  Ti138  1  0.90821725  0.10290857  0.36274149  1
  Ti  Ti139  1  0.90278472  0.69989179  0.62868322  1
  Ti  Ti140  1  0.69435393  0.29605269  0.37502795  1
  Ti  Ti141  1  0.90190924  0.51656583  0.87787801  1
  Ti  Ti142  1  0.00746228  0.79928662  0.49913292  1
  Ti  Ti143  1  0.00112137  0.80207191  0.01743533  1
  Ti  Ti144  1  0.80110626  0.19495670  0.75920215  1
  Ti  Ti145  1  0.59154499  0.80030503  0.49938261  1
  Ti  Ti146  1  0.39884935  -0.00367297  0.25756661  1
  Ti  Ti147  1  0.51080103  0.10265343  0.36828820  1
  Ti  Ti148  1  0.19867552  0.80107946  0.50804352  1
  Ti  Ti149  1  0.58726893  0.60413796  -0.01616506  1
  Ti  Ti150  1  0.32141018  0.69178980  0.87412494  1
  Ti  Ti151  1  0.91996540  0.49921506  0.63323337  1
  Ti  Ti152  1  0.38331318  0.40973371  0.74321005  1
  Ti  Ti153  1  0.90967309  0.30856814  0.11742587  1
  Ti  Ti154  1  0.41018781  0.00277132  0.49211367  1
  Ti  Ti155  1  0.30668902  0.89650012  0.12994835  1
  Ti  Ti156  1  0.58001728  0.61791500  0.73768406  1
  Ti  Ti157  1  0.11042563  0.10793934  0.88387939  1
  Ti  Ti158  1  0.40081157  -0.01527505  0.00267246  1
  Ti  Ti159  1  0.89041571  0.70993275  0.88472677  1
  Mo  Mo160  1  0.70985263  0.10309213  0.12080758  1
  Mo  Mo161  1  0.49669044  0.50042154  0.64025863  1
  Mo  Mo162  1  -0.00585472  0.19464708  0.25522124  1
  Mo  Mo163  1  0.49517192  0.30167192  0.13122686  1
  Mo  Mo164  1  0.60637581  0.79220641  0.00481450  1
  Mo  Mo165  1  0.80000219  0.80114702  0.75480541  1
  Mo  Mo166  1  0.09769172  0.29727717  0.86775528  1
  Mo  Mo167  1  0.30076217  0.30202102  0.37513792  1
  Mo  Mo168  1  0.79939469  0.19631529  0.49244430  1
  Mo  Mo169  1  0.70594298  0.88817580  0.13795634  1
  Mo  Mo170  1  0.09382787  0.09348965  0.62790022  1
  Mo  Mo171  1  0.41033892  0.19558694  0.49102788  1
  Mo  Mo172  1  0.50536001  0.90695156  0.61067323  1
  Mo  Mo173  1  0.49814431  0.70851593  0.61256411  1
  Mo  Mo174  1  0.21156818  0.80868808  0.24966353  1
  Mo  Mo175  1  -0.00183465  0.59839523  0.75255580  1
  Mo  Mo176  1  0.78616533  0.39668415  0.24953997  1
  Mo  Mo177  1  0.79718817  0.80532766  0.01215307  1
  Mo  Mo178  1  0.39232981  0.20401871  0.74738744  1
  Mo  Mo179  1  0.09467728  0.50250867  0.88237628  1
  Mo  Mo180  1  0.89555061  0.30897538  0.87802864  1
  Mo  Mo181  1  0.91106345  0.90085629  0.12908031  1
  Mo  Mo182  1  0.60115604  0.39921054  0.51359099  1
  Mo  Mo183  1  0.39487961  0.79952235  0.25577269  1
  Mo  Mo184  1  0.39364950  0.60384281  -0.00556994  1
  Mo  Mo185  1  0.28418730  0.49911239  0.63153017  1
  Mo  Mo186  1  0.10750882  0.70696033  0.10915406  1
  Mo  Mo187  1  0.60324483  0.80363742  0.74435899  1
  Mo  Mo188  1  0.39614400  0.60717529  0.51823451  1
  Mo  Mo189  1  0.10850003  0.49171399  0.63017878  1
  Mo  Mo190  1  0.79779849  0.40903878  -0.01473686  1
  Mo  Mo191  1  0.60043419  0.59708017  0.25293522  1
  Mo  Mo192  1  0.08873762  0.30545062  0.12368151  1
  Mo  Mo193  1  0.10334879  0.50575790  0.37090922  1
  Mo  Mo194  1  0.20408191  0.20148344  -0.00892553  1
  Mo  Mo195  1  0.29335133  0.49691802  0.86234274  1
  Mo  Mo196  1  0.49267695  0.70075074  0.87020284  1
  Mo  Mo197  1  0.38901430  0.79538684  -0.00252642  1
  Mo  Mo198  1  0.29328428  0.70544680  0.62722377  1
  Mo  Mo199  1  0.09591071  0.08500087  0.37202690  1
