# generated using pymatgen
data_HfZrTaTiMo
_symmetry_space_group_name_H-M   'P 1'
_cell_length_a   15.20956775
_cell_length_b   15.20431352
_cell_length_c   16.86059042
_cell_angle_alpha   90.01475437
_cell_angle_beta   89.97410021
_cell_angle_gamma   89.91025289
_symmetry_Int_Tables_number   1
_chemical_formula_structural   HfZrTaTiMo
_chemical_formula_sum   'Hf40 Zr40 Ta40 Ti40 Mo40'
_cell_volume   3899.02370167
_cell_formula_units_Z   40
loop_
 _symmetry_equiv_pos_site_id
 _symmetry_equiv_pos_as_xyz
  1  'x, y, z'
loop_
 _atom_site_type_symbol
 _atom_site_label
 _atom_site_symmetry_multiplicity
 _atom_site_fract_x
 _atom_site_fract_y
 _atom_site_fract_z
 _atom_site_occupancy
  Hf  Hf0  1  0.40054554  0.20689842  0.26255741  1
  Hf  Hf1  1  0.29786812  0.52052412  0.36826748  1
  Hf  Hf2  1  0.28596647  0.10136161  0.86622894  1
  Hf  Hf3  1  0.19168220  0.00040910  0.00250039  1
  Hf  Hf4  1  0.11121529  0.09798583  0.38107156  1
  Hf  Hf5  1  0.80507686  0.20992809  0.48533895  1
  Hf  Hf6  1  0.70413290  0.48741200  0.86564191  1
  Hf  Hf7  1  0.90000921  0.89764121  0.62087759  1
  Hf  Hf8  1  0.49992131  0.49030834  0.37797077  1
  Hf  Hf9  1  0.10320905  0.89761201  0.87244199  1
  Hf  Hf10  1  0.40142076  -0.00229615  -0.01621480  1
  Hf  Hf11  1  0.81900822  0.00181612  0.74944861  1
  Hf  Hf12  1  0.10713309  0.67840074  0.88448736  1
  Hf  Hf13  1  0.39913514  0.78598557  0.25251361  1
  Hf  Hf14  1  0.90754067  0.09589371  0.37114924  1
  Hf  Hf15  1  0.29474647  0.71012516  0.63950693  1
  Hf  Hf16  1  0.50072851  0.30185610  0.12611900  1
  Hf  Hf17  1  0.40551614  0.79264967  -0.01490436  1
  Hf  Hf18  1  -0.00563416  0.19936606  0.74903202  1
  Hf  Hf19  1  0.51616104  0.90232419  0.86723741  1
  Hf  Hf20  1  0.80398916  0.00554652  0.01281626  1
  Hf  Hf21  1  0.00708234  0.21635290  0.25614241  1
  Hf  Hf22  1  0.59705331  0.19460987  -0.01505848  1
  Hf  Hf23  1  0.20550006  0.20012933  0.26268632  1
  Hf  Hf24  1  0.60330048  -0.00067437  0.01139500  1
  Hf  Hf25  1  0.70246223  0.89104102  0.36569393  1
  Hf  Hf26  1  0.80918247  -0.01310408  0.24386332  1
  Hf  Hf27  1  0.28356807  0.89690058  0.37199536  1
  Hf  Hf28  1  0.60100416  0.19487167  0.50399318  1
  Hf  Hf29  1  0.79914591  0.78824807  0.49863438  1
  Hf  Hf30  1  0.50296392  0.88537947  0.63369362  1
  Hf  Hf31  1  0.00284890  -0.00289118  0.50106266  1
  Hf  Hf32  1  0.18567931  0.41069678  0.49491610  1
  Hf  Hf33  1  0.09930730  0.29777491  0.88251916  1
  Hf  Hf34  1  0.81879845  0.59888704  0.24253382  1
  Hf  Hf35  1  0.20793220  -0.00400341  0.51115794  1
  Hf  Hf36  1  0.71398039  0.09706358  0.62666820  1
  Hf  Hf37  1  0.18882336  0.39927875  0.26417484  1
  Hf  Hf38  1  0.38301570  0.79285251  0.49353724  1
  Hf  Hf39  1  0.10715479  0.50608394  0.12434360  1
  Zr  Zr40  1  0.30423606  0.68587719  0.12699364  1
  Zr  Zr41  1  0.30068880  0.31460111  0.11848735  1
  Zr  Zr42  1  -0.00380461  0.78864118  0.75463805  1
  Zr  Zr43  1  0.01196853  -0.00253057  0.23538470  1
  Zr  Zr44  1  0.39410603  0.20843845  -0.02509354  1
  Zr  Zr45  1  0.78432771  0.79445781  0.74577549  1
  Zr  Zr46  1  0.69824736  0.09438339  0.36948091  1
  Zr  Zr47  1  0.10714421  0.88642225  0.63346287  1
  Zr  Zr48  1  0.49425342  0.68527147  0.62725678  1
  Zr  Zr49  1  0.07075099  0.51147075  0.37555037  1
  Zr  Zr50  1  0.10862751  0.29407090  0.11278407  1
  Zr  Zr51  1  0.60180373  0.58469970  0.23988894  1
  Zr  Zr52  1  0.89162997  0.31270111  0.12816169  1
  Zr  Zr53  1  0.29809614  0.89228954  0.12217338  1
  Zr  Zr54  1  0.78830332  0.20883552  -0.00679033  1
  Zr  Zr55  1  0.19529601  0.62793948  0.49521210  1
  Zr  Zr56  1  0.50144018  0.89437963  0.37278232  1
  Zr  Zr57  1  0.60536841  -0.01267735  0.51075702  1
  Zr  Zr58  1  0.29260778  0.51395943  0.62509579  1
  Zr  Zr59  1  0.71661104  0.88901194  0.88237922  1
  Zr  Zr60  1  0.28861680  0.11475449  0.11317373  1
  Zr  Zr61  1  0.59189895  0.59385835  0.00326517  1
  Zr  Zr62  1  0.20032979  0.21594042  0.74209793  1
  Zr  Zr63  1  -0.00557343  0.19185765  0.00198459  1
  Zr  Zr64  1  0.89862060  0.71336109  0.10576375  1
  Zr  Zr65  1  0.49573807  0.10361034  0.12592539  1
  Zr  Zr66  1  0.38409906  0.40155584  0.76224313  1
  Zr  Zr67  1  0.40902861  0.20511572  0.50664113  1
  Zr  Zr68  1  0.39624109  0.00174928  0.24897613  1
  Zr  Zr69  1  0.60941881  0.78878626  0.00755608  1
  Zr  Zr70  1  0.17657487  0.42478011  0.75509031  1
  Zr  Zr71  1  0.30279867  0.10234600  0.63500229  1
  Zr  Zr72  1  0.60741245  0.39735369  0.00203577  1
  Zr  Zr73  1  0.70951617  0.50923158  0.62969754  1
  Zr  Zr74  1  0.59039801  0.39379200  0.51158258  1
  Zr  Zr75  1  0.89999285  0.68107273  0.61988677  1
  Zr  Zr76  1  0.89375327  0.70659255  0.89261338  1
  Zr  Zr77  1  0.40010844  0.41516870  -0.01517564  1
  Zr  Zr78  1  0.70755540  0.68787383  0.36861572  1
  Zr  Zr79  1  0.70272305  0.30398410  0.63296305  1
  Ta  Ta80  1  0.79101216  0.40787721  0.25512621  1
  Ta  Ta81  1  0.30897646  0.89977716  0.64047697  1
  Ta  Ta82  1  0.19713380  -0.00032258  0.23959417  1
  Ta  Ta83  1  0.10556533  0.70797750  0.11216586  1
  Ta  Ta84  1  0.80902063  0.59671519  0.75731792  1
  Ta  Ta85  1  0.08515758  0.32069750  0.62167963  1
  Ta  Ta86  1  0.69425820  0.09126850  0.86656585  1
  Ta  Ta87  1  0.90685503  0.50271558  0.87766849  1
  Ta  Ta88  1  0.60051806  -0.00654236  0.23568704  1
  Ta  Ta89  1  0.00130441  -0.00478646  0.02147875  1
  Ta  Ta90  1  0.79890788  0.21381800  0.26408547  1
  Ta  Ta91  1  0.30680560  0.31170993  0.39252639  1
  Ta  Ta92  1  0.50183117  0.09348056  0.37379370  1
  Ta  Ta93  1  0.79800763  0.20619820  0.76111395  1
  Ta  Ta94  1  -0.00490252  0.40685831  0.00195260  1
  Ta  Ta95  1  0.60322913  0.20212237  0.25822851  1
  Ta  Ta96  1  0.80498955  -0.00480032  0.49729234  1
  Ta  Ta97  1  0.60187165  0.79181465  0.23736510  1
  Ta  Ta98  1  0.91509420  0.91080176  0.88668532  1
  Ta  Ta99  1  0.49390407  0.68624511  0.37311229  1
  Ta  Ta100  1  0.60420114  0.59856733  0.49884763  1
  Ta  Ta101  1  0.59977513  0.19457216  0.75355324  1
  Ta  Ta102  1  0.40735548  0.79326165  0.76789744  1
  Ta  Ta103  1  0.00591399  0.21308289  0.49752885  1
  Ta  Ta104  1  0.51051023  0.30689239  0.86123716  1
  Ta  Ta105  1  0.89102550  0.31317509  0.87307264  1
  Ta  Ta106  1  -0.01453054  0.80009819  0.24543463  1
  Ta  Ta107  1  0.91483897  0.48685349  0.62339648  1
  Ta  Ta108  1  0.70275194  0.10946996  0.13901861  1
  Ta  Ta109  1  0.89730297  0.11048262  0.13680655  1
  Ta  Ta110  1  0.19736342  0.20833495  0.50605839  1
  Ta  Ta111  1  0.61495832  -0.01298389  0.73939322  1
  Ta  Ta112  1  0.30367479  0.31477651  0.61374347  1
  Ta  Ta113  1  0.60342904  0.61178115  0.75727354  1
  Ta  Ta114  1  0.89623462  0.30057132  0.62531887  1
  Ta  Ta115  1  0.40151265  0.40326494  0.25442479  1
  Ta  Ta116  1  0.50235746  0.09634460  0.64090572  1
  Ta  Ta117  1  0.09946048  0.71359255  0.36669992  1
  Ta  Ta118  1  0.40608981  -0.00217141  0.50609614  1
  Ta  Ta119  1  0.08495444  0.08957894  0.87005148  1
  Ti  Ti120  1  0.80024238  0.40961963  0.00476104  1
  Ti  Ti121  1  0.30775931  0.10030533  0.38694581  1
  Ti  Ti122  1  0.48684498  0.50613419  0.12970215  1
  Ti  Ti123  1  0.18611684  0.79896438  0.24300275  1
  Ti  Ti124  1  0.69130537  0.70532025  0.62226134  1
  Ti  Ti125  1  0.71624806  0.88595752  0.12882759  1
  Ti  Ti126  1  0.59366658  0.78943907  0.49627811  1
  Ti  Ti127  1  0.20882414  0.79426917  -0.01031292  1
  Ti  Ti128  1  0.50747892  0.29802493  0.37625189  1
  Ti  Ti129  1  0.39360529  0.60053749  -0.00694497  1
  Ti  Ti130  1  0.50056328  0.88744556  0.12402028  1
  Ti  Ti131  1  0.29724470  0.50216696  0.13750207  1
  Ti  Ti132  1  0.59814432  0.39917952  0.74475965  1
  Ti  Ti133  1  0.80489425  0.40895058  0.49352971  1
  Ti  Ti134  1  0.00796438  0.61239206  0.23892716  1
  Ti  Ti135  1  0.49243472  0.49081933  0.63199495  1
  Ti  Ti136  1  0.49331613  0.51494644  0.86199824  1
  Ti  Ti137  1  0.20235144  0.41286974  -0.01442715  1
  Ti  Ti138  1  0.40315495  0.20601987  0.75563292  1
  Ti  Ti139  1  0.90617378  0.10642389  0.61941260  1
  Ti  Ti140  1  0.09760746  0.68452004  0.63065696  1
  Ti  Ti141  1  0.69930159  0.30062645  0.13173804  1
  Ti  Ti142  1  0.78951865  0.59568406  0.00337383  1
  Ti  Ti143  1  0.09424961  0.89887943  0.37421990  1
  Ti  Ti144  1  0.70212902  0.69405697  0.12946547  1
  Ti  Ti145  1  0.89941525  0.09931687  0.87762104  1
  Ti  Ti146  1  0.00225596  0.59348763  0.00597880  1
  Ti  Ti147  1  0.40316706  0.59364068  0.49852591  1
  Ti  Ti148  1  0.20652253  0.79721541  0.76470085  1
  Ti  Ti149  1  -0.01751492  0.42053448  0.24392394  1
  Ti  Ti150  1  0.70121681  0.49055961  0.38117496  1
  Ti  Ti151  1  0.09445253  0.10404689  0.62614607  1
  Ti  Ti152  1  0.90847379  0.32430299  0.37461222  1
  Ti  Ti153  1  0.19455588  -0.00134236  0.74735708  1
  Ti  Ti154  1  0.40366124  -0.00072785  0.75988186  1
  Ti  Ti155  1  0.01054487  0.57954709  0.75380912  1
  Ti  Ti156  1  0.60374996  0.39234775  0.24973046  1
  Ti  Ti157  1  0.30595072  0.68619559  0.86669675  1
  Ti  Ti158  1  0.90426701  0.88014776  0.37747654  1
  Ti  Ti159  1  0.01152304  0.78627973  0.49779301  1
  Mo  Mo160  1  0.39896753  0.59833328  0.75630662  1
  Mo  Mo161  1  0.60311456  0.79458426  0.75057838  1
  Mo  Mo162  1  0.50135919  0.69689129  0.12800019  1
  Mo  Mo163  1  0.79421005  0.59175278  0.49831882  1
  Mo  Mo164  1  0.50381479  0.09584339  0.85285547  1
  Mo  Mo165  1  0.49273629  0.29829069  0.64641349  1
  Mo  Mo166  1  0.69823538  0.30770062  0.37229974  1
  Mo  Mo167  1  0.70278001  0.89358046  0.61593749  1
  Mo  Mo168  1  0.90120235  0.89883313  0.11921666  1
  Mo  Mo169  1  0.10281996  0.88641858  0.11967213  1
  Mo  Mo170  1  0.50455606  0.69503924  0.87055985  1
  Mo  Mo171  1  0.29681426  0.30559657  0.87480239  1
  Mo  Mo172  1  0.80249773  0.80327328  -0.00044243  1
  Mo  Mo173  1  0.08657988  0.51166253  0.61681674  1
  Mo  Mo174  1  0.21158352  0.59537275  0.00185309  1
  Mo  Mo175  1  0.29331211  0.70557833  0.36207346  1
  Mo  Mo176  1  0.90112263  0.50545925  0.11558116  1
  Mo  Mo177  1  0.19226111  0.61162726  0.25136250  1
  Mo  Mo178  1  0.28348232  0.51604574  0.87507867  1
  Mo  Mo179  1  0.40246043  0.59174550  0.25098102  1
  Mo  Mo180  1  -0.01129413  0.39819919  0.75381090  1
  Mo  Mo181  1  -0.01287256  0.39707455  0.49672175  1
  Mo  Mo182  1  0.80358188  0.79516898  0.25025123  1
  Mo  Mo183  1  0.70055920  0.68470245  0.87559617  1
  Mo  Mo184  1  0.00227560  0.00554072  0.74858361  1
  Mo  Mo185  1  0.29952583  0.89598094  0.86203239  1
  Mo  Mo186  1  0.69874428  0.29892088  0.86214166  1
  Mo  Mo187  1  0.19459971  0.20102182  -0.01384034  1
  Mo  Mo188  1  0.08901945  0.49907813  0.88810573  1
  Mo  Mo189  1  0.10065678  0.10125521  0.12802359  1
  Mo  Mo190  1  0.19197400  0.80798434  0.50109311  1
  Mo  Mo191  1  -0.00921217  0.60255494  0.49883892  1
  Mo  Mo192  1  0.71023397  0.48902407  0.12641889  1
  Mo  Mo193  1  0.09998609  0.30099672  0.38316688  1
  Mo  Mo194  1  0.19200223  0.61061188  0.75044339  1
  Mo  Mo195  1  0.88477709  0.51190500  0.37753492  1
  Mo  Mo196  1  0.81152096  0.40319297  0.74940561  1
  Mo  Mo197  1  0.01488622  0.80765119  -0.00187359  1
  Mo  Mo198  1  0.39648240  0.40502834  0.50522809  1
  Mo  Mo199  1  0.91741180  0.69192883  0.37800977  1
