# generated using pymatgen
data_HfZrTaTiMo
_symmetry_space_group_name_H-M   'P 1'
_cell_length_a   15.21227045
_cell_length_b   15.22352780
_cell_length_c   16.84948702
_cell_angle_alpha   90.01006139
_cell_angle_beta   89.99046680
_cell_angle_gamma   89.94435209
_symmetry_Int_Tables_number   1
_chemical_formula_structural   HfZrTaTiMo
_chemical_formula_sum   'Hf40 Zr40 Ta40 Ti40 Mo40'
_cell_volume   3902.07675935
_cell_formula_units_Z   40
loop_
 _symmetry_equiv_pos_site_id
 _symmetry_equiv_pos_as_xyz
  1  'x, y, z'
loop_
 _atom_site_type_symbol
 _atom_site_label
 _atom_site_symmetry_multiplicity
 _atom_site_fract_x
 _atom_site_fract_y
 _atom_site_fract_z
 _atom_site_occupancy
  Hf  Hf0  1  0.19834596  0.00217978  0.51611519  1
  Hf  Hf1  1  0.01912123  -0.00141027  -0.00250061  1
  Hf  Hf2  1  0.50485115  0.49643585  0.13161377  1
  Hf  Hf3  1  0.68474306  0.08225692  0.13285265  1
  Hf  Hf4  1  0.89837438  0.89264304  0.63532594  1
  Hf  Hf5  1  -0.00118498  0.00164472  0.25474073  1
  Hf  Hf6  1  0.89215404  0.10123991  0.87857461  1
  Hf  Hf7  1  0.59614158  0.02614772  0.51125043  1
  Hf  Hf8  1  0.19784389  0.61050745  0.25233672  1
  Hf  Hf9  1  0.39525716  -0.00608467  0.73346535  1
  Hf  Hf10  1  0.60136759  0.79246875  0.50664420  1
  Hf  Hf11  1  0.30343156  0.69779137  0.12199105  1
  Hf  Hf12  1  0.00734809  0.59571612  -0.00244445  1
  Hf  Hf13  1  0.10880083  0.89613416  0.38378541  1
  Hf  Hf14  1  0.20301386  0.40186618  0.73593494  1
  Hf  Hf15  1  0.41403824  0.39116964  0.50743997  1
  Hf  Hf16  1  0.51285310  0.48526113  0.37043614  1
  Hf  Hf17  1  0.90017863  0.49257010  0.11630930  1
  Hf  Hf18  1  0.70210531  0.90645162  0.62512190  1
  Hf  Hf19  1  0.00415913  0.00163497  0.74175072  1
  Hf  Hf20  1  0.20547192  0.61049294  0.75557023  1
  Hf  Hf21  1  0.29658390  0.10340003  0.86691084  1
  Hf  Hf22  1  0.19567096  0.81301070  0.00299145  1
  Hf  Hf23  1  0.58964652  0.40732358  -0.00754624  1
  Hf  Hf24  1  0.70062450  0.28681240  0.88482558  1
  Hf  Hf25  1  0.00207770  0.20326287  -0.00023537  1
  Hf  Hf26  1  0.51867055  0.70517659  0.12651127  1
  Hf  Hf27  1  0.68087444  0.89810322  0.85683043  1
  Hf  Hf28  1  0.49880652  0.09442162  0.86921180  1
  Hf  Hf29  1  0.20972880  0.59862039  -0.00370154  1
  Hf  Hf30  1  0.79177977  -0.01570771  0.25103113  1
  Hf  Hf31  1  0.67716889  0.10678504  0.36020583  1
  Hf  Hf32  1  0.72109447  0.49840470  0.88365544  1
  Hf  Hf33  1  0.90329212  0.89493098  0.38516987  1
  Hf  Hf34  1  -0.01587485  0.20757088  0.75364031  1
  Hf  Hf35  1  0.41222140  0.59268099  -0.01400446  1
  Hf  Hf36  1  0.89072870  0.68421730  0.87809315  1
  Hf  Hf37  1  0.19850615  0.18985647  0.00515193  1
  Hf  Hf38  1  0.91233725  0.69494995  0.62943143  1
  Hf  Hf39  1  -0.00343445  0.00075362  0.51346758  1
  Zr  Zr40  1  0.09814732  0.30016125  0.87072209  1
  Zr  Zr41  1  0.60856316  0.62475370  -0.01933349  1
  Zr  Zr42  1  0.69568588  0.31661448  0.36290976  1
  Zr  Zr43  1  0.10655486  0.49807846  0.13343388  1
  Zr  Zr44  1  0.39667413  0.59055276  0.26338042  1
  Zr  Zr45  1  0.89889239  0.88590406  0.86211869  1
  Zr  Zr46  1  0.10197941  0.29895309  0.38485944  1
  Zr  Zr47  1  0.30546704  0.90263843  0.87623787  1
  Zr  Zr48  1  0.58232819  0.19209794  0.01280295  1
  Zr  Zr49  1  0.79706558  0.61360915  0.24719971  1
  Zr  Zr50  1  0.81289791  0.58048755  0.74557111  1
  Zr  Zr51  1  0.10305046  0.50004106  0.87276405  1
  Zr  Zr52  1  0.08023332  0.31053698  0.61302369  1
  Zr  Zr53  1  0.80277593  0.19652143  0.24811741  1
  Zr  Zr54  1  0.69542955  0.31504516  0.12382826  1
  Zr  Zr55  1  0.40549985  0.00292195  0.00465880  1
  Zr  Zr56  1  0.40743484  0.60887097  0.77071675  1
  Zr  Zr57  1  0.70504619  0.90166291  0.39175790  1
  Zr  Zr58  1  0.29462044  0.71583948  0.38736082  1
  Zr  Zr59  1  0.78438460  -0.02082690  -0.00039588  1
  Zr  Zr60  1  0.89596068  0.49283144  0.37174889  1
  Zr  Zr61  1  0.30572655  0.52708108  0.62217556  1
  Zr  Zr62  1  0.11065337  0.50317306  0.37119575  1
  Zr  Zr63  1  -0.00309541  0.58963435  0.49659768  1
  Zr  Zr64  1  0.51509865  0.50104246  0.62585199  1
  Zr  Zr65  1  0.40796717  0.80009126  0.24954508  1
  Zr  Zr66  1  0.00484087  0.19429551  0.25368815  1
  Zr  Zr67  1  0.20134480  0.19984679  0.72644339  1
  Zr  Zr68  1  0.21009710  0.19849072  0.51598792  1
  Zr  Zr69  1  0.60478045  0.60869150  0.76540963  1
  Zr  Zr70  1  0.20456257  0.80381525  0.74340379  1
  Zr  Zr71  1  0.89665121  0.89064687  0.12277085  1
  Zr  Zr72  1  0.38723850  0.00437416  0.49498113  1
  Zr  Zr73  1  0.21070932  0.41318162  0.50319283  1
  Zr  Zr74  1  0.50234205  0.90278474  0.37643693  1
  Zr  Zr75  1  0.88063886  0.30306005  0.62131760  1
  Zr  Zr76  1  0.70869711  0.47750131  0.62834108  1
  Zr  Zr77  1  0.40617586  0.39757817  0.74119311  1
  Zr  Zr78  1  0.90546667  0.30117262  0.12120991  1
  Zr  Zr79  1  0.89246331  0.69806329  0.11347200  1
  Ta  Ta80  1  0.40810817  0.19915054  0.73114822  1
  Ta  Ta81  1  0.70353507  0.51879698  0.11079008  1
  Ta  Ta82  1  0.59368088  0.01302643  0.73038371  1
  Ta  Ta83  1  0.38324142  0.00172273  0.25947970  1
  Ta  Ta84  1  0.20400781  0.39154375  0.00394661  1
  Ta  Ta85  1  0.09513154  0.71487025  0.87495733  1
  Ta  Ta86  1  0.19960520  0.81184096  0.24731526  1
  Ta  Ta87  1  0.60613267  0.82725107  0.00219127  1
  Ta  Ta88  1  0.49161688  0.69448436  0.61611347  1
  Ta  Ta89  1  0.30498521  0.90482014  0.12746688  1
  Ta  Ta90  1  0.57652266  0.21672983  0.23629466  1
  Ta  Ta91  1  0.79503279  0.19124687  0.00796211  1
  Ta  Ta92  1  0.31317568  0.29343723  0.37690204  1
  Ta  Ta93  1  0.19667026  0.00390311  0.72344458  1
  Ta  Ta94  1  0.48914068  0.89258563  0.61221268  1
  Ta  Ta95  1  0.62637284  0.80369238  0.25230598  1
  Ta  Ta96  1  0.40840168  0.38147200  0.24782908  1
  Ta  Ta97  1  0.70627757  0.69906327  0.38321830  1
  Ta  Ta98  1  0.41175609  0.80295832  0.00729536  1
  Ta  Ta99  1  0.09452035  0.70796589  0.38957447  1
  Ta  Ta100  1  0.40304278  0.59805252  0.48323038  1
  Ta  Ta101  1  0.77751042  0.19803284  0.49379496  1
  Ta  Ta102  1  -0.02112915  0.19076687  0.49632725  1
  Ta  Ta103  1  0.48213698  0.09497347  0.14141842  1
  Ta  Ta104  1  0.87940710  0.10478778  0.63011445  1
  Ta  Ta105  1  0.69098425  0.09483570  0.87593367  1
  Ta  Ta106  1  0.11167262  0.69821989  0.60764249  1
  Ta  Ta107  1  0.39395761  0.39020815  0.00312423  1
  Ta  Ta108  1  0.09474586  0.51135648  0.62528309  1
  Ta  Ta109  1  0.00251616  0.39707761  0.25263138  1
  Ta  Ta110  1  0.00253729  0.79333445  0.25135412  1
  Ta  Ta111  1  0.53174157  0.28955661  0.62371038  1
  Ta  Ta112  1  0.89944612  0.70375087  0.38066600  1
  Ta  Ta113  1  0.90095491  0.09215086  0.11697685  1
  Ta  Ta114  1  0.10975000  0.91385313  0.13104068  1
  Ta  Ta115  1  0.48976734  0.29443528  0.87308939  1
  Ta  Ta116  1  0.27953759  0.09141866  0.12977041  1
  Ta  Ta117  1  0.30172050  0.29568643  0.87237537  1
  Ta  Ta118  1  0.60457887  0.59088277  0.49692594  1
  Ta  Ta119  1  0.50495650  0.28994983  0.37732116  1
  Ti  Ti120  1  0.40811769  0.19515299  0.51466368  1
  Ti  Ti121  1  0.91073463  0.48893399  0.61766345  1
  Ti  Ti122  1  0.70157942  0.50576434  0.37567736  1
  Ti  Ti123  1  0.80119250  0.01481070  0.50190519  1
  Ti  Ti124  1  0.60798809  0.60200434  0.25164558  1
  Ti  Ti125  1  0.40007893  0.79769771  0.74260817  1
  Ti  Ti126  1  0.10415743  0.90362051  0.86417280  1
  Ti  Ti127  1  0.30365261  0.48735717  0.12658574  1
  Ti  Ti128  1  0.10989178  0.30091842  0.13054320  1
  Ti  Ti129  1  0.09653040  0.88185789  0.62173290  1
  Ti  Ti130  1  -0.00889521  0.41220012  0.75464140  1
  Ti  Ti131  1  0.80647144  0.79127034  0.51149018  1
  Ti  Ti132  1  0.38896514  0.20618927  0.01412350  1
  Ti  Ti133  1  0.50466434  0.73736240  0.87510517  1
  Ti  Ti134  1  0.30590985  0.71802990  0.60064255  1
  Ti  Ti135  1  0.19799592  0.00966468  0.26061224  1
  Ti  Ti136  1  0.21513462  0.39537919  0.25580508  1
  Ti  Ti137  1  0.89898625  0.29494691  0.37800314  1
  Ti  Ti138  1  0.81013909  0.37770930  0.76542467  1
  Ti  Ti139  1  0.47997616  0.11073783  0.36326194  1
  Ti  Ti140  1  0.38156876  0.20041576  0.24294892  1
  Ti  Ti141  1  0.79831334  0.39783719  0.49464131  1
  Ti  Ti142  1  0.69488704  0.68854988  0.62468298  1
  Ti  Ti143  1  0.51346383  0.91155960  0.13738081  1
  Ti  Ti144  1  0.09692460  0.71140585  0.12480786  1
  Ti  Ti145  1  0.19964145  0.20020718  0.25192697  1
  Ti  Ti146  1  0.10706101  0.09552518  0.86671331  1
  Ti  Ti147  1  0.00855240  0.60333440  0.75358866  1
  Ti  Ti148  1  -0.00326449  0.80366172  -0.00285039  1
  Ti  Ti149  1  0.51251345  0.69843764  0.37610002  1
  Ti  Ti150  1  0.09726365  0.10138999  0.38459238  1
  Ti  Ti151  1  0.79691255  0.40996215  0.24499872  1
  Ti  Ti152  1  0.30854975  0.48571144  0.87578409  1
  Ti  Ti153  1  0.30202415  0.71023801  0.88433007  1
  Ti  Ti154  1  0.60743314  0.38930631  0.76257727  1
  Ti  Ti155  1  -0.00102478  0.60257710  0.25283179  1
  Ti  Ti156  1  0.79530966  0.59787431  0.50522006  1
  Ti  Ti157  1  0.58793187  0.80397141  0.73379548  1
  Ti  Ti158  1  0.78892047  0.78343994  0.74568364  1
  Ti  Ti159  1  0.79133281  0.01086285  0.74929862  1
  Mo  Mo160  1  0.48657482  0.29974920  0.12435957  1
  Mo  Mo161  1  0.61408263  0.39403606  0.49790452  1
  Mo  Mo162  1  0.79944971  0.59684960  -0.00088509  1
  Mo  Mo163  1  0.19873782  0.00065926  0.00017513  1
  Mo  Mo164  1  0.59025469  -0.00004128  0.00197549  1
  Mo  Mo165  1  0.78283835  0.78445095  -0.01147717  1
  Mo  Mo166  1  0.50154647  0.10063320  0.62478571  1
  Mo  Mo167  1  0.60192744  0.41021662  0.24155299  1
  Mo  Mo168  1  0.01478048  0.39462114  0.00488469  1
  Mo  Mo169  1  0.30270194  0.10224252  0.62801790  1
  Mo  Mo170  1  0.91076065  0.47955573  0.88776060  1
  Mo  Mo171  1  0.00664918  0.78967754  0.75210632  1
  Mo  Mo172  1  0.31802655  0.30700793  0.62186660  1
  Mo  Mo173  1  0.28800518  0.11224875  0.37007263  1
  Mo  Mo174  1  0.30025379  0.89142420  0.62118236  1
  Mo  Mo175  1  0.69454196  0.88715393  0.13009957  1
  Mo  Mo176  1  0.31089051  0.49091408  0.37169150  1
  Mo  Mo177  1  0.09708726  0.09860737  0.13139456  1
  Mo  Mo178  1  0.20183564  0.80952738  0.50521987  1
  Mo  Mo179  1  0.58336992  0.00215076  0.25481831  1
  Mo  Mo180  1  0.49914686  0.90343598  0.86422820  1
  Mo  Mo181  1  0.59288692  0.21011322  0.49336082  1
  Mo  Mo182  1  -0.00245058  0.79717651  0.50312795  1
  Mo  Mo183  1  -0.00713926  0.39297375  0.49601498  1
  Mo  Mo184  1  0.08190959  0.10038152  0.62326303  1
  Mo  Mo185  1  0.79165843  0.19298655  0.76002343  1
  Mo  Mo186  1  0.70201943  0.71165857  0.86546520  1
  Mo  Mo187  1  0.50119459  0.48023932  0.87378275  1
  Mo  Mo188  1  0.20448463  0.60453065  0.49562299  1
  Mo  Mo189  1  0.70456907  0.29228908  0.63107573  1
  Mo  Mo190  1  0.29233650  0.29973100  0.13157702  1
  Mo  Mo191  1  0.88959209  0.10098584  0.38480115  1
  Mo  Mo192  1  0.29436159  0.90974441  0.36730054  1
  Mo  Mo193  1  0.80490028  0.39377275  -0.00174092  1
  Mo  Mo194  1  0.89388812  0.30620681  0.88992439  1
  Mo  Mo195  1  0.40762259  0.79856708  0.49309175  1
  Mo  Mo196  1  0.69785901  0.11931710  0.62959517  1
  Mo  Mo197  1  0.59980433  0.20169542  0.75681450  1
  Mo  Mo198  1  0.81032636  0.79684000  0.25965200  1
  Mo  Mo199  1  0.70140810  0.71039045  0.12193822  1
