# generated using pymatgen
data_HfZrTaTiMo
_symmetry_space_group_name_H-M   'P 1'
_cell_length_a   15.21919935
_cell_length_b   15.21211177
_cell_length_c   16.83393134
_cell_angle_alpha   89.99991742
_cell_angle_beta   90.04327173
_cell_angle_gamma   89.97942283
_symmetry_Int_Tables_number   1
_chemical_formula_structural   HfZrTaTiMo
_chemical_formula_sum   'Hf40 Zr40 Ta40 Ti40 Mo40'
_cell_volume   3897.32580392
_cell_formula_units_Z   40
loop_
 _symmetry_equiv_pos_site_id
 _symmetry_equiv_pos_as_xyz
  1  'x, y, z'
loop_
 _atom_site_type_symbol
 _atom_site_label
 _atom_site_symmetry_multiplicity
 _atom_site_fract_x
 _atom_site_fract_y
 _atom_site_fract_z
 _atom_site_occupancy
  Hf  Hf0  1  0.51701050  0.29776161  0.39873907  1
  Hf  Hf1  1  0.69660591  0.70582554  0.37945380  1
  Hf  Hf2  1  0.00796192  0.18230154  0.74966587  1
  Hf  Hf3  1  -0.00182579  0.39340973  0.74233767  1
  Hf  Hf4  1  0.80831005  0.38111047  0.27083816  1
  Hf  Hf5  1  0.39102609  0.80178410  0.74819156  1
  Hf  Hf6  1  0.20379051  -0.00311066  0.23242622  1
  Hf  Hf7  1  0.78684182  0.19286917  -0.00956718  1
  Hf  Hf8  1  0.30955644  0.29334625  0.88673386  1
  Hf  Hf9  1  0.89556751  0.50214042  0.61636504  1
  Hf  Hf10  1  0.89862272  0.49528216  0.86654933  1
  Hf  Hf11  1  0.88502692  0.29132040  0.12219159  1
  Hf  Hf12  1  0.31047991  0.30486386  0.38514416  1
  Hf  Hf13  1  0.20417708  0.60250930  0.51611863  1
  Hf  Hf14  1  -0.01399419  0.00682829  0.49043356  1
  Hf  Hf15  1  0.39569827  0.80266273  0.23897304  1
  Hf  Hf16  1  0.69004685  0.49218157  0.61170934  1
  Hf  Hf17  1  0.49948353  0.50896775  0.37904330  1
  Hf  Hf18  1  0.30902214  0.49937068  0.87447024  1
  Hf  Hf19  1  0.10416502  0.30323422  0.37300595  1
  Hf  Hf20  1  0.70423739  0.49999169  0.86679314  1
  Hf  Hf21  1  0.08940300  0.30970116  0.13392705  1
  Hf  Hf22  1  0.92517656  0.09583880  0.88891131  1
  Hf  Hf23  1  0.90230033  0.28948542  0.60473478  1
  Hf  Hf24  1  0.31296234  0.09562854  0.36760263  1
  Hf  Hf25  1  0.89160704  0.69423610  0.11651045  1
  Hf  Hf26  1  0.18839945  0.81356521  0.74820479  1
  Hf  Hf27  1  0.29128050  0.92117515  0.88754328  1
  Hf  Hf28  1  0.47864304  0.10797028  0.88088288  1
  Hf  Hf29  1  0.92007129  0.49509681  0.14449300  1
  Hf  Hf30  1  0.21287017  0.18852876  0.74834636  1
  Hf  Hf31  1  0.78687596  0.80675776  0.24424473  1
  Hf  Hf32  1  0.89153327  0.90155476  0.11925360  1
  Hf  Hf33  1  -0.00097714  0.61216135  0.74225312  1
  Hf  Hf34  1  0.21485931  0.39659318  0.73664861  1
  Hf  Hf35  1  0.41981522  0.21341298  0.25537869  1
  Hf  Hf36  1  0.32677820  0.30318426  0.11270516  1
  Hf  Hf37  1  0.09133795  0.10327985  0.35754283  1
  Hf  Hf38  1  0.40743162  0.17709925  0.50694874  1
  Hf  Hf39  1  0.92612388  0.88930427  0.89569947  1
  Zr  Zr40  1  0.21306300  0.61387646  0.73724073  1
  Zr  Zr41  1  0.19641576  0.59904111  0.24978783  1
  Zr  Zr42  1  0.58806722  0.80398605  0.24952892  1
  Zr  Zr43  1  0.70894102  0.28472832  0.60458632  1
  Zr  Zr44  1  0.19750765  0.79641054  0.24175397  1
  Zr  Zr45  1  0.59301580  -0.00441177  -0.00400084  1
  Zr  Zr46  1  0.87431315  0.10101213  0.35640608  1
  Zr  Zr47  1  0.50613948  0.12158551  0.11252896  1
  Zr  Zr48  1  0.10090393  0.29251952  0.61471771  1
  Zr  Zr49  1  0.29781934  0.89619105  0.37631135  1
  Zr  Zr50  1  0.60598985  0.80991644  0.50272639  1
  Zr  Zr51  1  0.18924063  0.80254177  0.50515323  1
  Zr  Zr52  1  0.08893317  0.69782885  0.37965258  1
  Zr  Zr53  1  0.79093052  0.79181692  0.76234472  1
  Zr  Zr54  1  0.29749286  0.70685733  0.10033619  1
  Zr  Zr55  1  0.30403088  0.50719803  0.11253282  1
  Zr  Zr56  1  0.79137340  0.18845608  0.76008072  1
  Zr  Zr57  1  0.52113003  0.30368661  0.61438819  1
  Zr  Zr58  1  0.89214870  0.29896155  0.87826083  1
  Zr  Zr59  1  0.88803202  0.89462891  0.36818786  1
  Zr  Zr60  1  0.78949585  -0.00898451  -0.01507277  1
  Zr  Zr61  1  0.50768163  0.49791654  0.85995860  1
  Zr  Zr62  1  0.30381914  0.50683230  0.38112901  1
  Zr  Zr63  1  0.70863439  0.49327662  0.14283355  1
  Zr  Zr64  1  0.89767274  0.08247785  0.62856616  1
  Zr  Zr65  1  0.89431671  0.69125344  0.88632084  1
  Zr  Zr66  1  0.10685235  0.50099975  0.86565035  1
  Zr  Zr67  1  0.61164261  0.59626435  0.00121553  1
  Zr  Zr68  1  0.19879219  0.00514181  0.49551829  1
  Zr  Zr69  1  0.41182368  0.60512053  -0.00889995  1
  Zr  Zr70  1  0.80232855  -0.01433632  0.77156304  1
  Zr  Zr71  1  0.20792220  0.40216779  0.24414461  1
  Zr  Zr72  1  0.50112278  0.93036181  0.38250890  1
  Zr  Zr73  1  -0.00724134  0.39492584  -0.00127611  1
  Zr  Zr74  1  0.41046538  0.00207925  0.22544041  1
  Zr  Zr75  1  0.09977467  0.28533453  0.88173883  1
  Zr  Zr76  1  0.09893558  0.71401029  0.88818178  1
  Zr  Zr77  1  0.09224274  0.68469867  0.11539627  1
  Zr  Zr78  1  0.39760142  0.80362271  0.51092835  1
  Zr  Zr79  1  0.19816504  0.19036637  0.01756117  1
  Ta  Ta80  1  0.60150909  0.38786465  0.26550086  1
  Ta  Ta81  1  0.40841792  0.41411759  0.51788415  1
  Ta  Ta82  1  0.80344244  0.58754382  0.00469395  1
  Ta  Ta83  1  0.79586787  0.59835443  0.73959652  1
  Ta  Ta84  1  0.19889837  0.41021960  0.00512053  1
  Ta  Ta85  1  0.71076625  0.09740229  0.12798212  1
  Ta  Ta86  1  0.60589335  0.60566419  0.74188473  1
  Ta  Ta87  1  0.80858679  0.60717263  0.26554614  1
  Ta  Ta88  1  0.11902347  0.07729733  0.88474752  1
  Ta  Ta89  1  0.20621629  0.40314893  0.50957538  1
  Ta  Ta90  1  0.38631839  0.01265034  0.74629167  1
  Ta  Ta91  1  0.89295166  0.71224635  0.61778152  1
  Ta  Ta92  1  0.49753587  0.30912219  0.86687562  1
  Ta  Ta93  1  0.70008559  0.49902242  0.37573258  1
  Ta  Ta94  1  -0.01000228  0.78787119  0.24648442  1
  Ta  Ta95  1  0.50315434  0.69512629  0.12339839  1
  Ta  Ta96  1  0.79149478  0.39448717  0.73896077  1
  Ta  Ta97  1  0.40035765  0.60648977  0.52438021  1
  Ta  Ta98  1  0.50662027  0.48628973  0.12702161  1
  Ta  Ta99  1  0.59838367  0.00111410  0.76581213  1
  Ta  Ta100  1  0.00651154  0.40798973  0.49312605  1
  Ta  Ta101  1  0.29581280  0.91528879  0.62535298  1
  Ta  Ta102  1  0.50391185  0.91147603  0.63539655  1
  Ta  Ta103  1  -0.00846350  0.81532831  0.74427291  1
  Ta  Ta104  1  0.02450669  -0.00403930  0.02163142  1
  Ta  Ta105  1  0.77673126  -0.00171734  0.50169305  1
  Ta  Ta106  1  0.07837740  0.91005437  0.62164318  1
  Ta  Ta107  1  0.70363269  0.69854096  0.61598928  1
  Ta  Ta108  1  0.50720141  0.70618998  0.63250910  1
  Ta  Ta109  1  0.08625207  0.90352741  0.35737203  1
  Ta  Ta110  1  0.51062519  0.71005482  0.86530541  1
  Ta  Ta111  1  0.20112538  0.19744101  0.49621155  1
  Ta  Ta112  1  0.09767003  0.50094678  0.62210460  1
  Ta  Ta113  1  0.40107950  0.20620131  0.73930273  1
  Ta  Ta114  1  0.68480706  0.29346779  0.12826368  1
  Ta  Ta115  1  0.69675380  0.69823278  0.12900722  1
  Ta  Ta116  1  0.80220526  0.60849946  0.48820037  1
  Ta  Ta117  1  0.68532805  0.30788266  0.86936982  1
  Ta  Ta118  1  0.21250447  0.20129238  0.24071058  1
  Ta  Ta119  1  0.40623658  0.60600252  0.24372492  1
  Ti  Ti120  1  0.50288519  0.09580133  0.63511513  1
  Ti  Ti121  1  0.41212228  0.40315997  0.72758093  1
  Ti  Ti122  1  0.69274694  0.08742990  0.63493648  1
  Ti  Ti123  1  0.80375100  0.40398896  0.48494571  1
  Ti  Ti124  1  0.30694144  0.29351974  0.61343145  1
  Ti  Ti125  1  0.17556642  0.82380544  0.01013047  1
  Ti  Ti126  1  0.40440247  0.60278301  0.73338089  1
  Ti  Ti127  1  0.59374728  0.21793558  -0.00902321  1
  Ti  Ti128  1  0.59225553  0.60003813  0.50226974  1
  Ti  Ti129  1  0.10255412  0.09860079  0.61688414  1
  Ti  Ti130  1  0.91042777  0.28900616  0.39494625  1
  Ti  Ti131  1  0.77888455  0.79043570  -0.00671845  1
  Ti  Ti132  1  0.08694016  0.10484037  0.14383751  1
  Ti  Ti133  1  0.60864225  -0.00277618  0.23256777  1
  Ti  Ti134  1  0.41094102  0.40845824  0.25198831  1
  Ti  Ti135  1  0.60233822  0.80298732  0.74987906  1
  Ti  Ti136  1  0.61603477  0.16564011  0.49469110  1
  Ti  Ti137  1  0.40907181  0.81880804  0.00327884  1
  Ti  Ti138  1  0.59676126  0.79621539  0.00049921  1
  Ti  Ti139  1  0.69609225  0.91675959  0.37313221  1
  Ti  Ti140  1  0.78080562  0.39882005  0.00326857  1
  Ti  Ti141  1  0.00775702  0.58551116  -0.00189966  1
  Ti  Ti142  1  0.10053561  0.50107760  0.37934292  1
  Ti  Ti143  1  0.91102660  0.50755326  0.37268710  1
  Ti  Ti144  1  0.71487201  0.27768820  0.39088274  1
  Ti  Ti145  1  -0.01517507  0.21460261  0.25190603  1
  Ti  Ti146  1  0.49089209  0.70288354  0.37846438  1
  Ti  Ti147  1  0.61509950  0.19328018  0.26053708  1
  Ti  Ti148  1  0.21009390  0.00486805  0.02871966  1
  Ti  Ti149  1  -0.00350757  0.60488955  0.50254401  1
  Ti  Ti150  1  0.48964708  0.90196924  0.87040828  1
  Ti  Ti151  1  0.59856537  0.59806853  0.25110779  1
  Ti  Ti152  1  -0.01640795  0.80437870  0.49853287  1
  Ti  Ti153  1  0.18858433  0.00289051  0.74466845  1
  Ti  Ti154  1  0.30019456  0.71094537  0.88966821  1
  Ti  Ti155  1  0.70462096  0.89912891  0.62985972  1
  Ti  Ti156  1  0.08911826  0.71005062  0.62094889  1
  Ti  Ti157  1  0.59674457  0.20195411  0.75436851  1
  Ti  Ti158  1  0.30449019  0.69629732  0.37804097  1
  Ti  Ti159  1  0.89950812  0.09947133  0.13061658  1
  Mo  Mo160  1  0.00854020  0.19334372  0.49157492  1
  Mo  Mo161  1  0.69103911  0.69193799  0.87451474  1
  Mo  Mo162  1  0.09122834  0.89796931  0.14110557  1
  Mo  Mo163  1  0.20009041  0.59919698  -0.01439399  1
  Mo  Mo164  1  0.01221014  -0.00822769  0.75123411  1
  Mo  Mo165  1  0.30278159  0.49590868  0.62778716  1
  Mo  Mo166  1  0.67192650  0.88164318  0.87536785  1
  Mo  Mo167  1  0.51489763  0.31152303  0.13058124  1
  Mo  Mo168  1  0.10249926  0.49605984  0.12108208  1
  Mo  Mo169  1  0.60309252  0.39854172  0.00079710  1
  Mo  Mo170  1  0.68435660  0.08798246  0.36836962  1
  Mo  Mo171  1  0.59395095  0.00016160  0.51536092  1
  Mo  Mo172  1  0.41975206  0.39704920  -0.00461847  1
  Mo  Mo173  1  0.80623974  0.17805087  0.49856231  1
  Mo  Mo174  1  0.29763982  0.10043630  0.87760955  1
  Mo  Mo175  1  0.61120737  0.40745742  0.48219873  1
  Mo  Mo176  1  -0.00512633  -0.00544727  0.23843975  1
  Mo  Mo177  1  -0.00253095  0.59731926  0.25754215  1
  Mo  Mo178  1  0.39165353  0.00468323  0.01410690  1
  Mo  Mo179  1  0.10264756  0.90706661  0.88205437  1
  Mo  Mo180  1  0.79021206  0.20146468  0.24626254  1
  Mo  Mo181  1  0.89105555  0.89446462  0.62093754  1
  Mo  Mo182  1  0.68264485  0.10454139  0.87080360  1
  Mo  Mo183  1  0.78677349  0.00031763  0.23789617  1
  Mo  Mo184  1  0.29679984  0.10222206  0.62484306  1
  Mo  Mo185  1  0.50903768  0.10133989  0.37171445  1
  Mo  Mo186  1  0.40603219  0.20282923  -0.00041114  1
  Mo  Mo187  1  -0.00013558  0.18365253  0.01421518  1
  Mo  Mo188  1  0.79918472  0.80634140  0.50305469  1
  Mo  Mo189  1  0.50474284  0.89309908  0.11592764  1
  Mo  Mo190  1  0.30321313  0.90032829  0.11024157  1
  Mo  Mo191  1  -0.00442517  0.79947704  0.01509106  1
  Mo  Mo192  1  0.89653164  0.69915036  0.37889545  1
  Mo  Mo193  1  0.60553186  0.39450699  0.74359357  1
  Mo  Mo194  1  0.69419519  0.89281966  0.11637989  1
  Mo  Mo195  1  0.29973861  0.71002265  0.63078535  1
  Mo  Mo196  1  0.50669452  0.50800510  0.62833090  1
  Mo  Mo197  1  0.40411497  0.00129613  0.51795554  1
  Mo  Mo198  1  0.30327059  0.11003376  0.13610453  1
  Mo  Mo199  1  0.00194848  0.40221352  0.27183765  1
