# generated using pymatgen
data_HfZrTaTiMo
_symmetry_space_group_name_H-M   'P 1'
_cell_length_a   15.20688444
_cell_length_b   15.20904340
_cell_length_c   16.84203817
_cell_angle_alpha   90.00430226
_cell_angle_beta   89.91985122
_cell_angle_gamma   89.92128915
_symmetry_Int_Tables_number   1
_chemical_formula_structural   HfZrTaTiMo
_chemical_formula_sum   'Hf40 Zr40 Ta40 Ti40 Mo40'
_cell_volume   3895.25555771
_cell_formula_units_Z   40
loop_
 _symmetry_equiv_pos_site_id
 _symmetry_equiv_pos_as_xyz
  1  'x, y, z'
loop_
 _atom_site_type_symbol
 _atom_site_label
 _atom_site_symmetry_multiplicity
 _atom_site_fract_x
 _atom_site_fract_y
 _atom_site_fract_z
 _atom_site_occupancy
  Hf  Hf0  1  0.00697980  0.58518903  0.49683522  1
  Hf  Hf1  1  0.51563467  0.71150593  0.37358432  1
  Hf  Hf2  1  0.80873176  0.00389607  0.26542363  1
  Hf  Hf3  1  0.48255235  0.10191751  0.63372197  1
  Hf  Hf4  1  0.08869778  0.71758751  0.89406507  1
  Hf  Hf5  1  0.70266591  0.10518632  0.85867591  1
  Hf  Hf6  1  0.59144168  0.21168204  0.51475207  1
  Hf  Hf7  1  0.89707376  0.09289991  0.11629772  1
  Hf  Hf8  1  0.79491336  0.79201182  0.25576553  1
  Hf  Hf9  1  0.30195715  0.71201805  0.36992363  1
  Hf  Hf10  1  0.10488033  0.08851419  0.61572986  1
  Hf  Hf11  1  0.09001980  0.30162883  0.36918931  1
  Hf  Hf12  1  0.49556800  0.50347765  0.12253468  1
  Hf  Hf13  1  0.29950099  0.08226419  0.39211056  1
  Hf  Hf14  1  0.49351824  0.69444151  0.63565957  1
  Hf  Hf15  1  0.89655360  0.30567069  0.64277309  1
  Hf  Hf16  1  0.62153049  0.80850477  0.74823452  1
  Hf  Hf17  1  0.91478696  0.70326051  0.61513061  1
  Hf  Hf18  1  0.80498101  -0.02306687  0.76445272  1
  Hf  Hf19  1  0.61724503  0.58532736  0.74543645  1
  Hf  Hf20  1  0.79841455  0.80102950  -0.00873863  1
  Hf  Hf21  1  0.40202755  0.00171213  -0.00406199  1
  Hf  Hf22  1  0.31559152  0.89996186  0.85669705  1
  Hf  Hf23  1  0.90130938  0.09598037  0.63770718  1
  Hf  Hf24  1  0.00986131  0.78938292  0.24596699  1
  Hf  Hf25  1  0.78857835  0.40704675  0.50994161  1
  Hf  Hf26  1  0.50540589  0.71752266  0.13428996  1
  Hf  Hf27  1  0.88937262  0.89518511  0.61990564  1
  Hf  Hf28  1  0.50543501  0.50291641  0.38331906  1
  Hf  Hf29  1  0.48254129  0.09724177  0.85948540  1
  Hf  Hf30  1  0.71092396  0.51712897  0.37273975  1
  Hf  Hf31  1  0.72583002  0.69641541  0.63070111  1
  Hf  Hf32  1  0.29888823  0.30154292  0.11446504  1
  Hf  Hf33  1  0.50291883  0.09639011  0.12521494  1
  Hf  Hf34  1  0.61411261  0.60078854  0.51031864  1
  Hf  Hf35  1  0.39151655  0.19107356  0.25273729  1
  Hf  Hf36  1  0.69223745  0.90587416  0.12812159  1
  Hf  Hf37  1  -0.00308890  0.19662905  -0.00743179  1
  Hf  Hf38  1  -0.00934475  -0.00141004  0.48421008  1
  Hf  Hf39  1  0.70929060  0.50053325  0.11408648  1
  Zr  Zr40  1  0.19257802  0.79924544  0.74200853  1
  Zr  Zr41  1  0.19590524  0.59343773  0.74822376  1
  Zr  Zr42  1  0.29734189  0.91372432  0.63390698  1
  Zr  Zr43  1  0.38975184  0.40778093  0.25165186  1
  Zr  Zr44  1  0.89818500  0.68069349  0.37373927  1
  Zr  Zr45  1  0.47057576  0.30649572  0.88259851  1
  Zr  Zr46  1  0.10046012  0.10613519  0.37599855  1
  Zr  Zr47  1  0.69522331  0.11101996  0.37131454  1
  Zr  Zr48  1  0.51203188  0.50017306  0.87912572  1
  Zr  Zr49  1  0.21394004  0.39585971  0.74710775  1
  Zr  Zr50  1  0.89001678  0.28069366  0.37136011  1
  Zr  Zr51  1  0.12342995  0.89568943  0.36792529  1
  Zr  Zr52  1  0.30418720  0.51493353  0.60566987  1
  Zr  Zr53  1  0.40849578  0.80556985  -0.00392193  1
  Zr  Zr54  1  0.68801280  0.31328462  0.37617237  1
  Zr  Zr55  1  0.90515881  0.89504067  0.11789570  1
  Zr  Zr56  1  0.79956378  0.39195937  0.24337932  1
  Zr  Zr57  1  0.59030937  0.18711296  -0.00596750  1
  Zr  Zr58  1  0.49640520  0.29722006  0.12027342  1
  Zr  Zr59  1  0.28938749  0.69283680  0.87722702  1
  Zr  Zr60  1  0.40423688  0.80412091  0.50780305  1
  Zr  Zr61  1  0.10216449  0.49543484  0.36607260  1
  Zr  Zr62  1  0.29963039  0.51227758  0.38828094  1
  Zr  Zr63  1  0.61582102  0.61432348  0.24502984  1
  Zr  Zr64  1  0.39862306  0.60432403  -0.00542546  1
  Zr  Zr65  1  0.70701906  0.68832735  0.87446184  1
  Zr  Zr66  1  0.49391058  0.29671328  0.37685863  1
  Zr  Zr67  1  0.70140073  0.08809869  0.63938112  1
  Zr  Zr68  1  0.79971457  0.19091152  0.50917250  1
  Zr  Zr69  1  0.20225429  0.19027214  0.74764276  1
  Zr  Zr70  1  -0.00983909  0.61259682  0.76054913  1
  Zr  Zr71  1  -0.00279879  0.39583289  -0.01286727  1
  Zr  Zr72  1  0.28630458  0.29731114  0.37973548  1
  Zr  Zr73  1  0.79203680  0.20465753  -0.00367594  1
  Zr  Zr74  1  0.68344552  0.30884880  0.86141800  1
  Zr  Zr75  1  0.18829967  0.18862579  0.00485486  1
  Zr  Zr76  1  0.91455526  0.49744587  0.11483372  1
  Zr  Zr77  1  0.00431932  0.20063593  0.76290843  1
  Zr  Zr78  1  0.60281698  0.61545934  0.00155609  1
  Zr  Zr79  1  0.59542745  -0.00065502  0.50486579  1
  Ta  Ta80  1  0.29885571  0.70626046  0.12686216  1
  Ta  Ta81  1  0.48808604  0.91006763  0.37645739  1
  Ta  Ta82  1  0.18398352  0.40382777  0.50851058  1
  Ta  Ta83  1  0.11182290  0.69310893  0.37555021  1
  Ta  Ta84  1  0.50251084  0.90771188  0.12953034  1
  Ta  Ta85  1  0.00307309  0.79893884  0.48412511  1
  Ta  Ta86  1  0.29130781  0.50838726  0.11520191  1
  Ta  Ta87  1  0.79685419  -0.01428384  0.48130005  1
  Ta  Ta88  1  0.49455104  0.71177913  0.85196694  1
  Ta  Ta89  1  0.82513935  0.78514715  0.76990113  1
  Ta  Ta90  1  0.39773652  0.58453818  0.75486132  1
  Ta  Ta91  1  0.79240816  0.42091704  0.75153503  1
  Ta  Ta92  1  0.59778097  0.40432591  0.24253634  1
  Ta  Ta93  1  0.19022586  0.19536887  0.23721258  1
  Ta  Ta94  1  0.88939471  0.50898358  0.62845728  1
  Ta  Ta95  1  0.90683327  0.09013922  0.87668615  1
  Ta  Ta96  1  0.60366426  0.39667250  0.00491549  1
  Ta  Ta97  1  0.69300724  0.30516000  0.64280649  1
  Ta  Ta98  1  0.10712142  0.51151886  0.88639320  1
  Ta  Ta99  1  0.19983982  0.60542165  0.23861158  1
  Ta  Ta100  1  0.10922911  0.69551228  0.61322447  1
  Ta  Ta101  1  -0.01428732  0.19169605  0.24028635  1
  Ta  Ta102  1  0.68470319  0.88854416  0.36927461  1
  Ta  Ta103  1  0.20911363  -0.00185884  0.23946218  1
  Ta  Ta104  1  0.09611639  0.30182494  0.62586823  1
  Ta  Ta105  1  0.79823594  0.79506888  0.48370338  1
  Ta  Ta106  1  0.30426357  0.47832945  0.88716477  1
  Ta  Ta107  1  0.00124489  0.41268368  0.76534599  1
  Ta  Ta108  1  0.20298202  0.80084183  0.50595324  1
  Ta  Ta109  1  0.90358236  0.48455625  0.37108708  1
  Ta  Ta110  1  0.61007083  0.80793356  0.51517874  1
  Ta  Ta111  1  0.88376649  0.30603285  0.86323827  1
  Ta  Ta112  1  0.92556674  0.89377879  0.89208258  1
  Ta  Ta113  1  0.00810886  -0.00194875  0.25008531  1
  Ta  Ta114  1  0.28037182  0.09267912  0.87651889  1
  Ta  Ta115  1  0.19951964  0.81520634  0.01183202  1
  Ta  Ta116  1  0.08870599  0.30152144  0.12825944  1
  Ta  Ta117  1  0.49956412  0.90471420  0.64362655  1
  Ta  Ta118  1  -0.00213869  0.20380273  0.50738906  1
  Ta  Ta119  1  0.11766947  0.91853235  0.88011870  1
  Ti  Ti120  1  0.30046198  0.30068922  0.61260883  1
  Ti  Ti121  1  0.29908909  0.09648817  0.11969914  1
  Ti  Ti122  1  0.30534376  0.90132395  0.12704963  1
  Ti  Ti123  1  0.40350090  0.39439834  0.49853061  1
  Ti  Ti124  1  0.08909265  0.49617806  0.62778017  1
  Ti  Ti125  1  0.29903222  0.10274146  0.60874707  1
  Ti  Ti126  1  0.01331649  -0.00535765  0.75537953  1
  Ti  Ti127  1  0.10333840  0.69022290  0.11119157  1
  Ti  Ti128  1  0.39944699  -0.00076260  0.25137792  1
  Ti  Ti129  1  0.58029330  0.39993594  0.74181674  1
  Ti  Ti130  1  0.09058384  0.89613011  0.61524932  1
  Ti  Ti131  1  0.19433530  0.40274836  0.23646155  1
  Ti  Ti132  1  0.81396157  0.59887652  0.23862160  1
  Ti  Ti133  1  0.88978905  0.29614646  0.12161310  1
  Ti  Ti134  1  0.69887278  0.09992276  0.13112494  1
  Ti  Ti135  1  0.59646516  0.81270635  -0.01796145  1
  Ti  Ti136  1  0.72350572  0.49472779  0.89564917  1
  Ti  Ti137  1  0.00417630  0.80948232  0.75223472  1
  Ti  Ti138  1  0.59258170  0.00503883  0.25876546  1
  Ti  Ti139  1  0.59655779  -0.00523453  0.75563960  1
  Ti  Ti140  1  0.19438483  0.20585249  0.50483434  1
  Ti  Ti141  1  0.39689596  0.81211953  0.25068243  1
  Ti  Ti142  1  0.11367498  0.30451516  0.87420310  1
  Ti  Ti143  1  0.03213404  -0.00398119  0.01195222  1
  Ti  Ti144  1  0.38404052  0.21672320  0.75040855  1
  Ti  Ti145  1  -0.00810903  0.39128447  0.50448364  1
  Ti  Ti146  1  0.58889267  0.20365229  0.74429034  1
  Ti  Ti147  1  0.69563594  0.29501881  0.12472243  1
  Ti  Ti148  1  0.60273306  -0.00930739  -0.01598913  1
  Ti  Ti149  1  0.70938329  0.70801197  0.11780704  1
  Ti  Ti150  1  0.19587151  0.40411663  0.00480757  1
  Ti  Ti151  1  0.39936287  0.60599901  0.24683823  1
  Ti  Ti152  1  -0.00114092  0.39525514  0.24202772  1
  Ti  Ti153  1  0.49879461  0.49406071  0.61706199  1
  Ti  Ti154  1  0.79567368  -0.00071607  -0.01241596  1
  Ti  Ti155  1  0.60207973  0.20370706  0.24804523  1
  Ti  Ti156  1  0.90650427  0.69362940  0.10863628  1
  Ti  Ti157  1  0.49175430  0.10302359  0.38638139  1
  Ti  Ti158  1  0.48445302  0.30619098  0.62706288  1
  Ti  Ti159  1  0.00790998  0.59152219  0.24406375  1
  Mo  Mo160  1  0.40725186  0.60621978  0.49993172  1
  Mo  Mo161  1  0.30744786  0.89845666  0.37081675  1
  Mo  Mo162  1  0.89916035  0.50200714  0.88361990  1
  Mo  Mo163  1  0.18959041  0.00046081  0.74683433  1
  Mo  Mo164  1  0.81004144  0.59991968  0.00653216  1
  Mo  Mo165  1  0.30068496  0.70053254  0.62353905  1
  Mo  Mo166  1  0.90251280  0.89351827  0.37146015  1
  Mo  Mo167  1  0.69735257  0.49436403  0.62945831  1
  Mo  Mo168  1  0.29381553  0.29419595  0.88904855  1
  Mo  Mo169  1  0.10603893  0.49558107  0.12785071  1
  Mo  Mo170  1  0.90344952  0.09741308  0.36968025  1
  Mo  Mo171  1  0.09340301  0.09154445  0.87772005  1
  Mo  Mo172  1  0.79716038  0.39090706  0.00064375  1
  Mo  Mo173  1  0.39334643  0.40186590  0.00873485  1
  Mo  Mo174  1  0.69812406  0.70452829  0.37997441  1
  Mo  Mo175  1  0.59535533  0.81796276  0.24934975  1
  Mo  Mo176  1  0.70804737  0.90308422  0.87914995  1
  Mo  Mo177  1  0.00889044  0.80742842  0.01447450  1
  Mo  Mo178  1  0.19813243  -0.00924952  0.50305707  1
  Mo  Mo179  1  0.40241936  0.00014820  0.50358104  1
  Mo  Mo180  1  0.19846521  0.60995502  0.50003211  1
  Mo  Mo181  1  0.39321718  0.20347930  0.50638728  1
  Mo  Mo182  1  0.40422059  0.79551055  0.74156355  1
  Mo  Mo183  1  0.90647578  0.69642702  0.89554627  1
  Mo  Mo184  1  0.00644575  0.60043958  -0.00173568  1
  Mo  Mo185  1  0.39435688  0.40379306  0.74330104  1
  Mo  Mo186  1  0.19824012  0.60133196  0.00783695  1
  Mo  Mo187  1  0.38520109  0.19133509  -0.00337000  1
  Mo  Mo188  1  0.38865170  0.01600934  0.74925125  1
  Mo  Mo189  1  0.11286415  0.89430538  0.13808429  1
  Mo  Mo190  1  0.20557770  0.79575559  0.23465998  1
  Mo  Mo191  1  0.79208199  0.19401819  0.23383160  1
  Mo  Mo192  1  0.81092909  0.59664839  0.75656418  1
  Mo  Mo193  1  0.59413087  0.40158097  0.51767854  1
  Mo  Mo194  1  0.20919476  -0.00525458  0.01108161  1
  Mo  Mo195  1  0.09715133  0.09600416  0.13600225  1
  Mo  Mo196  1  0.50737473  0.90167966  0.85741522  1
  Mo  Mo197  1  0.79757151  0.20275023  0.75448859  1
  Mo  Mo198  1  0.70805789  0.89460856  0.62253099  1
  Mo  Mo199  1  0.81094886  0.59687879  0.49967130  1
