# generated using pymatgen
data_HfZrTaTiMo
_symmetry_space_group_name_H-M   'P 1'
_cell_length_a   15.20810754
_cell_length_b   15.21516276
_cell_length_c   16.82857115
_cell_angle_alpha   89.94428002
_cell_angle_beta   90.01022962
_cell_angle_gamma   90.00271394
_symmetry_Int_Tables_number   1
_chemical_formula_structural   HfZrTaTiMo
_chemical_formula_sum   'Hf40 Zr40 Ta40 Ti40 Mo40'
_cell_volume   3894.02564920
_cell_formula_units_Z   40
loop_
 _symmetry_equiv_pos_site_id
 _symmetry_equiv_pos_as_xyz
  1  'x, y, z'
loop_
 _atom_site_type_symbol
 _atom_site_label
 _atom_site_symmetry_multiplicity
 _atom_site_fract_x
 _atom_site_fract_y
 _atom_site_fract_z
 _atom_site_occupancy
  Hf  Hf0  1  0.39982764  0.80763176  0.23986962  1
  Hf  Hf1  1  0.81247890  0.20414528  0.48458601  1
  Hf  Hf2  1  0.20159626  -0.00457195  0.50449182  1
  Hf  Hf3  1  0.08995537  0.28539954  0.63089330  1
  Hf  Hf4  1  0.40198374  0.80543796  0.00107405  1
  Hf  Hf5  1  0.10804753  0.69444727  0.11625877  1
  Hf  Hf6  1  0.20130765  0.39702505  0.50544083  1
  Hf  Hf7  1  0.10900901  0.50509618  0.85873211  1
  Hf  Hf8  1  0.40860460  0.39650860  0.50358614  1
  Hf  Hf9  1  0.80288984  0.17753923  0.77872879  1
  Hf  Hf10  1  0.89760164  0.50923264  0.85371395  1
  Hf  Hf11  1  0.59848624  0.41383355  -0.00253775  1
  Hf  Hf12  1  0.50896574  0.10871523  0.36747824  1
  Hf  Hf13  1  0.51228171  0.09953460  0.87582239  1
  Hf  Hf14  1  0.29360244  0.68496861  0.62378890  1
  Hf  Hf15  1  0.31167292  0.09341944  0.36867417  1
  Hf  Hf16  1  0.00681914  0.00570474  0.25136602  1
  Hf  Hf17  1  0.40622775  0.80039938  0.50484280  1
  Hf  Hf18  1  0.50518269  0.69143206  0.13385594  1
  Hf  Hf19  1  0.20900825  0.18360734  0.74295357  1
  Hf  Hf20  1  0.90651575  0.10006401  0.11362791  1
  Hf  Hf21  1  0.69588209  0.50632357  0.36894821  1
  Hf  Hf22  1  0.00184676  0.37888763  -0.02683423  1
  Hf  Hf23  1  -0.01493409  0.39113316  0.50727718  1
  Hf  Hf24  1  0.59823940  0.00501578  0.23075335  1
  Hf  Hf25  1  0.09632455  0.69231020  0.38040668  1
  Hf  Hf26  1  0.40064547  0.39817296  0.00146590  1
  Hf  Hf27  1  0.69901083  0.71990929  0.61762091  1
  Hf  Hf28  1  0.89817289  0.49812154  0.64467169  1
  Hf  Hf29  1  0.29316237  0.90287751  0.11753689  1
  Hf  Hf30  1  0.60259278  0.78648707  -0.01436495  1
  Hf  Hf31  1  0.07975290  0.89263060  0.63250630  1
  Hf  Hf32  1  0.40028665  -0.00067194  0.51167009  1
  Hf  Hf33  1  0.49953125  0.30125546  0.86966352  1
  Hf  Hf34  1  0.40840462  0.19431186  0.01182157  1
  Hf  Hf35  1  0.51314990  0.09633092  0.63642810  1
  Hf  Hf36  1  0.10920456  0.70468357  0.87983201  1
  Hf  Hf37  1  0.71033611  0.10933061  0.62564606  1
  Hf  Hf38  1  0.90734913  0.08943026  0.62759260  1
  Hf  Hf39  1  0.68885024  0.90688510  0.37956179  1
  Zr  Zr40  1  0.49619793  0.50696348  0.63691290  1
  Zr  Zr41  1  0.20342043  0.19059250  0.51309090  1
  Zr  Zr42  1  0.89502980  0.89135103  0.38311414  1
  Zr  Zr43  1  0.92282782  0.30156528  0.12299226  1
  Zr  Zr44  1  0.88975782  0.28675767  0.64218357  1
  Zr  Zr45  1  0.49068218  0.50255459  0.36651570  1
  Zr  Zr46  1  -0.01264567  0.79971271  0.24663943  1
  Zr  Zr47  1  0.10834953  0.50401752  0.63560506  1
  Zr  Zr48  1  -0.00164387  0.59167664  -0.00406028  1
  Zr  Zr49  1  0.80701956  0.82184560  0.75919985  1
  Zr  Zr50  1  0.30364246  0.29096942  0.37204151  1
  Zr  Zr51  1  0.80194274  -0.00598217  0.24392571  1
  Zr  Zr52  1  0.30266932  0.09506894  0.88654847  1
  Zr  Zr53  1  0.41669637  0.60167631  -0.00994013  1
  Zr  Zr54  1  0.17652475  0.39129243  0.25938235  1
  Zr  Zr55  1  0.89717662  0.71506133  0.11145523  1
  Zr  Zr56  1  0.30654944  0.69439934  0.37664960  1
  Zr  Zr57  1  0.69355410  0.49636067  0.64101254  1
  Zr  Zr58  1  0.69672245  0.91638821  0.61988931  1
  Zr  Zr59  1  0.81251947  0.60471553  0.51186004  1
  Zr  Zr60  1  0.80054498  0.61258518  0.25518135  1
  Zr  Zr61  1  0.30360894  0.49741122  0.86261640  1
  Zr  Zr62  1  0.29644348  0.50854203  0.12108110  1
  Zr  Zr63  1  0.59139984  0.59979611  0.50237834  1
  Zr  Zr64  1  0.19205121  0.79774478  0.50062895  1
  Zr  Zr65  1  0.49374450  0.90946041  0.87579619  1
  Zr  Zr66  1  0.77783632  0.39771292  0.49808028  1
  Zr  Zr67  1  0.50867994  0.70504350  0.36615458  1
  Zr  Zr68  1  0.79883142  0.40776716  -0.01734408  1
  Zr  Zr69  1  0.39643735  0.79330085  0.75336168  1
  Zr  Zr70  1  0.51231209  0.30570733  0.64004798  1
  Zr  Zr71  1  0.09699550  0.47740936  0.11533801  1
  Zr  Zr72  1  0.38782416  0.00339993  0.74199804  1
  Zr  Zr73  1  0.00593790  0.58687431  0.24753446  1
  Zr  Zr74  1  0.60260955  0.21867542  0.49678513  1
  Zr  Zr75  1  0.71889734  0.30673534  0.12752495  1
  Zr  Zr76  1  0.88580970  0.49957853  0.12203965  1
  Zr  Zr77  1  0.28283895  0.29915841  0.12371187  1
  Zr  Zr78  1  0.69984966  0.69685394  0.12288134  1
  Zr  Zr79  1  0.90657976  0.70909678  0.87506161  1
  Ta  Ta80  1  0.29308468  0.09582182  0.11700109  1
  Ta  Ta81  1  0.39800290  0.19656877  0.51829064  1
  Ta  Ta82  1  0.81245968  0.20442243  -0.01452175  1
  Ta  Ta83  1  0.29571119  0.50068027  0.37493646  1
  Ta  Ta84  1  0.79736327  0.80995968  -0.01625978  1
  Ta  Ta85  1  0.89855180  0.69375441  0.38359264  1
  Ta  Ta86  1  -0.01770916  -0.00898526  0.77211187  1
  Ta  Ta87  1  0.08169787  0.28583896  0.38869825  1
  Ta  Ta88  1  0.61192374  0.80711559  0.24570347  1
  Ta  Ta89  1  0.68711595  0.50724225  0.13168016  1
  Ta  Ta90  1  0.80587793  0.19301586  0.25852092  1
  Ta  Ta91  1  0.39487555  0.40027660  0.24569810  1
  Ta  Ta92  1  0.70702828  0.71587216  0.38522343  1
  Ta  Ta93  1  0.20108033  -0.00415370  0.24640403  1
  Ta  Ta94  1  0.00270061  0.00051111  0.49453816  1
  Ta  Ta95  1  0.00264640  0.38718105  0.75987072  1
  Ta  Ta96  1  0.60738177  0.19857799  0.23286540  1
  Ta  Ta97  1  0.20495986  0.59979990  0.25327435  1
  Ta  Ta98  1  0.50045144  0.70585871  0.62816300  1
  Ta  Ta99  1  0.91588161  0.10782861  0.37580127  1
  Ta  Ta100  1  0.77772037  0.60686785  -0.01472925  1
  Ta  Ta101  1  0.30332369  0.49472401  0.63600280  1
  Ta  Ta102  1  0.19471185  0.18677605  0.24930634  1
  Ta  Ta103  1  0.59695519  0.62016446  0.75510338  1
  Ta  Ta104  1  0.28309956  0.89303562  0.87810156  1
  Ta  Ta105  1  0.08989670  0.90620704  0.12084259  1
  Ta  Ta106  1  0.19937165  0.79776573  0.00097509  1
  Ta  Ta107  1  0.19379876  0.80111962  0.24819197  1
  Ta  Ta108  1  0.49217908  0.90904032  0.37103999  1
  Ta  Ta109  1  0.00916168  0.62695687  0.73650696  1
  Ta  Ta110  1  0.59723276  0.00862901  0.49398023  1
  Ta  Ta111  1  0.69367635  0.29635625  0.35815333  1
  Ta  Ta112  1  0.29958843  0.90087049  0.36671544  1
  Ta  Ta113  1  0.10182470  0.10660206  0.11639665  1
  Ta  Ta114  1  0.61039515  0.19997571  0.01592247  1
  Ta  Ta115  1  0.79428237  0.00482111  0.00257397  1
  Ta  Ta116  1  0.70829153  0.89466672  0.11692964  1
  Ta  Ta117  1  0.90719917  0.49620034  0.37854019  1
  Ta  Ta118  1  0.00766860  0.20771742  0.25168568  1
  Ta  Ta119  1  0.59928270  0.39959153  0.24542521  1
  Ti  Ti120  1  0.18939128  0.20364891  -0.00563257  1
  Ti  Ti121  1  0.80028159  0.00848209  0.48832261  1
  Ti  Ti122  1  0.00968948  0.60118461  0.51612117  1
  Ti  Ti123  1  0.39892121  0.39411098  0.74857075  1
  Ti  Ti124  1  0.88951478  0.89951603  0.61700416  1
  Ti  Ti125  1  0.50015710  0.50367571  0.13787112  1
  Ti  Ti126  1  0.69900393  0.30343120  0.63897712  1
  Ti  Ti127  1  -0.01310293  0.79155538  0.50614662  1
  Ti  Ti128  1  0.30077176  0.69278612  0.87323741  1
  Ti  Ti129  1  0.20696881  0.38523360  0.74366544  1
  Ti  Ti130  1  0.18557248  -0.00248212  -0.00673116  1
  Ti  Ti131  1  0.11227709  0.28799578  0.86327107  1
  Ti  Ti132  1  0.51072417  0.89638325  0.63170274  1
  Ti  Ti133  1  0.49962645  0.30244114  0.36433721  1
  Ti  Ti134  1  0.18547708  0.78986697  0.74709293  1
  Ti  Ti135  1  0.09580713  0.08606939  0.63196076  1
  Ti  Ti136  1  0.30043084  0.69605202  0.12379206  1
  Ti  Ti137  1  0.69385383  0.29697045  0.87973928  1
  Ti  Ti138  1  0.30305758  0.29531143  0.87525948  1
  Ti  Ti139  1  0.10212941  0.89884818  0.37306937  1
  Ti  Ti140  1  0.81012161  0.39808908  0.25819773  1
  Ti  Ti141  1  0.39602862  0.20200834  0.74100648  1
  Ti  Ti142  1  0.18323588  -0.01127794  0.75928729  1
  Ti  Ti143  1  0.40459915  0.19767899  0.23347858  1
  Ti  Ti144  1  0.50444375  0.50625115  0.85826402  1
  Ti  Ti145  1  0.60406138  0.81055116  0.76283680  1
  Ti  Ti146  1  0.69500385  0.92448834  0.87796834  1
  Ti  Ti147  1  0.40282547  0.00295980  0.23314787  1
  Ti  Ti148  1  0.58594610  0.00118543  0.02155316  1
  Ti  Ti149  1  0.09777706  0.49658108  0.38619003  1
  Ti  Ti150  1  0.00385740  0.18271646  0.77386985  1
  Ti  Ti151  1  0.28925621  0.89621700  0.63322698  1
  Ti  Ti152  1  0.79404909  0.38720042  0.76524671  1
  Ti  Ti153  1  0.69468615  0.51135553  0.85817267  1
  Ti  Ti154  1  0.00232094  0.81999901  -0.00201584  1
  Ti  Ti155  1  0.50413702  0.30730779  0.12956113  1
  Ti  Ti156  1  0.10834085  0.09640570  0.37809838  1
  Ti  Ti157  1  0.61071841  0.19743118  0.75957829  1
  Ti  Ti158  1  0.79855765  0.62198392  0.74282950  1
  Ti  Ti159  1  0.19854699  0.40036717  -0.01256265  1
  Mo  Mo160  1  0.20807753  0.60400472  -0.00271648  1
  Mo  Mo161  1  0.70576719  0.10499782  0.11201801  1
  Mo  Mo162  1  0.90269549  0.09360830  0.89446729  1
  Mo  Mo163  1  0.89908101  0.90210510  0.11110327  1
  Mo  Mo164  1  0.61572888  0.00478431  0.75623517  1
  Mo  Mo165  1  0.10092770  0.89629533  0.87373470  1
  Mo  Mo166  1  0.20442757  0.58719180  0.49533140  1
  Mo  Mo167  1  0.10077960  0.28751212  0.12017870  1
  Mo  Mo168  1  0.20516568  0.60596336  0.74889967  1
  Mo  Mo169  1  0.49588973  0.10606937  0.12718101  1
  Mo  Mo170  1  0.59009691  0.81444433  0.49961276  1
  Mo  Mo171  1  0.39367242  -0.00081652  0.00768542  1
  Mo  Mo172  1  0.70027965  0.70391257  0.86541516  1
  Mo  Mo173  1  0.60094614  0.60063381  0.25390520  1
  Mo  Mo174  1  -0.00249034  0.39461972  0.26378183  1
  Mo  Mo175  1  0.69024784  0.10184095  0.89906522  1
  Mo  Mo176  1  0.89887534  0.90732866  0.89058519  1
  Mo  Mo177  1  0.30483850  0.30174551  0.62954798  1
  Mo  Mo178  1  0.79929293  0.80623434  0.50088041  1
  Mo  Mo179  1  0.00324369  0.18561323  0.50274879  1
  Mo  Mo180  1  0.10533185  0.09442228  0.87572100  1
  Mo  Mo181  1  0.79411905  0.00292458  0.76075048  1
  Mo  Mo182  1  0.70366314  0.10444509  0.37024332  1
  Mo  Mo183  1  0.50455782  0.89659792  0.12062688  1
  Mo  Mo184  1  0.49960993  0.69912445  0.86586863  1
  Mo  Mo185  1  0.60259366  0.59202171  -0.01220257  1
  Mo  Mo186  1  0.09802632  0.70185110  0.61798037  1
  Mo  Mo187  1  0.38604773  0.59173900  0.50459350  1
  Mo  Mo188  1  0.01298787  0.19083065  -0.01861858  1
  Mo  Mo189  1  0.79360354  0.80500587  0.25115011  1
  Mo  Mo190  1  0.60048282  0.39528401  0.49077192  1
  Mo  Mo191  1  0.60642905  0.40134558  0.76656273  1
  Mo  Mo192  1  0.89971576  0.30290310  0.36894032  1
  Mo  Mo193  1  0.29757232  0.09129729  0.63122579  1
  Mo  Mo194  1  0.00377070  0.81076777  0.75303684  1
  Mo  Mo195  1  0.90374293  0.29860645  0.86362526  1
  Mo  Mo196  1  0.90712020  0.71501718  0.62687805  1
  Mo  Mo197  1  0.39131518  0.59622702  0.24444324  1
  Mo  Mo198  1  0.40318762  0.60268540  0.75564730  1
  Mo  Mo199  1  0.00266733  0.00012236  -0.00720206  1
