# generated using pymatgen
data_HfZrTaTiMo
_symmetry_space_group_name_H-M   'P 1'
_cell_length_a   15.21285639
_cell_length_b   15.21339076
_cell_length_c   16.85004044
_cell_angle_alpha   90.00252912
_cell_angle_beta   90.01177220
_cell_angle_gamma   90.06655815
_symmetry_Int_Tables_number   1
_chemical_formula_structural   HfZrTaTiMo
_chemical_formula_sum   'Hf40 Zr40 Ta40 Ti40 Mo40'
_cell_volume   3899.75596222
_cell_formula_units_Z   40
loop_
 _symmetry_equiv_pos_site_id
 _symmetry_equiv_pos_as_xyz
  1  'x, y, z'
loop_
 _atom_site_type_symbol
 _atom_site_label
 _atom_site_symmetry_multiplicity
 _atom_site_fract_x
 _atom_site_fract_y
 _atom_site_fract_z
 _atom_site_occupancy
  Hf  Hf0  1  0.71488938  0.10281289  0.61463136  1
  Hf  Hf1  1  0.50715687  0.90627568  0.12096647  1
  Hf  Hf2  1  0.70749071  0.29408728  0.36689409  1
  Hf  Hf3  1  0.20577842  0.40950699  0.49055065  1
  Hf  Hf4  1  0.61700880  0.20423821  0.01033321  1
  Hf  Hf5  1  0.49097112  0.10476779  0.87049973  1
  Hf  Hf6  1  0.50663908  0.31006651  0.87667314  1
  Hf  Hf7  1  0.90377270  0.49510872  0.38657148  1
  Hf  Hf8  1  0.59861567  0.60725798  -0.00271850  1
  Hf  Hf9  1  0.80650428  0.79443027  -0.02333915  1
  Hf  Hf10  1  0.01448810  0.60370308  0.76040194  1
  Hf  Hf11  1  0.29669796  0.69433166  0.61715615  1
  Hf  Hf12  1  0.19146312  0.79539375  0.49749530  1
  Hf  Hf13  1  0.88546295  0.90049074  0.62214295  1
  Hf  Hf14  1  0.18974029  0.78525913  0.75099728  1
  Hf  Hf15  1  0.40915701  0.41009621  0.24108088  1
  Hf  Hf16  1  0.49591258  0.90485551  0.86617190  1
  Hf  Hf17  1  0.30855634  0.50371197  0.36111113  1
  Hf  Hf18  1  0.91367444  0.29021095  0.12099398  1
  Hf  Hf19  1  0.79266242  -0.02488968  0.25402371  1
  Hf  Hf20  1  0.78971446  0.38896384  0.01701210  1
  Hf  Hf21  1  0.41292172  0.20776656  0.01448422  1
  Hf  Hf22  1  0.59756686  0.00548134  -0.00308153  1
  Hf  Hf23  1  0.80156219  0.00668016  -0.00451949  1
  Hf  Hf24  1  0.10158806  0.08401194  0.87116852  1
  Hf  Hf25  1  0.89360209  0.08424508  0.39183384  1
  Hf  Hf26  1  0.01257470  0.59958596  0.50370210  1
  Hf  Hf27  1  0.19680365  0.41186532  -0.00389878  1
  Hf  Hf28  1  0.28935230  0.51869295  0.87148916  1
  Hf  Hf29  1  0.80155761  0.59169514  -0.00274347  1
  Hf  Hf30  1  0.90552422  0.49736810  0.62342948  1
  Hf  Hf31  1  0.50893999  0.31307694  0.36170013  1
  Hf  Hf32  1  0.30182793  0.10586921  0.62262986  1
  Hf  Hf33  1  0.91136955  0.68519333  0.11872245  1
  Hf  Hf34  1  0.40669441  0.40730703  0.75267243  1
  Hf  Hf35  1  0.18414400  0.01229816  0.25043497  1
  Hf  Hf36  1  0.09107505  0.10474989  0.38522302  1
  Hf  Hf37  1  0.11294017  0.28149795  0.12037833  1
  Hf  Hf38  1  -0.00512806  0.38937497  0.75403028  1
  Hf  Hf39  1  0.31086918  0.70227115  0.37515338  1
  Zr  Zr40  1  0.38851294  0.61655776  -0.00294502  1
  Zr  Zr41  1  0.19645674  0.40078540  0.75773847  1
  Zr  Zr42  1  0.28653928  0.10872912  0.12988544  1
  Zr  Zr43  1  0.88948785  0.49137098  0.87205393  1
  Zr  Zr44  1  0.19440781  0.80422235  0.25710882  1
  Zr  Zr45  1  0.10974946  0.70405141  0.12743649  1
  Zr  Zr46  1  0.19776289  0.00012063  0.49672494  1
  Zr  Zr47  1  0.70301931  0.90585410  0.85709249  1
  Zr  Zr48  1  0.39759134  0.78337117  0.76260665  1
  Zr  Zr49  1  0.30458846  0.90236626  0.62604372  1
  Zr  Zr50  1  0.89462339  0.27821624  0.89211985  1
  Zr  Zr51  1  0.29058363  0.91643630  0.87344024  1
  Zr  Zr52  1  0.60723184  0.59605075  0.49991416  1
  Zr  Zr53  1  0.68819656  0.49310791  0.35908773  1
  Zr  Zr54  1  0.60460675  0.21230137  0.74622024  1
  Zr  Zr55  1  0.70766340  0.70737792  0.37736907  1
  Zr  Zr56  1  0.30056107  0.30182099  0.62235971  1
  Zr  Zr57  1  0.49597814  0.68932096  0.62266176  1
  Zr  Zr58  1  0.09789693  0.29109679  0.88790666  1
  Zr  Zr59  1  0.59269783  0.40341077  0.01451631  1
  Zr  Zr60  1  0.17091483  -0.01557525  0.01570367  1
  Zr  Zr61  1  0.80625677  0.60799259  0.24740229  1
  Zr  Zr62  1  0.88971927  0.88441111  0.12030397  1
  Zr  Zr63  1  0.82336683  0.39866007  0.23962800  1
  Zr  Zr64  1  0.91119877  0.29001948  0.38913551  1
  Zr  Zr65  1  0.28248946  0.51432761  0.13618634  1
  Zr  Zr66  1  0.40360523  0.20207662  0.24182919  1
  Zr  Zr67  1  0.49379633  0.09963664  0.63202553  1
  Zr  Zr68  1  0.29578249  0.88915152  0.12401208  1
  Zr  Zr69  1  0.69229184  0.90034202  0.63682513  1
  Zr  Zr70  1  0.09859003  0.30221691  0.61104454  1
  Zr  Zr71  1  0.30446290  0.90650843  0.37608161  1
  Zr  Zr72  1  -0.00907790  0.78962451  0.51628858  1
  Zr  Zr73  1  0.07661665  0.49354275  0.13570593  1
  Zr  Zr74  1  0.81362466  0.20159796  0.74186355  1
  Zr  Zr75  1  0.59077583  0.20464690  0.49530244  1
  Zr  Zr76  1  0.58978550  -0.00082428  0.49888830  1
  Zr  Zr77  1  0.91315644  0.08601474  0.13463505  1
  Zr  Zr78  1  0.70215225  0.72130023  0.12555348  1
  Zr  Zr79  1  0.89784506  0.29143204  0.59900826  1
  Ta  Ta80  1  0.70912400  0.11436038  0.87305170  1
  Ta  Ta81  1  0.70618984  0.70155887  0.63435181  1
  Ta  Ta82  1  0.19771229  0.38395491  0.25669331  1
  Ta  Ta83  1  0.69726897  0.30900668  0.61360472  1
  Ta  Ta84  1  0.20383931  0.59932171  0.49138997  1
  Ta  Ta85  1  0.40676331  0.39706447  0.49146791  1
  Ta  Ta86  1  0.59998255  0.80163581  -0.01339690  1
  Ta  Ta87  1  0.38918167  0.20150964  0.75828785  1
  Ta  Ta88  1  0.39084635  0.01127762  0.00483441  1
  Ta  Ta89  1  0.59287947  0.79956041  0.50669769  1
  Ta  Ta90  1  0.11792058  0.51170996  0.62733324  1
  Ta  Ta91  1  0.00652450  0.18794354  0.74306395  1
  Ta  Ta92  1  0.31614581  0.50511447  0.62451521  1
  Ta  Ta93  1  0.49401752  0.30650154  0.62166124  1
  Ta  Ta94  1  0.49391385  0.51557314  0.12623720  1
  Ta  Ta95  1  0.59365146  0.40793862  0.50227200  1
  Ta  Ta96  1  0.40095112  0.00016792  0.24882201  1
  Ta  Ta97  1  0.60959450  0.81451894  0.25353738  1
  Ta  Ta98  1  0.59043597  0.59529511  0.75198263  1
  Ta  Ta99  1  0.01079053  0.60392455  -0.01997471  1
  Ta  Ta100  1  0.69707131  0.09072246  0.13508522  1
  Ta  Ta101  1  0.01371484  0.80496674  -0.00706277  1
  Ta  Ta102  1  0.78893945  0.39835757  0.74205983  1
  Ta  Ta103  1  0.07517283  0.90107651  0.37728115  1
  Ta  Ta104  1  0.69466259  0.50605911  0.13851010  1
  Ta  Ta105  1  0.19910165  0.19625868  0.75671710  1
  Ta  Ta106  1  0.41645666  0.80100545  0.25171166  1
  Ta  Ta107  1  0.88452249  0.88646681  0.39393733  1
  Ta  Ta108  1  0.49777395  0.71236175  0.12392269  1
  Ta  Ta109  1  0.10115845  0.10286726  0.61604360  1
  Ta  Ta110  1  0.59208302  0.00599821  0.25506470  1
  Ta  Ta111  1  0.70568744  0.30765598  0.87473525  1
  Ta  Ta112  1  0.79974896  0.59879510  0.75032598  1
  Ta  Ta113  1  0.09986742  0.49940734  0.36265429  1
  Ta  Ta114  1  0.69606517  0.90164397  0.38779331  1
  Ta  Ta115  1  0.21981273  0.20354463  0.48032391  1
  Ta  Ta116  1  0.58175568  0.61046791  0.24960135  1
  Ta  Ta117  1  0.49151642  0.89733551  0.63442303  1
  Ta  Ta118  1  0.08942877  0.89075711  0.86319063  1
  Ta  Ta119  1  -0.01781986  0.80017726  0.25716972  1
  Ti  Ti120  1  0.80789055  0.61365979  0.51359224  1
  Ti  Ti121  1  -0.00154519  0.59502119  0.25600801  1
  Ti  Ti122  1  0.80747731  0.00899505  0.75179446  1
  Ti  Ti123  1  0.80321989  0.18516952  0.25195328  1
  Ti  Ti124  1  0.49881700  0.89637905  0.37747940  1
  Ti  Ti125  1  0.39918921  0.40946358  0.00653435  1
  Ti  Ti126  1  0.78920876  0.40922810  0.50066334  1
  Ti  Ti127  1  0.49672337  0.51039011  0.87670184  1
  Ti  Ti128  1  0.69052352  0.49355996  0.86893176  1
  Ti  Ti129  1  0.49324427  0.10407572  0.37028114  1
  Ti  Ti130  1  0.09860073  0.69636184  0.36658233  1
  Ti  Ti131  1  0.39920284  0.01050691  0.49186073  1
  Ti  Ti132  1  0.30361885  0.31044782  0.12171695  1
  Ti  Ti133  1  0.69815474  0.69037306  0.86491450  1
  Ti  Ti134  1  -0.00493802  0.79274441  0.73944165  1
  Ti  Ti135  1  0.30505273  0.69956670  0.13741624  1
  Ti  Ti136  1  0.50141583  0.70174530  0.37927815  1
  Ti  Ti137  1  0.40859052  0.58983575  0.49403643  1
  Ti  Ti138  1  0.20900150  0.77970916  -0.01383234  1
  Ti  Ti139  1  0.40448912  0.80628559  -0.01196340  1
  Ti  Ti140  1  0.59857491  0.79083455  0.75463792  1
  Ti  Ti141  1  0.69525407  0.29130549  0.14867977  1
  Ti  Ti142  1  0.09859066  0.30621993  0.38196150  1
  Ti  Ti143  1  0.09730023  0.90197843  0.62801351  1
  Ti  Ti144  1  0.01417827  0.19858194  0.25293139  1
  Ti  Ti145  1  0.69697079  0.50497593  0.62745620  1
  Ti  Ti146  1  0.00528105  0.16835379  0.00477951  1
  Ti  Ti147  1  0.59748510  0.00946236  0.75036356  1
  Ti  Ti148  1  0.90262737  0.70147111  0.37977264  1
  Ti  Ti149  1  0.80913352  0.78876851  0.75979052  1
  Ti  Ti150  1  0.21136729  0.18586578  -0.00825362  1
  Ti  Ti151  1  0.91028570  0.09584667  0.59767556  1
  Ti  Ti152  1  0.30642168  0.29727431  0.88302443  1
  Ti  Ti153  1  0.20087114  0.00543725  0.74419201  1
  Ti  Ti154  1  -0.00514901  0.40809605  -0.00451190  1
  Ti  Ti155  1  0.90723049  0.09195257  0.87483636  1
  Ti  Ti156  1  0.90954543  0.90167689  0.86405459  1
  Ti  Ti157  1  0.69788874  0.09817586  0.37570422  1
  Ti  Ti158  1  0.60184933  0.40632312  0.74144021  1
  Ti  Ti159  1  -0.00060342  0.00062772  0.73757601  1
  Mo  Mo160  1  0.19433574  0.60201313  0.26212519  1
  Mo  Mo161  1  0.09090176  0.10391847  0.12995451  1
  Mo  Mo162  1  0.89326152  0.69194299  0.63801995  1
  Mo  Mo163  1  0.00782921  0.38897307  0.25315800  1
  Mo  Mo164  1  0.79669458  0.19276773  0.00977479  1
  Mo  Mo165  1  0.50336354  0.09879091  0.12917147  1
  Mo  Mo166  1  0.50773008  0.69869593  0.87503994  1
  Mo  Mo167  1  0.90694269  0.70913719  0.86815426  1
  Mo  Mo168  1  0.30529383  0.30097912  0.37286445  1
  Mo  Mo169  1  -0.00619011  -0.01498542  -0.00806849  1
  Mo  Mo170  1  0.50579466  0.30811735  0.13217672  1
  Mo  Mo171  1  0.60129525  0.40333630  0.23261051  1
  Mo  Mo172  1  0.79267796  -0.00606499  0.49672709  1
  Mo  Mo173  1  0.50254936  0.49206073  0.62316046  1
  Mo  Mo174  1  0.78568210  0.79013907  0.51053022  1
  Mo  Mo175  1  0.40227966  0.59469872  0.75224124  1
  Mo  Mo176  1  0.09666292  0.49621874  0.87747521  1
  Mo  Mo177  1  0.29681090  0.10787542  0.88073893  1
  Mo  Mo178  1  0.39694870  0.00608177  0.74909761  1
  Mo  Mo179  1  0.01296666  0.19577986  0.49917550  1
  Mo  Mo180  1  0.60785176  0.19082642  0.24974791  1
  Mo  Mo181  1  0.19166721  0.60664107  0.00200298  1
  Mo  Mo182  1  0.20976243  0.60057464  0.74516371  1
  Mo  Mo183  1  0.69303742  0.90005930  0.11905334  1
  Mo  Mo184  1  0.40229255  0.61549661  0.24621519  1
  Mo  Mo185  1  0.30227231  0.70484807  0.87500470  1
  Mo  Mo186  1  0.10283961  0.69548883  0.62524347  1
  Mo  Mo187  1  0.90010839  0.49776073  0.11664224  1
  Mo  Mo188  1  0.79999371  0.79834841  0.25698521  1
  Mo  Mo189  1  0.79232073  0.19801782  0.49725904  1
  Mo  Mo190  1  0.01030492  0.40978483  0.49964879  1
  Mo  Mo191  1  0.41291559  0.80645285  0.49873411  1
  Mo  Mo192  1  0.10922863  0.69765986  0.87927913  1
  Mo  Mo193  1  0.30715202  0.10374244  0.36840892  1
  Mo  Mo194  1  0.40160015  0.20274586  0.48679015  1
  Mo  Mo195  1  0.50048363  0.51091120  0.36959249  1
  Mo  Mo196  1  0.19948045  0.20789578  0.26843354  1
  Mo  Mo197  1  0.07226962  0.90943982  0.14325333  1
  Mo  Mo198  1  0.00188269  -0.01140920  0.51156626  1
  Mo  Mo199  1  -0.00644040  -0.00975432  0.26018792  1
