# generated using pymatgen
data_HfZrTaTiMo
_symmetry_space_group_name_H-M   'P 1'
_cell_length_a   15.21144466
_cell_length_b   15.21874654
_cell_length_c   16.84248682
_cell_angle_alpha   89.99011896
_cell_angle_beta   90.02259135
_cell_angle_gamma   90.04108364
_symmetry_Int_Tables_number   1
_chemical_formula_structural   HfZrTaTiMo
_chemical_formula_sum   'Hf40 Zr40 Ta40 Ti40 Mo40'
_cell_volume   3899.01952706
_cell_formula_units_Z   40
loop_
 _symmetry_equiv_pos_site_id
 _symmetry_equiv_pos_as_xyz
  1  'x, y, z'
loop_
 _atom_site_type_symbol
 _atom_site_label
 _atom_site_symmetry_multiplicity
 _atom_site_fract_x
 _atom_site_fract_y
 _atom_site_fract_z
 _atom_site_occupancy
  Hf  Hf0  1  0.59716280  0.18803328  0.74076574  1
  Hf  Hf1  1  0.09373358  0.89778143  0.11086745  1
  Hf  Hf2  1  0.68508871  0.69696207  0.36158818  1
  Hf  Hf3  1  0.01160477  0.20763620  -0.00650787  1
  Hf  Hf4  1  0.38325183  0.40860107  0.48758174  1
  Hf  Hf5  1  0.61052230  -0.02237115  0.26718373  1
  Hf  Hf6  1  0.90775219  0.49170095  0.62656160  1
  Hf  Hf7  1  0.80577309  -0.00159309  0.74718867  1
  Hf  Hf8  1  0.89322053  0.30162605  0.87842928  1
  Hf  Hf9  1  0.89702641  0.90327146  0.88601839  1
  Hf  Hf10  1  0.51413316  0.90161059  0.62866779  1
  Hf  Hf11  1  0.90210511  0.09334853  0.88729556  1
  Hf  Hf12  1  0.79360109  0.60891220  0.75283230  1
  Hf  Hf13  1  0.69741181  0.07731082  0.60558073  1
  Hf  Hf14  1  0.79027288  0.80453718  0.00494108  1
  Hf  Hf15  1  0.00137540  0.18958278  0.76369346  1
  Hf  Hf16  1  0.30706969  0.90971983  0.64750457  1
  Hf  Hf17  1  0.10387207  0.70026164  0.37243080  1
  Hf  Hf18  1  0.48414219  0.49472833  0.12256105  1
  Hf  Hf19  1  0.71612102  0.49867280  0.36723875  1
  Hf  Hf20  1  0.88527298  0.69498341  0.61243559  1
  Hf  Hf21  1  0.60370716  0.39384470  0.74001786  1
  Hf  Hf22  1  0.19263279  0.59134941  0.75626889  1
  Hf  Hf23  1  0.30149790  0.70252889  0.63819247  1
  Hf  Hf24  1  0.49608606  0.49190055  0.88146949  1
  Hf  Hf25  1  0.30611806  0.09183988  0.12708645  1
  Hf  Hf26  1  0.29446506  0.28722725  0.35869592  1
  Hf  Hf27  1  0.89443402  0.71702475  0.13677728  1
  Hf  Hf28  1  0.30640326  0.10944322  0.64986289  1
  Hf  Hf29  1  -0.00666568  0.01521862  0.25464883  1
  Hf  Hf30  1  0.38949102  0.38981147  0.75182226  1
  Hf  Hf31  1  0.30062143  0.69052239  0.88272804  1
  Hf  Hf32  1  0.01657880  0.40608399  0.76729459  1
  Hf  Hf33  1  0.00113058  0.81593194  0.25693654  1
  Hf  Hf34  1  0.49196550  0.28764065  0.61106219  1
  Hf  Hf35  1  0.61053514  0.39917897  0.49639882  1
  Hf  Hf36  1  0.61154140  0.79445987  0.75328303  1
  Hf  Hf37  1  0.21606020  0.20775007  -0.00719175  1
  Hf  Hf38  1  0.40561810  0.61520137  0.50031271  1
  Hf  Hf39  1  0.31842900  0.11356241  0.86450833  1
  Zr  Zr40  1  0.60661432  0.18836244  0.26655384  1
  Zr  Zr41  1  0.79419050  0.60819062  0.00709845  1
  Zr  Zr42  1  0.69254764  0.50267558  0.87668629  1
  Zr  Zr43  1  0.00076497  0.40536862  0.23571809  1
  Zr  Zr44  1  0.31659503  0.30107158  0.14371340  1
  Zr  Zr45  1  0.41053013  0.00137318  -0.01352198  1
  Zr  Zr46  1  0.50892325  0.09575473  0.13675546  1
  Zr  Zr47  1  0.70075435  0.50125868  0.14115888  1
  Zr  Zr48  1  0.49563538  0.49856777  0.61702883  1
  Zr  Zr49  1  0.51373736  0.68833801  0.87960245  1
  Zr  Zr50  1  0.88947504  0.69646388  0.36842097  1
  Zr  Zr51  1  0.29412121  0.49444710  0.88769419  1
  Zr  Zr52  1  0.11588771  0.90548409  0.37785799  1
  Zr  Zr53  1  0.59775178  0.38646718  0.00500866  1
  Zr  Zr54  1  0.18421434  0.38598609  0.48060063  1
  Zr  Zr55  1  0.09756670  0.69046504  0.11864202  1
  Zr  Zr56  1  0.11072193  0.50068811  0.61884244  1
  Zr  Zr57  1  0.09992276  0.90640295  0.62794820  1
  Zr  Zr58  1  0.00976303  0.42027750  0.00935861  1
  Zr  Zr59  1  0.08315462  0.30427398  0.63006379  1
  Zr  Zr60  1  -0.00315086  0.22041448  0.49835320  1
  Zr  Zr61  1  0.10834590  0.10438086  0.62558664  1
  Zr  Zr62  1  0.90221427  0.51073061  0.87651637  1
  Zr  Zr63  1  0.80225649  0.39853305  0.01235932  1
  Zr  Zr64  1  0.21140822  0.59139193  0.49371419  1
  Zr  Zr65  1  0.21289237  0.80666100  0.50274533  1
  Zr  Zr66  1  0.80743770  0.18886311  0.24786564  1
  Zr  Zr67  1  0.50255164  0.88997255  0.11936143  1
  Zr  Zr68  1  0.50279122  0.51648427  0.37811279  1
  Zr  Zr69  1  0.89482304  0.89999535  0.61492153  1
  Zr  Zr70  1  0.89090489  0.31220680  0.36390467  1
  Zr  Zr71  1  0.08754955  0.70480584  0.61660091  1
  Zr  Zr72  1  0.10386789  0.11173252  0.37848161  1
  Zr  Zr73  1  0.49213047  0.08521343  0.37567895  1
  Zr  Zr74  1  0.28425458  0.31007919  0.62262832  1
  Zr  Zr75  1  0.89976421  0.10812288  0.61369289  1
  Zr  Zr76  1  0.29764883  0.08553033  0.35772206  1
  Zr  Zr77  1  0.18675008  0.80246280  0.76960969  1
  Zr  Zr78  1  0.10972908  0.29881269  0.13318389  1
  Zr  Zr79  1  0.59761591  0.39063401  0.25979588  1
  Ta  Ta80  1  0.39407185  0.38483150  0.00168287  1
  Ta  Ta81  1  0.39580203  -0.02901140  0.24482557  1
  Ta  Ta82  1  0.90518670  0.70960678  0.88140578  1
  Ta  Ta83  1  0.79914711  0.39440137  0.74701823  1
  Ta  Ta84  1  0.59651582  0.18835255  0.49362987  1
  Ta  Ta85  1  0.69981164  0.28705086  0.13146995  1
  Ta  Ta86  1  0.79541107  0.20186611  0.74578714  1
  Ta  Ta87  1  0.40369098  0.59597472  0.74641418  1
  Ta  Ta88  1  0.21936852  0.79673059  0.24052699  1
  Ta  Ta89  1  0.89086061  0.10467260  0.39089213  1
  Ta  Ta90  1  0.49688572  0.09025033  0.61533213  1
  Ta  Ta91  1  0.09263255  0.50344795  0.36387338  1
  Ta  Ta92  1  0.19698633  -0.01581502  0.23681698  1
  Ta  Ta93  1  0.58119434  0.60671496  0.24155011  1
  Ta  Ta94  1  0.40265973  -0.01261386  0.50232565  1
  Ta  Ta95  1  0.61012756  -0.00549678  0.75744438  1
  Ta  Ta96  1  0.19981174  0.22577819  0.77355249  1
  Ta  Ta97  1  0.90888313  0.52253045  0.13938548  1
  Ta  Ta98  1  0.49187472  0.29104442  0.38493211  1
  Ta  Ta99  1  0.90428431  0.09883561  0.11267679  1
  Ta  Ta100  1  0.09383674  0.29954765  0.35135996  1
  Ta  Ta101  1  0.21848378  0.01499831  0.50619049  1
  Ta  Ta102  1  0.40107012  0.79801769  -0.01284295  1
  Ta  Ta103  1  0.70174936  0.90371934  0.12550902  1
  Ta  Ta104  1  0.60566805  0.18837585  0.00098711  1
  Ta  Ta105  1  0.78717512  0.81902913  0.25602622  1
  Ta  Ta106  1  0.19394520  0.79951510  -0.01560849  1
  Ta  Ta107  1  0.69520075  0.28987444  0.87233174  1
  Ta  Ta108  1  0.71447192  0.50280021  0.61609834  1
  Ta  Ta109  1  0.42514360  0.00411450  0.76611444  1
  Ta  Ta110  1  0.37890950  0.18626453  0.49846522  1
  Ta  Ta111  1  0.79390904  0.19851796  0.00669652  1
  Ta  Ta112  1  0.69889627  0.89872596  0.87926224  1
  Ta  Ta113  1  0.61740574  0.61539774  0.50883477  1
  Ta  Ta114  1  0.60241975  0.59809867  0.73571132  1
  Ta  Ta115  1  0.10044586  0.09434764  0.11635026  1
  Ta  Ta116  1  0.77938943  0.79713858  0.49313913  1
  Ta  Ta117  1  0.19879358  0.00285869  -0.01471014  1
  Ta  Ta118  1  0.00181637  -0.00092885  0.48993047  1
  Ta  Ta119  1  0.38250670  0.60535517  0.24286996  1
  Ti  Ti120  1  0.08416001  0.90625156  0.88624459  1
  Ti  Ti121  1  0.59188216  0.80532531  0.49783899  1
  Ti  Ti122  1  0.40196347  0.40916087  0.26499720  1
  Ti  Ti123  1  0.18385139  0.01198330  0.77277420  1
  Ti  Ti124  1  0.68566061  0.71152172  0.14168657  1
  Ti  Ti125  1  0.19722901  0.60003340  0.24679526  1
  Ti  Ti126  1  0.71478146  0.29397146  0.61177612  1
  Ti  Ti127  1  0.60027708  0.79634524  -0.00518967  1
  Ti  Ti128  1  0.89802940  0.29691502  0.12974022  1
  Ti  Ti129  1  0.29790307  0.88941264  0.10960223  1
  Ti  Ti130  1  0.50409502  0.29039312  0.13395823  1
  Ti  Ti131  1  0.20825466  0.41589007  0.25190384  1
  Ti  Ti132  1  0.89824279  0.50823040  0.35304845  1
  Ti  Ti133  1  0.70637434  0.09931921  0.87704195  1
  Ti  Ti134  1  0.50386852  0.70488490  0.62978158  1
  Ti  Ti135  1  0.48772033  0.69970097  0.12001929  1
  Ti  Ti136  1  0.29956365  0.69628614  0.10341860  1
  Ti  Ti137  1  -0.00956333  0.80411969  0.48645205  1
  Ti  Ti138  1  0.70733303  0.28914841  0.38600202  1
  Ti  Ti139  1  -0.00763455  0.59799702  0.48978719  1
  Ti  Ti140  1  0.31353121  0.88939305  0.37097024  1
  Ti  Ti141  1  -0.00776394  0.80785891  0.75311597  1
  Ti  Ti142  1  0.70732348  0.08794924  0.12408769  1
  Ti  Ti143  1  0.30311316  0.90217943  0.86976612  1
  Ti  Ti144  1  0.41179715  0.80060958  0.76631695  1
  Ti  Ti145  1  0.49732119  0.28325739  0.87228028  1
  Ti  Ti146  1  0.40311498  0.80402797  0.50409719  1
  Ti  Ti147  1  0.60822730  -0.00363273  -0.00848580  1
  Ti  Ti148  1  0.30428839  0.69913338  0.36834639  1
  Ti  Ti149  1  0.49075408  0.71768256  0.36255053  1
  Ti  Ti150  1  0.80154022  -0.00167299  0.26832348  1
  Ti  Ti151  1  0.41706377  0.20011820  0.00098090  1
  Ti  Ti152  1  0.59701681  0.60428692  0.01369829  1
  Ti  Ti153  1  0.19652035  0.40116145  0.00302753  1
  Ti  Ti154  1  -0.01338617  0.41065369  0.48681747  1
  Ti  Ti155  1  0.28946888  0.50719730  0.11301204  1
  Ti  Ti156  1  0.89409850  0.91529242  0.11641540  1
  Ti  Ti157  1  0.00069745  0.61416318  0.75483653  1
  Ti  Ti158  1  0.79844063  0.79978801  0.75084173  1
  Ti  Ti159  1  0.19271279  0.18519308  0.23964991  1
  Mo  Mo160  1  0.70369807  0.09318423  0.39457820  1
  Mo  Mo161  1  -0.00354723  0.61206935  0.00186378  1
  Mo  Mo162  1  0.89122898  0.30594030  0.63502329  1
  Mo  Mo163  1  0.50605109  0.89756447  0.87695104  1
  Mo  Mo164  1  -0.00541199  0.80258465  0.00089855  1
  Mo  Mo165  1  0.80745516  0.39953316  0.50140083  1
  Mo  Mo166  1  0.11116863  0.50632243  0.13069567  1
  Mo  Mo167  1  0.00624810  -0.00757400  0.75611272  1
  Mo  Mo168  1  0.00174497  0.00275872  0.00622977  1
  Mo  Mo169  1  0.69607028  0.89069931  0.38075382  1
  Mo  Mo170  1  0.09989073  0.51811316  0.88356828  1
  Mo  Mo171  1  0.40963112  0.20027665  0.74782192  1
  Mo  Mo172  1  0.79481961  0.60842566  0.24057350  1
  Mo  Mo173  1  0.79165958  0.20508885  0.49932507  1
  Mo  Mo174  1  0.10688620  0.09950571  0.88220972  1
  Mo  Mo175  1  0.00120717  0.19322240  0.24080482  1
  Mo  Mo176  1  0.40566263  0.19850210  0.25088735  1
  Mo  Mo177  1  0.80024561  -0.00977579  0.48582756  1
  Mo  Mo178  1  0.58965922  0.79601654  0.24388238  1
  Mo  Mo179  1  0.39244861  0.78823546  0.23789272  1
  Mo  Mo180  1  0.70360902  0.88773883  0.62052788  1
  Mo  Mo181  1  0.31324941  0.30474689  0.88443184  1
  Mo  Mo182  1  0.89739699  0.90264672  0.38363917  1
  Mo  Mo183  1  0.10896545  0.31313673  0.88274915  1
  Mo  Mo184  1  0.70799527  0.70371529  0.87714407  1
  Mo  Mo185  1  0.78752403  0.00826323  0.00455587  1
  Mo  Mo186  1  0.59922502  -0.01667676  0.48857540  1
  Mo  Mo187  1  0.00498554  0.60814261  0.25492564  1
  Mo  Mo188  1  0.79887724  0.39950538  0.23574978  1
  Mo  Mo189  1  0.80220846  0.59085242  0.49651373  1
  Mo  Mo190  1  0.69649148  0.70441487  0.62068998  1
  Mo  Mo191  1  0.08752724  0.70184144  0.88575530  1
  Mo  Mo192  1  0.29357496  0.50777994  0.36184529  1
  Mo  Mo193  1  0.52344862  0.10501728  0.87692294  1
  Mo  Mo194  1  0.30445851  0.50768181  0.63240436  1
  Mo  Mo195  1  0.40082568  0.59787298  0.01080953  1
  Mo  Mo196  1  0.19875468  0.40358870  0.75982325  1
  Mo  Mo197  1  0.20205748  0.19819203  0.49706186  1
  Mo  Mo198  1  0.49026922  0.88663818  0.37523676  1
  Mo  Mo199  1  0.18960256  0.59297572  -0.00034827  1
