# generated using pymatgen
data_HfZrTaTiMo
_symmetry_space_group_name_H-M   'P 1'
_cell_length_a   15.20182944
_cell_length_b   15.21260409
_cell_length_c   16.84218598
_cell_angle_alpha   89.96915945
_cell_angle_beta   89.99384834
_cell_angle_gamma   89.96838615
_symmetry_Int_Tables_number   1
_chemical_formula_structural   HfZrTaTiMo
_chemical_formula_sum   'Hf40 Zr40 Ta40 Ti40 Mo40'
_cell_volume   3894.91285980
_cell_formula_units_Z   40
loop_
 _symmetry_equiv_pos_site_id
 _symmetry_equiv_pos_as_xyz
  1  'x, y, z'
loop_
 _atom_site_type_symbol
 _atom_site_label
 _atom_site_symmetry_multiplicity
 _atom_site_fract_x
 _atom_site_fract_y
 _atom_site_fract_z
 _atom_site_occupancy
  Hf  Hf0  1  0.69507313  0.47913189  0.39219679  1
  Hf  Hf1  1  0.51093740  0.87495705  0.61007203  1
  Hf  Hf2  1  0.00181174  0.20060173  0.75476460  1
  Hf  Hf3  1  0.79022062  0.39323534  0.75543241  1
  Hf  Hf4  1  0.09049585  0.48124832  0.12428809  1
  Hf  Hf5  1  0.90701545  0.09970377  0.88471495  1
  Hf  Hf6  1  0.79221589  0.80495441  0.74436624  1
  Hf  Hf7  1  0.30079177  0.89113347  0.60815951  1
  Hf  Hf8  1  0.60975439  0.60495643  0.00775989  1
  Hf  Hf9  1  0.49986941  0.30813521  0.36979352  1
  Hf  Hf10  1  0.49480127  0.10355168  0.12310855  1
  Hf  Hf11  1  0.50279651  0.49727323  0.13166288  1
  Hf  Hf12  1  0.01762243  0.21169025  0.24860851  1
  Hf  Hf13  1  0.89579425  0.30015885  0.61398811  1
  Hf  Hf14  1  0.00412915  0.59913877  0.25301781  1
  Hf  Hf15  1  0.20051398  0.41587144  0.49115309  1
  Hf  Hf16  1  0.18726295  0.78106131  0.48840148  1
  Hf  Hf17  1  0.28641109  0.50301577  0.63118936  1
  Hf  Hf18  1  0.60490120  0.20487942  0.23517462  1
  Hf  Hf19  1  0.20440267  0.59734015  0.01497560  1
  Hf  Hf20  1  0.40770098  0.20715941  0.51345352  1
  Hf  Hf21  1  0.11500223  0.11797580  0.11183141  1
  Hf  Hf22  1  0.28277874  0.29016653  0.12972994  1
  Hf  Hf23  1  0.79608461  0.59555871  0.73271084  1
  Hf  Hf24  1  0.40456806  0.39046903  0.75196378  1
  Hf  Hf25  1  0.90378578  0.90541571  0.62999354  1
  Hf  Hf26  1  0.30941880  0.69643362  0.62067967  1
  Hf  Hf27  1  -0.00702816  0.60791282  -0.00124903  1
  Hf  Hf28  1  0.29678182  0.89731448  0.38206111  1
  Hf  Hf29  1  0.11549988  0.10022156  0.38066610  1
  Hf  Hf30  1  0.01174086  -0.00385009  0.49092269  1
  Hf  Hf31  1  0.90553504  0.70406527  0.61889224  1
  Hf  Hf32  1  0.79704143  0.38194670  -0.02305347  1
  Hf  Hf33  1  0.61716199  0.40219680  0.24190444  1
  Hf  Hf34  1  0.70128744  0.89228994  0.88045071  1
  Hf  Hf35  1  0.10029578  0.91297008  0.12944906  1
  Hf  Hf36  1  0.81689700  -0.01290200  0.00970365  1
  Hf  Hf37  1  0.90289680  0.70910634  0.37587437  1
  Hf  Hf38  1  0.50872198  0.10267820  0.36689411  1
  Hf  Hf39  1  0.89645409  0.70330539  0.86424128  1
  Zr  Zr40  1  0.67621684  0.70381426  0.37090156  1
  Zr  Zr41  1  0.78936729  0.77962785  0.00752750  1
  Zr  Zr42  1  0.10616624  0.90296077  0.62654736  1
  Zr  Zr43  1  0.30902682  0.10270917  0.37845615  1
  Zr  Zr44  1  0.20071509  0.80492622  0.75487749  1
  Zr  Zr45  1  0.61094638  0.00980386  0.50486530  1
  Zr  Zr46  1  0.79289254  0.60781906  0.50323694  1
  Zr  Zr47  1  0.49546190  0.90324368  0.88311899  1
  Zr  Zr48  1  0.91343055  0.10691070  0.11596338  1
  Zr  Zr49  1  0.90894018  0.49682654  0.39745385  1
  Zr  Zr50  1  0.80918047  -0.00490595  0.48814120  1
  Zr  Zr51  1  0.18519922  0.38785306  0.25723568  1
  Zr  Zr52  1  0.50552607  0.70107227  0.89026061  1
  Zr  Zr53  1  0.41259518  0.00127963  0.73372499  1
  Zr  Zr54  1  0.41182891  -0.00206859  0.50176447  1
  Zr  Zr55  1  0.19310937  0.80292904  -0.00147144  1
  Zr  Zr56  1  0.81002913  0.22155244  0.25003085  1
  Zr  Zr57  1  0.39351548  0.80336652  0.02250916  1
  Zr  Zr58  1  0.29789385  0.91107771  0.87197835  1
  Zr  Zr59  1  0.70795219  0.10836954  0.88847422  1
  Zr  Zr60  1  0.29842178  0.49429637  0.88046107  1
  Zr  Zr61  1  0.30222081  0.69586856  0.87692852  1
  Zr  Zr62  1  0.39619857  0.79809838  0.24921137  1
  Zr  Zr63  1  0.80409757  0.00926953  0.25207502  1
  Zr  Zr64  1  0.09479156  0.70698843  0.13302852  1
  Zr  Zr65  1  0.28807505  0.09299024  0.62528525  1
  Zr  Zr66  1  0.62247984  0.00459266  0.73524609  1
  Zr  Zr67  1  0.09531651  0.31496541  0.61660959  1
  Zr  Zr68  1  -0.00958560  0.81740971  -0.00741497  1
  Zr  Zr69  1  0.30032645  0.10433805  0.87057182  1
  Zr  Zr70  1  0.78335169  0.19605425  0.50636402  1
  Zr  Zr71  1  0.59387110  0.79087442  0.74695174  1
  Zr  Zr72  1  -0.00692014  0.40230189  0.76356802  1
  Zr  Zr73  1  0.59869295  -0.00929845  0.01079275  1
  Zr  Zr74  1  0.59946840  0.22288590  0.00788237  1
  Zr  Zr75  1  0.49483458  0.10878082  0.88529696  1
  Zr  Zr76  1  0.87971207  0.49123946  0.11577770  1
  Zr  Zr77  1  0.59125129  0.21252217  0.75119381  1
  Zr  Zr78  1  0.41070985  0.59896838  0.75236693  1
  Zr  Zr79  1  0.79233153  0.57765576  0.26160218  1
  Ta  Ta80  1  0.57318032  0.60302436  0.49988989  1
  Ta  Ta81  1  0.00816501  0.00686003  0.25750083  1
  Ta  Ta82  1  0.91434290  0.49798495  0.61211497  1
  Ta  Ta83  1  0.08366075  0.30070516  0.39317403  1
  Ta  Ta84  1  0.41686042  0.77093321  0.47943554  1
  Ta  Ta85  1  0.60393048  -0.00415771  0.24444928  1
  Ta  Ta86  1  0.88429595  0.30723022  0.39846080  1
  Ta  Ta87  1  0.28579215  0.67789619  0.36426826  1
  Ta  Ta88  1  0.91281247  0.11593524  0.37828952  1
  Ta  Ta89  1  0.40302962  0.39086837  0.00578669  1
  Ta  Ta90  1  0.00788337  0.59740651  0.74940125  1
  Ta  Ta91  1  0.69684345  0.68518054  0.14326485  1
  Ta  Ta92  1  0.19972815  0.20386421  0.50523647  1
  Ta  Ta93  1  0.09310476  0.10575314  0.61622147  1
  Ta  Ta94  1  0.20851252  0.00176171  0.24743143  1
  Ta  Ta95  1  0.10609474  0.10141167  0.89052050  1
  Ta  Ta96  1  0.59870850  0.40509283  0.00181158  1
  Ta  Ta97  1  0.03062533  0.60567695  0.49766268  1
  Ta  Ta98  1  0.89215724  0.70043265  0.13696002  1
  Ta  Ta99  1  0.79701527  0.19185614  0.74689934  1
  Ta  Ta100  1  -0.02203828  0.39632247  0.25889794  1
  Ta  Ta101  1  0.79588120  0.79959771  0.25114081  1
  Ta  Ta102  1  0.10933525  0.68853220  0.63276855  1
  Ta  Ta103  1  0.40107295  0.40335859  0.50082083  1
  Ta  Ta104  1  0.19846087  0.20517179  0.74691180  1
  Ta  Ta105  1  0.90587277  0.89461171  0.14036116  1
  Ta  Ta106  1  0.11003061  0.29838696  0.87884643  1
  Ta  Ta107  1  0.40432778  -0.00300959  0.24901490  1
  Ta  Ta108  1  0.51518519  0.88756158  0.37070634  1
  Ta  Ta109  1  -0.00128669  0.40019106  -0.01883926  1
  Ta  Ta110  1  0.19470987  0.40281494  0.75501389  1
  Ta  Ta111  1  0.70185837  0.11059150  0.36768253  1
  Ta  Ta112  1  0.70278322  0.68745487  0.87268101  1
  Ta  Ta113  1  0.68424290  0.70780407  0.60880998  1
  Ta  Ta114  1  0.29431165  0.29514619  0.37298314  1
  Ta  Ta115  1  0.69911908  0.88934592  0.13207372  1
  Ta  Ta116  1  0.39523381  0.59498659  0.24360587  1
  Ta  Ta117  1  0.89129723  0.51012888  0.87636245  1
  Ta  Ta118  1  0.29805439  0.30527989  0.62575642  1
  Ta  Ta119  1  0.70806902  0.10223455  0.11728523  1
  Ti  Ti120  1  0.09493138  0.91563198  0.87233029  1
  Ti  Ti121  1  0.39345063  0.20448384  0.24509513  1
  Ti  Ti122  1  0.19853723  0.38882502  0.00014095  1
  Ti  Ti123  1  0.29906304  0.49091158  0.13543313  1
  Ti  Ti124  1  0.69307335  0.49742818  0.61456589  1
  Ti  Ti125  1  0.10336019  0.50689222  0.87891787  1
  Ti  Ti126  1  0.89895394  0.90798269  0.86076018  1
  Ti  Ti127  1  0.50002182  0.49789361  0.88427427  1
  Ti  Ti128  1  0.60145209  0.59775736  0.74138326  1
  Ti  Ti129  1  0.40374722  0.79891118  0.74718885  1
  Ti  Ti130  1  0.70136771  0.89905173  0.37278652  1
  Ti  Ti131  1  -0.00476989  0.21746019  -0.00522509  1
  Ti  Ti132  1  0.69345240  0.50274327  0.87321179  1
  Ti  Ti133  1  0.10150568  0.69771335  0.86930573  1
  Ti  Ti134  1  0.71307181  0.89750952  0.60971963  1
  Ti  Ti135  1  0.89869446  0.09811684  0.62362467  1
  Ti  Ti136  1  0.72532817  0.31137141  0.11998012  1
  Ti  Ti137  1  0.30998936  0.48686150  0.35762394  1
  Ti  Ti138  1  0.30321881  0.09038789  0.12653304  1
  Ti  Ti139  1  0.30503065  0.29532011  0.87585537  1
  Ti  Ti140  1  0.11476331  0.51546254  0.36842273  1
  Ti  Ti141  1  0.21346979  0.00004820  0.00614702  1
  Ti  Ti142  1  -0.00529879  0.80054760  0.49652622  1
  Ti  Ti143  1  0.90300013  0.90188066  0.36469300  1
  Ti  Ti144  1  0.59253214  0.39079163  0.50722233  1
  Ti  Ti145  1  0.38814173  0.58644908  0.48771319  1
  Ti  Ti146  1  0.19770407  0.79314395  0.24946563  1
  Ti  Ti147  1  0.39008357  0.20310925  0.00639944  1
  Ti  Ti148  1  0.39877256  0.59548504  0.01814576  1
  Ti  Ti149  1  0.59405786  0.40642072  0.75401100  1
  Ti  Ti150  1  0.40219705  0.20258447  0.73572870  1
  Ti  Ti151  1  0.50713230  0.70208882  0.13552865  1
  Ti  Ti152  1  0.49783588  0.90094072  0.13018258  1
  Ti  Ti153  1  0.09637633  0.88926876  0.36224370  1
  Ti  Ti154  1  0.49721987  0.49832809  0.62231197  1
  Ti  Ti155  1  0.49834787  0.50639882  0.36199394  1
  Ti  Ti156  1  0.00411693  0.80012036  0.75125949  1
  Ti  Ti157  1  0.68912253  0.30192483  0.62973357  1
  Ti  Ti158  1  0.00442381  0.00748613  0.75011258  1
  Ti  Ti159  1  0.59481385  0.20138548  0.51248971  1
  Mo  Mo160  1  0.29478418  0.90390694  0.13590814  1
  Mo  Mo161  1  0.59385954  0.59795600  0.24942613  1
  Mo  Mo162  1  0.39313942  0.00203683  0.01713700  1
  Mo  Mo163  1  0.59790052  0.80564978  0.24230887  1
  Mo  Mo164  1  0.60206686  0.79631263  0.02106627  1
  Mo  Mo165  1  0.91579026  0.30945583  0.11829539  1
  Mo  Mo166  1  0.20466753  0.59598024  0.23713764  1
  Mo  Mo167  1  0.09722231  0.50752356  0.62891725  1
  Mo  Mo168  1  0.08860810  0.30398219  0.11445588  1
  Mo  Mo169  1  0.49719251  0.68496886  0.61725128  1
  Mo  Mo170  1  0.00275493  0.40609481  0.49741376  1
  Mo  Mo171  1  0.68869481  0.30673589  0.86798867  1
  Mo  Mo172  1  0.89651338  0.29243869  0.86952136  1
  Mo  Mo173  1  0.49143547  0.31320175  0.88112662  1
  Mo  Mo174  1  0.80324018  0.39463916  0.25739710  1
  Mo  Mo175  1  0.09901436  0.70107896  0.36234827  1
  Mo  Mo176  1  0.78811277  0.39997583  0.51978007  1
  Mo  Mo177  1  0.20322614  0.19414894  0.25605661  1
  Mo  Mo178  1  0.80265630  0.80656661  0.49410177  1
  Mo  Mo179  1  0.81288508  0.00648390  0.74806499  1
  Mo  Mo180  1  0.80246660  0.19991483  0.00398066  1
  Mo  Mo181  1  0.50580223  0.10360708  0.62761563  1
  Mo  Mo182  1  -0.00370136  0.19602516  0.50088258  1
  Mo  Mo183  1  0.49874412  0.31243772  0.62266042  1
  Mo  Mo184  1  0.60558892  0.79752746  0.49255177  1
  Mo  Mo185  1  0.68931677  0.29219382  0.38352828  1
  Mo  Mo186  1  0.01206572  -0.00348686  -0.00368110  1
  Mo  Mo187  1  0.17808625  0.01946367  0.75307005  1
  Mo  Mo188  1  0.40025220  0.39240154  0.24727694  1
  Mo  Mo189  1  0.79858596  0.59260087  -0.00485653  1
  Mo  Mo190  1  0.48530007  0.30507254  0.13064489  1
  Mo  Mo191  1  0.19947240  -0.00769316  0.49449774  1
  Mo  Mo192  1  0.48997124  0.68722921  0.36251442  1
  Mo  Mo193  1  -0.00458849  0.80894354  0.25237132  1
  Mo  Mo194  1  0.70069638  0.49602388  0.11732921  1
  Mo  Mo195  1  0.70915920  0.10423983  0.63111376  1
  Mo  Mo196  1  0.19309671  0.59813532  0.75611960  1
  Mo  Mo197  1  0.20417777  0.20718022  -0.00769444  1
  Mo  Mo198  1  0.20878391  0.59730693  0.49361799  1
  Mo  Mo199  1  0.29831546  0.68994963  0.13591047  1
