# generated using pymatgen
data_HfZrTaTiMo
_symmetry_space_group_name_H-M   'P 1'
_cell_length_a   15.21650409
_cell_length_b   15.21567534
_cell_length_c   16.84172090
_cell_angle_alpha   89.98516919
_cell_angle_beta   90.01088656
_cell_angle_gamma   90.01246926
_symmetry_Int_Tables_number   1
_chemical_formula_structural   HfZrTaTiMo
_chemical_formula_sum   'Hf40 Zr40 Ta40 Ti40 Mo40'
_cell_volume   3899.35300545
_cell_formula_units_Z   40
loop_
 _symmetry_equiv_pos_site_id
 _symmetry_equiv_pos_as_xyz
  1  'x, y, z'
loop_
 _atom_site_type_symbol
 _atom_site_label
 _atom_site_symmetry_multiplicity
 _atom_site_fract_x
 _atom_site_fract_y
 _atom_site_fract_z
 _atom_site_occupancy
  Hf  Hf0  1  0.00025783  0.80097974  0.50757318  1
  Hf  Hf1  1  0.29596978  0.30175492  0.61188990  1
  Hf  Hf2  1  0.30531567  0.89963763  0.37579954  1
  Hf  Hf3  1  0.51298356  0.90472637  0.37086449  1
  Hf  Hf4  1  0.09414784  0.90232483  0.37505823  1
  Hf  Hf5  1  0.86642263  0.49916904  0.35656104  1
  Hf  Hf6  1  0.10811962  0.09156392  0.88986465  1
  Hf  Hf7  1  0.79805332  -0.00633369  0.51233325  1
  Hf  Hf8  1  0.29555717  0.29952009  0.87637751  1
  Hf  Hf9  1  0.50341381  0.30062077  0.37978678  1
  Hf  Hf10  1  0.08683163  0.10973061  0.36384014  1
  Hf  Hf11  1  0.00309763  0.40779294  0.01188113  1
  Hf  Hf12  1  0.29860958  0.09975010  0.37286267  1
  Hf  Hf13  1  0.10352157  0.88585646  0.86875899  1
  Hf  Hf14  1  0.30711807  0.29686350  0.38860404  1
  Hf  Hf15  1  0.20709374  0.00943754  0.73931464  1
  Hf  Hf16  1  0.29730629  0.70475663  0.36880162  1
  Hf  Hf17  1  0.69925748  0.72213212  0.62091291  1
  Hf  Hf18  1  0.61848548  0.80437899  0.24905955  1
  Hf  Hf19  1  0.40013220  0.22194013  0.23379740  1
  Hf  Hf20  1  0.59377416  0.60305761  0.50845187  1
  Hf  Hf21  1  0.21542211  0.81269065  0.72650752  1
  Hf  Hf22  1  0.89553981  0.50551482  0.88149912  1
  Hf  Hf23  1  0.80566271  0.20231795  0.49627310  1
  Hf  Hf24  1  0.18348173  0.40296953  0.49652348  1
  Hf  Hf25  1  0.70066747  0.49309423  0.89072239  1
  Hf  Hf26  1  0.89529600  0.29948350  0.14299329  1
  Hf  Hf27  1  0.38697295  0.60277095  0.00129814  1
  Hf  Hf28  1  0.58765749  0.39407778  0.24017059  1
  Hf  Hf29  1  0.21677355  0.40447571  0.26005239  1
  Hf  Hf30  1  0.49284175  0.49716238  0.11541853  1
  Hf  Hf31  1  -0.00722012  0.19847434  0.01415855  1
  Hf  Hf32  1  0.79197254  0.19021710  0.01083847  1
  Hf  Hf33  1  0.89048455  0.51206763  0.13002692  1
  Hf  Hf34  1  0.28187935  0.70305447  0.87050213  1
  Hf  Hf35  1  0.49060560  0.70770986  0.86846076  1
  Hf  Hf36  1  0.59804863  0.19069940  0.49910918  1
  Hf  Hf37  1  0.39852947  -0.02218387  0.74436549  1
  Hf  Hf38  1  0.00926627  -0.01108488  0.73444942  1
  Hf  Hf39  1  0.01639323  0.40302083  0.24758762  1
  Zr  Zr40  1  -0.01518008  0.39667134  0.48718489  1
  Zr  Zr41  1  0.20386919  0.59996958  0.73422355  1
  Zr  Zr42  1  0.51126672  0.69944828  0.12306746  1
  Zr  Zr43  1  0.49533711  0.69860249  0.37064995  1
  Zr  Zr44  1  0.89187368  0.07556056  0.36008683  1
  Zr  Zr45  1  0.49635974  0.29607418  0.62362521  1
  Zr  Zr46  1  0.70562335  0.69560868  0.38625274  1
  Zr  Zr47  1  0.60645477  0.60428010  0.74751142  1
  Zr  Zr48  1  -0.00596093  0.00488682  0.51664945  1
  Zr  Zr49  1  0.49525394  0.50249271  0.87687684  1
  Zr  Zr50  1  0.30826775  0.10803112  0.61005569  1
  Zr  Zr51  1  0.59870294  -0.01303767  0.75849883  1
  Zr  Zr52  1  0.70750471  0.29259824  0.63402419  1
  Zr  Zr53  1  0.68794271  0.08812107  0.36276309  1
  Zr  Zr54  1  0.81963238  0.80734497  0.26304490  1
  Zr  Zr55  1  0.51160788  0.91414977  0.12661855  1
  Zr  Zr56  1  0.80111836  -0.01070858  0.75086487  1
  Zr  Zr57  1  0.50368994  0.29696050  0.87166416  1
  Zr  Zr58  1  0.19283873  0.60898030  0.50829950  1
  Zr  Zr59  1  0.29318032  0.69703129  0.13468187  1
  Zr  Zr60  1  0.49730228  0.09493220  0.87415893  1
  Zr  Zr61  1  0.30980090  0.50694751  0.38810544  1
  Zr  Zr62  1  0.90556222  0.09725585  0.87389216  1
  Zr  Zr63  1  0.39086918  0.81156316  0.00754801  1
  Zr  Zr64  1  0.72005264  0.89208097  0.11006954  1
  Zr  Zr65  1  0.91110383  0.28293671  0.34854259  1
  Zr  Zr66  1  0.90169713  0.72342863  0.86386899  1
  Zr  Zr67  1  0.39510209  0.19419203  0.75094700  1
  Zr  Zr68  1  0.70871025  0.31001960  0.36091144  1
  Zr  Zr69  1  -0.00249297  0.82810528  0.00627162  1
  Zr  Zr70  1  0.00812567  0.20359941  0.75200765  1
  Zr  Zr71  1  0.00809732  0.61884883  -0.00238337  1
  Zr  Zr72  1  0.10680531  0.51232737  0.87351710  1
  Zr  Zr73  1  0.29284869  0.09789148  0.12479972  1
  Zr  Zr74  1  0.09865096  0.30293489  0.88527548  1
  Zr  Zr75  1  0.19783824  -0.00732245  0.51102569  1
  Zr  Zr76  1  -0.00825102  0.61191827  0.25447483  1
  Zr  Zr77  1  0.59604919  0.18810839  0.01560494  1
  Zr  Zr78  1  0.60236995  0.39746466  0.74842719  1
  Zr  Zr79  1  0.61980297  0.59118535  0.25013737  1
  Ta  Ta80  1  0.39998470  0.20214335  0.01306240  1
  Ta  Ta81  1  0.19520130  -0.00361710  0.24361735  1
  Ta  Ta82  1  0.80093965  0.59191120  0.50772563  1
  Ta  Ta83  1  0.90349492  0.31052705  0.63219186  1
  Ta  Ta84  1  0.70417625  0.10219997  0.87173256  1
  Ta  Ta85  1  0.89221143  0.11610003  0.63569568  1
  Ta  Ta86  1  0.50920257  0.09428457  0.62827043  1
  Ta  Ta87  1  -0.00464210  -0.01272804  0.23519982  1
  Ta  Ta88  1  0.69738865  0.09781209  0.63502174  1
  Ta  Ta89  1  0.29648197  0.49803793  0.87550928  1
  Ta  Ta90  1  0.40030871  0.80516628  0.24262813  1
  Ta  Ta91  1  0.59854775  0.38754026  0.00527233  1
  Ta  Ta92  1  0.69910827  0.50044551  0.10579741  1
  Ta  Ta93  1  0.71599159  0.88858381  0.88523107  1
  Ta  Ta94  1  0.18849743  0.20851665  0.24788476  1
  Ta  Ta95  1  0.18391265  0.20286261  0.49173171  1
  Ta  Ta96  1  0.41702422  0.00345593  0.50030909  1
  Ta  Ta97  1  0.49341467  0.50657051  0.63158962  1
  Ta  Ta98  1  0.30270643  0.49976327  0.62003964  1
  Ta  Ta99  1  0.89011341  0.30210908  0.87582425  1
  Ta  Ta100  1  0.39027877  0.39172670  0.00222927  1
  Ta  Ta101  1  0.88898161  0.87478594  0.63773996  1
  Ta  Ta102  1  -0.00340672  0.40678695  0.75232829  1
  Ta  Ta103  1  0.19384543  0.39732896  0.74019368  1
  Ta  Ta104  1  0.09716671  0.69838647  0.12936548  1
  Ta  Ta105  1  0.88940654  0.71294927  0.11926290  1
  Ta  Ta106  1  0.07940190  0.49806127  0.62575582  1
  Ta  Ta107  1  0.39586620  0.58564535  0.24504662  1
  Ta  Ta108  1  0.28006572  0.49189052  0.11822560  1
  Ta  Ta109  1  0.89698800  0.68599415  0.63027370  1
  Ta  Ta110  1  0.10076543  0.70576805  0.37678224  1
  Ta  Ta111  1  0.48807999  0.70939440  0.63835696  1
  Ta  Ta112  1  0.49332171  0.10317880  0.35971093  1
  Ta  Ta113  1  0.40500139  0.00592899  0.00675191  1
  Ta  Ta114  1  0.11731141  0.31091072  0.12104676  1
  Ta  Ta115  1  0.70159267  0.69198742  0.88960371  1
  Ta  Ta116  1  -0.00996571  0.59599889  0.49863322  1
  Ta  Ta117  1  0.60836937  0.40761419  0.50514616  1
  Ta  Ta118  1  0.09051758  0.70418234  0.62813145  1
  Ta  Ta119  1  0.29731706  0.09485428  0.89045857  1
  Ti  Ti120  1  0.90590313  0.70057302  0.38357110  1
  Ti  Ti121  1  0.20082722  0.20243561  0.75100063  1
  Ti  Ti122  1  0.51343333  0.89163446  0.61998035  1
  Ti  Ti123  1  0.40770340  0.80245890  0.50370985  1
  Ti  Ti124  1  0.09427008  0.30148831  0.62487867  1
  Ti  Ti125  1  0.39914257  0.60880421  0.50856393  1
  Ti  Ti126  1  0.19784764  0.80590673  0.24578820  1
  Ti  Ti127  1  0.09285809  0.50917622  0.37726901  1
  Ti  Ti128  1  0.88985573  0.08257627  0.13040009  1
  Ti  Ti129  1  0.68714193  0.08059350  0.13848337  1
  Ti  Ti130  1  0.20835176  0.80032994  0.51591105  1
  Ti  Ti131  1  -0.00307255  0.20565499  0.50267161  1
  Ti  Ti132  1  0.79965653  0.60088656  0.74931117  1
  Ti  Ti133  1  0.00968080  0.80470495  0.24414193  1
  Ti  Ti134  1  0.60376803  0.80457329  0.76198086  1
  Ti  Ti135  1  0.69575756  0.29921278  0.13427243  1
  Ti  Ti136  1  0.09412345  0.09706549  0.12450407  1
  Ti  Ti137  1  0.70834399  0.50237666  0.62751440  1
  Ti  Ti138  1  0.60692233  -0.00324279  -0.01016706  1
  Ti  Ti139  1  0.70339812  0.28868479  0.86969959  1
  Ti  Ti140  1  0.19090670  0.59867805  0.25369613  1
  Ti  Ti141  1  0.79976645  0.38701762  0.00491642  1
  Ti  Ti142  1  0.80517307  0.40281846  0.75193541  1
  Ti  Ti143  1  0.79819385  0.80535461  0.49301846  1
  Ti  Ti144  1  0.82561716  -0.01405671  -0.00950962  1
  Ti  Ti145  1  0.09995713  0.11275913  0.62231018  1
  Ti  Ti146  1  0.41281478  0.40776064  0.50607221  1
  Ti  Ti147  1  0.39969726  0.00114394  0.24215266  1
  Ti  Ti148  1  0.38839539  0.40867496  0.74653864  1
  Ti  Ti149  1  0.79740304  0.40433771  0.50479274  1
  Ti  Ti150  1  0.30881775  0.90318611  0.87885146  1
  Ti  Ti151  1  0.59887730  0.79895451  -0.00877915  1
  Ti  Ti152  1  0.20473809  0.20726729  0.00901793  1
  Ti  Ti153  1  0.70801988  0.68909731  0.10225990  1
  Ti  Ti154  1  0.19270529  0.78772368  0.00642694  1
  Ti  Ti155  1  -0.00133084  0.60352487  0.75174436  1
  Ti  Ti156  1  0.19933518  -0.02090163  0.01387685  1
  Ti  Ti157  1  0.50437827  0.49812544  0.37536654  1
  Ti  Ti158  1  0.60726943  -0.01222922  0.50401911  1
  Ti  Ti159  1  0.78878946  0.18595402  0.23873213  1
  Mo  Mo160  1  0.80358581  0.59992448  -0.00124343  1
  Mo  Mo161  1  0.31034274  0.69789116  0.62032407  1
  Mo  Mo162  1  0.20176239  0.40596219  -0.00190100  1
  Mo  Mo163  1  0.10292522  0.89929185  0.62266951  1
  Mo  Mo164  1  0.71000494  0.90271367  0.38071523  1
  Mo  Mo165  1  0.78901337  0.79017306  0.75328185  1
  Mo  Mo166  1  0.80059125  0.20448291  0.75599056  1
  Mo  Mo167  1  0.29870123  0.30611134  0.12107767  1
  Mo  Mo168  1  0.39613800  0.59663066  0.74598111  1
  Mo  Mo169  1  0.49869958  0.30369238  0.11754637  1
  Mo  Mo170  1  0.10247415  0.29631012  0.37001821  1
  Mo  Mo171  1  0.10389189  0.70796634  0.86319835  1
  Mo  Mo172  1  0.00701715  0.00689718  0.01120055  1
  Mo  Mo173  1  0.78467439  0.41170361  0.23651787  1
  Mo  Mo174  1  0.79517983  -0.00904562  0.24605889  1
  Mo  Mo175  1  0.00462271  0.19075501  0.22528836  1
  Mo  Mo176  1  0.90682198  0.90209692  0.12640634  1
  Mo  Mo177  1  0.59610713  0.80918190  0.50159652  1
  Mo  Mo178  1  0.80306810  0.79767175  -0.00486799  1
  Mo  Mo179  1  0.11306118  0.89876715  0.12927952  1
  Mo  Mo180  1  0.40465875  0.19266123  0.49484490  1
  Mo  Mo181  1  0.60854977  0.18801329  0.75175263  1
  Mo  Mo182  1  0.29907810  0.90048477  0.13278461  1
  Mo  Mo183  1  0.89378709  0.49998857  0.63191502  1
  Mo  Mo184  1  0.19547664  0.60465387  0.00215776  1
  Mo  Mo185  1  0.69651386  0.89998782  0.62531912  1
  Mo  Mo186  1  0.79111816  0.61290210  0.24096034  1
  Mo  Mo187  1  0.59903134  -0.00226563  0.25033176  1
  Mo  Mo188  1  0.10416722  0.51008465  0.12766169  1
  Mo  Mo189  1  0.90554341  0.90688913  0.86492568  1
  Mo  Mo190  1  0.50305261  0.89821084  0.88880808  1
  Mo  Mo191  1  0.00289758  0.79381079  0.73720911  1
  Mo  Mo192  1  0.90554314  0.89242943  0.38052949  1
  Mo  Mo193  1  0.59575437  0.19390799  0.23563840  1
  Mo  Mo194  1  0.59805468  0.59981023  -0.00309366  1
  Mo  Mo195  1  0.32268733  0.89297513  0.60947303  1
  Mo  Mo196  1  0.39987015  0.41209137  0.25053436  1
  Mo  Mo197  1  0.40967688  0.80276159  0.75197323  1
  Mo  Mo198  1  0.68959433  0.49695093  0.38514031  1
  Mo  Mo199  1  0.50068210  0.10065402  0.13449625  1
