# generated using pymatgen
data_HfZrTaTiMo
_symmetry_space_group_name_H-M   'P 1'
_cell_length_a   15.21887835
_cell_length_b   15.22229427
_cell_length_c   16.83193702
_cell_angle_alpha   90.04526506
_cell_angle_beta   89.95733846
_cell_angle_gamma   90.08292881
_symmetry_Int_Tables_number   1
_chemical_formula_structural   HfZrTaTiMo
_chemical_formula_sum   'Hf40 Zr40 Ta40 Ti40 Mo40'
_cell_volume   3899.38526072
_cell_formula_units_Z   40
loop_
 _symmetry_equiv_pos_site_id
 _symmetry_equiv_pos_as_xyz
  1  'x, y, z'
loop_
 _atom_site_type_symbol
 _atom_site_label
 _atom_site_symmetry_multiplicity
 _atom_site_fract_x
 _atom_site_fract_y
 _atom_site_fract_z
 _atom_site_occupancy
  Hf  Hf0  1  0.41076120  0.01783845  0.01204635  1
  Hf  Hf1  1  -0.00650305  0.20020653  -0.00633195  1
  Hf  Hf2  1  0.30002625  0.29362122  0.86784236  1
  Hf  Hf3  1  -0.00317222  -0.00482016  0.24290790  1
  Hf  Hf4  1  0.80441148  0.19412094  0.50027640  1
  Hf  Hf5  1  0.90116854  0.30335638  0.63052989  1
  Hf  Hf6  1  0.00982805  0.79685546  -0.02498412  1
  Hf  Hf7  1  0.81233416  0.19745045  0.26064500  1
  Hf  Hf8  1  0.20402364  0.20934660  0.24379505  1
  Hf  Hf9  1  0.28172886  0.50890992  0.61972329  1
  Hf  Hf10  1  0.10309124  0.71283240  0.11677361  1
  Hf  Hf11  1  0.70757424  0.31511345  0.86691423  1
  Hf  Hf12  1  0.41509977  -0.01076887  0.49974734  1
  Hf  Hf13  1  0.09821170  0.30937536  0.10781710  1
  Hf  Hf14  1  0.29018846  0.51206429  0.38664547  1
  Hf  Hf15  1  0.19855655  0.00261687  0.24610536  1
  Hf  Hf16  1  0.79204550  0.42284337  0.48593236  1
  Hf  Hf17  1  0.08639758  0.89244361  0.37844644  1
  Hf  Hf18  1  0.19046940  0.80487368  0.76755756  1
  Hf  Hf19  1  0.50457652  0.69329318  0.87164929  1
  Hf  Hf20  1  0.20213497  0.21235467  0.50590899  1
  Hf  Hf21  1  0.19080708  0.40544700  0.74815397  1
  Hf  Hf22  1  0.49523371  0.50651800  0.13524948  1
  Hf  Hf23  1  0.89868278  0.10490884  0.84909089  1
  Hf  Hf24  1  0.09563082  0.09442615  0.63057610  1
  Hf  Hf25  1  0.10338682  0.30964067  0.88452407  1
  Hf  Hf26  1  0.30978722  0.70937170  0.38579315  1
  Hf  Hf27  1  0.29358947  0.30833159  0.37640919  1
  Hf  Hf28  1  0.39919954  0.40404086  0.73656347  1
  Hf  Hf29  1  0.38430746  0.40741968  0.24471279  1
  Hf  Hf30  1  0.10591295  0.10039932  0.11174927  1
  Hf  Hf31  1  0.52108391  0.90114916  0.12159379  1
  Hf  Hf32  1  0.08650699  0.51209713  0.11102909  1
  Hf  Hf33  1  0.88759978  0.89873528  0.86535319  1
  Hf  Hf34  1  -0.00309166  0.78599709  0.50466771  1
  Hf  Hf35  1  0.60042548  0.20512527  -0.00640889  1
  Hf  Hf36  1  0.78412760  0.38698132  0.27327523  1
  Hf  Hf37  1  0.00203246  0.20110018  0.24836470  1
  Hf  Hf38  1  0.87734923  0.50803646  0.63203450  1
  Hf  Hf39  1  -0.02100108  0.60685928  -0.01429967  1
  Zr  Zr40  1  0.40853561  0.76895352  0.22479197  1
  Zr  Zr41  1  0.89674949  0.89871351  0.64215080  1
  Zr  Zr42  1  0.70253676  0.88876350  0.88509007  1
  Zr  Zr43  1  0.71168165  0.68859927  0.62308342  1
  Zr  Zr44  1  0.90492345  0.87752339  0.11984190  1
  Zr  Zr45  1  0.38988120  0.39809210  0.51333902  1
  Zr  Zr46  1  0.70908007  0.70117235  0.13317496  1
  Zr  Zr47  1  -0.00863507  0.00109641  -0.00910231  1
  Zr  Zr48  1  0.21623411  0.60690969  0.23941725  1
  Zr  Zr49  1  0.30429353  0.10597475  0.62650270  1
  Zr  Zr50  1  0.39905683  0.80900351  0.75754110  1
  Zr  Zr51  1  0.20413725  0.80786486  0.25035956  1
  Zr  Zr52  1  0.21549349  0.00183559  0.75306240  1
  Zr  Zr53  1  0.71771693  0.90393495  0.09711909  1
  Zr  Zr54  1  0.51276676  0.08657368  0.35887504  1
  Zr  Zr55  1  0.49399576  0.90399384  0.88343663  1
  Zr  Zr56  1  0.12494947  0.10237077  0.87969836  1
  Zr  Zr57  1  0.60146264  0.19282433  0.49960094  1
  Zr  Zr58  1  0.60283305  -0.00924214  0.75644029  1
  Zr  Zr59  1  0.49504992  0.29930978  0.87294423  1
  Zr  Zr60  1  0.30515920  0.09870981  0.37653787  1
  Zr  Zr61  1  0.49999148  0.88286641  0.36399644  1
  Zr  Zr62  1  0.40813011  0.20064096  0.50412727  1
  Zr  Zr63  1  0.51070357  0.29784297  0.13500382  1
  Zr  Zr64  1  0.39546727  -0.01273344  0.23777833  1
  Zr  Zr65  1  0.29575284  0.70636263  0.62167065  1
  Zr  Zr66  1  0.18394245  0.40833410  0.24667144  1
  Zr  Zr67  1  0.61407738  0.59549666  0.49074235  1
  Zr  Zr68  1  -0.03473782  0.39971325  -0.00770500  1
  Zr  Zr69  1  0.79316965  -0.01222183  0.24797591  1
  Zr  Zr70  1  0.39951808  0.59086137  0.00751982  1
  Zr  Zr71  1  0.71585463  0.08995349  0.63183988  1
  Zr  Zr72  1  0.29540115  0.49586708  0.88303606  1
  Zr  Zr73  1  0.80010683  0.58819038  0.27104252  1
  Zr  Zr74  1  0.10188094  0.30820544  0.62574389  1
  Zr  Zr75  1  0.30499269  0.89858908  0.61850539  1
  Zr  Zr76  1  -0.01804088  0.39988611  0.25067688  1
  Zr  Zr77  1  0.09838409  0.10346792  0.38279068  1
  Zr  Zr78  1  0.86557907  0.50134624  0.85639198  1
  Zr  Zr79  1  0.69954473  0.10869819  0.12543026  1
  Ta  Ta80  1  -0.01553945  0.59290566  0.50152817  1
  Ta  Ta81  1  0.61713142  0.21025246  0.26303432  1
  Ta  Ta82  1  0.08088909  0.51764755  0.37241925  1
  Ta  Ta83  1  0.70885533  0.68341710  0.86719858  1
  Ta  Ta84  1  0.39589910  0.60194843  0.74873702  1
  Ta  Ta85  1  0.10578671  0.90354641  0.10953577  1
  Ta  Ta86  1  0.87789936  0.48619373  0.12722409  1
  Ta  Ta87  1  0.68920954  0.49664996  0.13744045  1
  Ta  Ta88  1  0.69940071  0.90198141  0.38342092  1
  Ta  Ta89  1  0.60110912  0.40749408  0.74449773  1
  Ta  Ta90  1  0.17635085  0.61400805  0.49889332  1
  Ta  Ta91  1  0.40563336  0.79213547  0.00973986  1
  Ta  Ta92  1  0.80500520  0.21158134  -0.00644955  1
  Ta  Ta93  1  0.19202363  -0.00199211  0.50283131  1
  Ta  Ta94  1  0.92811055  0.69788571  0.35733311  1
  Ta  Ta95  1  0.70252251  0.30833446  0.62481580  1
  Ta  Ta96  1  0.50738635  0.29833953  0.63050659  1
  Ta  Ta97  1  0.33062466  0.10229564  0.87623672  1
  Ta  Ta98  1  0.60530979  0.20304546  0.74791723  1
  Ta  Ta99  1  0.90880245  0.68166896  0.14216397  1
  Ta  Ta100  1  0.29309443  0.89518601  0.10433489  1
  Ta  Ta101  1  0.60021774  0.41142164  0.00217726  1
  Ta  Ta102  1  0.19087014  0.60532180  0.75756514  1
  Ta  Ta103  1  0.50076373  0.70105519  0.62581103  1
  Ta  Ta104  1  0.49655769  0.30101216  0.36843079  1
  Ta  Ta105  1  -0.00076530  0.19682698  0.50490708  1
  Ta  Ta106  1  0.90284254  0.08419692  0.38502946  1
  Ta  Ta107  1  0.58817988  0.61065323  0.25958172  1
  Ta  Ta108  1  0.22962439  0.20846991  0.00787879  1
  Ta  Ta109  1  0.48683355  0.50359896  0.37448601  1
  Ta  Ta110  1  0.60288049  0.59972934  0.00201798  1
  Ta  Ta111  1  0.59608946  0.80084559  0.50349233  1
  Ta  Ta112  1  0.59336150  0.39420463  0.48936249  1
  Ta  Ta113  1  0.78856567  0.58113962  0.00361200  1
  Ta  Ta114  1  0.60623644  0.01535648  -0.01366407  1
  Ta  Ta115  1  0.29372321  0.90873687  0.89829717  1
  Ta  Ta116  1  0.70852416  0.08997590  0.37887534  1
  Ta  Ta117  1  0.50589021  0.09005604  0.63553389  1
  Ta  Ta118  1  0.29571561  0.70034738  0.88744831  1
  Ta  Ta119  1  0.09249721  0.69665542  0.63505100  1
  Ti  Ti120  1  0.50163495  0.69590036  0.38074468  1
  Ti  Ti121  1  0.60892105  0.78810756  0.74677573  1
  Ti  Ti122  1  0.61229668  -0.00747892  0.50735098  1
  Ti  Ti123  1  0.09870780  0.89326292  0.62380448  1
  Ti  Ti124  1  0.89304449  0.10114022  0.11717160  1
  Ti  Ti125  1  0.49970654  0.49722505  0.87398475  1
  Ti  Ti126  1  0.17504463  0.41659185  0.50089099  1
  Ti  Ti127  1  0.40541198  0.19262405  0.74302781  1
  Ti  Ti128  1  0.51192923  0.10333021  0.14080058  1
  Ti  Ti129  1  0.70543355  0.89098251  0.62393611  1
  Ti  Ti130  1  -0.01255796  -0.00467773  0.50808241  1
  Ti  Ti131  1  0.81391018  0.76457651  -0.00759454  1
  Ti  Ti132  1  0.07866440  0.51021294  0.62765188  1
  Ti  Ti133  1  0.01639488  -0.01509693  0.76017591  1
  Ti  Ti134  1  0.59671080  0.40727191  0.26981871  1
  Ti  Ti135  1  0.90217140  0.69730061  0.64470611  1
  Ti  Ti136  1  0.50658037  0.89400812  0.62898845  1
  Ti  Ti137  1  0.29842544  0.90209090  0.38541939  1
  Ti  Ti138  1  -0.00346018  0.41274846  0.75637204  1
  Ti  Ti139  1  0.71396650  0.30995396  0.12336716  1
  Ti  Ti140  1  0.80300873  0.79675634  0.49692893  1
  Ti  Ti141  1  0.40284207  0.20346723  0.24958891  1
  Ti  Ti142  1  0.89094607  0.88966584  0.37092860  1
  Ti  Ti143  1  0.09168265  0.31047875  0.38563891  1
  Ti  Ti144  1  0.38929267  0.38096611  0.01561351  1
  Ti  Ti145  1  0.19565653  0.80304124  0.49826798  1
  Ti  Ti146  1  0.30948803  0.10830047  0.12557078  1
  Ti  Ti147  1  0.62025464  0.80921349  0.24766120  1
  Ti  Ti148  1  0.90482582  0.09809751  0.64229376  1
  Ti  Ti149  1  0.01984512  0.20757544  0.75236715  1
  Ti  Ti150  1  0.00129710  0.78516901  0.76884696  1
  Ti  Ti151  1  0.89495251  0.29845287  0.85122567  1
  Ti  Ti152  1  0.60444520  0.78702014  -0.00019696  1
  Ti  Ti153  1  0.50387629  0.50493209  0.61931003  1
  Ti  Ti154  1  0.09598665  0.50802199  0.88387760  1
  Ti  Ti155  1  0.90669126  0.29891811  0.39260295  1
  Ti  Ti156  1  0.70750398  0.71280416  0.37228698  1
  Ti  Ti157  1  0.40229353  0.60714280  0.50841217  1
  Ti  Ti158  1  0.59637683  0.59201466  0.74443674  1
  Ti  Ti159  1  0.71007577  0.10426610  0.86295739  1
  Mo  Mo160  1  0.79881346  0.03050762  -0.01257077  1
  Mo  Mo161  1  0.51655119  0.69681507  0.12032830  1
  Mo  Mo162  1  0.89149948  0.69605934  0.85812626  1
  Mo  Mo163  1  0.30380824  0.29828697  0.12702677  1
  Mo  Mo164  1  0.00087073  0.59712499  0.75592343  1
  Mo  Mo165  1  0.51088704  0.10700230  0.86577546  1
  Mo  Mo166  1  0.40060652  0.59616358  0.24953623  1
  Mo  Mo167  1  0.78100831  0.40013289  0.00401211  1
  Mo  Mo168  1  0.29991573  0.69398667  0.10325702  1
  Mo  Mo169  1  0.60799262  -0.00007409  0.24974738  1
  Mo  Mo170  1  0.00863536  0.59476791  0.24249592  1
  Mo  Mo171  1  0.21030500  0.20784945  0.74907189  1
  Mo  Mo172  1  0.78829874  0.39800434  0.74024862  1
  Mo  Mo173  1  -0.00285188  0.40253829  0.49780386  1
  Mo  Mo174  1  0.40795540  0.00266554  0.75278455  1
  Mo  Mo175  1  0.80309834  -0.01248766  0.49636837  1
  Mo  Mo176  1  0.41168036  0.19875207  0.00871848  1
  Mo  Mo177  1  0.90008329  0.50024067  0.37817188  1
  Mo  Mo178  1  0.67422132  0.50431010  0.87291060  1
  Mo  Mo179  1  0.10424224  0.68962119  0.87496431  1
  Mo  Mo180  1  0.80582494  0.79579250  0.25899601  1
  Mo  Mo181  1  0.19193364  0.60557131  -0.00223573  1
  Mo  Mo182  1  0.28771258  0.49313102  0.11192778  1
  Mo  Mo183  1  0.10183463  0.90404648  0.87676356  1
  Mo  Mo184  1  0.80067577  -0.00564947  0.74940041  1
  Mo  Mo185  1  0.20213916  0.80226481  -0.01081689  1
  Mo  Mo186  1  0.69356575  0.29490595  0.38488464  1
  Mo  Mo187  1  0.00394037  0.79955769  0.24715693  1
  Mo  Mo188  1  0.78314859  0.59876259  0.74437475  1
  Mo  Mo189  1  0.68384785  0.50663960  0.37085599  1
  Mo  Mo190  1  0.68167321  0.48911610  0.62215988  1
  Mo  Mo191  1  0.30073135  0.30182172  0.64165258  1
  Mo  Mo192  1  0.20897589  0.00941763  0.00319506  1
  Mo  Mo193  1  0.80006723  0.20333368  0.74218645  1
  Mo  Mo194  1  0.88767259  0.29121640  0.12514158  1
  Mo  Mo195  1  0.10776725  0.69971061  0.37643645  1
  Mo  Mo196  1  0.81373113  0.62419267  0.47914422  1
  Mo  Mo197  1  0.20269468  0.40720808  0.00319141  1
  Mo  Mo198  1  0.41186611  0.79594768  0.50253520  1
  Mo  Mo199  1  0.79204093  0.79538027  0.74947748  1
