# generated using pymatgen
data_HfZrTaTiMo
_symmetry_space_group_name_H-M   'P 1'
_cell_length_a   15.21540115
_cell_length_b   15.21955807
_cell_length_c   16.84520590
_cell_angle_alpha   89.98157218
_cell_angle_beta   90.05901812
_cell_angle_gamma   89.97982937
_symmetry_Int_Tables_number   1
_chemical_formula_structural   HfZrTaTiMo
_chemical_formula_sum   'Hf40 Zr40 Ta40 Ti40 Mo40'
_cell_volume   3900.87013824
_cell_formula_units_Z   40
loop_
 _symmetry_equiv_pos_site_id
 _symmetry_equiv_pos_as_xyz
  1  'x, y, z'
loop_
 _atom_site_type_symbol
 _atom_site_label
 _atom_site_symmetry_multiplicity
 _atom_site_fract_x
 _atom_site_fract_y
 _atom_site_fract_z
 _atom_site_occupancy
  Hf  Hf0  1  0.61488403  0.21701145  0.72807092  1
  Hf  Hf1  1  0.50030599  0.28066872  0.37262132  1
  Hf  Hf2  1  0.09893028  0.09603392  0.12408597  1
  Hf  Hf3  1  0.50402352  0.10788974  0.13237541  1
  Hf  Hf4  1  0.81507918  0.79740998  0.47998591  1
  Hf  Hf5  1  0.10410554  0.71057154  0.64098852  1
  Hf  Hf6  1  0.09871080  0.91148377  0.36273972  1
  Hf  Hf7  1  0.09796212  0.92423195  0.63576131  1
  Hf  Hf8  1  0.72196223  0.09318756  0.61265194  1
  Hf  Hf9  1  0.41662553  0.79138078  0.76757739  1
  Hf  Hf10  1  0.70500686  0.68056368  0.38148850  1
  Hf  Hf11  1  0.70569637  0.29534276  0.88280361  1
  Hf  Hf12  1  0.89275507  0.09547401  0.13447802  1
  Hf  Hf13  1  0.50909711  0.10656255  0.86483318  1
  Hf  Hf14  1  0.80336762  0.39248112  0.01217710  1
  Hf  Hf15  1  0.90197622  0.30382775  0.36617241  1
  Hf  Hf16  1  0.89334508  0.71689633  0.62770784  1
  Hf  Hf17  1  0.20606929  0.21184618  -0.00440137  1
  Hf  Hf18  1  0.68605534  0.50024871  0.12702010  1
  Hf  Hf19  1  0.89401005  0.51282700  0.35939238  1
  Hf  Hf20  1  0.87412734  0.50232019  0.61721743  1
  Hf  Hf21  1  0.39308742  -0.00376719  0.75498086  1
  Hf  Hf22  1  0.20933466  0.79404655  0.49214197  1
  Hf  Hf23  1  0.80442998  0.79943365  0.00995122  1
  Hf  Hf24  1  0.18579895  0.59816971  0.50248826  1
  Hf  Hf25  1  0.88368306  0.69959729  0.87370334  1
  Hf  Hf26  1  0.00763871  0.19849023  0.25413686  1
  Hf  Hf27  1  0.50834115  0.30666048  0.86929209  1
  Hf  Hf28  1  0.38436110  0.60518699  0.25604727  1
  Hf  Hf29  1  0.09701901  0.69567914  0.86378760  1
  Hf  Hf30  1  0.77507418  0.59135603  0.75108413  1
  Hf  Hf31  1  0.91673992  0.50244667  0.14359090  1
  Hf  Hf32  1  0.30420662  0.30929141  0.38853715  1
  Hf  Hf33  1  -0.01441232  0.61278643  0.49197820  1
  Hf  Hf34  1  0.79823626  -0.01069169  0.26616574  1
  Hf  Hf35  1  0.71017493  0.89593533  0.87845394  1
  Hf  Hf36  1  0.30779538  0.68944686  0.63719108  1
  Hf  Hf37  1  0.20537922  0.78354932  0.25983628  1
  Hf  Hf38  1  0.20162206  0.80056364  -0.01425671  1
  Hf  Hf39  1  -0.01184445  0.59900224  0.74486417  1
  Zr  Zr40  1  0.41224543  0.80417095  0.25147414  1
  Zr  Zr41  1  0.31570943  0.91214668  0.37280070  1
  Zr  Zr42  1  0.09612089  0.11974814  0.87364989  1
  Zr  Zr43  1  0.29824334  0.70444757  0.11471790  1
  Zr  Zr44  1  0.38646295  0.39684794  0.24842982  1
  Zr  Zr45  1  0.30596794  0.09847847  0.13078516  1
  Zr  Zr46  1  0.51218707  0.32351915  0.61800447  1
  Zr  Zr47  1  0.20030006  0.00514615  0.50224390  1
  Zr  Zr48  1  0.89441745  0.49132798  0.87657957  1
  Zr  Zr49  1  0.00307771  0.20031829  0.49652369  1
  Zr  Zr50  1  0.69836696  0.68553060  0.61345273  1
  Zr  Zr51  1  0.82389234  0.19105737  0.74377043  1
  Zr  Zr52  1  0.89682203  0.29878804  0.13929939  1
  Zr  Zr53  1  0.40278252  0.00597473  -0.01574845  1
  Zr  Zr54  1  0.48781061  0.49252072  0.37220889  1
  Zr  Zr55  1  0.40822198  0.41367469  0.74723854  1
  Zr  Zr56  1  0.51083406  0.68426795  0.11846146  1
  Zr  Zr57  1  0.20115548  -0.00275780  -0.01703020  1
  Zr  Zr58  1  0.61015000  -0.00659467  0.73757886  1
  Zr  Zr59  1  0.40372568  0.19012191  0.52332531  1
  Zr  Zr60  1  0.00269614  0.80099070  -0.00493044  1
  Zr  Zr61  1  0.51777330  0.90196935  0.38187822  1
  Zr  Zr62  1  0.48778844  0.09121470  0.36865365  1
  Zr  Zr63  1  0.58718272  0.58297955  0.49371098  1
  Zr  Zr64  1  -0.01189929  0.39025908  0.73864852  1
  Zr  Zr65  1  0.00107833  0.40807682  0.50416557  1
  Zr  Zr66  1  0.01323361  0.40527202  -0.00276269  1
  Zr  Zr67  1  0.71158965  0.09676552  0.87139107  1
  Zr  Zr68  1  0.10422739  0.31854524  0.12839983  1
  Zr  Zr69  1  0.67812966  0.69493544  0.88199429  1
  Zr  Zr70  1  0.21393967  0.81762258  0.76911704  1
  Zr  Zr71  1  0.68799835  0.49349646  0.88861317  1
  Zr  Zr72  1  0.49599611  0.89605254  0.11769115  1
  Zr  Zr73  1  -0.01310993  0.82898057  0.76182998  1
  Zr  Zr74  1  0.28054968  0.50110039  0.11581552  1
  Zr  Zr75  1  0.91233332  0.89885341  0.13939466  1
  Zr  Zr76  1  0.29723642  0.11182100  0.37343611  1
  Zr  Zr77  1  0.60675248  -0.00368985  0.24256620  1
  Zr  Zr78  1  0.01036679  0.80754059  0.49171311  1
  Zr  Zr79  1  0.66685982  0.47816358  0.62375115  1
  Ta  Ta80  1  0.51957360  0.89434734  0.88017900  1
  Ta  Ta81  1  0.61234241  0.00074147  0.00682840  1
  Ta  Ta82  1  0.27702882  0.50596636  0.37850557  1
  Ta  Ta83  1  0.60224381  0.19474122  0.00481636  1
  Ta  Ta84  1  0.30211585  0.29613104  0.86141668  1
  Ta  Ta85  1  0.39437981  0.59750122  -0.01539179  1
  Ta  Ta86  1  0.90457699  0.69783106  0.14149880  1
  Ta  Ta87  1  0.20536493  0.40752765  0.74100857  1
  Ta  Ta88  1  0.78959239  0.80307584  0.74813792  1
  Ta  Ta89  1  0.20332230  0.19766677  0.73904605  1
  Ta  Ta90  1  0.10559258  0.49975245  0.86072471  1
  Ta  Ta91  1  0.19679550  0.20700923  0.51627431  1
  Ta  Ta92  1  -0.00359346  -0.00181229  -0.00951137  1
  Ta  Ta93  1  0.61890370  0.78905239  0.25037122  1
  Ta  Ta94  1  0.68772819  0.09715318  0.38598499  1
  Ta  Ta95  1  0.50115804  0.89700102  0.62171989  1
  Ta  Ta96  1  0.69130173  0.28413983  0.12920930  1
  Ta  Ta97  1  0.90998243  0.28177259  0.87886588  1
  Ta  Ta98  1  0.10638436  0.31076455  0.86193771  1
  Ta  Ta99  1  0.40614585  0.20852090  -0.00678937  1
  Ta  Ta100  1  0.77956125  0.19227235  0.25989646  1
  Ta  Ta101  1  0.82072638  -0.01227161  0.74668988  1
  Ta  Ta102  1  0.59975133  0.38790334  0.25277013  1
  Ta  Ta103  1  0.09683591  0.68821614  0.12738259  1
  Ta  Ta104  1  0.90455155  0.09367045  0.36856977  1
  Ta  Ta105  1  0.19936676  0.40136145  0.51592701  1
  Ta  Ta106  1  0.78825581  0.40328001  0.48222862  1
  Ta  Ta107  1  0.11219885  0.30976905  0.37506626  1
  Ta  Ta108  1  0.49578041  0.29993804  0.12720400  1
  Ta  Ta109  1  0.79731614  0.60338094  0.01939401  1
  Ta  Ta110  1  0.60478203  0.79897173  0.50098041  1
  Ta  Ta111  1  0.10752836  0.89449210  0.13443854  1
  Ta  Ta112  1  0.40636260  0.80084548  0.50184143  1
  Ta  Ta113  1  -0.00713677  0.00113811  0.49370962  1
  Ta  Ta114  1  0.78427173  0.38414690  0.74681270  1
  Ta  Ta115  1  0.21054283  0.21676211  0.24823686  1
  Ta  Ta116  1  0.71303214  0.89080533  0.61363631  1
  Ta  Ta117  1  0.38552398  0.60851109  0.49502764  1
  Ta  Ta118  1  0.30576385  0.30139473  0.12047343  1
  Ta  Ta119  1  0.40209050  0.79713292  -0.02068435  1
  Ti  Ti120  1  0.80588552  0.00085472  0.00293866  1
  Ti  Ti121  1  0.78877679  0.60809574  0.23986955  1
  Ti  Ti122  1  0.59505675  0.59318262  0.25539342  1
  Ti  Ti123  1  0.10495312  0.10856068  0.37211713  1
  Ti  Ti124  1  0.50198079  0.50474677  0.88601288  1
  Ti  Ti125  1  0.39788363  0.41979853  0.51250872  1
  Ti  Ti126  1  0.29293833  0.08853078  0.63108654  1
  Ti  Ti127  1  0.60851930  0.38341747  0.47349544  1
  Ti  Ti128  1  0.70615846  0.89658546  0.12521398  1
  Ti  Ti129  1  -0.00568242  0.19991186  0.00697894  1
  Ti  Ti130  1  0.48594794  0.49273600  0.12131086  1
  Ti  Ti131  1  0.80180862  -0.00783374  0.48202596  1
  Ti  Ti132  1  0.00376138  0.79299659  0.26174359  1
  Ti  Ti133  1  0.37872907  0.59795864  0.77846541  1
  Ti  Ti134  1  0.49865887  0.70240829  0.37693326  1
  Ti  Ti135  1  -0.00487292  0.60154348  -0.00028158  1
  Ti  Ti136  1  0.10312582  0.50584144  0.63650514  1
  Ti  Ti137  1  0.18996976  0.59056587  -0.01178580  1
  Ti  Ti138  1  0.60427779  0.79241556  0.00868760  1
  Ti  Ti139  1  0.80037405  0.18983603  0.00574395  1
  Ti  Ti140  1  0.79711436  0.20004386  0.48379052  1
  Ti  Ti141  1  0.00252017  0.02188494  0.76243833  1
  Ti  Ti142  1  0.78690676  0.39754760  0.25428272  1
  Ti  Ti143  1  0.29889323  0.90194460  0.12658099  1
  Ti  Ti144  1  0.09566892  0.29389776  0.63212007  1
  Ti  Ti145  1  0.92225682  0.09258677  0.62048390  1
  Ti  Ti146  1  0.56906744  0.59809992  0.74927710  1
  Ti  Ti147  1  0.29976864  0.30905425  0.62773110  1
  Ti  Ti148  1  0.18424970  0.41816292  0.25271485  1
  Ti  Ti149  1  0.60534189  0.79275470  0.74219385  1
  Ti  Ti150  1  0.59493940  0.00071371  0.51250450  1
  Ti  Ti151  1  0.80142073  0.79707493  0.26410209  1
  Ti  Ti152  1  0.30393417  0.89502678  0.62536060  1
  Ti  Ti153  1  0.40373552  0.19984706  0.73459668  1
  Ti  Ti154  1  0.38960474  0.39814604  -0.00798066  1
  Ti  Ti155  1  0.88561584  0.29382636  0.61131222  1
  Ti  Ti156  1  0.50026420  0.69989633  0.62018504  1
  Ti  Ti157  1  0.58817203  0.39272858  0.01117535  1
  Ti  Ti158  1  0.20132476  0.00517606  0.24763763  1
  Ti  Ti159  1  0.60625332  0.19638858  0.51189075  1
  Mo  Mo160  1  0.60260451  0.41269066  0.75520764  1
  Mo  Mo161  1  0.29265340  0.48878642  0.88181608  1
  Mo  Mo162  1  0.47236995  0.53041404  0.63485756  1
  Mo  Mo163  1  0.29456231  0.50280613  0.62347472  1
  Mo  Mo164  1  0.60072335  0.19952313  0.24706496  1
  Mo  Mo165  1  0.20149473  0.00974000  0.76185982  1
  Mo  Mo166  1  0.59366203  0.58958524  0.01104201  1
  Mo  Mo167  1  0.69889588  0.28922605  0.37117610  1
  Mo  Mo168  1  0.30710929  0.69816529  0.38204430  1
  Mo  Mo169  1  0.89179809  0.91721105  0.61787409  1
  Mo  Mo170  1  0.79909780  0.58889437  0.49401162  1
  Mo  Mo171  1  0.30939211  0.11869293  0.86208420  1
  Mo  Mo172  1  0.50412141  0.09791971  0.62876904  1
  Mo  Mo173  1  0.90326750  0.69937033  0.35325071  1
  Mo  Mo174  1  0.69840885  0.89461238  0.38627319  1
  Mo  Mo175  1  0.09877087  0.91253307  0.86904397  1
  Mo  Mo176  1  0.90605345  0.90361302  0.36444613  1
  Mo  Mo177  1  0.19839795  0.59747337  0.75288001  1
  Mo  Mo178  1  0.39273931  -0.00233776  0.24309743  1
  Mo  Mo179  1  0.39688466  0.20656063  0.24565098  1
  Mo  Mo180  1  0.00382820  0.20446086  0.74213566  1
  Mo  Mo181  1  0.29560852  0.69241357  0.88119584  1
  Mo  Mo182  1  0.71436028  0.29905934  0.60885806  1
  Mo  Mo183  1  0.70753579  0.70372822  0.13188239  1
  Mo  Mo184  1  0.00597094  0.40297110  0.25998637  1
  Mo  Mo185  1  0.10254584  0.10557553  0.62995291  1
  Mo  Mo186  1  0.89599113  0.91023107  0.87972121  1
  Mo  Mo187  1  0.50308184  0.69413622  0.88323284  1
  Mo  Mo188  1  0.90062012  0.10179933  0.88490428  1
  Mo  Mo189  1  0.01685264  0.60553619  0.25873447  1
  Mo  Mo190  1  0.10025256  0.51298431  0.12089466  1
  Mo  Mo191  1  0.01018595  0.00164697  0.25186195  1
  Mo  Mo192  1  0.69637456  0.49057527  0.35682025  1
  Mo  Mo193  1  0.40477373  -0.00608556  0.52284640  1
  Mo  Mo194  1  0.10516582  0.68993019  0.37053768  1
  Mo  Mo195  1  0.19364405  0.60057100  0.25552950  1
  Mo  Mo196  1  0.70511833  0.09452881  0.11985213  1
  Mo  Mo197  1  0.31171988  0.90556651  0.87546522  1
  Mo  Mo198  1  0.20458245  0.40052919  -0.01478732  1
  Mo  Mo199  1  0.09545319  0.49167555  0.38009035  1
