# generated using pymatgen
data_HfZrTaTiMo
_symmetry_space_group_name_H-M   'P 1'
_cell_length_a   15.20643134
_cell_length_b   15.22267249
_cell_length_c   16.85681056
_cell_angle_alpha   89.92920177
_cell_angle_beta   90.02130209
_cell_angle_gamma   90.05028668
_symmetry_Int_Tables_number   1
_chemical_formula_structural   HfZrTaTiMo
_chemical_formula_sum   'Hf40 Zr40 Ta40 Ti40 Mo40'
_cell_volume   3902.05230509
_cell_formula_units_Z   40
loop_
 _symmetry_equiv_pos_site_id
 _symmetry_equiv_pos_as_xyz
  1  'x, y, z'
loop_
 _atom_site_type_symbol
 _atom_site_label
 _atom_site_symmetry_multiplicity
 _atom_site_fract_x
 _atom_site_fract_y
 _atom_site_fract_z
 _atom_site_occupancy
  Hf  Hf0  1  0.31611477  0.69547158  0.11284091  1
  Hf  Hf1  1  0.01000763  0.79855690  0.24768924  1
  Hf  Hf2  1  0.59845404  0.40299535  0.01371999  1
  Hf  Hf3  1  0.20604873  0.39455629  0.51478563  1
  Hf  Hf4  1  0.00317210  0.19818900  0.74794334  1
  Hf  Hf5  1  0.08491181  0.07313721  0.37177940  1
  Hf  Hf6  1  0.10085402  0.11068262  0.87920162  1
  Hf  Hf7  1  0.00105309  0.59544340  0.75751871  1
  Hf  Hf8  1  0.39717213  0.19994418  0.25034679  1
  Hf  Hf9  1  0.59743729  0.40584726  0.23743978  1
  Hf  Hf10  1  0.38922226  0.39170754  0.73911205  1
  Hf  Hf11  1  0.19229712  0.40645508  0.01546242  1
  Hf  Hf12  1  0.30295825  0.50176137  0.37147029  1
  Hf  Hf13  1  0.51491796  0.69425427  0.62695363  1
  Hf  Hf14  1  -0.00748253  0.40449888  0.01008473  1
  Hf  Hf15  1  0.38928522  0.00227555  0.50188072  1
  Hf  Hf16  1  0.20430321  0.60195407  0.75569920  1
  Hf  Hf17  1  0.09639845  0.29264439  0.36862321  1
  Hf  Hf18  1  0.90520390  0.89351469  0.63000144  1
  Hf  Hf19  1  0.81153154  0.82065505  0.25844140  1
  Hf  Hf20  1  0.81977545  0.60916959  -0.01270587  1
  Hf  Hf21  1  0.11557077  0.70255467  0.37369928  1
  Hf  Hf22  1  0.39137148  0.18143031  0.00787441  1
  Hf  Hf23  1  0.90333949  0.69763317  0.63234308  1
  Hf  Hf24  1  0.10528989  0.88704829  0.10646926  1
  Hf  Hf25  1  0.00679920  -0.00668573  0.75673652  1
  Hf  Hf26  1  0.59260440  -0.00347157  0.24915801  1
  Hf  Hf27  1  0.49531686  0.08240520  0.85854681  1
  Hf  Hf28  1  0.70239845  0.50260909  0.63431998  1
  Hf  Hf29  1  0.60981459  0.80955800  0.00158798  1
  Hf  Hf30  1  0.41631447  0.60451038  0.25094011  1
  Hf  Hf31  1  0.40990112  0.80625389  0.24970437  1
  Hf  Hf32  1  0.70685406  0.51733938  0.12540949  1
  Hf  Hf33  1  0.38427176  0.00102671  0.26233968  1
  Hf  Hf34  1  0.31386184  0.90635324  0.11914519  1
  Hf  Hf35  1  0.81617418  0.40217318  0.24196313  1
  Hf  Hf36  1  0.18645572  0.20593477  0.02393175  1
  Hf  Hf37  1  0.79955614  0.60483730  0.49525521  1
  Hf  Hf38  1  0.21551675  0.01332546  0.00651821  1
  Hf  Hf39  1  -0.01677950  0.18839590  0.24776131  1
  Zr  Zr40  1  0.01008858  0.58519847  0.25944655  1
  Zr  Zr41  1  0.89089343  0.27628741  0.88241896  1
  Zr  Zr42  1  0.51290073  0.70667739  0.86386906  1
  Zr  Zr43  1  0.39387447  0.20198174  0.50731572  1
  Zr  Zr44  1  0.89062806  0.30960854  0.61616551  1
  Zr  Zr45  1  0.89188157  0.87607868  0.10180018  1
  Zr  Zr46  1  0.20247337  0.60550491  -0.01564908  1
  Zr  Zr47  1  0.69267961  0.30485631  0.37442267  1
  Zr  Zr48  1  0.78941267  0.20893163  0.74083221  1
  Zr  Zr49  1  0.31046939  0.70256897  0.38353881  1
  Zr  Zr50  1  0.40027878  0.59587243  0.75061294  1
  Zr  Zr51  1  0.18907276  0.40196399  0.73550285  1
  Zr  Zr52  1  0.50269969  0.89614994  0.38685185  1
  Zr  Zr53  1  0.20199235  0.59510035  0.51441524  1
  Zr  Zr54  1  0.80540375  0.61319765  0.25807306  1
  Zr  Zr55  1  0.68762430  0.51594637  0.86895055  1
  Zr  Zr56  1  0.19181788  0.18588636  0.51446189  1
  Zr  Zr57  1  0.79149408  0.01099759  -0.01141133  1
  Zr  Zr58  1  0.30900192  0.70401008  0.62397632  1
  Zr  Zr59  1  0.70049984  0.31406193  0.88140402  1
  Zr  Zr60  1  0.48469635  0.49670107  0.88131693  1
  Zr  Zr61  1  0.57915964  0.00279635  0.00667349  1
  Zr  Zr62  1  0.49802318  0.28734714  0.87491507  1
  Zr  Zr63  1  0.12365983  0.89620029  0.88714170  1
  Zr  Zr64  1  0.38595619  0.40613433  0.01540772  1
  Zr  Zr65  1  0.00225084  0.60375619  0.49998127  1
  Zr  Zr66  1  0.80520219  0.81052293  0.49449514  1
  Zr  Zr67  1  0.28997991  0.30144540  0.87865649  1
  Zr  Zr68  1  0.00775559  0.76250781  -0.01895942  1
  Zr  Zr69  1  0.29752642  0.30251987  0.36946580  1
  Zr  Zr70  1  0.60778717  0.00003202  0.50533824  1
  Zr  Zr71  1  -0.01704542  0.19502972  0.01867531  1
  Zr  Zr72  1  0.89184522  0.47973737  0.86827334  1
  Zr  Zr73  1  0.69839298  0.11484794  0.87175768  1
  Zr  Zr74  1  0.60605875  0.78397974  0.23977475  1
  Zr  Zr75  1  0.20477707  0.20003799  0.73079479  1
  Zr  Zr76  1  0.70213962  0.10310430  0.36984965  1
  Zr  Zr77  1  0.51794318  0.68775421  0.39011708  1
  Zr  Zr78  1  0.89869119  0.09766706  0.62651157  1
  Zr  Zr79  1  0.72592867  0.71744895  0.11650220  1
  Ta  Ta80  1  0.09213844  0.30737008  0.87791465  1
  Ta  Ta81  1  0.78790421  0.20251404  0.23690433  1
  Ta  Ta82  1  0.78971142  0.40700309  0.49320906  1
  Ta  Ta83  1  0.18001633  -0.01093679  0.51470392  1
  Ta  Ta84  1  0.40853301  0.58681090  0.50830067  1
  Ta  Ta85  1  0.87849874  0.08394540  0.12812480  1
  Ta  Ta86  1  0.68490832  0.90518821  0.86554878  1
  Ta  Ta87  1  0.09947103  0.71617517  0.63555801  1
  Ta  Ta88  1  0.59965245  0.39855082  0.74772331  1
  Ta  Ta89  1  0.29829848  0.89670166  0.62075560  1
  Ta  Ta90  1  -0.00008479  0.00249836  -0.00019164  1
  Ta  Ta91  1  0.50064212  0.30541168  0.37312875  1
  Ta  Ta92  1  0.59657463  0.61330181  0.00303717  1
  Ta  Ta93  1  0.91558509  0.92447443  0.37486838  1
  Ta  Ta94  1  0.91070617  0.71106043  0.37969175  1
  Ta  Ta95  1  0.19502602  0.41190296  0.24193466  1
  Ta  Ta96  1  0.41379518  0.81571153  -0.00571907  1
  Ta  Ta97  1  0.39951695  0.40566297  0.23692056  1
  Ta  Ta98  1  0.89961454  0.49291400  0.38053167  1
  Ta  Ta99  1  0.81087952  0.00721110  0.49861069  1
  Ta  Ta100  1  0.39304904  -0.01224780  0.73990870  1
  Ta  Ta101  1  0.50032478  0.09677277  0.63265711  1
  Ta  Ta102  1  0.50286128  0.89596388  0.62761465  1
  Ta  Ta103  1  0.69259577  0.50793829  0.36808954  1
  Ta  Ta104  1  0.08333201  0.30858992  0.14693047  1
  Ta  Ta105  1  0.49158388  0.52028767  0.11825308  1
  Ta  Ta106  1  0.21047083  0.79975233  0.24625213  1
  Ta  Ta107  1  0.19191011  0.18664368  0.23781396  1
  Ta  Ta108  1  0.61128060  0.80692446  0.74194537  1
  Ta  Ta109  1  0.89989608  0.89720664  0.88024463  1
  Ta  Ta110  1  0.50239834  0.28982952  0.12846001  1
  Ta  Ta111  1  0.21435228  0.81140518  0.75297454  1
  Ta  Ta112  1  -0.00299500  0.39677524  0.49375322  1
  Ta  Ta113  1  0.79630193  -0.00435277  0.75633197  1
  Ta  Ta114  1  0.50697948  0.29869574  0.62636241  1
  Ta  Ta115  1  -0.01257928  0.18515075  0.49258292  1
  Ta  Ta116  1  0.28179534  0.09650717  0.37472561  1
  Ta  Ta117  1  0.27692889  0.90161180  0.38125221  1
  Ta  Ta118  1  0.40959559  0.40055304  0.50941709  1
  Ta  Ta119  1  0.49722763  0.11163096  0.37598050  1
  Ti  Ti120  1  0.92481803  0.67233002  0.12207079  1
  Ti  Ti121  1  0.30731732  0.71690272  0.88001392  1
  Ti  Ti122  1  0.79430923  0.60749137  0.75694054  1
  Ti  Ti123  1  0.18480944  -0.00703115  0.23876419  1
  Ti  Ti124  1  0.10530809  0.49173322  0.37779928  1
  Ti  Ti125  1  0.01381241  0.81949118  0.49661741  1
  Ti  Ti126  1  0.50574309  0.49441504  0.62884495  1
  Ti  Ti127  1  0.60007414  0.20135092  0.00646727  1
  Ti  Ti128  1  0.70211298  0.70511373  0.37748561  1
  Ti  Ti129  1  0.69617681  0.09643307  0.62589468  1
  Ti  Ti130  1  0.89506169  0.49679016  0.62659698  1
  Ti  Ti131  1  -0.00897566  0.39278331  0.74711812  1
  Ti  Ti132  1  0.70638832  0.91961175  0.12795749  1
  Ti  Ti133  1  0.09431879  0.51196988  0.12784812  1
  Ti  Ti134  1  0.68001990  0.11205951  0.13499691  1
  Ti  Ti135  1  0.59452324  0.20531751  0.50464553  1
  Ti  Ti136  1  0.08436375  0.29470833  0.61505612  1
  Ti  Ti137  1  0.61423251  0.80224358  0.51156319  1
  Ti  Ti138  1  0.50548688  0.49119402  0.37680041  1
  Ti  Ti139  1  0.60633830  0.58198775  0.50403160  1
  Ti  Ti140  1  0.40441942  0.80006159  0.50191510  1
  Ti  Ti141  1  0.19971046  0.00416919  0.73432948  1
  Ti  Ti142  1  0.29595473  0.30164337  0.13648573  1
  Ti  Ti143  1  0.80147551  0.38923087  0.02496129  1
  Ti  Ti144  1  0.39367948  0.19206443  0.73580216  1
  Ti  Ti145  1  0.11767388  0.69344885  0.12627326  1
  Ti  Ti146  1  0.80448901  0.80051504  0.76418010  1
  Ti  Ti147  1  0.70575735  0.90512267  0.37268670  1
  Ti  Ti148  1  -0.01129776  -0.00994922  0.23160548  1
  Ti  Ti149  1  0.08738849  0.50057659  0.62401641  1
  Ti  Ti150  1  0.29940456  0.09267369  0.86499416  1
  Ti  Ti151  1  0.59489099  0.20037542  0.74149031  1
  Ti  Ti152  1  0.70849141  0.70767954  0.63033428  1
  Ti  Ti153  1  0.48213777  0.08765592  0.13102551  1
  Ti  Ti154  1  0.00969452  0.79614912  0.76541745  1
  Ti  Ti155  1  0.79182628  0.20027988  0.50202216  1
  Ti  Ti156  1  0.10261604  0.49459669  0.87554246  1
  Ti  Ti157  1  0.89229868  0.29462878  0.37898629  1
  Ti  Ti158  1  0.19803206  0.80342011  0.50711093  1
  Ti  Ti159  1  0.69198632  0.30901258  0.61718156  1
  Mo  Mo160  1  0.29223647  0.50856584  0.13722969  1
  Mo  Mo161  1  0.30149626  0.08827956  0.62934202  1
  Mo  Mo162  1  0.79680807  0.40404162  0.74425639  1
  Mo  Mo163  1  0.80168778  0.00673263  0.24917153  1
  Mo  Mo164  1  0.49706875  0.89757371  0.85797755  1
  Mo  Mo165  1  0.10049643  0.89106275  0.63486757  1
  Mo  Mo166  1  0.90929024  0.50100520  0.12383747  1
  Mo  Mo167  1  0.59544856  0.40226559  0.50108897  1
  Mo  Mo168  1  0.40094845  0.00262393  -0.00680889  1
  Mo  Mo169  1  0.89132862  0.10632629  0.37626773  1
  Mo  Mo170  1  0.31860432  0.90922487  0.87255349  1
  Mo  Mo171  1  0.60511108  0.60238603  0.74200728  1
  Mo  Mo172  1  0.30600585  0.49833378  0.61946718  1
  Mo  Mo173  1  0.29285786  0.49613331  0.87775305  1
  Mo  Mo174  1  0.90551032  0.08716125  0.86994660  1
  Mo  Mo175  1  0.00168876  0.39511729  0.26497696  1
  Mo  Mo176  1  -0.00181671  -0.00503038  0.50530693  1
  Mo  Mo177  1  0.10322242  0.89462516  0.36969940  1
  Mo  Mo178  1  0.60516430  0.00265986  0.73488494  1
  Mo  Mo179  1  0.60489509  0.59863577  0.24861706  1
  Mo  Mo180  1  0.20849735  0.60321649  0.24511038  1
  Mo  Mo181  1  0.21832671  0.80085508  -0.00815110  1
  Mo  Mo182  1  0.89436531  0.29729364  0.13210838  1
  Mo  Mo183  1  0.40455511  0.60984170  -0.00663322  1
  Mo  Mo184  1  0.30780577  0.29843264  0.62178828  1
  Mo  Mo185  1  0.09183055  0.09415631  0.62137464  1
  Mo  Mo186  1  0.50338285  0.90018446  0.12715188  1
  Mo  Mo187  1  0.08691871  0.08988520  0.13158017  1
  Mo  Mo188  1  0.58840582  0.20047293  0.24910470  1
  Mo  Mo189  1  0.50854040  0.70423580  0.11362746  1
  Mo  Mo190  1  0.70738103  0.90206126  0.63435281  1
  Mo  Mo191  1  0.40325628  0.80441283  0.74715754  1
  Mo  Mo192  1  0.70611441  0.71009731  0.86977729  1
  Mo  Mo193  1  0.69245658  0.30041720  0.12852732  1
  Mo  Mo194  1  0.79825579  0.80239551  -0.02912524  1
  Mo  Mo195  1  0.29336585  0.10152262  0.13572539  1
  Mo  Mo196  1  0.11282002  0.69968274  0.85642360  1
  Mo  Mo197  1  0.90178136  0.69568385  0.85628045  1
  Mo  Mo198  1  0.01068952  0.58693565  -0.01063502  1
  Mo  Mo199  1  0.78344788  0.20373406  0.02935211  1
