# generated using pymatgen
data_HfZrTaTiMo
_symmetry_space_group_name_H-M   'P 1'
_cell_length_a   15.21437114
_cell_length_b   15.21677779
_cell_length_c   16.83992012
_cell_angle_alpha   90.00889593
_cell_angle_beta   89.99442665
_cell_angle_gamma   90.05109938
_symmetry_Int_Tables_number   1
_chemical_formula_structural   HfZrTaTiMo
_chemical_formula_sum   'Hf40 Zr40 Ta40 Ti40 Mo40'
_cell_volume   3898.67068255
_cell_formula_units_Z   40
loop_
 _symmetry_equiv_pos_site_id
 _symmetry_equiv_pos_as_xyz
  1  'x, y, z'
loop_
 _atom_site_type_symbol
 _atom_site_label
 _atom_site_symmetry_multiplicity
 _atom_site_fract_x
 _atom_site_fract_y
 _atom_site_fract_z
 _atom_site_occupancy
  Hf  Hf0  1  0.48631940  0.29510327  0.12705100  1
  Hf  Hf1  1  0.10766176  0.29962468  0.62007896  1
  Hf  Hf2  1  0.89360321  0.71190571  0.88219739  1
  Hf  Hf3  1  -0.00013417  0.19288529  0.49862577  1
  Hf  Hf4  1  0.40928586  0.60625871  0.49604435  1
  Hf  Hf5  1  0.50038900  0.49762251  0.13116271  1
  Hf  Hf6  1  0.12455464  0.70286658  0.63534420  1
  Hf  Hf7  1  0.49471430  0.49065074  0.63883813  1
  Hf  Hf8  1  -0.00389617  0.59902215  0.75366402  1
  Hf  Hf9  1  0.10835997  0.30334471  0.37785222  1
  Hf  Hf10  1  0.00725130  0.19726882  0.74752447  1
  Hf  Hf11  1  0.01095132  0.60195547  0.50174658  1
  Hf  Hf12  1  0.79468221  0.80044529  0.50606161  1
  Hf  Hf13  1  0.50976653  0.09736971  0.36781348  1
  Hf  Hf14  1  0.51690755  0.50494941  0.38032553  1
  Hf  Hf15  1  0.38839081  0.38493491  0.26548237  1
  Hf  Hf16  1  0.30918838  0.51320587  0.12755856  1
  Hf  Hf17  1  0.69609410  0.89823171  0.36488453  1
  Hf  Hf18  1  0.01170567  0.00280253  0.23705192  1
  Hf  Hf19  1  0.41038842  -0.00286353  0.00602249  1
  Hf  Hf20  1  0.60277293  0.38187142  0.26155232  1
  Hf  Hf21  1  0.01231325  0.79497548  0.24580626  1
  Hf  Hf22  1  0.59151351  0.40539631  -0.01007322  1
  Hf  Hf23  1  0.39370444  0.39083064  0.49510074  1
  Hf  Hf24  1  0.70354299  0.28845167  0.63511437  1
  Hf  Hf25  1  0.79689263  0.40026494  0.25163782  1
  Hf  Hf26  1  0.79557631  0.20180191  0.01001968  1
  Hf  Hf27  1  0.19826337  0.62674774  0.24640631  1
  Hf  Hf28  1  0.09852953  0.69993757  0.87843846  1
  Hf  Hf29  1  0.00492285  0.20576314  0.23015857  1
  Hf  Hf30  1  0.09558485  0.10925221  0.88916360  1
  Hf  Hf31  1  0.90952818  0.09090690  0.36783332  1
  Hf  Hf32  1  0.79844653  0.59360687  0.51692098  1
  Hf  Hf33  1  0.68695726  0.90313537  0.62017825  1
  Hf  Hf34  1  0.09076333  0.49809260  0.63325635  1
  Hf  Hf35  1  0.49518737  0.89085417  0.13924492  1
  Hf  Hf36  1  0.88960279  0.28661257  0.36946806  1
  Hf  Hf37  1  0.39732546  0.18824408  0.73151466  1
  Hf  Hf38  1  0.29783624  0.30391766  0.86456054  1
  Hf  Hf39  1  0.69208602  0.49021708  0.63996035  1
  Zr  Zr40  1  0.49657698  0.29973582  0.86039922  1
  Zr  Zr41  1  0.49910235  0.08617588  0.87730338  1
  Zr  Zr42  1  0.60968123  0.17570550  0.75032931  1
  Zr  Zr43  1  -0.00410257  0.40727244  0.49182865  1
  Zr  Zr44  1  0.89991234  0.31681131  0.62611298  1
  Zr  Zr45  1  0.48611220  0.89322620  0.36182305  1
  Zr  Zr46  1  0.89104074  0.91155007  0.89426948  1
  Zr  Zr47  1  0.90742239  0.88484770  0.11113727  1
  Zr  Zr48  1  0.20736573  0.39061112  0.01025838  1
  Zr  Zr49  1  0.28188971  0.50851190  0.37506207  1
  Zr  Zr50  1  0.20528300  0.81199170  0.76470333  1
  Zr  Zr51  1  0.50405565  0.69604136  0.63740180  1
  Zr  Zr52  1  0.81394559  0.19847886  0.76305763  1
  Zr  Zr53  1  0.20937367  0.20229177  0.24891547  1
  Zr  Zr54  1  0.69800693  0.48953537  0.11717795  1
  Zr  Zr55  1  0.12164671  0.89800718  0.11383768  1
  Zr  Zr56  1  -0.00024774  0.80519419  0.50799500  1
  Zr  Zr57  1  0.88512758  0.49258053  0.87973900  1
  Zr  Zr58  1  0.00218418  0.59788408  0.24628507  1
  Zr  Zr59  1  0.51467847  0.69110389  0.87038252  1
  Zr  Zr60  1  0.80149987  0.81646166  0.74352830  1
  Zr  Zr61  1  0.90103139  0.70775675  0.37454502  1
  Zr  Zr62  1  0.79506504  0.00918521  0.49359782  1
  Zr  Zr63  1  0.09555545  0.51126297  0.11121756  1
  Zr  Zr64  1  0.30197566  0.10537054  0.12768378  1
  Zr  Zr65  1  0.19708501  0.00672146  0.75872626  1
  Zr  Zr66  1  0.69500056  0.68118128  0.37620113  1
  Zr  Zr67  1  0.89631495  0.50564337  0.36924012  1
  Zr  Zr68  1  0.10854385  0.08638999  0.61074634  1
  Zr  Zr69  1  0.21003598  0.00425687  -0.00766370  1
  Zr  Zr70  1  0.78839128  0.61598942  0.74425040  1
  Zr  Zr71  1  0.29261175  0.51998755  0.63891591  1
  Zr  Zr72  1  0.40641737  0.62129897  0.26626449  1
  Zr  Zr73  1  -0.01169930  0.00111659  0.75235417  1
  Zr  Zr74  1  0.78203858  0.39172807  0.48774013  1
  Zr  Zr75  1  0.70827277  0.30905160  0.87341808  1
  Zr  Zr76  1  0.18659525  0.40437594  0.24062435  1
  Zr  Zr77  1  0.38462108  0.79927817  0.50210191  1
  Zr  Zr78  1  0.49543059  0.69417663  0.11965429  1
  Zr  Zr79  1  0.78772526  0.19313426  0.22924363  1
  Ta  Ta80  1  0.80426908  -0.00629201  0.23701629  1
  Ta  Ta81  1  0.20222777  0.20181502  0.74504965  1
  Ta  Ta82  1  0.90031009  0.90069803  0.36582178  1
  Ta  Ta83  1  0.50839900  0.30032936  0.63118415  1
  Ta  Ta84  1  0.78237538  0.60327606  -0.00138030  1
  Ta  Ta85  1  0.22488133  0.20121771  0.50070881  1
  Ta  Ta86  1  0.10114719  0.49562265  0.88193362  1
  Ta  Ta87  1  0.91225155  0.29516896  0.88977294  1
  Ta  Ta88  1  0.09598760  0.90800613  0.38278223  1
  Ta  Ta89  1  0.59103925  -0.00448088  0.49474148  1
  Ta  Ta90  1  0.59104725  0.78610673  0.49524458  1
  Ta  Ta91  1  0.41398625  0.19438900  0.51400053  1
  Ta  Ta92  1  0.40048591  0.80003740  -0.01003939  1
  Ta  Ta93  1  0.79894107  0.60448307  0.23680616  1
  Ta  Ta94  1  0.11992577  0.71168574  0.38255112  1
  Ta  Ta95  1  0.30090074  0.50233608  0.86363478  1
  Ta  Ta96  1  0.29509663  0.72372025  0.11980222  1
  Ta  Ta97  1  0.21360195  0.80115766  -0.01802415  1
  Ta  Ta98  1  0.31123602  0.10269236  0.37465868  1
  Ta  Ta99  1  0.21350519  0.60649888  -0.00853037  1
  Ta  Ta100  1  0.88712341  0.10562007  0.61768597  1
  Ta  Ta101  1  0.69677310  0.69803455  0.12293103  1
  Ta  Ta102  1  0.31017421  0.69575130  0.86263242  1
  Ta  Ta103  1  0.00030148  0.80746931  0.74504075  1
  Ta  Ta104  1  0.68170571  0.51431350  0.86700102  1
  Ta  Ta105  1  0.19844920  0.41023729  0.50028137  1
  Ta  Ta106  1  0.78570232  0.01080556  0.75063925  1
  Ta  Ta107  1  0.60661737  -0.01140529  0.01148172  1
  Ta  Ta108  1  -0.00243382  0.39840143  0.00377488  1
  Ta  Ta109  1  0.59440774  -0.02282650  0.75527770  1
  Ta  Ta110  1  0.70605865  0.08287339  0.89158875  1
  Ta  Ta111  1  0.38935553  0.20661282  0.00033634  1
  Ta  Ta112  1  0.40042525  -0.00504025  0.73936479  1
  Ta  Ta113  1  0.09981090  0.30155906  0.87928076  1
  Ta  Ta114  1  0.61456722  0.19304636  0.50474429  1
  Ta  Ta115  1  0.28998977  0.90478994  0.62298956  1
  Ta  Ta116  1  0.50914273  0.10242911  0.13307438  1
  Ta  Ta117  1  0.30276295  0.10966228  0.87536500  1
  Ta  Ta118  1  0.39177160  0.00700004  0.50599793  1
  Ta  Ta119  1  0.90045081  0.10037083  0.89994184  1
  Ti  Ti120  1  0.19128286  0.40150661  0.75259203  1
  Ti  Ti121  1  0.39673038  0.40434853  -0.00339885  1
  Ti  Ti122  1  0.89385895  0.31497006  0.11608792  1
  Ti  Ti123  1  0.68237561  0.29128828  0.11673050  1
  Ti  Ti124  1  0.51460648  0.08662283  0.62269345  1
  Ti  Ti125  1  0.32230034  0.90869957  0.87100193  1
  Ti  Ti126  1  0.30404537  0.30998916  0.63098188  1
  Ti  Ti127  1  0.41265122  0.80970625  0.75226520  1
  Ti  Ti128  1  0.61307799  0.00740244  0.24038305  1
  Ti  Ti129  1  0.69822058  0.89516071  0.13010636  1
  Ti  Ti130  1  0.01252431  0.20488485  0.02009681  1
  Ti  Ti131  1  0.78868309  0.79789898  0.00849250  1
  Ti  Ti132  1  0.69274483  0.89265877  0.88247100  1
  Ti  Ti133  1  0.21154085  0.61810223  0.49956024  1
  Ti  Ti134  1  -0.00882604  0.60506909  -0.00198270  1
  Ti  Ti135  1  0.40532839  0.59703253  -0.00908314  1
  Ti  Ti136  1  0.08376061  0.90136021  0.89074508  1
  Ti  Ti137  1  0.09866073  0.90177031  0.61679720  1
  Ti  Ti138  1  0.90187808  0.08931247  0.10949517  1
  Ti  Ti139  1  -0.00778216  0.39665240  0.75909001  1
  Ti  Ti140  1  0.20414251  -0.00506057  0.25093658  1
  Ti  Ti141  1  0.61480205  0.78838540  0.75299136  1
  Ti  Ti142  1  0.28257817  0.90053421  0.37999681  1
  Ti  Ti143  1  0.11455309  0.09291794  0.38564207  1
  Ti  Ti144  1  0.89321518  0.50683298  0.11424594  1
  Ti  Ti145  1  0.49416949  0.89644909  0.61950813  1
  Ti  Ti146  1  0.48992377  0.49587047  0.84958358  1
  Ti  Ti147  1  0.90216616  0.91503216  0.62088429  1
  Ti  Ti148  1  0.70569024  0.10921420  0.36734280  1
  Ti  Ti149  1  0.59862049  0.79326281  -0.00097182  1
  Ti  Ti150  1  0.09570221  0.70802422  0.10296070  1
  Ti  Ti151  1  0.39214293  0.00123932  0.24632951  1
  Ti  Ti152  1  0.90611927  0.70210506  0.62873751  1
  Ti  Ti153  1  -0.00269618  0.40166499  0.24280893  1
  Ti  Ti154  1  0.59572249  0.78345142  0.25235646  1
  Ti  Ti155  1  0.59021431  0.18998578  -0.00218149  1
  Ti  Ti156  1  0.49795647  0.28254712  0.37881252  1
  Ti  Ti157  1  0.61000336  0.59130256  0.25047619  1
  Ti  Ti158  1  0.59628262  0.39373765  0.49615491  1
  Ti  Ti159  1  0.80120438  0.79407928  0.24042844  1
  Mo  Mo160  1  0.70390452  0.70694745  0.88523680  1
  Mo  Mo161  1  0.69757178  0.09227653  0.62452749  1
  Mo  Mo162  1  0.30392304  0.29153656  0.38750251  1
  Mo  Mo163  1  -0.00175224  -0.00283484  0.49478882  1
  Mo  Mo164  1  0.50729014  0.89349693  0.87569588  1
  Mo  Mo165  1  0.09352981  0.30152251  0.12365965  1
  Mo  Mo166  1  0.00334477  0.00666031  0.01005709  1
  Mo  Mo167  1  0.70051059  0.49282524  0.37403773  1
  Mo  Mo168  1  0.00582393  0.79550284  -0.00068506  1
  Mo  Mo169  1  0.19406729  0.59664598  0.76827048  1
  Mo  Mo170  1  0.39520177  0.60531444  0.75296545  1
  Mo  Mo171  1  0.80952182  0.40707512  0.75467277  1
  Mo  Mo172  1  0.79729946  0.19671059  0.49720397  1
  Mo  Mo173  1  0.40569047  0.19430091  0.25553172  1
  Mo  Mo174  1  0.20296548  0.20618158  0.00285231  1
  Mo  Mo175  1  0.10078188  0.10133799  0.11404684  1
  Mo  Mo176  1  0.79089380  -0.00502402  0.01381747  1
  Mo  Mo177  1  0.37915777  0.80709506  0.25447095  1
  Mo  Mo178  1  0.89719121  0.50189742  0.63753127  1
  Mo  Mo179  1  0.89389295  0.69131717  0.11275145  1
  Mo  Mo180  1  0.30243944  0.71766779  0.37635478  1
  Mo  Mo181  1  0.30943719  0.89820654  0.12321671  1
  Mo  Mo182  1  0.69654924  0.09061014  0.11497926  1
  Mo  Mo183  1  0.30642288  0.71187296  0.64684687  1
  Mo  Mo184  1  0.50600461  0.70436567  0.37553216  1
  Mo  Mo185  1  0.60382742  0.59355196  0.50709043  1
  Mo  Mo186  1  0.80018295  0.40031102  0.00355108  1
  Mo  Mo187  1  0.59967160  0.39392740  0.75664608  1
  Mo  Mo188  1  0.20101626  0.81371084  0.25224825  1
  Mo  Mo189  1  0.69266309  0.70224251  0.61520792  1
  Mo  Mo190  1  0.59405610  0.59845865  -0.00276173  1
  Mo  Mo191  1  0.59679567  0.19361354  0.24636920  1
  Mo  Mo192  1  0.20653265  -0.00233469  0.49274699  1
  Mo  Mo193  1  0.10398320  0.51023617  0.38049483  1
  Mo  Mo194  1  0.19807954  0.80330719  0.50636048  1
  Mo  Mo195  1  0.30465328  0.30604848  0.12244072  1
  Mo  Mo196  1  0.30566929  0.10009748  0.62185341  1
  Mo  Mo197  1  0.59907972  0.60049060  0.75181437  1
  Mo  Mo198  1  0.39180411  0.39438539  0.74178945  1
  Mo  Mo199  1  0.68627336  0.28387018  0.37694769  1
