# generated using pymatgen
data_HfZrTaTiMo
_symmetry_space_group_name_H-M   'P 1'
_cell_length_a   15.20723566
_cell_length_b   15.20985895
_cell_length_c   16.81247067
_cell_angle_alpha   89.97093333
_cell_angle_beta   89.95976514
_cell_angle_gamma   90.08675235
_symmetry_Int_Tables_number   1
_chemical_formula_structural   HfZrTaTiMo
_chemical_formula_sum   'Hf40 Zr40 Ta40 Ti40 Mo40'
_cell_volume   3888.71702307
_cell_formula_units_Z   40
loop_
 _symmetry_equiv_pos_site_id
 _symmetry_equiv_pos_as_xyz
  1  'x, y, z'
loop_
 _atom_site_type_symbol
 _atom_site_label
 _atom_site_symmetry_multiplicity
 _atom_site_fract_x
 _atom_site_fract_y
 _atom_site_fract_z
 _atom_site_occupancy
  Hf  Hf0  1  0.59971480  0.00768940  0.51834788  1
  Hf  Hf1  1  0.00693191  0.81694452  0.76648206  1
  Hf  Hf2  1  -0.00696176  0.78560833  0.24383961  1
  Hf  Hf3  1  0.60533930  0.61098936  0.24835141  1
  Hf  Hf4  1  0.40506876  0.79816086  0.50238761  1
  Hf  Hf5  1  0.50740837  0.30450076  0.12242086  1
  Hf  Hf6  1  0.50008625  0.89954020  0.64375948  1
  Hf  Hf7  1  0.89731887  0.50668696  0.63625178  1
  Hf  Hf8  1  0.31848975  0.90665215  0.13406948  1
  Hf  Hf9  1  0.01487928  0.60210166  0.50381567  1
  Hf  Hf10  1  0.89233358  0.10495854  0.36105703  1
  Hf  Hf11  1  0.28703830  0.89540235  0.87540992  1
  Hf  Hf12  1  0.10540491  0.48998229  0.12846951  1
  Hf  Hf13  1  0.11438054  0.29795281  0.37053134  1
  Hf  Hf14  1  0.19709005  -0.00640933  0.24648561  1
  Hf  Hf15  1  0.39069259  0.22332163  0.73567977  1
  Hf  Hf16  1  0.88990161  0.71514947  0.88678973  1
  Hf  Hf17  1  0.51265447  0.48970554  0.38225072  1
  Hf  Hf18  1  0.09869394  0.89168540  0.61594630  1
  Hf  Hf19  1  -0.00512682  0.39493502  0.25501439  1
  Hf  Hf20  1  0.49479793  0.09236043  0.12060958  1
  Hf  Hf21  1  0.51544020  0.91352677  0.37966737  1
  Hf  Hf22  1  0.68578314  0.29520381  0.63070567  1
  Hf  Hf23  1  -0.00250977  -0.00148644  0.48362394  1
  Hf  Hf24  1  0.67810013  0.30225602  0.38230998  1
  Hf  Hf25  1  0.89495092  0.29631396  0.63498281  1
  Hf  Hf26  1  0.68312076  0.09033747  0.36582784  1
  Hf  Hf27  1  0.77876104  -0.01505361  0.23936793  1
  Hf  Hf28  1  0.11712742  0.71898462  0.88949507  1
  Hf  Hf29  1  0.21521884  0.80565697  0.01756745  1
  Hf  Hf30  1  0.11592208  0.50779116  0.63152539  1
  Hf  Hf31  1  0.80601321  0.61580694  0.50388203  1
  Hf  Hf32  1  0.00292559  0.40413238  0.76408371  1
  Hf  Hf33  1  0.39476383  0.01168833  0.50550799  1
  Hf  Hf34  1  0.10700908  0.30122386  0.62096331  1
  Hf  Hf35  1  0.30852194  0.89193467  0.36703705  1
  Hf  Hf36  1  0.00357570  0.58595568  -0.01581228  1
  Hf  Hf37  1  0.01191399  0.60171251  0.77497398  1
  Hf  Hf38  1  0.21552014  0.39970865  0.75412085  1
  Hf  Hf39  1  0.90452768  0.70630018  0.64745770  1
  Zr  Zr40  1  0.39837839  -0.00119015  -0.00778356  1
  Zr  Zr41  1  0.10722062  0.28195338  0.86821750  1
  Zr  Zr42  1  -0.00631205  0.19797240  0.49553079  1
  Zr  Zr43  1  0.49504459  0.69213826  0.63992703  1
  Zr  Zr44  1  0.78660072  0.19072130  0.50591602  1
  Zr  Zr45  1  0.80183329  0.39748526  0.00365047  1
  Zr  Zr46  1  0.78742904  -0.01446932  0.50322557  1
  Zr  Zr47  1  -0.01545546  -0.01568477  0.24806733  1
  Zr  Zr48  1  0.09716809  0.09194042  0.61718436  1
  Zr  Zr49  1  0.00250710  0.40243538  0.49743944  1
  Zr  Zr50  1  0.91387103  0.09229114  0.87786177  1
  Zr  Zr51  1  0.40577159  0.39032594  0.26111263  1
  Zr  Zr52  1  0.08940532  0.11192585  0.15198368  1
  Zr  Zr53  1  0.79180040  0.21252168  0.23685439  1
  Zr  Zr54  1  0.79214514  -0.00913215  -0.00808317  1
  Zr  Zr55  1  0.68456938  0.10215296  0.12083665  1
  Zr  Zr56  1  0.20649455  0.40155356  -0.00538401  1
  Zr  Zr57  1  0.21473861  0.59345452  -0.00092358  1
  Zr  Zr58  1  0.59601720  0.41515112  -0.00205604  1
  Zr  Zr59  1  0.79639033  0.78897582  0.22531723  1
  Zr  Zr60  1  0.33129213  0.69511891  0.13358252  1
  Zr  Zr61  1  0.19978442  0.79100603  0.24075539  1
  Zr  Zr62  1  0.49757629  0.11225466  0.86242920  1
  Zr  Zr63  1  0.90534332  0.51198904  0.37040988  1
  Zr  Zr64  1  0.00102547  0.19792863  0.00694028  1
  Zr  Zr65  1  0.28582686  0.10703443  0.87372967  1
  Zr  Zr66  1  0.29780866  0.10971722  0.36265450  1
  Zr  Zr67  1  0.88736122  0.29280041  0.86462455  1
  Zr  Zr68  1  0.68856860  0.29950801  0.86090273  1
  Zr  Zr69  1  0.41141828  0.59369921  -0.00598271  1
  Zr  Zr70  1  0.87206754  0.87530022  0.37675656  1
  Zr  Zr71  1  0.31816108  0.49986486  0.62170353  1
  Zr  Zr72  1  0.70053902  0.68719479  0.65326780  1
  Zr  Zr73  1  0.28877303  0.89860306  0.62380870  1
  Zr  Zr74  1  -0.01084495  0.78784460  0.49056309  1
  Zr  Zr75  1  0.70353826  0.09817792  0.85485516  1
  Zr  Zr76  1  0.78660861  0.59485450  -0.00111120  1
  Zr  Zr77  1  0.20365079  0.20544477  0.01419423  1
  Zr  Zr78  1  0.89447330  0.90338725  0.62871302  1
  Zr  Zr79  1  0.71030362  0.50282952  0.36754761  1
  Ta  Ta80  1  0.39977223  0.21095938  0.00337361  1
  Ta  Ta81  1  0.79331447  0.40600251  0.50868437  1
  Ta  Ta82  1  0.68052539  0.89512442  0.10985630  1
  Ta  Ta83  1  0.61903403  0.80240021  0.51002799  1
  Ta  Ta84  1  0.50170744  0.11152807  0.63779885  1
  Ta  Ta85  1  0.42039080  0.79551761  -0.01341349  1
  Ta  Ta86  1  0.00411027  0.39918472  -0.01397343  1
  Ta  Ta87  1  0.71223751  0.71294993  0.37333696  1
  Ta  Ta88  1  0.38669711  0.00424834  0.74836061  1
  Ta  Ta89  1  0.31277367  0.30465659  0.87593188  1
  Ta  Ta90  1  0.49274966  0.31055790  0.87621900  1
  Ta  Ta91  1  0.69894091  0.09260332  0.65468185  1
  Ta  Ta92  1  0.49084829  0.30907256  0.59810370  1
  Ta  Ta93  1  0.51603180  0.49940156  0.61540598  1
  Ta  Ta94  1  0.09747519  0.10274703  0.35874599  1
  Ta  Ta95  1  0.21903383  0.61722625  0.76395725  1
  Ta  Ta96  1  0.40577095  0.60240202  0.48841608  1
  Ta  Ta97  1  0.49408591  0.51337582  0.13559804  1
  Ta  Ta98  1  0.09729354  0.69322764  0.11472519  1
  Ta  Ta99  1  0.37767836  0.78891094  0.75674773  1
  Ta  Ta100  1  0.30196125  0.69307957  0.36992089  1
  Ta  Ta101  1  0.59947261  0.81403582  0.24930803  1
  Ta  Ta102  1  0.08601411  0.92017797  0.90022677  1
  Ta  Ta103  1  0.49586372  0.12380716  0.38118616  1
  Ta  Ta104  1  0.20878225  0.58828971  0.24340451  1
  Ta  Ta105  1  0.11410074  0.50005747  0.36811285  1
  Ta  Ta106  1  0.79362216  0.20186249  0.00999529  1
  Ta  Ta107  1  0.40712646  0.60189551  0.26510766  1
  Ta  Ta108  1  0.19673261  0.78663711  0.48791928  1
  Ta  Ta109  1  0.19180477  0.01019889  0.01875232  1
  Ta  Ta110  1  0.10126507  0.68751458  0.36588210  1
  Ta  Ta111  1  0.80951180  0.60184671  0.23066544  1
  Ta  Ta112  1  0.18383934  -0.00667747  0.75449136  1
  Ta  Ta113  1  0.70056711  0.89369473  0.65802046  1
  Ta  Ta114  1  0.51016642  0.70913251  0.37917446  1
  Ta  Ta115  1  0.50107792  0.69161912  0.85460865  1
  Ta  Ta116  1  0.60845336  0.60717166  0.49975176  1
  Ta  Ta117  1  0.88436516  0.30753072  0.37563207  1
  Ta  Ta118  1  0.29195732  0.69748185  0.62213613  1
  Ta  Ta119  1  0.30387033  0.11268360  0.14171625  1
  Ti  Ti120  1  0.69617845  0.50631431  0.86487351  1
  Ti  Ti121  1  0.78799418  0.41264270  0.74683835  1
  Ti  Ti122  1  0.29809426  0.30726661  0.59947267  1
  Ti  Ti123  1  0.10992180  0.70327240  0.63476005  1
  Ti  Ti124  1  0.10520861  0.30107314  0.14290722  1
  Ti  Ti125  1  0.60035994  0.20439152  -0.00439984  1
  Ti  Ti126  1  0.69483957  0.70087971  0.85952407  1
  Ti  Ti127  1  0.30103602  0.30837328  0.13783415  1
  Ti  Ti128  1  0.50248656  0.49843692  0.85880978  1
  Ti  Ti129  1  0.89449910  0.09645590  0.12654199  1
  Ti  Ti130  1  0.79111185  0.40226534  0.23758630  1
  Ti  Ti131  1  0.90391133  0.69644726  0.10098158  1
  Ti  Ti132  1  0.89016550  0.09562363  0.63871245  1
  Ti  Ti133  1  0.31353906  0.29876099  0.39008500  1
  Ti  Ti134  1  0.68771301  0.70244618  0.11330294  1
  Ti  Ti135  1  0.00395811  0.19143731  0.74657321  1
  Ti  Ti136  1  0.29318225  0.10159667  0.62485167  1
  Ti  Ti137  1  0.89451845  0.89117348  0.10126940  1
  Ti  Ti138  1  -0.00062008  0.00344476  0.75563851  1
  Ti  Ti139  1  0.29745134  0.49208095  0.38073984  1
  Ti  Ti140  1  0.90559040  0.49670057  0.12199790  1
  Ti  Ti141  1  0.09973179  0.89029506  0.37122509  1
  Ti  Ti142  1  0.20262122  0.19130068  0.49716184  1
  Ti  Ti143  1  0.68932837  0.49478663  0.13027670  1
  Ti  Ti144  1  0.59290391  -0.00712068  -0.01882687  1
  Ti  Ti145  1  0.00354622  0.59902365  0.24021209  1
  Ti  Ti146  1  0.41842841  0.00368322  0.25483346  1
  Ti  Ti147  1  0.50292035  0.88796243  0.12315515  1
  Ti  Ti148  1  0.59377667  0.61136559  -0.00430028  1
  Ti  Ti149  1  0.90841392  0.29944121  0.12492668  1
  Ti  Ti150  1  0.50241193  0.89862074  0.85366661  1
  Ti  Ti151  1  0.19740704  0.19202132  0.74280163  1
  Ti  Ti152  1  0.08739231  0.89651170  0.11503255  1
  Ti  Ti153  1  0.58489781  0.21187922  0.25018307  1
  Ti  Ti154  1  0.39674790  0.40499691  0.00835973  1
  Ti  Ti155  1  0.19592389  -0.00473320  0.48299225  1
  Ti  Ti156  1  0.58505085  0.39924937  0.74029296  1
  Ti  Ti157  1  0.31702928  0.50198527  0.86372042  1
  Ti  Ti158  1  0.60531977  0.80306585  -0.02246002  1
  Ti  Ti159  1  0.20841694  0.59711521  0.49507307  1
  Mo  Mo160  1  0.59386411  0.19284324  0.50862229  1
  Mo  Mo161  1  0.31184553  0.70363861  0.88090411  1
  Mo  Mo162  1  0.78863429  0.79005495  0.51089784  1
  Mo  Mo163  1  0.89949396  0.90074037  0.89173837  1
  Mo  Mo164  1  0.49900434  0.29664530  0.39447894  1
  Mo  Mo165  1  0.39849295  0.40783501  0.48783269  1
  Mo  Mo166  1  0.58768919  0.21010506  0.74386121  1
  Mo  Mo167  1  0.59071478  0.00380822  0.24507832  1
  Mo  Mo168  1  0.40563886  0.20020912  0.24829394  1
  Mo  Mo169  1  0.39350792  0.19628269  0.51264287  1
  Mo  Mo170  1  0.10675502  0.09486626  0.87444602  1
  Mo  Mo171  1  0.70188184  0.88933921  0.85901068  1
  Mo  Mo172  1  0.78430713  0.79488695  0.00666423  1
  Mo  Mo173  1  0.19376649  0.80425575  0.75384900  1
  Mo  Mo174  1  0.59203660  -0.00116090  0.75072761  1
  Mo  Mo175  1  0.89229990  0.49684687  0.87063628  1
  Mo  Mo176  1  0.80648792  0.19947998  0.74032577  1
  Mo  Mo177  1  0.70129993  0.49665742  0.62676351  1
  Mo  Mo178  1  0.31307816  0.49404380  0.13573179  1
  Mo  Mo179  1  0.60493473  0.58266030  0.75263158  1
  Mo  Mo180  1  0.41785546  0.79484909  0.25897846  1
  Mo  Mo181  1  0.20044919  0.40458023  0.49763322  1
  Mo  Mo182  1  0.59368641  0.79605055  0.76258226  1
  Mo  Mo183  1  0.00084941  0.00299618  0.01824985  1
  Mo  Mo184  1  0.00039883  0.79958644  0.00776634  1
  Mo  Mo185  1  0.40825101  0.40113222  0.74460103  1
  Mo  Mo186  1  0.69743934  0.30359025  0.12101930  1
  Mo  Mo187  1  0.89808367  0.68582804  0.36362176  1
  Mo  Mo188  1  0.68890213  0.89241231  0.37537970  1
  Mo  Mo189  1  0.20737779  0.40375020  0.25308743  1
  Mo  Mo190  1  0.20865807  0.21250253  0.25093405  1
  Mo  Mo191  1  0.80441083  0.80152612  0.76367287  1
  Mo  Mo192  1  0.80987000  -0.00834373  0.76265673  1
  Mo  Mo193  1  0.11128217  0.49902404  0.87028326  1
  Mo  Mo194  1  0.60716602  0.40037916  0.24203521  1
  Mo  Mo195  1  0.40180927  0.59241509  0.75022609  1
  Mo  Mo196  1  0.60738944  0.40724398  0.50789645  1
  Mo  Mo197  1  0.51586857  0.71298843  0.12106759  1
  Mo  Mo198  1  0.80668193  0.59228184  0.76855360  1
  Mo  Mo199  1  -0.00831326  0.20750549  0.25429745  1
