# generated using pymatgen
data_HfZrTaTiMo
_symmetry_space_group_name_H-M   'P 1'
_cell_length_a   15.21360927
_cell_length_b   15.21916683
_cell_length_c   16.81778389
_cell_angle_alpha   90.01822271
_cell_angle_beta   89.99185102
_cell_angle_gamma   89.99091970
_symmetry_Int_Tables_number   1
_chemical_formula_structural   HfZrTaTiMo
_chemical_formula_sum   'Hf40 Zr40 Ta40 Ti40 Mo40'
_cell_volume   3893.96345580
_cell_formula_units_Z   40
loop_
 _symmetry_equiv_pos_site_id
 _symmetry_equiv_pos_as_xyz
  1  'x, y, z'
loop_
 _atom_site_type_symbol
 _atom_site_label
 _atom_site_symmetry_multiplicity
 _atom_site_fract_x
 _atom_site_fract_y
 _atom_site_fract_z
 _atom_site_occupancy
  Hf  Hf0  1  0.69621878  0.12280656  0.87438293  1
  Hf  Hf1  1  0.80586855  0.79806584  0.50406895  1
  Hf  Hf2  1  0.79497756  -0.00493516  0.01191320  1
  Hf  Hf3  1  0.47277094  0.69675127  0.87367144  1
  Hf  Hf4  1  -0.00960598  0.59783563  0.75058290  1
  Hf  Hf5  1  0.20149013  0.19635495  0.75915148  1
  Hf  Hf6  1  0.69362821  0.50554632  0.11457105  1
  Hf  Hf7  1  0.00297656  0.19326403  0.48667881  1
  Hf  Hf8  1  0.20341745  0.20037880  -0.01027976  1
  Hf  Hf9  1  0.80512430  -0.01869700  0.23635112  1
  Hf  Hf10  1  0.80612134  0.78745877  0.75705945  1
  Hf  Hf11  1  0.59705201  0.80360955  0.76457482  1
  Hf  Hf12  1  -0.00172452  0.38520142  0.00402474  1
  Hf  Hf13  1  0.79318301  0.59584795  0.51998607  1
  Hf  Hf14  1  0.80899573  0.19413328  0.24607347  1
  Hf  Hf15  1  0.58957706  0.59460135  0.75933006  1
  Hf  Hf16  1  0.80429830  0.58961769  0.24943652  1
  Hf  Hf17  1  0.00693193  0.00386800  0.74818765  1
  Hf  Hf18  1  0.39235092  0.41196597  0.50988386  1
  Hf  Hf19  1  0.09434889  0.71077236  0.62220003  1
  Hf  Hf20  1  0.70452208  0.30174506  0.37950766  1
  Hf  Hf21  1  0.20623066  0.40364766  0.74825938  1
  Hf  Hf22  1  0.32233123  0.29493017  0.88061738  1
  Hf  Hf23  1  0.09899076  0.90050432  0.13276100  1
  Hf  Hf24  1  0.50390138  0.30968991  0.38186136  1
  Hf  Hf25  1  0.59005335  0.01553564  0.00541911  1
  Hf  Hf26  1  0.08841947  0.51073273  0.36363806  1
  Hf  Hf27  1  0.68427628  0.70844296  0.62873008  1
  Hf  Hf28  1  0.01027894  0.19087181  0.26042432  1
  Hf  Hf29  1  0.60028383  0.22621194  0.01503681  1
  Hf  Hf30  1  0.09272303  0.69653687  0.13667650  1
  Hf  Hf31  1  0.39713843  0.59934832  0.23795402  1
  Hf  Hf32  1  0.80041773  0.59664912  -0.01480113  1
  Hf  Hf33  1  0.50449691  0.10707306  0.38226463  1
  Hf  Hf34  1  0.79047748  0.58353037  0.74389934  1
  Hf  Hf35  1  0.30373062  0.90647778  0.13600577  1
  Hf  Hf36  1  0.70795608  0.89909256  0.38638323  1
  Hf  Hf37  1  0.01215735  -0.00254128  -0.00299303  1
  Hf  Hf38  1  0.20130613  0.80388781  0.25998383  1
  Hf  Hf39  1  0.60305166  0.81195330  -0.01487058  1
  Zr  Zr40  1  0.40261968  0.79527481  0.49847258  1
  Zr  Zr41  1  0.60121625  0.62019830  0.25021923  1
  Zr  Zr42  1  0.81139371  0.20549849  0.01735287  1
  Zr  Zr43  1  0.18486430  0.00161478  0.48458525  1
  Zr  Zr44  1  0.70026352  0.51057451  0.38083328  1
  Zr  Zr45  1  0.90539414  0.90685491  0.87715343  1
  Zr  Zr46  1  0.41285466  0.40060838  0.74479892  1
  Zr  Zr47  1  0.39348304  0.39619936  0.23536334  1
  Zr  Zr48  1  0.30462333  0.50189676  0.88359145  1
  Zr  Zr49  1  0.00796457  0.79386996  0.76209358  1
  Zr  Zr50  1  0.59724622  0.60674494  -0.00934883  1
  Zr  Zr51  1  0.90161786  0.11817317  0.86866600  1
  Zr  Zr52  1  0.38276785  0.81344063  -0.00529870  1
  Zr  Zr53  1  0.20273891  0.60264054  0.50423603  1
  Zr  Zr54  1  0.59192283  0.41199076  0.23910422  1
  Zr  Zr55  1  0.48487133  0.51341697  0.38216418  1
  Zr  Zr56  1  0.82248965  0.39944834  0.50435851  1
  Zr  Zr57  1  0.39108499  0.00052018  0.49463215  1
  Zr  Zr58  1  0.10245189  0.31073037  0.37463211  1
  Zr  Zr59  1  0.60094543  0.00328349  0.24168383  1
  Zr  Zr60  1  0.21954510  -0.00519448  -0.00608453  1
  Zr  Zr61  1  -0.00872074  0.58639888  0.51303496  1
  Zr  Zr62  1  0.89014144  0.47387239  0.87397502  1
  Zr  Zr63  1  0.29014677  0.09117881  0.63097695  1
  Zr  Zr64  1  0.47935973  0.92487379  0.86487173  1
  Zr  Zr65  1  0.90272611  0.68267981  0.37335420  1
  Zr  Zr66  1  0.19818801  0.60134039  -0.00213323  1
  Zr  Zr67  1  0.40078531  0.00673363  0.25973481  1
  Zr  Zr68  1  0.49703582  0.89859742  0.63431782  1
  Zr  Zr69  1  0.19748904  0.40679495  0.50739900  1
  Zr  Zr70  1  0.90822749  0.06356306  0.37997566  1
  Zr  Zr71  1  0.89951601  0.68740703  0.12413241  1
  Zr  Zr72  1  0.49764336  0.10934207  0.62083993  1
  Zr  Zr73  1  0.10282523  0.29146579  0.62284412  1
  Zr  Zr74  1  0.90113818  0.28114143  0.63576907  1
  Zr  Zr75  1  0.90201668  0.87763414  0.11774204  1
  Zr  Zr76  1  0.70054534  0.91919661  0.86451525  1
  Zr  Zr77  1  0.70147344  0.09934823  0.37686765  1
  Zr  Zr78  1  0.49951126  0.71411462  0.11748950  1
  Zr  Zr79  1  0.80045878  0.38964805  0.23929304  1
  Ta  Ta80  1  0.60653915  0.81264250  0.24959632  1
  Ta  Ta81  1  0.20191578  0.80380106  0.48896080  1
  Ta  Ta82  1  0.29146314  0.70591767  0.13141393  1
  Ta  Ta83  1  0.60409905  0.20657542  0.50568104  1
  Ta  Ta84  1  -0.00411274  0.39206437  0.75134740  1
  Ta  Ta85  1  0.60888885  -0.00269754  0.51007207  1
  Ta  Ta86  1  -0.00630251  0.39584044  0.23944744  1
  Ta  Ta87  1  0.59773746  0.02393805  0.74514980  1
  Ta  Ta88  1  0.19645643  0.40284006  0.23753479  1
  Ta  Ta89  1  0.59936128  0.21077504  0.23901057  1
  Ta  Ta90  1  0.89964011  0.08563348  0.61622104  1
  Ta  Ta91  1  0.79667656  0.78906472  -0.02080698  1
  Ta  Ta92  1  0.70705332  0.10744538  0.62295940  1
  Ta  Ta93  1  0.09971428  0.70339818  0.36587416  1
  Ta  Ta94  1  0.09820238  0.49139361  0.87238590  1
  Ta  Ta95  1  0.30244397  0.69278969  0.36772724  1
  Ta  Ta96  1  0.30164573  0.89818527  0.37027540  1
  Ta  Ta97  1  0.70645786  0.91006199  0.63081509  1
  Ta  Ta98  1  0.50773522  0.30845089  0.61809678  1
  Ta  Ta99  1  0.19096897  0.79519146  -0.00722766  1
  Ta  Ta100  1  0.00265730  0.59347918  -0.01204254  1
  Ta  Ta101  1  0.79316610  0.78907667  0.25886954  1
  Ta  Ta102  1  0.41320209  0.38981258  0.01637448  1
  Ta  Ta103  1  0.92146366  0.09102723  0.12976336  1
  Ta  Ta104  1  0.30852877  0.29356653  0.62681297  1
  Ta  Ta105  1  0.11401562  0.10117184  0.12946181  1
  Ta  Ta106  1  0.68820004  0.47821951  0.87934527  1
  Ta  Ta107  1  0.90944504  0.89115144  0.62652329  1
  Ta  Ta108  1  0.39576156  0.20903329  0.49742171  1
  Ta  Ta109  1  0.10474538  0.09649617  0.87084654  1
  Ta  Ta110  1  0.19304311  0.60649294  0.75373493  1
  Ta  Ta111  1  0.30245964  0.10679752  0.12731144  1
  Ta  Ta112  1  0.49562341  0.48845753  0.88700884  1
  Ta  Ta113  1  0.20962343  0.19755693  0.48920705  1
  Ta  Ta114  1  0.70175806  0.30248155  0.62014481  1
  Ta  Ta115  1  0.11114983  0.90355387  0.62666953  1
  Ta  Ta116  1  0.58961961  0.61988100  0.50182441  1
  Ta  Ta117  1  0.29482638  0.70805859  0.63578049  1
  Ta  Ta118  1  0.41081424  0.80161368  0.25756149  1
  Ta  Ta119  1  0.50371212  0.51164445  0.62077282  1
  Ti  Ti120  1  0.29978878  0.28948515  0.11856347  1
  Ti  Ti121  1  0.10456666  0.29231632  0.12895521  1
  Ti  Ti122  1  0.00765069  0.19600132  0.00445974  1
  Ti  Ti123  1  0.19665918  0.39664329  0.00240996  1
  Ti  Ti124  1  0.11851410  0.89613161  0.86822197  1
  Ti  Ti125  1  0.00142764  0.78490244  -0.01862264  1
  Ti  Ti126  1  0.28806089  0.50216925  0.36483119  1
  Ti  Ti127  1  0.90403171  0.49309255  0.11590204  1
  Ti  Ti128  1  0.69958167  0.10174982  0.12859113  1
  Ti  Ti129  1  0.50126784  0.90863115  0.12204962  1
  Ti  Ti130  1  0.39013579  0.60522424  0.51062725  1
  Ti  Ti131  1  0.50949923  0.90068312  0.38263939  1
  Ti  Ti132  1  0.00593244  0.80700992  0.49351446  1
  Ti  Ti133  1  0.78950978  0.38546827  0.00928042  1
  Ti  Ti134  1  0.52528503  0.30798354  0.87585824  1
  Ti  Ti135  1  0.19479354  0.01438506  0.26501794  1
  Ti  Ti136  1  0.49261409  0.12041618  0.87987040  1
  Ti  Ti137  1  0.29129781  0.50078671  0.12024566  1
  Ti  Ti138  1  0.29609764  0.89501286  0.64375537  1
  Ti  Ti139  1  0.39465783  0.59919064  0.01140828  1
  Ti  Ti140  1  0.08183353  0.29254797  0.86851472  1
  Ti  Ti141  1  0.41199988  0.19929229  0.74845617  1
  Ti  Ti142  1  0.70557142  0.71733266  0.11890515  1
  Ti  Ti143  1  0.21271102  0.20215935  0.25930884  1
  Ti  Ti144  1  0.09602870  0.50139463  0.12896513  1
  Ti  Ti145  1  0.40170547  0.20381860  0.25513287  1
  Ti  Ti146  1  0.07949159  0.90594762  0.36477036  1
  Ti  Ti147  1  0.60761912  0.21658471  0.74563608  1
  Ti  Ti148  1  0.60655434  0.41503214  0.50746588  1
  Ti  Ti149  1  0.61089019  0.40445448  0.74187373  1
  Ti  Ti150  1  0.50713889  0.71198312  0.37741483  1
  Ti  Ti151  1  0.80344240  0.19184661  0.49419377  1
  Ti  Ti152  1  0.48791245  0.70475311  0.63467002  1
  Ti  Ti153  1  0.30386491  0.30695064  0.37347039  1
  Ti  Ti154  1  0.48671064  0.11195926  0.12295306  1
  Ti  Ti155  1  0.80053694  0.00711102  0.74399154  1
  Ti  Ti156  1  0.38608098  0.59633278  0.74559983  1
  Ti  Ti157  1  0.09377063  0.09847281  0.62354202  1
  Ti  Ti158  1  0.31164325  0.08274976  0.86454078  1
  Ti  Ti159  1  0.09380657  0.49493385  0.63207724  1
  Mo  Mo160  1  0.00800498  -0.00756327  0.24195696  1
  Mo  Mo161  1  0.59985134  0.80437546  0.50377434  1
  Mo  Mo162  1  0.90448074  0.88332121  0.37226571  1
  Mo  Mo163  1  0.40065329  0.01327907  0.00497225  1
  Mo  Mo164  1  0.90438982  0.30421639  0.37633059  1
  Mo  Mo165  1  0.10556908  0.09856832  0.37072144  1
  Mo  Mo166  1  0.60201517  0.40309738  0.00672964  1
  Mo  Mo167  1  0.69343665  0.70433390  0.38084085  1
  Mo  Mo168  1  0.69324351  0.69389899  0.86956022  1
  Mo  Mo169  1  0.78908632  0.39050225  0.74088000  1
  Mo  Mo170  1  0.00379595  0.19506256  0.74857782  1
  Mo  Mo171  1  0.30027987  0.11398547  0.37168543  1
  Mo  Mo172  1  0.49182125  0.29550106  0.13083897  1
  Mo  Mo173  1  0.68770129  0.49630050  0.62122522  1
  Mo  Mo174  1  -0.00748298  0.79761444  0.26054521  1
  Mo  Mo175  1  0.39991690  0.01015992  0.74586393  1
  Mo  Mo176  1  0.40134650  0.19156001  -0.00093744  1
  Mo  Mo177  1  -0.00057750  0.58636487  0.24459451  1
  Mo  Mo178  1  0.00265411  0.39994997  0.50521232  1
  Mo  Mo179  1  0.28745027  0.70540975  0.86431122  1
  Mo  Mo180  1  0.29987846  0.51021034  0.63470787  1
  Mo  Mo181  1  0.19833331  -0.00295892  0.75220272  1
  Mo  Mo182  1  0.90443447  0.47818548  0.37089397  1
  Mo  Mo183  1  0.69379053  0.88924304  0.12001605  1
  Mo  Mo184  1  0.00006373  -0.01595033  0.50915518  1
  Mo  Mo185  1  0.19950688  0.79721317  0.75380395  1
  Mo  Mo186  1  0.71376187  0.30701215  0.87011007  1
  Mo  Mo187  1  0.90212826  0.48903702  0.64057752  1
  Mo  Mo188  1  0.09908007  0.69201806  0.87730241  1
  Mo  Mo189  1  0.89884718  0.68943892  0.88057575  1
  Mo  Mo190  1  0.29636640  0.89748694  0.85785636  1
  Mo  Mo191  1  0.39258782  0.79374719  0.74984821  1
  Mo  Mo192  1  0.20284949  0.59664951  0.24482610  1
  Mo  Mo193  1  0.70234584  0.29834281  0.13509856  1
  Mo  Mo194  1  0.80377139  -0.00546754  0.51257468  1
  Mo  Mo195  1  0.91557296  0.29076460  0.12622318  1
  Mo  Mo196  1  0.79125831  0.19336965  0.74132192  1
  Mo  Mo197  1  0.89872166  0.70545457  0.62350013  1
  Mo  Mo198  1  0.89330291  0.29322185  0.86512701  1
  Mo  Mo199  1  0.49106586  0.50533414  0.11052557  1
