# generated using pymatgen
data_HfZrTaTiMo
_symmetry_space_group_name_H-M   'P 1'
_cell_length_a   15.20958855
_cell_length_b   15.20837818
_cell_length_c   16.83561980
_cell_angle_alpha   89.98353124
_cell_angle_beta   89.93771937
_cell_angle_gamma   90.01416369
_symmetry_Int_Tables_number   1
_chemical_formula_structural   HfZrTaTiMo
_chemical_formula_sum   'Hf40 Zr40 Ta40 Ti40 Mo40'
_cell_volume   3894.29808165
_cell_formula_units_Z   40
loop_
 _symmetry_equiv_pos_site_id
 _symmetry_equiv_pos_as_xyz
  1  'x, y, z'
loop_
 _atom_site_type_symbol
 _atom_site_label
 _atom_site_symmetry_multiplicity
 _atom_site_fract_x
 _atom_site_fract_y
 _atom_site_fract_z
 _atom_site_occupancy
  Hf  Hf0  1  0.40175221  -0.00237883  0.50992334  1
  Hf  Hf1  1  0.90304356  0.49353743  0.35918738  1
  Hf  Hf2  1  0.19350554  0.79775094  0.00746622  1
  Hf  Hf3  1  0.40827315  -0.01039694  0.74001262  1
  Hf  Hf4  1  0.00232048  0.40775896  0.74762969  1
  Hf  Hf5  1  0.48929857  0.11458751  0.38437742  1
  Hf  Hf6  1  -0.00052613  0.60946615  0.02103123  1
  Hf  Hf7  1  0.60200489  0.79110528  0.48417248  1
  Hf  Hf8  1  0.29209032  0.69168975  0.35744271  1
  Hf  Hf9  1  0.30258345  0.89201688  0.62673550  1
  Hf  Hf10  1  0.00386836  0.60960217  0.23069829  1
  Hf  Hf11  1  0.21195224  0.40162290  0.24356773  1
  Hf  Hf12  1  0.50432346  0.10042836  0.86579442  1
  Hf  Hf13  1  0.61344995  0.00246285  0.49542014  1
  Hf  Hf14  1  0.11199599  0.30233870  0.61095362  1
  Hf  Hf15  1  0.91955826  0.09374869  0.62246856  1
  Hf  Hf16  1  0.80367683  0.19134189  0.74900240  1
  Hf  Hf17  1  0.71467363  0.49943642  0.86527874  1
  Hf  Hf18  1  0.10135272  0.70039005  0.62978481  1
  Hf  Hf19  1  0.70009817  0.28929034  0.86758716  1
  Hf  Hf20  1  0.89776632  0.30361999  0.62678764  1
  Hf  Hf21  1  0.70435933  0.48282973  0.63820627  1
  Hf  Hf22  1  0.47485298  0.30000802  0.88473788  1
  Hf  Hf23  1  0.30446148  0.69556220  0.87269481  1
  Hf  Hf24  1  0.51702727  0.49105251  0.12404548  1
  Hf  Hf25  1  0.09790302  0.30634131  0.36612958  1
  Hf  Hf26  1  0.51184245  0.70840372  0.12903921  1
  Hf  Hf27  1  0.09381271  0.72155734  0.36074929  1
  Hf  Hf28  1  0.19560616  0.80852287  0.75949041  1
  Hf  Hf29  1  0.41128367  0.59787019  0.00294020  1
  Hf  Hf30  1  0.19419822  0.58025263  0.76167731  1
  Hf  Hf31  1  0.52155037  0.11651497  0.62836936  1
  Hf  Hf32  1  0.68929635  0.10044516  0.13051780  1
  Hf  Hf33  1  0.40072238  0.40077913  0.50626349  1
  Hf  Hf34  1  0.20590699  0.59082178  0.00535010  1
  Hf  Hf35  1  0.89150557  0.69527240  0.36243517  1
  Hf  Hf36  1  0.30057107  0.28253545  0.38239128  1
  Hf  Hf37  1  0.90673306  0.30346581  0.87959963  1
  Hf  Hf38  1  0.40692575  0.80826515  0.00860382  1
  Hf  Hf39  1  0.60371421  0.59836625  0.26655064  1
  Zr  Zr40  1  0.29151714  0.49437597  0.62000343  1
  Zr  Zr41  1  0.79041576  -0.00596650  0.25421946  1
  Zr  Zr42  1  0.90412669  0.10053596  0.88675861  1
  Zr  Zr43  1  0.78907529  0.59901691  0.50362566  1
  Zr  Zr44  1  0.81339085  -0.00459335  0.48230969  1
  Zr  Zr45  1  0.80386817  0.39772960  0.49685870  1
  Zr  Zr46  1  -0.00751138  0.60562366  0.50380599  1
  Zr  Zr47  1  -0.01909154  0.81235225  0.74530770  1
  Zr  Zr48  1  0.60057445  0.40245156  -0.00865187  1
  Zr  Zr49  1  0.08601962  0.69815150  0.87622317  1
  Zr  Zr50  1  0.49165132  0.70506093  0.62595691  1
  Zr  Zr51  1  0.59771639  0.19146689  0.00329564  1
  Zr  Zr52  1  0.41553288  0.38074274  0.25007292  1
  Zr  Zr53  1  0.30784057  0.90388663  0.87732137  1
  Zr  Zr54  1  0.61702371  -0.00955500  0.74991717  1
  Zr  Zr55  1  0.09176645  0.91910250  0.62742760  1
  Zr  Zr56  1  0.00501978  -0.00303156  0.25315875  1
  Zr  Zr57  1  0.60225045  0.80683436  0.26824635  1
  Zr  Zr58  1  0.68679802  0.69696771  0.62970136  1
  Zr  Zr59  1  0.89672977  0.89576207  0.89298654  1
  Zr  Zr60  1  0.38620321  0.21377727  0.73369530  1
  Zr  Zr61  1  0.29821134  0.89344378  0.36686823  1
  Zr  Zr62  1  0.10609241  0.51308700  0.36567002  1
  Zr  Zr63  1  0.20532771  0.02342644  0.48656175  1
  Zr  Zr64  1  0.30555182  0.10752604  0.88288259  1
  Zr  Zr65  1  0.58406404  0.38820542  0.75202545  1
  Zr  Zr66  1  0.40214213  0.01164147  0.24931549  1
  Zr  Zr67  1  0.57991149  0.21290843  0.24500658  1
  Zr  Zr68  1  0.90243520  0.09903173  0.12705175  1
  Zr  Zr69  1  0.79956292  0.79575694  0.23255082  1
  Zr  Zr70  1  0.78671701  -0.00918676  0.01250384  1
  Zr  Zr71  1  0.88647576  0.30061522  0.13192293  1
  Zr  Zr72  1  -0.00966772  0.81099526  0.50411891  1
  Zr  Zr73  1  0.30019495  0.69360857  0.63343909  1
  Zr  Zr74  1  0.78938787  0.77802164  0.02056635  1
  Zr  Zr75  1  0.20107532  0.80235091  0.49698981  1
  Zr  Zr76  1  0.01046611  0.00577081  0.47266854  1
  Zr  Zr77  1  0.90983086  0.50259682  0.88249711  1
  Zr  Zr78  1  0.88829117  0.69481645  0.88088765  1
  Zr  Zr79  1  0.10511657  0.11422538  0.88338253  1
  Ta  Ta80  1  0.19659647  0.20317632  0.02188441  1
  Ta  Ta81  1  0.00729351  0.40067903  0.01481678  1
  Ta  Ta82  1  0.80839209  0.59729457  0.73936467  1
  Ta  Ta83  1  0.21073199  0.19502365  0.23827669  1
  Ta  Ta84  1  0.09626860  0.30213585  0.13871242  1
  Ta  Ta85  1  0.71057402  0.89394468  0.61990021  1
  Ta  Ta86  1  0.40647402  0.59137248  0.75847277  1
  Ta  Ta87  1  0.19891805  0.00707964  0.24807261  1
  Ta  Ta88  1  0.30623512  0.49413981  0.37602998  1
  Ta  Ta89  1  0.30187503  0.69627341  0.13697974  1
  Ta  Ta90  1  0.71985828  0.09270529  0.62176948  1
  Ta  Ta91  1  0.79035155  0.59467348  0.23296958  1
  Ta  Ta92  1  0.20320804  0.00302747  0.01538721  1
  Ta  Ta93  1  0.50198077  0.70534247  0.87209597  1
  Ta  Ta94  1  0.78657284  0.40128270  0.25204732  1
  Ta  Ta95  1  0.20067092  0.37961633  0.75359569  1
  Ta  Ta96  1  0.61798106  0.60836420  -0.00447520  1
  Ta  Ta97  1  0.20167908  0.01601625  0.74917826  1
  Ta  Ta98  1  0.39916958  0.60568516  0.49078119  1
  Ta  Ta99  1  0.59790693  0.59994238  0.75789415  1
  Ta  Ta100  1  0.69916158  0.29567635  0.37936410  1
  Ta  Ta101  1  0.68638119  0.28048240  0.62456982  1
  Ta  Ta102  1  0.27939235  0.29981103  0.88889448  1
  Ta  Ta103  1  0.60278696  0.40145157  0.49786481  1
  Ta  Ta104  1  0.50316584  0.50749980  0.62339739  1
  Ta  Ta105  1  0.70677240  0.08555695  0.87557025  1
  Ta  Ta106  1  0.81336984  -0.01292565  0.74973676  1
  Ta  Ta107  1  0.78898370  0.20347274  0.25401247  1
  Ta  Ta108  1  0.09821118  0.91052154  0.88632181  1
  Ta  Ta109  1  0.00271622  0.40389474  0.49764686  1
  Ta  Ta110  1  0.00360197  0.20240289  0.48757942  1
  Ta  Ta111  1  0.79531893  0.80185606  0.48889169  1
  Ta  Ta112  1  0.38773731  0.19750540  0.52225405  1
  Ta  Ta113  1  0.30411664  0.90348697  0.12913763  1
  Ta  Ta114  1  0.89970237  0.29843148  0.36315785  1
  Ta  Ta115  1  0.00661974  0.20763014  0.01292225  1
  Ta  Ta116  1  0.09664684  0.49807527  0.61917896  1
  Ta  Ta117  1  0.80051225  0.19532198  0.49497699  1
  Ta  Ta118  1  0.49555711  0.90328936  0.38364259  1
  Ta  Ta119  1  0.40347388  0.58871943  0.25032968  1
  Ti  Ti120  1  0.50227030  0.30236064  0.39155994  1
  Ti  Ti121  1  0.39134855  0.40399687  0.73996864  1
  Ti  Ti122  1  0.10814239  0.47952055  0.88672718  1
  Ti  Ti123  1  0.50031766  0.50386073  0.87793304  1
  Ti  Ti124  1  0.30697478  0.10756694  0.12083094  1
  Ti  Ti125  1  0.59326224  0.58871537  0.47966090  1
  Ti  Ti126  1  0.02094857  0.20746469  0.75304753  1
  Ti  Ti127  1  0.79562832  0.20166255  0.00261700  1
  Ti  Ti128  1  0.91081663  0.88522588  0.36000841  1
  Ti  Ti129  1  0.51018917  0.89054900  0.61566028  1
  Ti  Ti130  1  0.40620590  0.00275533  0.00590499  1
  Ti  Ti131  1  0.68086735  0.31233027  0.12897958  1
  Ti  Ti132  1  0.78557868  0.80370323  0.75243729  1
  Ti  Ti133  1  0.00573103  0.19817392  0.24703394  1
  Ti  Ti134  1  0.09596453  0.90118823  0.12484360  1
  Ti  Ti135  1  0.48484202  0.70157184  0.37320584  1
  Ti  Ti136  1  0.59059721  0.80498867  0.75888889  1
  Ti  Ti137  1  0.00733230  -0.00000770  0.01250285  1
  Ti  Ti138  1  0.49365995  0.10057307  0.12203822  1
  Ti  Ti139  1  0.11537413  0.11304340  0.62498183  1
  Ti  Ti140  1  0.69924413  0.69927436  0.86863194  1
  Ti  Ti141  1  0.89590580  0.49392069  0.12957641  1
  Ti  Ti142  1  0.59460422  -0.00001829  0.25947847  1
  Ti  Ti143  1  0.60530257  0.40975137  0.27253697  1
  Ti  Ti144  1  0.59099216  -0.01354751  -0.00975937  1
  Ti  Ti145  1  0.20127458  0.39372366  0.01467185  1
  Ti  Ti146  1  0.88618572  0.71445513  0.62629760  1
  Ti  Ti147  1  0.31282762  0.49419950  0.12473251  1
  Ti  Ti148  1  -0.00709583  0.60243374  0.73894803  1
  Ti  Ti149  1  0.30868326  0.48332255  0.88046456  1
  Ti  Ti150  1  0.79805609  0.40199044  0.00766643  1
  Ti  Ti151  1  0.00545241  0.00755569  0.75908182  1
  Ti  Ti152  1  0.40527356  0.80671397  0.24210402  1
  Ti  Ti153  1  0.90008948  0.11355158  0.36303492  1
  Ti  Ti154  1  0.19865601  0.59465357  0.49596234  1
  Ti  Ti155  1  0.69461691  0.10655593  0.37140299  1
  Ti  Ti156  1  0.59930091  0.80443890  -0.01102890  1
  Ti  Ti157  1  0.67042041  0.89212376  0.12542211  1
  Ti  Ti158  1  0.10855162  0.50074027  0.13243647  1
  Ti  Ti159  1  0.19067853  0.80421277  0.23451358  1
  Mo  Mo160  1  0.70197135  0.90154847  0.37345038  1
  Mo  Mo161  1  0.21277266  0.59831818  0.23832751  1
  Mo  Mo162  1  0.19602675  0.20393325  0.49571249  1
  Mo  Mo163  1  0.80359341  0.39815905  0.74492646  1
  Mo  Mo164  1  0.88776713  0.90738016  0.62564689  1
  Mo  Mo165  1  -0.00256778  0.39867393  0.23715586  1
  Mo  Mo166  1  0.39424815  0.20093920  0.24521665  1
  Mo  Mo167  1  0.40347796  0.79613962  0.49107606  1
  Mo  Mo168  1  0.50118396  0.91303933  0.12638306  1
  Mo  Mo169  1  0.39189557  0.19592631  0.00278239  1
  Mo  Mo170  1  0.50342852  0.31186674  0.61686101  1
  Mo  Mo171  1  0.09826493  0.30834982  0.88790245  1
  Mo  Mo172  1  0.70384382  0.69452528  0.37697010  1
  Mo  Mo173  1  0.48119338  0.29081984  0.10338296  1
  Mo  Mo174  1  0.79494335  0.58315084  0.01816960  1
  Mo  Mo175  1  0.90435195  0.89650433  0.11589193  1
  Mo  Mo176  1  0.29473742  0.09834359  0.63046100  1
  Mo  Mo177  1  0.90627539  0.50416813  0.62756976  1
  Mo  Mo178  1  0.40816829  0.79525637  0.75680903  1
  Mo  Mo179  1  0.29499578  0.29942434  0.61867293  1
  Mo  Mo180  1  0.68740641  0.68964499  0.12558668  1
  Mo  Mo181  1  0.30317536  0.30127355  0.11761509  1
  Mo  Mo182  1  -0.00033135  0.80446514  0.22706282  1
  Mo  Mo183  1  0.11227602  0.70401533  0.12712859  1
  Mo  Mo184  1  0.50271635  0.89791578  0.87603821  1
  Mo  Mo185  1  0.60599988  0.20550944  0.49632822  1
  Mo  Mo186  1  -0.00026461  0.80878862  0.01937645  1
  Mo  Mo187  1  0.30034538  0.10449767  0.37165587  1
  Mo  Mo188  1  0.38962836  0.40589580  0.00000689  1
  Mo  Mo189  1  0.89967271  0.69382322  0.12699443  1
  Mo  Mo190  1  0.10585505  0.09952621  0.12450352  1
  Mo  Mo191  1  0.69788318  0.88954552  0.87594406  1
  Mo  Mo192  1  0.60481238  0.19249276  0.75217879  1
  Mo  Mo193  1  0.70143978  0.49228891  0.12494847  1
  Mo  Mo194  1  0.70290927  0.49660773  0.37703944  1
  Mo  Mo195  1  0.10679303  0.11729885  0.36270562  1
  Mo  Mo196  1  0.19398421  0.20466894  0.75185050  1
  Mo  Mo197  1  0.19492803  0.40865279  0.48887728  1
  Mo  Mo198  1  0.49435668  0.49913097  0.38095164  1
  Mo  Mo199  1  0.10236424  0.90044010  0.35736571  1
