# generated using pymatgen
data_HfZrTaTiMo
_symmetry_space_group_name_H-M   'P 1'
_cell_length_a   15.17856590
_cell_length_b   15.18779847
_cell_length_c   16.79619148
_cell_angle_alpha   89.91918261
_cell_angle_beta   89.99905185
_cell_angle_gamma   90.03822873
_symmetry_Int_Tables_number   1
_chemical_formula_structural   HfZrTaTiMo
_chemical_formula_sum   'Hf40 Zr40 Ta40 Ti40 Mo40'
_cell_volume   3872.00451125
_cell_formula_units_Z   40
loop_
 _symmetry_equiv_pos_site_id
 _symmetry_equiv_pos_as_xyz
  1  'x, y, z'
loop_
 _atom_site_type_symbol
 _atom_site_label
 _atom_site_symmetry_multiplicity
 _atom_site_fract_x
 _atom_site_fract_y
 _atom_site_fract_z
 _atom_site_occupancy
  Hf  Hf0  1  0.39458860  0.40067691  0.49209659  1
  Hf  Hf1  1  0.80331769  0.59897035  0.75606503  1
  Hf  Hf2  1  0.30119852  0.08390226  0.12094347  1
  Hf  Hf3  1  0.80039126  0.20028054  0.25135425  1
  Hf  Hf4  1  0.61174718  0.00937895  0.75080120  1
  Hf  Hf5  1  0.90405765  0.29396027  0.62838831  1
  Hf  Hf6  1  0.79884340  0.59067772  0.23693551  1
  Hf  Hf7  1  0.01063757  0.40873326  0.50376631  1
  Hf  Hf8  1  0.39291439  0.79251379  0.48413317  1
  Hf  Hf9  1  0.69254234  0.08561213  0.36659127  1
  Hf  Hf10  1  0.39238262  0.19992790  0.75632034  1
  Hf  Hf11  1  0.00527698  0.39144744  0.01771600  1
  Hf  Hf12  1  0.57092060  0.79328946  -0.01334027  1
  Hf  Hf13  1  0.09972215  0.31463987  0.87440904  1
  Hf  Hf14  1  0.91255974  0.69830854  0.88677014  1
  Hf  Hf15  1  0.19477284  0.21153954  0.00788042  1
  Hf  Hf16  1  0.80807412  -0.01756592  0.75541455  1
  Hf  Hf17  1  0.21446054  0.01420043  0.74386259  1
  Hf  Hf18  1  -0.00283465  0.81030452  0.24927756  1
  Hf  Hf19  1  0.50136977  0.30675396  0.62560820  1
  Hf  Hf20  1  0.60476834  0.39684609  0.49856722  1
  Hf  Hf21  1  0.39428338  0.40052938  0.24867062  1
  Hf  Hf22  1  0.89068795  0.71559331  0.61930181  1
  Hf  Hf23  1  0.20032661  0.20582386  0.23962480  1
  Hf  Hf24  1  0.90092430  0.70475666  0.11525304  1
  Hf  Hf25  1  0.50395259  0.10952857  0.62707366  1
  Hf  Hf26  1  0.72535215  0.89778127  0.60532975  1
  Hf  Hf27  1  0.89461015  0.69625375  0.37486107  1
  Hf  Hf28  1  0.37490989  0.80945075  0.26878401  1
  Hf  Hf29  1  0.19775407  0.79439588  -0.00858405  1
  Hf  Hf30  1  0.76976323  0.19267131  0.73862808  1
  Hf  Hf31  1  0.91288159  0.49311413  0.88510018  1
  Hf  Hf32  1  0.90758786  0.30609133  0.37043134  1
  Hf  Hf33  1  0.00686085  0.20740517  0.49415790  1
  Hf  Hf34  1  0.69792960  0.30252873  0.37121626  1
  Hf  Hf35  1  0.78763175  0.60155158  0.49656146  1
  Hf  Hf36  1  0.51652304  0.89977011  0.61718601  1
  Hf  Hf37  1  0.09831363  0.50425282  0.36656742  1
  Hf  Hf38  1  0.79197693  0.18888314  0.50154639  1
  Hf  Hf39  1  0.00899543  0.41064515  0.74715696  1
  Zr  Zr40  1  0.09785864  0.90572673  0.86621067  1
  Zr  Zr41  1  0.19766461  0.79456949  0.50104926  1
  Zr  Zr42  1  0.39717020  0.20270707  0.25266563  1
  Zr  Zr43  1  0.09775001  0.09874297  0.36689941  1
  Zr  Zr44  1  0.60849742  0.78846499  0.48555532  1
  Zr  Zr45  1  0.89352733  0.08409288  0.63132165  1
  Zr  Zr46  1  0.79605277  0.39346307  0.74793002  1
  Zr  Zr47  1  -0.00181071  -0.00083843  0.50476020  1
  Zr  Zr48  1  0.78855004  0.78805117  0.24332669  1
  Zr  Zr49  1  0.58833248  -0.00519592  0.00171693  1
  Zr  Zr50  1  0.30363846  0.88145201  0.63920026  1
  Zr  Zr51  1  0.80809286  -0.00181693  0.00374222  1
  Zr  Zr52  1  0.78955867  0.79243851  0.76659726  1
  Zr  Zr53  1  0.20042505  0.00510264  0.51627939  1
  Zr  Zr54  1  0.30398778  0.70820187  0.12135299  1
  Zr  Zr55  1  0.59192524  0.80170011  0.76306430  1
  Zr  Zr56  1  0.39945828  0.60082609  0.25126773  1
  Zr  Zr57  1  0.02760033  0.60162966  0.01207312  1
  Zr  Zr58  1  0.58669039  0.20439906  0.01077014  1
  Zr  Zr59  1  0.60718685  0.40412890  0.23621486  1
  Zr  Zr60  1  0.50362885  0.91911653  0.37178389  1
  Zr  Zr61  1  0.70351516  0.09906579  0.13082007  1
  Zr  Zr62  1  0.90912326  0.10398161  0.86379220  1
  Zr  Zr63  1  0.49567276  0.10514035  0.87755186  1
  Zr  Zr64  1  0.51184027  0.49344966  0.89315186  1
  Zr  Zr65  1  0.09615323  0.70232770  0.64209546  1
  Zr  Zr66  1  0.50945585  0.49900394  0.36849583  1
  Zr  Zr67  1  0.69162517  0.49062024  0.62869290  1
  Zr  Zr68  1  0.09945065  0.12428437  0.64040635  1
  Zr  Zr69  1  0.70660564  0.49719964  0.89362400  1
  Zr  Zr70  1  0.81297227  0.20605686  0.00031226  1
  Zr  Zr71  1  0.90179524  0.29391946  0.13169988  1
  Zr  Zr72  1  0.90955620  0.51258182  0.62327938  1
  Zr  Zr73  1  0.48688116  0.69763290  0.62829789  1
  Zr  Zr74  1  0.09917844  0.10884112  0.87309994  1
  Zr  Zr75  1  0.29933805  0.08650355  0.36822761  1
  Zr  Zr76  1  0.68112539  0.88934681  0.12444415  1
  Zr  Zr77  1  0.68633540  0.30168911  0.88521686  1
  Zr  Zr78  1  0.39949797  0.00406115  0.50841366  1
  Zr  Zr79  1  0.20310989  0.42189403  0.01635159  1
  Ta  Ta80  1  0.91610436  0.09076698  0.13190040  1
  Ta  Ta81  1  0.49563989  0.08928651  0.13556621  1
  Ta  Ta82  1  0.30376338  0.90216361  0.86884159  1
  Ta  Ta83  1  0.60758146  0.60701348  0.23214990  1
  Ta  Ta84  1  0.79112349  0.79560163  -0.00286977  1
  Ta  Ta85  1  0.90207008  0.90464528  0.37274093  1
  Ta  Ta86  1  0.30355219  0.49483111  0.88235409  1
  Ta  Ta87  1  0.58920505  0.79603050  0.25666614  1
  Ta  Ta88  1  0.39796062  0.61309694  -0.00800293  1
  Ta  Ta89  1  0.80330285  0.39533966  0.50128611  1
  Ta  Ta90  1  0.49282631  0.50311835  0.10938787  1
  Ta  Ta91  1  0.10387542  0.69997979  0.36558165  1
  Ta  Ta92  1  0.11714936  0.50840918  0.63168456  1
  Ta  Ta93  1  0.20214393  0.59434015  0.50014700  1
  Ta  Ta94  1  0.11481934  0.31030378  0.36621189  1
  Ta  Ta95  1  0.50113108  0.70854829  0.12690632  1
  Ta  Ta96  1  0.10726326  0.71091611  0.13642322  1
  Ta  Ta97  1  -0.00060093  0.59912021  0.23912755  1
  Ta  Ta98  1  0.20286301  0.40760912  0.23211446  1
  Ta  Ta99  1  0.39320969  0.20467863  0.49286320  1
  Ta  Ta100  1  0.70118033  0.09897204  0.88121704  1
  Ta  Ta101  1  0.11476914  0.52758642  0.86527961  1
  Ta  Ta102  1  0.39137212  0.59786591  0.49477431  1
  Ta  Ta103  1  0.40097605  0.39482499  0.76218030  1
  Ta  Ta104  1  0.68970262  0.69617345  0.62649750  1
  Ta  Ta105  1  0.39958855  0.58851623  0.76195008  1
  Ta  Ta106  1  0.10624205  0.90108661  0.36900508  1
  Ta  Ta107  1  0.80854274  -0.01044957  0.24626550  1
  Ta  Ta108  1  0.59713770  0.59705733  0.75539580  1
  Ta  Ta109  1  0.29792255  0.29638791  0.62532472  1
  Ta  Ta110  1  -0.01228133  0.81202838  0.75404851  1
  Ta  Ta111  1  -0.00055333  0.80265449  0.49343340  1
  Ta  Ta112  1  0.58938551  0.59630481  0.50075822  1
  Ta  Ta113  1  0.70922153  0.89360926  0.37580614  1
  Ta  Ta114  1  0.10307902  0.90775997  0.12543385  1
  Ta  Ta115  1  0.59662398  0.19983379  0.24286893  1
  Ta  Ta116  1  0.69629424  0.90147155  0.88655953  1
  Ta  Ta117  1  0.28310321  0.69203977  0.86554526  1
  Ta  Ta118  1  0.00514438  0.40579752  0.23672269  1
  Ta  Ta119  1  0.40823759  -0.00519180  0.74908444  1
  Ti  Ti120  1  0.49668144  0.29878109  0.12525934  1
  Ti  Ti121  1  0.20589616  0.60165973  0.24622134  1
  Ti  Ti122  1  0.19507593  -0.00459049  -0.00028988  1
  Ti  Ti123  1  0.90214003  0.29625150  0.87178889  1
  Ti  Ti124  1  0.47129564  0.89858275  0.13544932  1
  Ti  Ti125  1  0.90414015  0.90480077  0.88780189  1
  Ti  Ti126  1  0.00530974  0.20114245  0.25180647  1
  Ti  Ti127  1  0.20416623  0.21786556  0.76059459  1
  Ti  Ti128  1  0.40385581  0.38182365  -0.00545562  1
  Ti  Ti129  1  0.10972867  0.31203627  0.63260298  1
  Ti  Ti130  1  0.29342246  0.68336523  0.63955383  1
  Ti  Ti131  1  0.68808402  0.68764848  0.88938256  1
  Ti  Ti132  1  0.50187797  0.69223623  0.36961006  1
  Ti  Ti133  1  0.30678816  0.49403424  0.62653824  1
  Ti  Ti134  1  0.00845243  0.60768812  0.49725535  1
  Ti  Ti135  1  0.80490272  0.59759484  0.00820899  1
  Ti  Ti136  1  0.59419247  0.19336894  0.49481579  1
  Ti  Ti137  1  0.89960690  0.09346996  0.36703907  1
  Ti  Ti138  1  0.90579194  0.90463573  0.12042231  1
  Ti  Ti139  1  0.20666211  0.20907721  0.49723054  1
  Ti  Ti140  1  0.50243321  0.10348005  0.36595151  1
  Ti  Ti141  1  0.00368678  0.81259037  0.00268793  1
  Ti  Ti142  1  0.30785371  0.30163827  0.11756247  1
  Ti  Ti143  1  0.70100628  0.30767456  0.11727102  1
  Ti  Ti144  1  0.39482762  -0.01704974  -0.00290035  1
  Ti  Ti145  1  0.59520146  0.38816779  0.75255437  1
  Ti  Ti146  1  0.21745462  0.40624035  0.75417366  1
  Ti  Ti147  1  0.80636133  0.40609071  0.24325234  1
  Ti  Ti148  1  0.20987038  -0.02258074  0.24503139  1
  Ti  Ti149  1  0.90130675  0.49863925  0.37531759  1
  Ti  Ti150  1  0.70525520  0.50562479  0.37101047  1
  Ti  Ti151  1  0.49875431  0.29566960  0.37201784  1
  Ti  Ti152  1  0.09166613  0.90257303  0.64143198  1
  Ti  Ti153  1  0.09542848  0.09948657  0.12402018  1
  Ti  Ti154  1  0.29014765  0.49557032  0.37370888  1
  Ti  Ti155  1  0.49469273  0.50375411  0.63052094  1
  Ti  Ti156  1  0.30050626  0.10506158  0.89072118  1
  Ti  Ti157  1  0.39862555  0.79144936  0.76674891  1
  Ti  Ti158  1  0.20366842  0.39839203  0.50141321  1
  Ti  Ti159  1  0.70153120  0.49930821  0.10598877  1
  Mo  Mo160  1  0.29016581  0.68445959  0.37769124  1
  Mo  Mo161  1  0.39355399  0.19462919  0.00736120  1
  Mo  Mo162  1  0.00010979  0.60772862  0.75341640  1
  Mo  Mo163  1  0.39056562  0.80444761  -0.01356136  1
  Mo  Mo164  1  0.20363456  0.80192829  0.75460253  1
  Mo  Mo165  1  0.80715173  0.40358093  0.00690267  1
  Mo  Mo166  1  0.29342092  0.30589776  0.37688660  1
  Mo  Mo167  1  0.59884596  0.60449297  0.01473822  1
  Mo  Mo168  1  0.00282878  0.00043142  0.74385343  1
  Mo  Mo169  1  0.30443917  0.11476207  0.62481694  1
  Mo  Mo170  1  0.59768362  0.39745854  0.01945152  1
  Mo  Mo171  1  0.91172086  0.89030860  0.62205005  1
  Mo  Mo172  1  0.10630574  0.51245551  0.13978748  1
  Mo  Mo173  1  0.09801718  0.70598700  0.85726009  1
  Mo  Mo174  1  0.61092376  0.00897546  0.49960626  1
  Mo  Mo175  1  0.69118283  0.28908102  0.61265745  1
  Mo  Mo176  1  0.68752559  0.68772668  0.36897366  1
  Mo  Mo177  1  0.00543467  0.19246341  0.00734701  1
  Mo  Mo178  1  0.31099515  0.50442507  0.11759587  1
  Mo  Mo179  1  0.59729117  -0.00624392  0.24338895  1
  Mo  Mo180  1  0.48945133  0.68936868  0.86908400  1
  Mo  Mo181  1  0.69165982  0.69653254  0.11020167  1
  Mo  Mo182  1  0.49053091  0.90367183  0.86838931  1
  Mo  Mo183  1  0.28741103  0.89922659  0.38126205  1
  Mo  Mo184  1  0.80464823  -0.00609273  0.48412100  1
  Mo  Mo185  1  0.20946888  0.59221874  0.74442061  1
  Mo  Mo186  1  0.68914116  0.08992906  0.61164714  1
  Mo  Mo187  1  0.00318003  0.00314913  0.24842693  1
  Mo  Mo188  1  0.80825920  0.79578695  0.48608606  1
  Mo  Mo189  1  0.29097922  0.89765042  0.11766835  1
  Mo  Mo190  1  0.49074249  0.30220126  0.87777078  1
  Mo  Mo191  1  0.30033099  0.29941682  0.88359002  1
  Mo  Mo192  1  0.19253542  0.79447419  0.25370710  1
  Mo  Mo193  1  0.39936236  -0.00112656  0.24831655  1
  Mo  Mo194  1  0.89810037  0.49947397  0.11969219  1
  Mo  Mo195  1  0.00768277  0.00105259  0.00617232  1
  Mo  Mo196  1  0.20720715  0.60772375  -0.00018094  1
  Mo  Mo197  1  0.59462243  0.20633651  0.75201181  1
  Mo  Mo198  1  0.10335516  0.29614551  0.13670876  1
  Mo  Mo199  1  -0.00148163  0.21449632  0.74834312  1
