# generated using pymatgen
data_HfZrTaTiMo
_symmetry_space_group_name_H-M   'P 1'
_cell_length_a   15.21296885
_cell_length_b   15.21107526
_cell_length_c   16.84732137
_cell_angle_alpha   89.99361822
_cell_angle_beta   90.00583178
_cell_angle_gamma   90.04574122
_symmetry_Int_Tables_number   1
_chemical_formula_structural   HfZrTaTiMo
_chemical_formula_sum   'Hf40 Zr40 Ta40 Ti40 Mo40'
_cell_volume   3898.56346177
_cell_formula_units_Z   40
loop_
 _symmetry_equiv_pos_site_id
 _symmetry_equiv_pos_as_xyz
  1  'x, y, z'
loop_
 _atom_site_type_symbol
 _atom_site_label
 _atom_site_symmetry_multiplicity
 _atom_site_fract_x
 _atom_site_fract_y
 _atom_site_fract_z
 _atom_site_occupancy
  Hf  Hf0  1  -0.00175440  0.61811841  0.00548626  1
  Hf  Hf1  1  0.18911945  0.80540746  0.49657338  1
  Hf  Hf2  1  0.48667876  0.89791189  0.11230871  1
  Hf  Hf3  1  0.58794636  0.39673549  -0.00556966  1
  Hf  Hf4  1  0.58532778  0.40956349  0.24927588  1
  Hf  Hf5  1  0.21569974  0.59458007  0.25249536  1
  Hf  Hf6  1  0.69624231  0.51179161  0.12743145  1
  Hf  Hf7  1  0.59545330  0.60100909  0.52088296  1
  Hf  Hf8  1  0.38986975  0.78394401  0.26230409  1
  Hf  Hf9  1  0.10268592  0.50807025  0.88775024  1
  Hf  Hf10  1  0.50576997  0.29060223  0.62326261  1
  Hf  Hf11  1  0.10670608  0.70936709  0.13741684  1
  Hf  Hf12  1  0.38879391  0.61167119  0.75757007  1
  Hf  Hf13  1  0.60382482  0.20180388  0.24885538  1
  Hf  Hf14  1  0.40070349  0.59381494  -0.01616556  1
  Hf  Hf15  1  0.89323694  0.29370125  0.13010544  1
  Hf  Hf16  1  0.19703446  0.40071826  0.74891952  1
  Hf  Hf17  1  0.09834610  0.29805927  0.10874928  1
  Hf  Hf18  1  0.29976211  0.29895963  0.12255811  1
  Hf  Hf19  1  0.49783306  0.27397018  0.86648748  1
  Hf  Hf20  1  0.19636142  0.79433043  -0.00075406  1
  Hf  Hf21  1  0.09321498  0.90228051  0.35396936  1
  Hf  Hf22  1  0.32047588  0.88982365  0.61997253  1
  Hf  Hf23  1  -0.00185944  0.59870757  0.24701907  1
  Hf  Hf24  1  0.31086514  0.49424929  0.37882723  1
  Hf  Hf25  1  0.79939233  0.80721468  0.01063383  1
  Hf  Hf26  1  0.89869919  0.29815637  0.61749634  1
  Hf  Hf27  1  0.21120438  0.00357241  0.50540437  1
  Hf  Hf28  1  0.20245865  0.19542907  0.50615609  1
  Hf  Hf29  1  0.49528278  0.30256671  0.38595123  1
  Hf  Hf30  1  0.78754303  0.61154286  0.25562217  1
  Hf  Hf31  1  0.51383108  0.08803335  0.37310490  1
  Hf  Hf32  1  0.91249684  0.89815265  0.63164239  1
  Hf  Hf33  1  0.79688515  0.60838397  0.49895209  1
  Hf  Hf34  1  0.79611844  0.40671917  -0.00380608  1
  Hf  Hf35  1  0.10804222  0.29643786  0.89112084  1
  Hf  Hf36  1  0.50585197  0.68484918  0.37769028  1
  Hf  Hf37  1  0.89957997  0.72630376  0.36915575  1
  Hf  Hf38  1  0.61558701  0.59952699  -0.00846960  1
  Hf  Hf39  1  -0.00012186  0.61006624  0.75581360  1
  Zr  Zr40  1  0.00041770  0.60137672  0.49009892  1
  Zr  Zr41  1  0.90943563  0.49900039  0.62498082  1
  Zr  Zr42  1  0.80584401  0.20500717  0.74284669  1
  Zr  Zr43  1  0.20578716  0.78952426  0.75029621  1
  Zr  Zr44  1  0.10431794  0.70498719  0.35899981  1
  Zr  Zr45  1  0.19591432  0.21275775  0.25069135  1
  Zr  Zr46  1  0.71000607  0.10282283  0.88046912  1
  Zr  Zr47  1  0.50509158  0.09419127  0.12577367  1
  Zr  Zr48  1  0.68544692  0.90398595  0.88408373  1
  Zr  Zr49  1  0.79654496  0.00845559  0.73873092  1
  Zr  Zr50  1  0.70039714  0.29794327  0.87544675  1
  Zr  Zr51  1  0.67661904  0.50483231  0.37807648  1
  Zr  Zr52  1  0.59764270  0.79872189  0.24342339  1
  Zr  Zr53  1  0.00282957  0.19719353  0.48457443  1
  Zr  Zr54  1  0.01742679  0.39483403  0.25097651  1
  Zr  Zr55  1  0.69791592  0.50743999  0.85931577  1
  Zr  Zr56  1  0.30015539  0.49438456  0.11630619  1
  Zr  Zr57  1  0.78494749  0.79534507  0.74370545  1
  Zr  Zr58  1  0.08800081  0.09368807  0.87920352  1
  Zr  Zr59  1  0.38588683  0.38482689  -0.02526679  1
  Zr  Zr60  1  0.30256688  0.50389061  0.63526382  1
  Zr  Zr61  1  0.69868629  0.49200884  0.63279415  1
  Zr  Zr62  1  0.31912433  0.09192964  0.88135804  1
  Zr  Zr63  1  0.79262522  0.80812277  0.50741388  1
  Zr  Zr64  1  0.80058635  0.40091768  0.49202432  1
  Zr  Zr65  1  0.21259717  0.00313040  0.73963695  1
  Zr  Zr66  1  0.09264473  0.89313540  0.86142771  1
  Zr  Zr67  1  0.50475541  0.68621249  0.11957842  1
  Zr  Zr68  1  0.40533671  0.39952847  0.51122790  1
  Zr  Zr69  1  0.89809465  0.92048702  0.87181782  1
  Zr  Zr70  1  0.50479897  0.71204387  0.87838309  1
  Zr  Zr71  1  0.80271971  0.00682272  0.49239157  1
  Zr  Zr72  1  0.20353511  0.19721970  0.74510768  1
  Zr  Zr73  1  -0.00273932  0.38970605  0.76026998  1
  Zr  Zr74  1  0.28482387  0.89643461  0.14022805  1
  Zr  Zr75  1  0.19948375  0.60194783  0.49547082  1
  Zr  Zr76  1  0.90079208  0.49912420  0.12391734  1
  Zr  Zr77  1  0.18887447  0.39590101  0.51320027  1
  Zr  Zr78  1  0.19248722  -0.00645173  0.00234851  1
  Zr  Zr79  1  0.48232097  0.72144430  0.62512453  1
  Ta  Ta80  1  0.60248872  0.18711789  0.73945024  1
  Ta  Ta81  1  0.90109420  0.70319754  0.62430983  1
  Ta  Ta82  1  0.41571171  -0.01420385  0.74920047  1
  Ta  Ta83  1  -0.00496567  0.19143787  0.26116307  1
  Ta  Ta84  1  -0.00046730  0.82275413  0.01630746  1
  Ta  Ta85  1  0.89537793  0.51200263  0.88075600  1
  Ta  Ta86  1  0.69370134  0.29728469  0.38156204  1
  Ta  Ta87  1  0.69843221  0.30280536  0.12767304  1
  Ta  Ta88  1  0.30673757  0.69389074  0.11694379  1
  Ta  Ta89  1  0.29203869  0.29578631  0.37726533  1
  Ta  Ta90  1  0.60479136  0.62068105  0.73976146  1
  Ta  Ta91  1  0.69517092  0.71446162  0.37624882  1
  Ta  Ta92  1  0.79657988  0.19422872  0.26391156  1
  Ta  Ta93  1  0.40102057  0.19860524  0.25276654  1
  Ta  Ta94  1  0.57939532  0.81911451  0.74907277  1
  Ta  Ta95  1  0.50093597  0.49610459  0.85123911  1
  Ta  Ta96  1  0.49531947  0.29974230  0.12389880  1
  Ta  Ta97  1  0.90363011  0.09817830  0.13551407  1
  Ta  Ta98  1  0.48395632  0.90742793  0.89705768  1
  Ta  Ta99  1  0.80267338  0.01823669  0.01393178  1
  Ta  Ta100  1  0.91756962  0.09873232  0.61660283  1
  Ta  Ta101  1  0.09993688  0.09013757  0.13284431  1
  Ta  Ta102  1  0.41877480  0.58255971  0.25273625  1
  Ta  Ta103  1  0.81260979  0.00173559  0.26052732  1
  Ta  Ta104  1  0.08722143  0.71176788  0.62558602  1
  Ta  Ta105  1  0.11112926  0.09623028  0.36633100  1
  Ta  Ta106  1  0.00908734  -0.01141545  0.49227114  1
  Ta  Ta107  1  0.58674925  0.81586322  0.49438699  1
  Ta  Ta108  1  0.30546895  0.28847340  0.62966428  1
  Ta  Ta109  1  0.30808062  0.09741830  0.36953309  1
  Ta  Ta110  1  0.62176073  -0.00369166  0.24248949  1
  Ta  Ta111  1  0.88957979  0.70528655  0.12798512  1
  Ta  Ta112  1  0.61376768  0.19312524  0.01428636  1
  Ta  Ta113  1  0.59432912  0.00590331  0.74712874  1
  Ta  Ta114  1  0.78697036  0.81855029  0.23663554  1
  Ta  Ta115  1  0.39499423  0.38153851  0.75754300  1
  Ta  Ta116  1  0.80590180  0.40151828  0.75563223  1
  Ta  Ta117  1  0.39892615  0.60385486  0.50238964  1
  Ta  Ta118  1  0.30333742  0.09557497  0.13183205  1
  Ta  Ta119  1  0.89868999  0.30280331  0.36710825  1
  Ti  Ti120  1  0.41975803  -0.01174525  0.49288008  1
  Ti  Ti121  1  0.79321780  0.39738702  0.25731703  1
  Ti  Ti122  1  0.29359359  0.70253269  0.88143328  1
  Ti  Ti123  1  0.49272563  0.49154455  0.11771047  1
  Ti  Ti124  1  0.21260054  0.19629535  0.00092462  1
  Ti  Ti125  1  -0.01769893  0.82053785  0.23244700  1
  Ti  Ti126  1  0.80123972  0.60427149  0.74389101  1
  Ti  Ti127  1  -0.01430976  0.18169532  0.00181698  1
  Ti  Ti128  1  0.39839913  0.18152124  0.50512015  1
  Ti  Ti129  1  0.68084142  0.90485976  0.61989672  1
  Ti  Ti130  1  0.51626465  0.08578315  0.89185638  1
  Ti  Ti131  1  0.89989552  0.28905551  0.88342155  1
  Ti  Ti132  1  0.00235518  0.39745792  0.48829721  1
  Ti  Ti133  1  0.09758223  0.90470566  0.63285401  1
  Ti  Ti134  1  0.40734584  0.19104527  0.00448997  1
  Ti  Ti135  1  0.69863910  0.10218462  0.61564229  1
  Ti  Ti136  1  0.40710084  0.17496312  0.73844882  1
  Ti  Ti137  1  0.69196271  0.91071149  0.37623576  1
  Ti  Ti138  1  0.39156944  0.79972577  0.47655052  1
  Ti  Ti139  1  0.28621774  0.69620175  0.62417834  1
  Ti  Ti140  1  0.69939992  0.29740419  0.61456212  1
  Ti  Ti141  1  0.00000690  0.18551536  0.75140457  1
  Ti  Ti142  1  0.09808287  0.70036833  0.87602805  1
  Ti  Ti143  1  0.60367035  0.80255746  0.01205469  1
  Ti  Ti144  1  0.60171860  0.38776531  0.74861883  1
  Ti  Ti145  1  0.80083866  0.19622289  0.48488494  1
  Ti  Ti146  1  0.41029850  -0.00683421  0.25718233  1
  Ti  Ti147  1  -0.00412919  0.40089975  -0.00322751  1
  Ti  Ti148  1  0.39048217  0.39174361  0.25298266  1
  Ti  Ti149  1  0.70879972  0.70309598  0.87439776  1
  Ti  Ti150  1  0.89950173  0.50070831  0.36884726  1
  Ti  Ti151  1  0.49755631  0.49779826  0.64677480  1
  Ti  Ti152  1  0.90339652  0.71385917  0.87723783  1
  Ti  Ti153  1  0.60370109  0.18908649  0.49897721  1
  Ti  Ti154  1  0.28953462  0.49879520  0.86982965  1
  Ti  Ti155  1  0.10727355  0.48544083  0.37087090  1
  Ti  Ti156  1  0.10103082  0.51355627  0.63117548  1
  Ti  Ti157  1  0.29437669  0.90263282  0.36423118  1
  Ti  Ti158  1  0.11147413  0.49914761  0.11007784  1
  Ti  Ti159  1  0.09118950  0.28898205  0.62785134  1
  Mo  Mo160  1  0.00106803  0.80770931  0.50113446  1
  Mo  Mo161  1  0.09529695  0.09440613  0.62309521  1
  Mo  Mo162  1  0.60249096  0.38896618  0.50858752  1
  Mo  Mo163  1  0.90187067  0.10877619  0.87925686  1
  Mo  Mo164  1  -0.00626891  -0.00132689  0.00999499  1
  Mo  Mo165  1  0.39597964  0.80832739  0.75962565  1
  Mo  Mo166  1  0.50117834  0.90717675  0.61965287  1
  Mo  Mo167  1  0.00050314  0.00757230  0.25411934  1
  Mo  Mo168  1  0.89784984  0.91227960  0.12512653  1
  Mo  Mo169  1  0.30488698  0.69737643  0.37840594  1
  Mo  Mo170  1  0.69483935  0.91411286  0.12044717  1
  Mo  Mo171  1  0.80423255  0.20870726  0.00992699  1
  Mo  Mo172  1  0.10356858  0.30020148  0.37726460  1
  Mo  Mo173  1  0.50689412  0.09053364  0.61561711  1
  Mo  Mo174  1  0.89581822  0.90046445  0.37258030  1
  Mo  Mo175  1  0.69404718  0.71021498  0.62907028  1
  Mo  Mo176  1  0.39249847  0.00362173  0.00577768  1
  Mo  Mo177  1  0.49811910  0.49517975  0.38309807  1
  Mo  Mo178  1  -0.00421255  0.79939615  0.74975849  1
  Mo  Mo179  1  0.59652832  0.60153255  0.24734428  1
  Mo  Mo180  1  0.70263561  0.10476248  0.37584030  1
  Mo  Mo181  1  0.70478521  0.70419721  0.12107324  1
  Mo  Mo182  1  0.20987322  0.00927018  0.25414175  1
  Mo  Mo183  1  0.60612528  -0.00010303  0.49844923  1
  Mo  Mo184  1  0.19431731  0.39741956  -0.00759710  1
  Mo  Mo185  1  0.20277808  0.60286265  -0.00002384  1
  Mo  Mo186  1  0.09336757  0.90773265  0.14234360  1
  Mo  Mo187  1  0.80632593  0.61190658  -0.00665906  1
  Mo  Mo188  1  0.00437656  0.01014810  0.74096744  1
  Mo  Mo189  1  0.20506685  0.40244046  0.25149572  1
  Mo  Mo190  1  0.71331363  0.10949120  0.13002355  1
  Mo  Mo191  1  0.38921153  0.79847608  0.00145618  1
  Mo  Mo192  1  0.19296385  0.60151298  0.75094976  1
  Mo  Mo193  1  0.90618774  0.09533152  0.37406415  1
  Mo  Mo194  1  0.30862855  0.89035364  0.87844235  1
  Mo  Mo195  1  0.30103857  0.28811149  0.86913723  1
  Mo  Mo196  1  0.31884294  0.09535702  0.61995096  1
  Mo  Mo197  1  0.60650859  -0.00238175  0.01028546  1
  Mo  Mo198  1  0.50334172  0.89618312  0.36909553  1
  Mo  Mo199  1  0.20117903  0.79637796  0.25103952  1
