# generated using pymatgen
data_HfZrTaTiMo
_symmetry_space_group_name_H-M   'P 1'
_cell_length_a   15.17708674
_cell_length_b   15.15523578
_cell_length_c   16.80720537
_cell_angle_alpha   89.97824547
_cell_angle_beta   90.01595640
_cell_angle_gamma   89.96488399
_symmetry_Int_Tables_number   1
_chemical_formula_structural   HfZrTaTiMo
_chemical_formula_sum   'Hf40 Zr40 Ta40 Ti40 Mo40'
_cell_volume   3865.86327928
_cell_formula_units_Z   40
loop_
 _symmetry_equiv_pos_site_id
 _symmetry_equiv_pos_as_xyz
  1  'x, y, z'
loop_
 _atom_site_type_symbol
 _atom_site_label
 _atom_site_symmetry_multiplicity
 _atom_site_fract_x
 _atom_site_fract_y
 _atom_site_fract_z
 _atom_site_occupancy
  Hf  Hf0  1  0.19508797  0.00421684  0.00231247  1
  Hf  Hf1  1  0.79234046  0.40924826  0.01246944  1
  Hf  Hf2  1  0.10844220  0.11886041  0.62597109  1
  Hf  Hf3  1  0.89323122  0.52064509  0.13248364  1
  Hf  Hf4  1  0.71746244  0.10427081  0.13608021  1
  Hf  Hf5  1  0.51681326  0.08688645  0.63288419  1
  Hf  Hf6  1  0.90682215  0.10088418  0.61304472  1
  Hf  Hf7  1  0.39970679  0.59303503  0.74956322  1
  Hf  Hf8  1  -0.00205523  0.81425854  0.50112851  1
  Hf  Hf9  1  0.47862020  0.70392543  0.39062804  1
  Hf  Hf10  1  0.30294294  0.67677290  0.11188684  1
  Hf  Hf11  1  0.59317353  0.80050127  0.73433267  1
  Hf  Hf12  1  0.58850280  0.79189528  0.25805888  1
  Hf  Hf13  1  0.59068859  0.81805183  0.50458707  1
  Hf  Hf14  1  0.70816572  0.27503343  0.62764635  1
  Hf  Hf15  1  0.91058466  0.29742192  0.89338087  1
  Hf  Hf16  1  0.70860555  0.89644532  0.14355643  1
  Hf  Hf17  1  0.47597456  0.70136535  0.60558888  1
  Hf  Hf18  1  0.40081001  -0.00506932  0.00919940  1
  Hf  Hf19  1  0.01699594  0.21623856  0.76229556  1
  Hf  Hf20  1  0.00102235  0.59430739  0.48351302  1
  Hf  Hf21  1  0.60218456  0.38591740  0.50659949  1
  Hf  Hf22  1  0.21076869  -0.00750165  0.22929375  1
  Hf  Hf23  1  0.89635676  0.48440110  0.36109417  1
  Hf  Hf24  1  0.88824855  0.70791338  0.37552827  1
  Hf  Hf25  1  0.22456121  -0.00097167  0.50886061  1
  Hf  Hf26  1  0.68656460  0.51173481  0.87587527  1
  Hf  Hf27  1  0.71401738  0.07530487  0.63451876  1
  Hf  Hf28  1  0.80698083  0.39488331  0.74742790  1
  Hf  Hf29  1  0.79024042  0.81814221  0.73027246  1
  Hf  Hf30  1  0.01284832  0.00713852  0.25915706  1
  Hf  Hf31  1  -0.00615190  0.60544861  0.76356547  1
  Hf  Hf32  1  0.08353206  0.69199589  0.12471454  1
  Hf  Hf33  1  -0.01403627  0.81571502  -0.00851281  1
  Hf  Hf34  1  0.09198171  0.91722963  0.63359402  1
  Hf  Hf35  1  0.18062563  0.58660752  -0.00373846  1
  Hf  Hf36  1  -0.01073212  0.81298865  0.75069799  1
  Hf  Hf37  1  0.59925569  0.59137521  0.50195216  1
  Hf  Hf38  1  0.60255466  0.01982040  0.48735198  1
  Hf  Hf39  1  0.00640992  0.41581693  0.01799753  1
  Zr  Zr40  1  0.89443234  0.72978951  0.14545532  1
  Zr  Zr41  1  0.28838677  0.49201367  0.87986193  1
  Zr  Zr42  1  0.41259196  -0.00073545  0.22858143  1
  Zr  Zr43  1  0.19779111  0.60155735  0.75444762  1
  Zr  Zr44  1  0.92008421  0.11297694  0.12451968  1
  Zr  Zr45  1  0.38084666  0.38455611  0.74136686  1
  Zr  Zr46  1  0.59591098  0.40532104  0.73898992  1
  Zr  Zr47  1  0.61908414  -0.00395050  -0.00016950  1
  Zr  Zr48  1  0.69535366  0.68997541  0.13481305  1
  Zr  Zr49  1  0.31558868  0.10267009  0.64063988  1
  Zr  Zr50  1  0.78489517  0.61036304  0.74667305  1
  Zr  Zr51  1  0.89556406  0.50376717  0.88117248  1
  Zr  Zr52  1  0.29920739  0.29725374  0.89233445  1
  Zr  Zr53  1  0.31398740  0.09116521  0.36454060  1
  Zr  Zr54  1  0.92004652  0.29625315  0.62389611  1
  Zr  Zr55  1  0.39040803  0.79454036  0.74685724  1
  Zr  Zr56  1  0.80273387  0.38879133  0.50153597  1
  Zr  Zr57  1  0.18959861  0.79391651  0.23535597  1
  Zr  Zr58  1  0.29335945  0.89574549  0.87136797  1
  Zr  Zr59  1  0.40996297  0.17782535  0.49155308  1
  Zr  Zr60  1  0.70465013  0.30229706  0.87915258  1
  Zr  Zr61  1  0.18909240  0.39652940  0.48877534  1
  Zr  Zr62  1  0.60388337  0.20733271  0.25569217  1
  Zr  Zr63  1  0.50365639  0.89849206  0.88034891  1
  Zr  Zr64  1  0.38869742  0.79433667  0.23743360  1
  Zr  Zr65  1  0.09134060  0.30270642  0.35193132  1
  Zr  Zr66  1  0.19812365  0.80279591  0.00860688  1
  Zr  Zr67  1  0.60045166  0.18244755  0.77077622  1
  Zr  Zr68  1  0.20138273  0.59913438  0.50171971  1
  Zr  Zr69  1  0.70517158  0.89489145  0.36738034  1
  Zr  Zr70  1  0.49244128  0.49494063  0.38564218  1
  Zr  Zr71  1  0.51843713  0.10648796  0.12267606  1
  Zr  Zr72  1  0.01587457  0.01344411  0.48471666  1
  Zr  Zr73  1  0.10129118  0.28904103  0.12891434  1
  Zr  Zr74  1  0.49057225  0.28242073  0.62531733  1
  Zr  Zr75  1  0.48797076  0.49147510  0.11127451  1
  Zr  Zr76  1  0.89877255  0.70763639  0.61022110  1
  Zr  Zr77  1  0.29794517  0.88408605  0.37601285  1
  Zr  Zr78  1  0.08817219  0.49525374  0.63069200  1
  Zr  Zr79  1  0.89225241  0.50396474  0.62320976  1
  Ta  Ta80  1  0.72217131  0.07882681  0.87330499  1
  Ta  Ta81  1  0.30093095  0.49668893  0.37083263  1
  Ta  Ta82  1  0.20546033  0.20463543  0.49352293  1
  Ta  Ta83  1  0.50118477  0.29259486  0.38146591  1
  Ta  Ta84  1  0.50871505  0.68931883  0.87829438  1
  Ta  Ta85  1  0.48994184  0.91445951  0.37375641  1
  Ta  Ta86  1  0.68617260  0.29932891  0.11443737  1
  Ta  Ta87  1  0.40549909  0.39359976  0.24896568  1
  Ta  Ta88  1  0.21607152  0.21350735  0.75707461  1
  Ta  Ta89  1  0.69705846  0.69860816  0.60647772  1
  Ta  Ta90  1  0.49749732  0.30221887  0.88148155  1
  Ta  Ta91  1  0.50080365  0.68845264  0.11836828  1
  Ta  Ta92  1  0.88962568  0.92044162  0.87439650  1
  Ta  Ta93  1  0.79358806  0.80857820  0.00255683  1
  Ta  Ta94  1  0.48568592  0.49624104  0.61119784  1
  Ta  Ta95  1  -0.00979149  0.02125853  0.75817790  1
  Ta  Ta96  1  0.60618444  0.78813124  0.00153757  1
  Ta  Ta97  1  0.09852974  0.71207309  0.87539112  1
  Ta  Ta98  1  0.09122270  0.91446120  0.86794912  1
  Ta  Ta99  1  0.19258065  0.80231713  0.74083607  1
  Ta  Ta100  1  0.31295326  0.10001863  0.87379590  1
  Ta  Ta101  1  0.39601858  0.59188515  0.25058923  1
  Ta  Ta102  1  0.82056448  0.18301273  0.76251202  1
  Ta  Ta103  1  0.78707827  0.59695463  0.25966880  1
  Ta  Ta104  1  0.71134093  0.10329303  0.36311930  1
  Ta  Ta105  1  0.90070599  0.11891045  0.37111370  1
  Ta  Ta106  1  0.07387552  0.90427509  0.12280442  1
  Ta  Ta107  1  0.90416371  0.90245249  0.36621329  1
  Ta  Ta108  1  0.41127260  0.20038584  0.00236061  1
  Ta  Ta109  1  0.69679283  0.49045051  0.36815014  1
  Ta  Ta110  1  0.70477567  0.88492309  0.87308217  1
  Ta  Ta111  1  0.00082092  0.60598265  0.26202795  1
  Ta  Ta112  1  0.38300045  0.38886176  0.50452336  1
  Ta  Ta113  1  0.50916718  0.88603993  0.11816895  1
  Ta  Ta114  1  0.59510235  0.39835353  0.25064476  1
  Ta  Ta115  1  0.59133046  0.60129071  0.73239056  1
  Ta  Ta116  1  0.10162745  0.71006824  0.37428940  1
  Ta  Ta117  1  0.20221887  0.80132127  0.52273401  1
  Ta  Ta118  1  0.10933358  0.31948872  0.88902498  1
  Ta  Ta119  1  0.49202721  0.49361374  0.88533789  1
  Ti  Ti120  1  0.00509756  0.21332668  0.48716322  1
  Ti  Ti121  1  0.59735789  0.59599536  0.00000578  1
  Ti  Ti122  1  0.31567445  0.30335007  0.11938048  1
  Ti  Ti123  1  0.80874038  -0.01159511  0.49285779  1
  Ti  Ti124  1  0.80469133  0.19385424  -0.00048836  1
  Ti  Ti125  1  0.69280778  0.69456570  0.38229534  1
  Ti  Ti126  1  0.87786855  0.71816454  0.87371698  1
  Ti  Ti127  1  0.41982971  0.00089436  0.75928852  1
  Ti  Ti128  1  -0.02157159  0.38612097  0.23090689  1
  Ti  Ti129  1  0.09533219  0.69807160  0.62672012  1
  Ti  Ti130  1  0.10353759  0.50100609  0.35610020  1
  Ti  Ti131  1  0.10821661  0.11557620  0.88612774  1
  Ti  Ti132  1  0.11663800  0.10731987  0.36930318  1
  Ti  Ti133  1  0.19918675  0.00753865  0.75587391  1
  Ti  Ti134  1  0.30213075  0.69578834  0.88588093  1
  Ti  Ti135  1  0.21726240  0.40078046  0.24229523  1
  Ti  Ti136  1  0.79321040  0.59068481  0.49260472  1
  Ti  Ti137  1  0.40598686  0.20815336  0.24509538  1
  Ti  Ti138  1  0.81848740  -0.00522882  0.01079115  1
  Ti  Ti139  1  0.20596991  0.39883904  0.02182746  1
  Ti  Ti140  1  0.29230870  0.69394894  0.38188131  1
  Ti  Ti141  1  0.60757244  0.19731288  -0.01221342  1
  Ti  Ti142  1  0.10401101  0.50123243  0.14696829  1
  Ti  Ti143  1  0.40496121  0.78994827  0.00263704  1
  Ti  Ti144  1  0.20525434  0.59950605  0.25312806  1
  Ti  Ti145  1  0.10595388  0.10406708  0.11813156  1
  Ti  Ti146  1  -0.01454376  0.61662662  -0.01098388  1
  Ti  Ti147  1  0.10955770  0.89887141  0.37596134  1
  Ti  Ti148  1  0.68601464  0.49983503  0.12923449  1
  Ti  Ti149  1  0.00012108  0.39948056  0.48924116  1
  Ti  Ti150  1  0.11614861  0.30854207  0.62711227  1
  Ti  Ti151  1  0.71574353  0.29486043  0.37476310  1
  Ti  Ti152  1  0.28987020  0.49271556  0.62464636  1
  Ti  Ti153  1  0.81201981  0.00490584  0.25286029  1
  Ti  Ti154  1  0.78854308  0.38861985  0.23555657  1
  Ti  Ti155  1  0.58800015  0.59157887  0.25823011  1
  Ti  Ti156  1  0.79005189  0.61967180  -0.00211669  1
  Ti  Ti157  1  0.30105433  0.11325008  0.11769207  1
  Ti  Ti158  1  0.20859953  0.19740112  0.24540224  1
  Ti  Ti159  1  0.30377090  0.29751640  0.36794409  1
  Mo  Mo160  1  0.39708086  0.60216000  -0.01147602  1
  Mo  Mo161  1  0.60397927  -0.00050135  0.25788365  1
  Mo  Mo162  1  0.00253088  0.00676791  -0.00644085  1
  Mo  Mo163  1  0.28643727  0.69579936  0.62635243  1
  Mo  Mo164  1  0.38195726  0.81060883  0.50792799  1
  Mo  Mo165  1  0.79366212  0.18395753  0.49385039  1
  Mo  Mo166  1  0.69703937  0.90138013  0.61155776  1
  Mo  Mo167  1  0.79565220  0.79740349  0.26166062  1
  Mo  Mo168  1  0.59710147  0.39446108  -0.00234306  1
  Mo  Mo169  1  0.00188340  0.80852519  0.26336217  1
  Mo  Mo170  1  0.50747674  0.10039942  0.36018973  1
  Mo  Mo171  1  0.50535715  0.10040881  0.88307103  1
  Mo  Mo172  1  0.89326119  0.92030055  0.61751158  1
  Mo  Mo173  1  0.00481970  0.19791036  0.25260594  1
  Mo  Mo174  1  0.18296013  0.39307117  0.75237176  1
  Mo  Mo175  1  0.39851300  0.39733837  0.00251931  1
  Mo  Mo176  1  0.00866003  0.40434496  0.76195237  1
  Mo  Mo177  1  0.81239949  0.21586348  0.24516035  1
  Mo  Mo178  1  0.61718001  0.19828438  0.48907938  1
  Mo  Mo179  1  0.89857884  0.91471494  0.13598129  1
  Mo  Mo180  1  0.80904241  -0.00269181  0.75022059  1
  Mo  Mo181  1  0.69092442  0.70366921  0.87422765  1
  Mo  Mo182  1  0.29340722  0.49323306  0.13183066  1
  Mo  Mo183  1  0.01544425  0.20221826  -0.00700587  1
  Mo  Mo184  1  0.29902770  0.90296706  0.64312318  1
  Mo  Mo185  1  0.09004232  0.50267071  0.88189430  1
  Mo  Mo186  1  0.69050623  0.50040525  0.62521074  1
  Mo  Mo187  1  0.38322627  0.59068848  0.50212316  1
  Mo  Mo188  1  0.61187835  -0.01648281  0.75987564  1
  Mo  Mo189  1  0.89385777  0.29728299  0.36853147  1
  Mo  Mo190  1  0.21183911  0.19804087  0.00507326  1
  Mo  Mo191  1  0.79437897  0.80189461  0.50460588  1
  Mo  Mo192  1  0.29814712  0.89618665  0.11076954  1
  Mo  Mo193  1  0.40442404  0.19297981  0.76514700  1
  Mo  Mo194  1  0.49427346  0.91019181  0.62710175  1
  Mo  Mo195  1  0.28930188  0.29402038  0.62028223  1
  Mo  Mo196  1  0.91157720  0.10184306  0.88865111  1
  Mo  Mo197  1  0.50321121  0.29829714  0.11898490  1
  Mo  Mo198  1  0.89010264  0.30065190  0.11290244  1
  Mo  Mo199  1  0.41392378  -0.01835198  0.50612403  1
