# generated using pymatgen
data_HfZrTaTiMo
_symmetry_space_group_name_H-M   'P 1'
_cell_length_a   15.19897117
_cell_length_b   15.21720412
_cell_length_c   16.84649374
_cell_angle_alpha   89.97052703
_cell_angle_beta   89.99523469
_cell_angle_gamma   90.11344249
_symmetry_Int_Tables_number   1
_chemical_formula_structural   HfZrTaTiMo
_chemical_formula_sum   'Hf40 Zr40 Ta40 Ti40 Mo40'
_cell_volume   3896.34740364
_cell_formula_units_Z   40
loop_
 _symmetry_equiv_pos_site_id
 _symmetry_equiv_pos_as_xyz
  1  'x, y, z'
loop_
 _atom_site_type_symbol
 _atom_site_label
 _atom_site_symmetry_multiplicity
 _atom_site_fract_x
 _atom_site_fract_y
 _atom_site_fract_z
 _atom_site_occupancy
  Hf  Hf0  1  0.81589798  0.60393836  0.75888016  1
  Hf  Hf1  1  0.20551599  0.59936836  0.24894299  1
  Hf  Hf2  1  0.80427126  0.38861876  0.01281058  1
  Hf  Hf3  1  0.79795217  0.79481578  0.01701650  1
  Hf  Hf4  1  0.11446775  0.28599191  0.13302714  1
  Hf  Hf5  1  0.10002114  0.90276031  0.85452529  1
  Hf  Hf6  1  0.09740409  0.68693192  0.86836904  1
  Hf  Hf7  1  0.49557384  0.09730149  0.13073982  1
  Hf  Hf8  1  0.70099077  0.90641275  0.61635644  1
  Hf  Hf9  1  0.88776972  0.89246402  0.87830000  1
  Hf  Hf10  1  0.90496519  0.08802409  0.62080978  1
  Hf  Hf11  1  0.19763211  0.60108241  -0.00023655  1
  Hf  Hf12  1  0.78779205  0.59919404  0.01455007  1
  Hf  Hf13  1  0.60681679  0.21190702  0.00340370  1
  Hf  Hf14  1  -0.01496021  0.59599312  0.01027784  1
  Hf  Hf15  1  0.00139485  0.40370177  0.75044930  1
  Hf  Hf16  1  0.70188363  0.09765210  0.87622410  1
  Hf  Hf17  1  0.30401588  0.70439170  0.38185509  1
  Hf  Hf18  1  0.71209323  0.50373594  0.62602393  1
  Hf  Hf19  1  0.29836247  0.91819133  0.12107920  1
  Hf  Hf20  1  0.90954320  0.10415861  0.86739886  1
  Hf  Hf21  1  0.00832502  0.78711857  0.49954937  1
  Hf  Hf22  1  0.40708340  0.40292853  -0.01062647  1
  Hf  Hf23  1  0.30582208  0.30392579  0.62846720  1
  Hf  Hf24  1  0.92395737  0.50570607  0.61270980  1
  Hf  Hf25  1  0.20072328  0.80836962  -0.01262527  1
  Hf  Hf26  1  0.59152479  0.59817902  -0.00897392  1
  Hf  Hf27  1  0.30115625  0.71581737  0.12897159  1
  Hf  Hf28  1  0.29255132  0.12376356  0.12764664  1
  Hf  Hf29  1  -0.00860939  0.19794312  0.00839388  1
  Hf  Hf30  1  0.11197106  0.10867437  0.86729287  1
  Hf  Hf31  1  0.70563609  0.70179073  0.62040136  1
  Hf  Hf32  1  0.79687400  -0.00698677  0.75052490  1
  Hf  Hf33  1  0.59489257  0.80364170  0.49690867  1
  Hf  Hf34  1  0.39555039  0.19462601  -0.00749185  1
  Hf  Hf35  1  0.49994029  0.67576749  0.13951219  1
  Hf  Hf36  1  0.09547280  0.48542327  0.12680706  1
  Hf  Hf37  1  0.81241597  0.01161935  0.01490317  1
  Hf  Hf38  1  0.38954430  0.00412941  0.26027155  1
  Hf  Hf39  1  0.01479430  -0.00776527  -0.00118042  1
  Zr  Zr40  1  0.20052394  -0.00143677  0.72770640  1
  Zr  Zr41  1  0.09537816  0.71021493  0.12569000  1
  Zr  Zr42  1  0.49793774  0.30888404  0.13018805  1
  Zr  Zr43  1  0.10248971  0.70490646  0.36942786  1
  Zr  Zr44  1  0.00882304  0.18712338  0.48716007  1
  Zr  Zr45  1  0.80894551  0.20743391  0.74228080  1
  Zr  Zr46  1  0.49103229  0.88999994  0.12660683  1
  Zr  Zr47  1  0.61056555  0.00773700  0.26185803  1
  Zr  Zr48  1  0.69602168  0.31355565  0.36264993  1
  Zr  Zr49  1  0.31380320  0.08434621  0.85396843  1
  Zr  Zr50  1  0.27977239  0.90386229  0.40068092  1
  Zr  Zr51  1  0.59092266  0.00189421  0.00038352  1
  Zr  Zr52  1  0.90960242  0.29296093  0.14738979  1
  Zr  Zr53  1  0.70725278  0.29766811  0.87367473  1
  Zr  Zr54  1  0.60399465  0.40636886  0.49938367  1
  Zr  Zr55  1  0.89701664  0.07133041  0.37706824  1
  Zr  Zr56  1  0.29186486  0.28416710  0.85971482  1
  Zr  Zr57  1  0.80955855  -0.01512386  0.23253340  1
  Zr  Zr58  1  0.48754913  0.89940311  0.38767893  1
  Zr  Zr59  1  0.10058021  0.31869336  0.60665104  1
  Zr  Zr60  1  0.39694713  0.61502838  -0.01959470  1
  Zr  Zr61  1  0.20955570  0.19344041  0.50527799  1
  Zr  Zr62  1  0.39514136  0.41000648  0.75664893  1
  Zr  Zr63  1  0.67145022  0.49833465  0.14233419  1
  Zr  Zr64  1  0.91162127  0.31083188  0.36536511  1
  Zr  Zr65  1  0.78471113  0.18804739  0.48810721  1
  Zr  Zr66  1  0.31254642  0.50250366  0.12058232  1
  Zr  Zr67  1  0.18642822  0.59681126  0.50516354  1
  Zr  Zr68  1  0.79750312  0.18557118  0.25946239  1
  Zr  Zr69  1  0.89804328  0.30427405  0.60464995  1
  Zr  Zr70  1  0.60938866  0.40325579  0.75274837  1
  Zr  Zr71  1  0.38489954  0.61458338  0.75475288  1
  Zr  Zr72  1  0.60187757  0.80115737  0.25744853  1
  Zr  Zr73  1  -0.01740893  0.78087507  0.75845644  1
  Zr  Zr74  1  0.49122884  0.91469522  0.86938310  1
  Zr  Zr75  1  0.70886666  0.70650091  0.37225282  1
  Zr  Zr76  1  0.40271285  0.59577219  0.50367008  1
  Zr  Zr77  1  0.39076851  0.39964806  0.25090771  1
  Zr  Zr78  1  0.49120737  0.11179874  0.38429900  1
  Zr  Zr79  1  0.60185762  0.60040689  0.48992204  1
  Ta  Ta80  1  0.01061369  -0.01069830  0.25261945  1
  Ta  Ta81  1  0.69899653  0.30120263  0.62292291  1
  Ta  Ta82  1  0.81118339  0.40532815  0.74957422  1
  Ta  Ta83  1  0.19560104  0.82158871  0.25365555  1
  Ta  Ta84  1  0.59492004  0.78906131  0.00329537  1
  Ta  Ta85  1  0.30860962  0.29564305  0.38813341  1
  Ta  Ta86  1  0.40543568  0.39640675  0.50235207  1
  Ta  Ta87  1  0.09224315  0.49566995  0.36873663  1
  Ta  Ta88  1  0.20811646  0.78328465  0.73175383  1
  Ta  Ta89  1  0.50345913  0.69980991  0.63369648  1
  Ta  Ta90  1  0.80998279  0.60080240  0.48976638  1
  Ta  Ta91  1  -0.00417692  -0.02014680  0.49768545  1
  Ta  Ta92  1  0.09517885  0.29706234  0.88011588  1
  Ta  Ta93  1  0.49367905  0.30406118  0.37286603  1
  Ta  Ta94  1  -0.00385920  0.80417158  0.25269613  1
  Ta  Ta95  1  0.18314656  -0.00145709  0.52138476  1
  Ta  Ta96  1  0.10047918  0.09164443  0.12716529  1
  Ta  Ta97  1  0.49921560  0.71889677  0.86082749  1
  Ta  Ta98  1  0.19400449  0.01100967  0.25909539  1
  Ta  Ta99  1  0.49998954  0.50164184  0.63335839  1
  Ta  Ta100  1  0.18716949  0.58326020  0.74639542  1
  Ta  Ta101  1  0.39318028  0.79691657  0.52358097  1
  Ta  Ta102  1  0.60377044  0.60915781  0.75548934  1
  Ta  Ta103  1  0.90827825  0.30556696  0.88077503  1
  Ta  Ta104  1  0.39830993  0.81655705  0.72523265  1
  Ta  Ta105  1  0.89642552  0.88920205  0.62887479  1
  Ta  Ta106  1  0.59722560  0.80811432  0.74253516  1
  Ta  Ta107  1  -0.00904887  0.59892853  0.24325819  1
  Ta  Ta108  1  0.69927253  0.70734821  0.87498177  1
  Ta  Ta109  1  0.20270185  0.38271972  0.00027832  1
  Ta  Ta110  1  0.50294304  0.50292845  0.36246296  1
  Ta  Ta111  1  0.08590677  0.67916416  0.63328425  1
  Ta  Ta112  1  0.50461698  0.29693019  0.63314616  1
  Ta  Ta113  1  0.89721027  0.69680314  0.61896552  1
  Ta  Ta114  1  0.50543991  0.11302541  0.85426421  1
  Ta  Ta115  1  0.70524703  0.11254125  0.12225718  1
  Ta  Ta116  1  0.09163623  0.48456268  0.88789638  1
  Ta  Ta117  1  0.80597204  0.79241644  0.23089080  1
  Ta  Ta118  1  0.08412979  0.89221243  0.63656635  1
  Ta  Ta119  1  0.60888598  0.01447215  0.49925705  1
  Ti  Ti120  1  0.28427641  0.50130458  0.87651367  1
  Ti  Ti121  1  0.10952442  0.90160888  0.12315134  1
  Ti  Ti122  1  0.59099760  0.20777697  0.50055963  1
  Ti  Ti123  1  0.20016372  0.39262180  0.25464484  1
  Ti  Ti124  1  0.79139560  0.60432851  0.24047613  1
  Ti  Ti125  1  0.70381838  0.30348588  0.14373446  1
  Ti  Ti126  1  0.72066556  0.91528275  0.38410507  1
  Ti  Ti127  1  0.68947545  0.90087623  0.12067755  1
  Ti  Ti128  1  0.78780542  0.79584064  0.75302356  1
  Ti  Ti129  1  0.21630087  0.01157793  -0.00889695  1
  Ti  Ti130  1  0.02220090  0.18265981  0.26552012  1
  Ti  Ti131  1  0.70760712  0.50198192  0.87427839  1
  Ti  Ti132  1  0.90132135  0.49844057  0.88372182  1
  Ti  Ti133  1  0.19076579  0.39621330  0.75264265  1
  Ti  Ti134  1  0.30716941  0.10837565  0.63468846  1
  Ti  Ti135  1  0.90142543  0.69727903  0.36762139  1
  Ti  Ti136  1  0.60068926  0.40687535  -0.00648581  1
  Ti  Ti137  1  0.30054427  0.09983062  0.38937738  1
  Ti  Ti138  1  0.11198454  0.30474653  0.38014667  1
  Ti  Ti139  1  0.39354289  0.79689687  0.25879740  1
  Ti  Ti140  1  0.89563454  0.50399088  0.36273898  1
  Ti  Ti141  1  0.50419511  0.10610065  0.63188640  1
  Ti  Ti142  1  0.69637783  0.10840332  0.62710320  1
  Ti  Ti143  1  0.39895938  0.80997871  -0.00942085  1
  Ti  Ti144  1  0.92151495  0.89132507  0.11909891  1
  Ti  Ti145  1  0.68770579  0.89461779  0.88014053  1
  Ti  Ti146  1  0.39931017  0.00653420  0.52202699  1
  Ti  Ti147  1  0.21499261  0.19999233  0.26844395  1
  Ti  Ti148  1  0.30265201  0.89060418  0.85913028  1
  Ti  Ti149  1  0.50495130  0.29642105  0.86130733  1
  Ti  Ti150  1  0.81177418  0.80724113  0.49467549  1
  Ti  Ti151  1  0.59023161  0.20361904  0.25239568  1
  Ti  Ti152  1  0.59522937  0.00035863  0.74050098  1
  Ti  Ti153  1  0.80234061  0.41069298  0.48878387  1
  Ti  Ti154  1  0.29667518  0.49356082  0.37984758  1
  Ti  Ti155  1  -0.00274989  0.79105672  -0.01034198  1
  Ti  Ti156  1  0.89567074  0.48992613  0.14093192  1
  Ti  Ti157  1  0.01730192  0.19987424  0.73881142  1
  Ti  Ti158  1  0.50466544  0.50591958  0.86464548  1
  Ti  Ti159  1  0.29033940  0.49796439  0.62138066  1
  Mo  Mo160  1  0.59686813  0.60129824  0.26787465  1
  Mo  Mo161  1  0.69160445  0.70503191  0.13082286  1
  Mo  Mo162  1  0.80367843  0.41037407  0.24695999  1
  Mo  Mo163  1  0.39393296  0.00189454  -0.00619525  1
  Mo  Mo164  1  0.19426116  0.80002132  0.52723501  1
  Mo  Mo165  1  0.40989025  0.20147098  0.51325634  1
  Mo  Mo166  1  0.10700011  0.49472911  0.62155854  1
  Mo  Mo167  1  0.88781770  0.69241964  0.88532947  1
  Mo  Mo168  1  0.09294184  0.90511063  0.37953324  1
  Mo  Mo169  1  0.21162256  0.40519057  0.48761834  1
  Mo  Mo170  1  0.00532226  0.41270663  0.47890978  1
  Mo  Mo171  1  0.39213465  0.20079211  0.25844477  1
  Mo  Mo172  1  0.89790173  0.87845376  0.37235522  1
  Mo  Mo173  1  0.29280391  0.30440988  0.12432647  1
  Mo  Mo174  1  0.29587310  0.71396871  0.86436734  1
  Mo  Mo175  1  -0.00879496  0.59638324  0.48629105  1
  Mo  Mo176  1  -0.00072221  0.39752718  0.00145044  1
  Mo  Mo177  1  0.90050875  0.69571497  0.13335188  1
  Mo  Mo178  1  0.40852130  0.20120472  0.74172563  1
  Mo  Mo179  1  0.09337570  0.09929245  0.62776007  1
  Mo  Mo180  1  0.79986649  -0.00806651  0.50545485  1
  Mo  Mo181  1  0.60716364  0.19772934  0.74170817  1
  Mo  Mo182  1  0.11095210  0.08803926  0.37781712  1
  Mo  Mo183  1  0.19440373  0.19524115  -0.00233334  1
  Mo  Mo184  1  0.59534141  0.39799406  0.25642623  1
  Mo  Mo185  1  0.49208454  0.50017164  0.12714949  1
  Mo  Mo186  1  0.69084085  0.09977504  0.37879007  1
  Mo  Mo187  1  -0.00024602  0.58573542  0.75765491  1
  Mo  Mo188  1  0.39654178  0.60431650  0.26640587  1
  Mo  Mo189  1  0.19338724  0.20737967  0.73515869  1
  Mo  Mo190  1  0.29500795  0.90134026  0.61219582  1
  Mo  Mo191  1  -0.00712802  -0.00165649  0.74510683  1
  Mo  Mo192  1  0.49058406  0.70049072  0.37138043  1
  Mo  Mo193  1  0.50409012  0.90981581  0.61435534  1
  Mo  Mo194  1  0.70899625  0.50629828  0.35892914  1
  Mo  Mo195  1  0.01174834  0.40000677  0.26108009  1
  Mo  Mo196  1  0.29500296  0.69263306  0.62384670  1
  Mo  Mo197  1  0.91728693  0.09368924  0.13762565  1
  Mo  Mo198  1  0.80006412  0.19921998  0.01118431  1
  Mo  Mo199  1  0.40991986  -0.00098439  0.72581055  1
