# generated using pymatgen
data_HfZrTaTiMo
_symmetry_space_group_name_H-M   'P 1'
_cell_length_a   15.22343784
_cell_length_b   15.20965415
_cell_length_c   16.82768013
_cell_angle_alpha   90.02669123
_cell_angle_beta   89.98982043
_cell_angle_gamma   90.06485909
_symmetry_Int_Tables_number   1
_chemical_formula_structural   HfZrTaTiMo
_chemical_formula_sum   'Hf40 Zr40 Ta40 Ti40 Mo40'
_cell_volume   3896.33233599
_cell_formula_units_Z   40
loop_
 _symmetry_equiv_pos_site_id
 _symmetry_equiv_pos_as_xyz
  1  'x, y, z'
loop_
 _atom_site_type_symbol
 _atom_site_label
 _atom_site_symmetry_multiplicity
 _atom_site_fract_x
 _atom_site_fract_y
 _atom_site_fract_z
 _atom_site_occupancy
  Hf  Hf0  1  0.81000067  0.79593523  0.01333162  1
  Hf  Hf1  1  0.38866831  0.20820551  0.51691909  1
  Hf  Hf2  1  -0.01029174  -0.01094582  0.24499641  1
  Hf  Hf3  1  0.00959690  0.58044290  0.49488292  1
  Hf  Hf4  1  0.78946593  0.77535404  0.74928080  1
  Hf  Hf5  1  0.50517753  0.30615696  0.12001276  1
  Hf  Hf6  1  0.60053136  0.20499351  0.24419778  1
  Hf  Hf7  1  -0.00299153  0.79194665  0.24786889  1
  Hf  Hf8  1  0.49175801  0.09898186  0.63687600  1
  Hf  Hf9  1  0.60348888  0.20944080  0.51782461  1
  Hf  Hf10  1  0.00442636  0.18508411  0.50574841  1
  Hf  Hf11  1  0.80389308  0.81017794  0.24107067  1
  Hf  Hf12  1  0.39626365  0.59852878  -0.00271906  1
  Hf  Hf13  1  0.38878937  0.20066236  0.24021337  1
  Hf  Hf14  1  0.00362492  0.78668596  0.75096184  1
  Hf  Hf15  1  0.70207160  0.91267299  0.37831211  1
  Hf  Hf16  1  0.38914579  0.00307847  0.23833030  1
  Hf  Hf17  1  0.30243095  0.71451371  0.63164485  1
  Hf  Hf18  1  0.92023359  0.28913516  0.37415371  1
  Hf  Hf19  1  0.08962226  0.29815949  0.63556579  1
  Hf  Hf20  1  0.48467551  0.70084589  0.13793370  1
  Hf  Hf21  1  0.10648799  0.49423191  0.87296924  1
  Hf  Hf22  1  0.50114187  0.10104162  0.38042017  1
  Hf  Hf23  1  0.80910278  0.59740441  0.24403700  1
  Hf  Hf24  1  0.49531423  0.50400033  0.85249487  1
  Hf  Hf25  1  0.80237802  0.18803858  0.24884538  1
  Hf  Hf26  1  0.81123738  0.39172602  0.49797238  1
  Hf  Hf27  1  0.09223296  0.90805807  0.62572804  1
  Hf  Hf28  1  0.11253527  0.49668916  0.12686830  1
  Hf  Hf29  1  0.28769261  0.90797050  0.37727048  1
  Hf  Hf30  1  0.80816151  0.21763887  0.74281265  1
  Hf  Hf31  1  0.48312539  0.69601660  0.36386567  1
  Hf  Hf32  1  0.89111324  0.89965235  0.62703815  1
  Hf  Hf33  1  0.79766197  0.58625753  0.48688170  1
  Hf  Hf34  1  -0.01885267  -0.00563679  -0.01391240  1
  Hf  Hf35  1  0.59676423  0.00732603  -0.01070954  1
  Hf  Hf36  1  0.90192584  0.69916226  0.37840084  1
  Hf  Hf37  1  0.49319156  0.11509656  0.87093863  1
  Hf  Hf38  1  0.29199350  0.11442431  0.37644074  1
  Hf  Hf39  1  -0.00714452  0.58695556  0.75328271  1
  Zr  Zr40  1  0.59848339  0.00372917  0.75857943  1
  Zr  Zr41  1  0.22345982  0.39344524  -0.00366327  1
  Zr  Zr42  1  0.20013919  0.59464926  0.74547690  1
  Zr  Zr43  1  0.08454354  0.69307044  0.10610357  1
  Zr  Zr44  1  0.58708987  0.79434555  0.49388137  1
  Zr  Zr45  1  0.49505179  0.30632751  0.86033749  1
  Zr  Zr46  1  0.09365865  0.10260641  0.11056630  1
  Zr  Zr47  1  0.59705358  0.80504425  0.00115870  1
  Zr  Zr48  1  0.00530624  0.58436920  0.25922295  1
  Zr  Zr49  1  0.68906878  0.89451911  0.63050813  1
  Zr  Zr50  1  0.28978025  0.69906391  0.87235805  1
  Zr  Zr51  1  0.60524569  0.01022027  0.24564197  1
  Zr  Zr52  1  0.09087173  0.09855441  0.37061863  1
  Zr  Zr53  1  0.49810827  0.31734913  0.64491340  1
  Zr  Zr54  1  0.79851856  0.58226153  0.01045779  1
  Zr  Zr55  1  0.11599427  0.48005849  0.36991084  1
  Zr  Zr56  1  0.38913098  0.00483749  -0.00668841  1
  Zr  Zr57  1  0.69777079  0.89340543  0.87251056  1
  Zr  Zr58  1  0.51277513  0.49970567  0.36249538  1
  Zr  Zr59  1  0.89136668  0.67287794  0.62306514  1
  Zr  Zr60  1  0.49315586  0.71800351  0.86292143  1
  Zr  Zr61  1  0.81843412  0.39714844  0.25029593  1
  Zr  Zr62  1  0.00868060  0.38983678  -0.00198901  1
  Zr  Zr63  1  0.09648317  0.89601680  0.10415355  1
  Zr  Zr64  1  0.69661788  0.29654232  0.37642000  1
  Zr  Zr65  1  0.38630616  -0.00055096  0.76239365  1
  Zr  Zr66  1  0.00593481  0.78465763  0.50915767  1
  Zr  Zr67  1  0.59975796  0.60634105  -0.01297319  1
  Zr  Zr68  1  0.49300199  0.90280334  0.12646268  1
  Zr  Zr69  1  0.30716487  0.52652455  0.36621932  1
  Zr  Zr70  1  0.78648261  0.79107780  0.50530301  1
  Zr  Zr71  1  0.18812149  0.01102901  0.76143115  1
  Zr  Zr72  1  0.39978315  0.41676929  0.51172128  1
  Zr  Zr73  1  0.59935782  0.00422472  0.50571355  1
  Zr  Zr74  1  0.68933566  0.69240335  0.13689110  1
  Zr  Zr75  1  0.63525540  0.40404944  0.75288736  1
  Zr  Zr76  1  0.51903187  0.50518851  0.14050109  1
  Zr  Zr77  1  0.61658439  0.41181344  -0.01075160  1
  Zr  Zr78  1  0.49041349  0.30250253  0.37847168  1
  Zr  Zr79  1  0.91226559  0.09038859  0.63104611  1
  Ta  Ta80  1  0.10769633  0.49388481  0.62947206  1
  Ta  Ta81  1  0.02315645  0.37401445  0.24424746  1
  Ta  Ta82  1  0.30780637  0.50780894  0.13603767  1
  Ta  Ta83  1  0.48007323  0.89466384  0.62929855  1
  Ta  Ta84  1  0.60561262  0.20966712  -0.00649254  1
  Ta  Ta85  1  0.19508350  0.00540673  0.24276086  1
  Ta  Ta86  1  0.19800527  0.20898390  0.51313303  1
  Ta  Ta87  1  -0.00277365  -0.00623603  0.77160060  1
  Ta  Ta88  1  0.69177155  0.69560229  0.36176039  1
  Ta  Ta89  1  0.39468372  0.39688281  0.24630812  1
  Ta  Ta90  1  0.28543683  0.12623809  0.88347509  1
  Ta  Ta91  1  0.51401711  0.51975819  0.63917232  1
  Ta  Ta92  1  0.28456466  0.70574890  0.11933682  1
  Ta  Ta93  1  0.69861301  0.10803215  0.10939708  1
  Ta  Ta94  1  0.38943711  0.00257703  0.50629470  1
  Ta  Ta95  1  0.48744635  0.90310887  0.36885264  1
  Ta  Ta96  1  0.61001807  0.41194079  0.51342910  1
  Ta  Ta97  1  0.89022183  0.08884871  0.11728619  1
  Ta  Ta98  1  0.40716859  0.61439063  0.51292342  1
  Ta  Ta99  1  0.79887125  0.19205355  0.51051225  1
  Ta  Ta100  1  0.20060743  0.80212062  0.50632574  1
  Ta  Ta101  1  0.50538550  0.70826814  0.63552715  1
  Ta  Ta102  1  0.90217738  0.90388511  0.38941380  1
  Ta  Ta103  1  0.89757728  0.88301508  0.87001075  1
  Ta  Ta104  1  0.19159306  0.80648473  0.24763329  1
  Ta  Ta105  1  0.71569630  0.50550537  0.62671705  1
  Ta  Ta106  1  0.60156865  0.59994501  0.50063900  1
  Ta  Ta107  1  0.71222998  0.30558804  0.11811080  1
  Ta  Ta108  1  0.70759797  0.11852268  0.87477679  1
  Ta  Ta109  1  0.39223931  0.80652351  0.49752983  1
  Ta  Ta110  1  0.19135618  0.21837982  0.24548977  1
  Ta  Ta111  1  0.49651660  0.11066397  0.11017726  1
  Ta  Ta112  1  0.19599220  0.80649991  0.74969268  1
  Ta  Ta113  1  0.59387623  0.80807442  0.25603220  1
  Ta  Ta114  1  0.18974831  0.01290243  0.50878470  1
  Ta  Ta115  1  0.40832016  0.40884848  -0.00147222  1
  Ta  Ta116  1  0.37688702  0.79904547  0.25187507  1
  Ta  Ta117  1  0.91372666  0.28388592  0.11924547  1
  Ta  Ta118  1  0.09578628  0.89623266  0.38157364  1
  Ta  Ta119  1  0.89199405  0.47973544  0.88177001  1
  Ti  Ti120  1  0.10317120  0.88887024  0.88904486  1
  Ti  Ti121  1  0.91167808  0.47257307  0.62925239  1
  Ti  Ti122  1  0.20353935  0.40270042  0.50970969  1
  Ti  Ti123  1  0.70933331  0.09576166  0.63164859  1
  Ti  Ti124  1  0.70402580  0.91265857  0.12269203  1
  Ti  Ti125  1  0.20250562  0.59375488  -0.00568978  1
  Ti  Ti126  1  0.12222981  0.69636072  0.37433203  1
  Ti  Ti127  1  0.00796907  0.18331135  0.75734872  1
  Ti  Ti128  1  0.29457684  0.89595542  0.88046645  1
  Ti  Ti129  1  0.61976116  0.61577690  0.75883495  1
  Ti  Ti130  1  0.11743679  0.28678398  0.87177176  1
  Ti  Ti131  1  0.01162558  0.38754494  0.49778436  1
  Ti  Ti132  1  0.09121633  0.70055015  0.89083786  1
  Ti  Ti133  1  0.79340806  0.00038288  -0.00986432  1
  Ti  Ti134  1  0.20125460  0.20320659  0.74064532  1
  Ti  Ti135  1  0.91255770  0.49311730  0.11737976  1
  Ti  Ti136  1  0.61205853  0.20458468  0.74328427  1
  Ti  Ti137  1  0.29329689  0.91351615  0.62699856  1
  Ti  Ti138  1  0.79775607  0.58130731  0.76086495  1
  Ti  Ti139  1  0.70141541  0.49584436  0.36318789  1
  Ti  Ti140  1  0.89685575  0.68421851  0.88427063  1
  Ti  Ti141  1  0.37945117  0.21264257  0.74130025  1
  Ti  Ti142  1  0.28590042  0.11190246  0.10821085  1
  Ti  Ti143  1  0.79815627  0.00151315  0.24699303  1
  Ti  Ti144  1  0.39285136  0.80309944  -0.00025998  1
  Ti  Ti145  1  0.58994319  0.80573503  0.75232363  1
  Ti  Ti146  1  -0.00126334  0.38367501  0.76001403  1
  Ti  Ti147  1  0.72948242  0.31609898  0.88367683  1
  Ti  Ti148  1  0.20706602  0.60520742  0.51339686  1
  Ti  Ti149  1  -0.00055668  0.18822686  0.24511076  1
  Ti  Ti150  1  0.28572944  0.90285593  0.11392721  1
  Ti  Ti151  1  0.91402389  0.28172287  0.88146987  1
  Ti  Ti152  1  0.88326128  0.08604404  0.38633865  1
  Ti  Ti153  1  0.28512878  0.31653431  0.37462589  1
  Ti  Ti154  1  0.11377947  0.29256671  0.11469708  1
  Ti  Ti155  1  0.80322583  0.00454838  0.76342096  1
  Ti  Ti156  1  0.81043626  0.19668617  -0.00388362  1
  Ti  Ti157  1  0.39644256  0.60461255  0.74100188  1
  Ti  Ti158  1  0.39001276  0.22085890  0.00017911  1
  Ti  Ti159  1  0.09271788  0.10481567  0.89299875  1
  Mo  Mo160  1  0.60949337  0.39754996  0.24402572  1
  Mo  Mo161  1  0.70594732  0.48673626  0.13915048  1
  Mo  Mo162  1  0.48743899  0.90056163  0.87645272  1
  Mo  Mo163  1  0.20225911  0.39195237  0.75110094  1
  Mo  Mo164  1  0.20753338  0.62009579  0.24513384  1
  Mo  Mo165  1  0.70971197  0.30346805  0.61999757  1
  Mo  Mo166  1  0.89309906  0.09680826  0.86835435  1
  Mo  Mo167  1  0.20149480  0.20248248  -0.00125495  1
  Mo  Mo168  1  0.80055464  0.00465810  0.50353454  1
  Mo  Mo169  1  0.37810549  0.41765084  0.73788172  1
  Mo  Mo170  1  0.28682792  0.31303140  0.63049924  1
  Mo  Mo171  1  0.10344087  0.69523334  0.62499107  1
  Mo  Mo172  1  0.71063438  0.69865432  0.87436202  1
  Mo  Mo173  1  0.38858409  0.80822789  0.74853464  1
  Mo  Mo174  1  0.30429225  0.30584697  0.86474186  1
  Mo  Mo175  1  -0.00230750  0.19673298  -0.00511522  1
  Mo  Mo176  1  0.29316289  0.10394778  0.62480957  1
  Mo  Mo177  1  0.30364893  0.50724677  0.61976651  1
  Mo  Mo178  1  0.20382990  0.79771972  -0.00651829  1
  Mo  Mo179  1  0.20854146  0.39936926  0.24102830  1
  Mo  Mo180  1  0.89352073  0.90206081  0.11995145  1
  Mo  Mo181  1  0.90557645  0.29823554  0.62292838  1
  Mo  Mo182  1  0.60553459  0.60490882  0.25631740  1
  Mo  Mo183  1  -0.00772289  0.79292250  -0.01378994  1
  Mo  Mo184  1  0.70779492  0.10306276  0.38202414  1
  Mo  Mo185  1  0.29177424  0.71418017  0.38297969  1
  Mo  Mo186  1  0.11477825  0.29012284  0.37936209  1
  Mo  Mo187  1  0.71021976  0.50446319  0.87245465  1
  Mo  Mo188  1  0.68382251  0.67931841  0.62828896  1
  Mo  Mo189  1  -0.00312768  0.59063970  -0.01101292  1
  Mo  Mo190  1  0.90956518  0.48513263  0.37468060  1
  Mo  Mo191  1  0.90709432  0.69154529  0.12126862  1
  Mo  Mo192  1  0.30910863  0.49617259  0.87117257  1
  Mo  Mo193  1  0.19800202  -0.00005425  -0.01529062  1
  Mo  Mo194  1  0.81061350  0.38586162  0.00918404  1
  Mo  Mo195  1  -0.00092450  -0.00788357  0.49550974  1
  Mo  Mo196  1  0.10401560  0.09624002  0.63215326  1
  Mo  Mo197  1  0.82458511  0.40349933  0.74903428  1
  Mo  Mo198  1  0.39155546  0.60817466  0.24396676  1
  Mo  Mo199  1  0.30444212  0.30447270  0.12555539  1
