# generated using pymatgen
data_HfZrTaTiMo
_symmetry_space_group_name_H-M   'P 1'
_cell_length_a   15.21385246
_cell_length_b   15.20429150
_cell_length_c   16.82968846
_cell_angle_alpha   90.01033659
_cell_angle_beta   90.01615959
_cell_angle_gamma   89.98253556
_symmetry_Int_Tables_number   1
_chemical_formula_structural   HfZrTaTiMo
_chemical_formula_sum   'Hf40 Zr40 Ta40 Ti40 Mo40'
_cell_volume   3892.97325337
_cell_formula_units_Z   40
loop_
 _symmetry_equiv_pos_site_id
 _symmetry_equiv_pos_as_xyz
  1  'x, y, z'
loop_
 _atom_site_type_symbol
 _atom_site_label
 _atom_site_symmetry_multiplicity
 _atom_site_fract_x
 _atom_site_fract_y
 _atom_site_fract_z
 _atom_site_occupancy
  Hf  Hf0  1  0.78357388  0.21228738  0.48649835  1
  Hf  Hf1  1  0.19657813  0.19948110  0.51486353  1
  Hf  Hf2  1  0.29590842  0.29615073  0.13350348  1
  Hf  Hf3  1  0.49299279  0.28793717  0.36650742  1
  Hf  Hf4  1  0.70923188  0.08517371  0.87535063  1
  Hf  Hf5  1  0.09311944  0.70210540  0.86896567  1
  Hf  Hf6  1  0.07587037  0.30141020  0.61249485  1
  Hf  Hf7  1  0.30306492  0.49443993  0.85982046  1
  Hf  Hf8  1  0.80337451  0.78656259  0.49325957  1
  Hf  Hf9  1  0.20070352  0.59454145  -0.00761029  1
  Hf  Hf10  1  0.30947945  0.49123800  0.38250759  1
  Hf  Hf11  1  0.21510711  0.01306356  0.23460520  1
  Hf  Hf12  1  0.11016631  0.10694926  0.37126613  1
  Hf  Hf13  1  0.21544674  0.00208495  0.50831966  1
  Hf  Hf14  1  0.51954408  0.88170506  0.87620046  1
  Hf  Hf15  1  0.52382650  0.49476298  0.63648085  1
  Hf  Hf16  1  0.10185939  0.91002225  0.87835441  1
  Hf  Hf17  1  0.29474396  0.08619204  0.88373267  1
  Hf  Hf18  1  0.28012194  0.29075689  0.86517053  1
  Hf  Hf19  1  0.87673668  0.32485219  0.61545337  1
  Hf  Hf20  1  0.20033113  0.79757314  0.00423786  1
  Hf  Hf21  1  0.18597991  0.80690850  0.23751579  1
  Hf  Hf22  1  0.09547972  0.51044212  0.12568830  1
  Hf  Hf23  1  0.40197517  0.55840257  0.23712735  1
  Hf  Hf24  1  0.00257702  0.01307912  0.73745147  1
  Hf  Hf25  1  0.10168610  0.51098157  0.38486969  1
  Hf  Hf26  1  0.70187696  0.30388023  0.88944680  1
  Hf  Hf27  1  0.69783015  0.51561357  0.11546469  1
  Hf  Hf28  1  0.10145333  0.89656860  0.62456465  1
  Hf  Hf29  1  0.49835984  0.28889740  0.63491871  1
  Hf  Hf30  1  0.39685119  0.39444865  0.00387746  1
  Hf  Hf31  1  0.38827618  0.16988570  0.25235815  1
  Hf  Hf32  1  0.80403139  0.00181388  0.49584124  1
  Hf  Hf33  1  0.40678993  0.58438978  0.00797110  1
  Hf  Hf34  1  0.50566061  0.67735993  0.36035402  1
  Hf  Hf35  1  0.79539863  0.40476044  0.76745017  1
  Hf  Hf36  1  0.51255300  0.89335545  0.61985596  1
  Hf  Hf37  1  0.68908203  0.10245401  0.13525715  1
  Hf  Hf38  1  0.29262550  0.67997025  0.13272111  1
  Hf  Hf39  1  -0.00672270  0.40635730  0.74862689  1
  Zr  Zr40  1  0.90032804  0.09792391  0.14846290  1
  Zr  Zr41  1  0.69510283  0.10400651  0.62947696  1
  Zr  Zr42  1  0.38606226  0.18611606  0.74602950  1
  Zr  Zr43  1  0.40094239  0.38861798  0.51177422  1
  Zr  Zr44  1  0.19085761  0.39758041  -0.00147208  1
  Zr  Zr45  1  0.70416977  0.71092039  0.14328705  1
  Zr  Zr46  1  0.20474764  0.41595431  0.24876021  1
  Zr  Zr47  1  0.90282602  0.30460631  0.11486528  1
  Zr  Zr48  1  0.50349660  0.89396330  0.37132707  1
  Zr  Zr49  1  0.31089667  0.89097581  0.88407642  1
  Zr  Zr50  1  0.49573856  0.31192329  0.86210357  1
  Zr  Zr51  1  0.20161527  0.78899835  0.75133464  1
  Zr  Zr52  1  0.81237917  0.18138518  0.00001994  1
  Zr  Zr53  1  0.78129620  0.23142816  0.25627251  1
  Zr  Zr54  1  -0.01003080  0.40453016  0.25435179  1
  Zr  Zr55  1  -0.00718272  0.81185801  0.50779365  1
  Zr  Zr56  1  0.21291479  0.00966700  0.73686519  1
  Zr  Zr57  1  0.09593376  0.11239121  0.87586516  1
  Zr  Zr58  1  0.60414901  0.39714318  0.24378776  1
  Zr  Zr59  1  0.39188733  0.19045177  -0.00168742  1
  Zr  Zr60  1  0.90462757  0.11322786  0.35655019  1
  Zr  Zr61  1  0.00329096  0.62232710  0.51840317  1
  Zr  Zr62  1  0.58756555  0.19347999  -0.00738767  1
  Zr  Zr63  1  0.90451104  0.12730684  0.62399949  1
  Zr  Zr64  1  -0.00826933  0.61014466  -0.00885867  1
  Zr  Zr65  1  0.40236661  0.78909323  0.24508486  1
  Zr  Zr66  1  0.90673309  0.90418458  0.35687971  1
  Zr  Zr67  1  0.70373089  0.89380856  0.61611791  1
  Zr  Zr68  1  0.31661650  0.88769564  0.62584463  1
  Zr  Zr69  1  0.70067720  0.68839654  0.63565195  1
  Zr  Zr70  1  0.39176016  0.78713479  0.49363919  1
  Zr  Zr71  1  0.58518853  0.19033044  0.49717489  1
  Zr  Zr72  1  0.90202615  0.91097362  0.88182865  1
  Zr  Zr73  1  0.00662714  0.02241865  0.50567722  1
  Zr  Zr74  1  0.41176070  0.59556706  0.50568275  1
  Zr  Zr75  1  0.70170648  0.31597611  0.09905605  1
  Zr  Zr76  1  0.29839833  0.90347444  0.36933543  1
  Zr  Zr77  1  0.88799153  0.33106370  0.38579934  1
  Zr  Zr78  1  0.31683507  0.90219527  0.11771464  1
  Zr  Zr79  1  0.70277811  0.89555472  0.35718242  1
  Ta  Ta80  1  0.60692864  -0.01064644  0.00594361  1
  Ta  Ta81  1  0.52146370  0.88645394  0.13223602  1
  Ta  Ta82  1  0.61535890  0.80021400  0.00725839  1
  Ta  Ta83  1  0.41234216  0.00891504  0.49935174  1
  Ta  Ta84  1  0.31395731  0.69201125  0.87406238  1
  Ta  Ta85  1  0.79624143  0.81038316  0.75649306  1
  Ta  Ta86  1  0.71480402  0.48526425  0.37080052  1
  Ta  Ta87  1  0.59171503  0.61555716  -0.00764959  1
  Ta  Ta88  1  0.48682946  0.08170025  0.12449421  1
  Ta  Ta89  1  0.50709312  0.69739830  0.62919005  1
  Ta  Ta90  1  -0.01456988  0.80326517  0.74000922  1
  Ta  Ta91  1  0.68606728  0.51037010  0.87494877  1
  Ta  Ta92  1  0.89676740  0.89301090  0.13567855  1
  Ta  Ta93  1  0.28786484  0.28922486  0.37364863  1
  Ta  Ta94  1  0.60942219  -0.01313542  0.75538387  1
  Ta  Ta95  1  0.28630037  0.68540338  0.36157519  1
  Ta  Ta96  1  0.18564483  0.19920292  0.00913556  1
  Ta  Ta97  1  0.81348395  0.59221394  0.49819535  1
  Ta  Ta98  1  0.00223934  0.61008665  0.73860801  1
  Ta  Ta99  1  0.19195502  0.00356120  0.01826354  1
  Ta  Ta100  1  0.68893185  0.71352148  0.86485715  1
  Ta  Ta101  1  0.10468982  0.90319968  0.37766444  1
  Ta  Ta102  1  0.49886179  0.28962041  0.13590891  1
  Ta  Ta103  1  0.80350546  0.79696596  -0.00389859  1
  Ta  Ta104  1  0.70879309  0.68664063  0.36070834  1
  Ta  Ta105  1  0.62070370  0.58271230  0.49510901  1
  Ta  Ta106  1  0.80652266  0.00065497  0.74463413  1
  Ta  Ta107  1  0.60064523  0.77669247  0.49066772  1
  Ta  Ta108  1  0.89069273  0.50281792  0.11379345  1
  Ta  Ta109  1  0.89739305  0.69597049  0.12674503  1
  Ta  Ta110  1  0.38636046  0.18969310  0.50445298  1
  Ta  Ta111  1  0.71438788  0.49481430  0.63504807  1
  Ta  Ta112  1  0.00149521  0.60943366  0.25203744  1
  Ta  Ta113  1  0.20793944  0.60728489  0.50722521  1
  Ta  Ta114  1  0.42427432  0.77790809  0.00920305  1
  Ta  Ta115  1  0.60387986  0.19371648  0.76030217  1
  Ta  Ta116  1  0.09799478  0.71040695  0.37333594  1
  Ta  Ta117  1  0.68602603  0.30766412  0.63306597  1
  Ta  Ta118  1  0.18612066  0.20888353  0.24882646  1
  Ta  Ta119  1  0.10859003  0.50966578  0.62835275  1
  Ti  Ti120  1  0.08748229  0.30036139  0.86906035  1
  Ti  Ti121  1  0.79847699  -0.01484442  0.01311503  1
  Ti  Ti122  1  0.41375484  0.79057122  0.75321763  1
  Ti  Ti123  1  0.09105613  0.30515172  0.38893641  1
  Ti  Ti124  1  0.19621616  0.39593449  0.73656345  1
  Ti  Ti125  1  0.29792024  0.68725025  0.63618405  1
  Ti  Ti126  1  0.79348093  0.61298578  -0.01449199  1
  Ti  Ti127  1  0.02009908  -0.00509918  0.24271288  1
  Ti  Ti128  1  0.90344474  0.29909064  0.88569369  1
  Ti  Ti129  1  -0.01883912  0.43002814  0.50664458  1
  Ti  Ti130  1  -0.00526156  0.01640505  0.01195969  1
  Ti  Ti131  1  0.08843982  0.30298156  0.12645454  1
  Ti  Ti132  1  0.50303304  0.08690579  0.87200717  1
  Ti  Ti133  1  0.41082349  -0.00980926  0.75194180  1
  Ti  Ti134  1  0.81305253  0.59014231  0.25490354  1
  Ti  Ti135  1  0.60495263  -0.00292881  0.48882179  1
  Ti  Ti136  1  0.90929119  0.11036166  0.86903424  1
  Ti  Ti137  1  0.09265867  0.11438701  0.12978257  1
  Ti  Ti138  1  -0.00479061  0.81094588  0.00628519  1
  Ti  Ti139  1  0.41360562  -0.01218411  -0.00167496  1
  Ti  Ti140  1  0.39746450  0.39878972  0.74059375  1
  Ti  Ti141  1  0.30174684  0.49910340  0.63188345  1
  Ti  Ti142  1  0.68703732  0.10501953  0.35815195  1
  Ti  Ti143  1  0.51612880  0.48268876  0.37869548  1
  Ti  Ti144  1  0.20144393  0.40300981  0.50948124  1
  Ti  Ti145  1  0.51628132  0.68053722  0.14105268  1
  Ti  Ti146  1  0.81016109  0.61048084  0.76157625  1
  Ti  Ti147  1  0.10222633  0.49986029  0.86033047  1
  Ti  Ti148  1  0.41007827  0.59987676  0.75014045  1
  Ti  Ti149  1  0.58453297  0.41955167  -0.00212726  1
  Ti  Ti150  1  0.80395669  0.20521134  0.75646615  1
  Ti  Ti151  1  0.50177023  0.08857337  0.63384811  1
  Ti  Ti152  1  -0.00340150  0.40379699  -0.00877948  1
  Ti  Ti153  1  0.19496534  0.79008145  0.50119675  1
  Ti  Ti154  1  -0.00153644  0.79843002  0.24563806  1
  Ti  Ti155  1  0.90249536  0.51020063  0.87723211  1
  Ti  Ti156  1  0.18059465  0.20031772  0.72734663  1
  Ti  Ti157  1  0.08909623  0.70695350  0.12150497  1
  Ti  Ti158  1  0.58498275  0.00721835  0.25232823  1
  Ti  Ti159  1  0.70843096  0.90333609  0.14832717  1
  Mo  Mo160  1  0.28985285  0.30740554  0.63271754  1
  Mo  Mo161  1  0.39897275  0.37851272  0.25236433  1
  Mo  Mo162  1  0.49789489  0.50630890  0.86346788  1
  Mo  Mo163  1  0.60017791  0.79798599  0.74811733  1
  Mo  Mo164  1  0.60373830  0.79377110  0.25288840  1
  Mo  Mo165  1  0.58877926  0.19399841  0.24430828  1
  Mo  Mo166  1  0.00603982  0.20407852  -0.00035856  1
  Mo  Mo167  1  0.60846122  0.58783155  0.25817051  1
  Mo  Mo168  1  0.00790305  0.21068531  0.25826967  1
  Mo  Mo169  1  0.89225929  0.70977359  0.63760865  1
  Mo  Mo170  1  0.40390852  -0.00935374  0.24415305  1
  Mo  Mo171  1  0.90340739  0.52124055  0.37634744  1
  Mo  Mo172  1  -0.00454358  0.21986922  0.48927022  1
  Mo  Mo173  1  0.49805428  0.08816330  0.37519334  1
  Mo  Mo174  1  0.89164480  0.90712505  0.62904476  1
  Mo  Mo175  1  0.60339264  0.39641044  0.75807811  1
  Mo  Mo176  1  0.79910090  0.41746620  0.24099908  1
  Mo  Mo177  1  0.60241241  0.59867345  0.75805924  1
  Mo  Mo178  1  0.50825701  0.48647301  0.12225180  1
  Mo  Mo179  1  0.70772437  0.90150384  0.88035200  1
  Mo  Mo180  1  0.20432586  0.58995180  0.75021231  1
  Mo  Mo181  1  0.81438038  0.78990590  0.25411202  1
  Mo  Mo182  1  0.79593345  0.00416272  0.24749088  1
  Mo  Mo183  1  0.10067696  0.10634268  0.62282189  1
  Mo  Mo184  1  0.08540930  0.90625344  0.11697514  1
  Mo  Mo185  1  0.60634973  0.39332725  0.49923156  1
  Mo  Mo186  1  0.29542924  0.48908920  0.12273887  1
  Mo  Mo187  1  0.89520052  0.51482554  0.63566644  1
  Mo  Mo188  1  0.31238523  0.09869793  0.62791322  1
  Mo  Mo189  1  -0.01125717  0.21635769  0.75329146  1
  Mo  Mo190  1  0.90493007  0.69794898  0.36764498  1
  Mo  Mo191  1  0.29472456  0.10055946  0.11238850  1
  Mo  Mo192  1  0.89434687  0.70544484  0.86809609  1
  Mo  Mo193  1  0.30324800  0.10417065  0.37997273  1
  Mo  Mo194  1  0.77945321  0.41875348  0.50447539  1
  Mo  Mo195  1  0.11033627  0.70255644  0.63394429  1
  Mo  Mo196  1  0.49873205  0.69349944  0.87525427  1
  Mo  Mo197  1  0.68499754  0.30601322  0.37658098  1
  Mo  Mo198  1  0.80721597  0.42382328  -0.02065137  1
  Mo  Mo199  1  0.19007622  0.60634257  0.25281826  1
