# generated using pymatgen
data_HfZrTaTiMo
_symmetry_space_group_name_H-M   'P 1'
_cell_length_a   15.17221619
_cell_length_b   15.16658326
_cell_length_c   16.83425388
_cell_angle_alpha   89.92218501
_cell_angle_beta   89.96497275
_cell_angle_gamma   89.83274006
_symmetry_Int_Tables_number   1
_chemical_formula_structural   HfZrTaTiMo
_chemical_formula_sum   'Hf40 Zr40 Ta40 Ti40 Mo40'
_cell_volume   3873.72081656
_cell_formula_units_Z   40
loop_
 _symmetry_equiv_pos_site_id
 _symmetry_equiv_pos_as_xyz
  1  'x, y, z'
loop_
 _atom_site_type_symbol
 _atom_site_label
 _atom_site_symmetry_multiplicity
 _atom_site_fract_x
 _atom_site_fract_y
 _atom_site_fract_z
 _atom_site_occupancy
  Hf  Hf0  1  0.61061500  0.18695231  0.75400593  1
  Hf  Hf1  1  0.28763153  0.90697930  0.64002485  1
  Hf  Hf2  1  0.38902143  0.00837210  0.50022120  1
  Hf  Hf3  1  0.09947099  0.69841380  0.37204160  1
  Hf  Hf4  1  0.81436672  0.19892247  0.22610234  1
  Hf  Hf5  1  0.41961688  0.41068936  0.76233999  1
  Hf  Hf6  1  0.19208665  0.81937603  0.50618403  1
  Hf  Hf7  1  0.70664109  0.90377922  0.12685653  1
  Hf  Hf8  1  0.89887878  0.28332378  0.37506043  1
  Hf  Hf9  1  0.20950589  0.79714774  0.24215252  1
  Hf  Hf10  1  0.09050650  0.89163175  0.86306276  1
  Hf  Hf11  1  0.69689855  0.70068721  0.12398585  1
  Hf  Hf12  1  0.89725955  0.52101818  0.88638975  1
  Hf  Hf13  1  0.89905633  0.89484951  0.38848510  1
  Hf  Hf14  1  0.19272002  0.20454852  0.75803270  1
  Hf  Hf15  1  0.59852092  0.39067503  0.01365362  1
  Hf  Hf16  1  0.90127568  0.70973975  0.13468442  1
  Hf  Hf17  1  0.78436341  0.01401324  0.74131022  1
  Hf  Hf18  1  0.71724829  0.69653599  0.87505217  1
  Hf  Hf19  1  0.10848707  0.29413619  0.37915652  1
  Hf  Hf20  1  0.61029971  0.20767977  0.50788065  1
  Hf  Hf21  1  0.49760676  0.70827140  0.86772258  1
  Hf  Hf22  1  0.79586788  0.59454925  0.25815218  1
  Hf  Hf23  1  0.70961743  0.12547576  0.37422827  1
  Hf  Hf24  1  0.89956946  0.69720989  0.38096900  1
  Hf  Hf25  1  -0.00114233  0.39312441  0.50915164  1
  Hf  Hf26  1  0.79334855  0.39243539  0.23653851  1
  Hf  Hf27  1  0.02374885  0.39088735  0.01152497  1
  Hf  Hf28  1  0.19628111  0.78520487  -0.00092883  1
  Hf  Hf29  1  0.32370637  0.30022264  0.63142773  1
  Hf  Hf30  1  0.10177557  0.68081325  0.13146798  1
  Hf  Hf31  1  0.49790017  0.10760206  0.37439199  1
  Hf  Hf32  1  0.49152897  0.70696132  0.37653953  1
  Hf  Hf33  1  0.58813400  0.58275318  0.75527480  1
  Hf  Hf34  1  0.30446973  0.10337438  0.63778201  1
  Hf  Hf35  1  0.79241350  0.38195723  0.50439964  1
  Hf  Hf36  1  0.59849816  0.59432745  0.49851904  1
  Hf  Hf37  1  0.18074579  -0.00013650  -0.00226567  1
  Hf  Hf38  1  0.79178351  0.00877447  0.50457282  1
  Hf  Hf39  1  0.09165576  0.89964108  0.36284661  1
  Zr  Zr40  1  0.68427651  0.90419692  0.38176919  1
  Zr  Zr41  1  0.79970229  0.60322046  0.74125945  1
  Zr  Zr42  1  0.29991787  0.12481358  0.10605464  1
  Zr  Zr43  1  0.90116212  0.69228169  0.61665477  1
  Zr  Zr44  1  0.30116859  0.51012977  0.62067255  1
  Zr  Zr45  1  0.58754036  0.60573508  -0.00576573  1
  Zr  Zr46  1  0.30252041  0.89683143  0.11603129  1
  Zr  Zr47  1  0.40593934  0.41891104  0.25533537  1
  Zr  Zr48  1  0.30432474  0.50099917  0.39035685  1
  Zr  Zr49  1  0.19684476  0.21065275  -0.01960264  1
  Zr  Zr50  1  0.60205661  0.81593579  -0.00498611  1
  Zr  Zr51  1  0.80892168  0.39975489  0.75227918  1
  Zr  Zr52  1  0.29953957  0.31553469  0.86941576  1
  Zr  Zr53  1  0.47693493  0.51505928  0.11579593  1
  Zr  Zr54  1  0.19212303  0.02426830  0.23451672  1
  Zr  Zr55  1  0.81283931  0.38708130  0.00812818  1
  Zr  Zr56  1  0.60739252  0.21551616  0.22659816  1
  Zr  Zr57  1  0.00846628  0.38768991  0.24133993  1
  Zr  Zr58  1  0.09857060  0.47805234  0.86062895  1
  Zr  Zr59  1  0.90275126  0.11009939  0.61663121  1
  Zr  Zr60  1  0.49565113  0.48922810  0.61890308  1
  Zr  Zr61  1  0.80437718  0.18668500  0.01185617  1
  Zr  Zr62  1  0.91121817  0.50942776  0.11856792  1
  Zr  Zr63  1  0.68767608  0.90430442  0.62492077  1
  Zr  Zr64  1  0.58718224  0.59082892  0.25366951  1
  Zr  Zr65  1  0.69127297  0.48556464  0.88131167  1
  Zr  Zr66  1  0.20111617  0.39928177  0.50658619  1
  Zr  Zr67  1  0.91339779  0.06684281  0.12619557  1
  Zr  Zr68  1  0.20389897  0.58096223  0.25765493  1
  Zr  Zr69  1  0.92686662  0.29745681  0.86295452  1
  Zr  Zr70  1  0.79572943  0.58646713  0.50006634  1
  Zr  Zr71  1  0.11909152  0.09450553  0.39228001  1
  Zr  Zr72  1  0.38564316  0.21278210  0.25014215  1
  Zr  Zr73  1  -0.00015847  0.80180141  -0.00641422  1
  Zr  Zr74  1  0.80235304  -0.00070806  0.26020439  1
  Zr  Zr75  1  0.52470900  0.31760398  0.36714254  1
  Zr  Zr76  1  0.40019967  0.00229226  0.23950595  1
  Zr  Zr77  1  0.49803760  0.92439193  0.86695922  1
  Zr  Zr78  1  0.48806218  0.70251372  0.63320844  1
  Zr  Zr79  1  0.58370150  0.80548871  0.50864274  1
  Ta  Ta80  1  0.60193056  0.80232477  0.74958434  1
  Ta  Ta81  1  0.41374224  0.19927382  0.76339566  1
  Ta  Ta82  1  0.07221736  0.90010252  0.13811669  1
  Ta  Ta83  1  0.89020241  0.90116270  0.86013638  1
  Ta  Ta84  1  0.29797115  0.32927809  0.11329521  1
  Ta  Ta85  1  0.37652664  0.60749946  0.76612546  1
  Ta  Ta86  1  0.79464615  -0.01390430  -0.00842323  1
  Ta  Ta87  1  0.92004993  0.09646870  0.38876158  1
  Ta  Ta88  1  0.69444462  0.70120083  0.37512535  1
  Ta  Ta89  1  0.51542763  0.30281058  0.88200878  1
  Ta  Ta90  1  0.49984913  0.10823147  0.62840853  1
  Ta  Ta91  1  0.38908126  0.80562576  0.75799448  1
  Ta  Ta92  1  0.69844871  0.90269933  0.86541114  1
  Ta  Ta93  1  0.79505138  0.79880056  0.25862631  1
  Ta  Ta94  1  0.30814941  0.68762571  0.11762651  1
  Ta  Ta95  1  0.70066517  0.50409078  0.11655578  1
  Ta  Ta96  1  0.80923471  0.79600078  -0.00805523  1
  Ta  Ta97  1  0.71052289  0.28296427  0.87375873  1
  Ta  Ta98  1  0.29516342  0.90198168  0.87525122  1
  Ta  Ta99  1  0.90204857  0.89799439  0.62408729  1
  Ta  Ta100  1  0.39747837  0.80148537  -0.01003625  1
  Ta  Ta101  1  0.58975986  0.80783042  0.24952560  1
  Ta  Ta102  1  0.00267456  0.79479573  0.51123972  1
  Ta  Ta103  1  0.71025493  0.28631539  0.63992614  1
  Ta  Ta104  1  0.00204164  0.58843121  0.26073884  1
  Ta  Ta105  1  0.19101663  0.61192085  0.50112833  1
  Ta  Ta106  1  0.48874196  0.71933561  0.12614094  1
  Ta  Ta107  1  0.80123953  0.80354144  0.74416681  1
  Ta  Ta108  1  0.10863216  0.08789619  0.61935940  1
  Ta  Ta109  1  0.29253404  0.70508890  0.62652919  1
  Ta  Ta110  1  0.19243833  0.00271055  0.76285284  1
  Ta  Ta111  1  0.90268664  0.48700104  0.37484298  1
  Ta  Ta112  1  0.10139825  0.68050193  0.86552359  1
  Ta  Ta113  1  0.48464315  0.90325170  0.36865446  1
  Ta  Ta114  1  0.59816638  0.00863683  0.24383535  1
  Ta  Ta115  1  0.00431329  0.19039140  0.00687539  1
  Ta  Ta116  1  0.39150772  0.41644511  -0.01473082  1
  Ta  Ta117  1  0.29295057  0.91621793  0.37155313  1
  Ta  Ta118  1  0.11684919  0.28005352  0.13137296  1
  Ta  Ta119  1  0.68652072  0.47904132  0.36980683  1
  Ti  Ti120  1  0.39446167  0.61080553  0.49840335  1
  Ti  Ti121  1  0.01747027  0.17802249  0.24440389  1
  Ti  Ti122  1  -0.00470255  0.79094065  0.74504173  1
  Ti  Ti123  1  0.19665553  0.78988403  0.75382250  1
  Ti  Ti124  1  0.41131170  0.38129437  0.49280615  1
  Ti  Ti125  1  -0.01339816  -0.00487208  -0.01190368  1
  Ti  Ti126  1  0.60650012  0.19585307  0.00836737  1
  Ti  Ti127  1  0.60268601  0.39739866  0.50720614  1
  Ti  Ti128  1  0.90298444  0.49238567  0.62668576  1
  Ti  Ti129  1  0.69637611  0.48693059  0.63361436  1
  Ti  Ti130  1  0.10352825  0.28102090  0.61953357  1
  Ti  Ti131  1  0.69212787  0.08837419  0.88365151  1
  Ti  Ti132  1  0.30977643  0.09681598  0.87700050  1
  Ti  Ti133  1  0.00516053  0.60642086  -0.00266307  1
  Ti  Ti134  1  0.40067314  0.00458380  0.00044073  1
  Ti  Ti135  1  0.22786699  0.19275922  0.50245909  1
  Ti  Ti136  1  0.39007236  0.81204410  0.50585723  1
  Ti  Ti137  1  0.21044589  0.38927538  0.25807681  1
  Ti  Ti138  1  0.69334591  0.69638998  0.62807474  1
  Ti  Ti139  1  0.20331854  0.40862062  0.73673150  1
  Ti  Ti140  1  0.50254128  0.10186745  0.11086360  1
  Ti  Ti141  1  0.10146444  0.70034278  0.63061436  1
  Ti  Ti142  1  0.58698448  0.00643740  0.50353341  1
  Ti  Ti143  1  0.79174092  0.79531708  0.50611894  1
  Ti  Ti144  1  -0.00433091  0.00003353  0.74261281  1
  Ti  Ti145  1  -0.00048511  0.59327238  0.74776386  1
  Ti  Ti146  1  0.50162838  0.11008509  0.89096401  1
  Ti  Ti147  1  0.09688079  0.50546370  0.62944201  1
  Ti  Ti148  1  0.90848336  0.29270819  0.63706218  1
  Ti  Ti149  1  0.39115451  0.61957471  0.25659371  1
  Ti  Ti150  1  0.01455211  -0.01315850  0.51218464  1
  Ti  Ti151  1  0.29868237  0.71943735  0.38218304  1
  Ti  Ti152  1  0.48693937  0.91519206  0.64508706  1
  Ti  Ti153  1  0.19986036  0.57949997  -0.00277854  1
  Ti  Ti154  1  0.07964555  0.10451929  0.86780967  1
  Ti  Ti155  1  0.89089187  0.10136199  0.86680134  1
  Ti  Ti156  1  0.50257439  0.90673708  0.12033957  1
  Ti  Ti157  1  0.38245560  0.60906292  -0.02253063  1
  Ti  Ti158  1  0.48650435  0.30051060  0.11472281  1
  Ti  Ti159  1  0.00621569  0.59006098  0.49543019  1
  Mo  Mo160  1  0.70811202  0.30413706  0.36912754  1
  Mo  Mo161  1  0.58860531  0.00324544  0.74747763  1
  Mo  Mo162  1  0.50168728  0.50693040  0.39000433  1
  Mo  Mo163  1  0.30866639  0.28703875  0.38387039  1
  Mo  Mo164  1  0.49254144  0.49918130  0.88275569  1
  Mo  Mo165  1  0.60713609  0.38675976  0.75436850  1
  Mo  Mo166  1  0.01553993  0.19958898  0.50613369  1
  Mo  Mo167  1  0.28651632  0.51276217  0.86644642  1
  Mo  Mo168  1  0.20163717  0.21228504  0.25039310  1
  Mo  Mo169  1  0.89290660  0.88699411  0.12490104  1
  Mo  Mo170  1  0.81248220  0.20414179  0.50265963  1
  Mo  Mo171  1  0.69348756  0.09151304  0.11786114  1
  Mo  Mo172  1  0.91898139  0.28634195  0.12631288  1
  Mo  Mo173  1  0.00776365  0.18504548  0.74358774  1
  Mo  Mo174  1  0.69390969  0.10525141  0.61849804  1
  Mo  Mo175  1  0.09999670  0.29534149  0.86681882  1
  Mo  Mo176  1  0.51068373  0.29519392  0.63161111  1
  Mo  Mo177  1  0.41017000  0.20536523  0.50019343  1
  Mo  Mo178  1  0.91184704  0.70945964  0.86596607  1
  Mo  Mo179  1  -0.00694381  0.79408439  0.25206275  1
  Mo  Mo180  1  0.60138850  0.00935266  0.00567038  1
  Mo  Mo181  1  0.41222353  0.21395651  -0.01003441  1
  Mo  Mo182  1  0.28717942  0.70878292  0.87668111  1
  Mo  Mo183  1  0.20146585  0.40601242  -0.00090169  1
  Mo  Mo184  1  0.01781932  0.38943519  0.72255405  1
  Mo  Mo185  1  0.29363687  0.51121197  0.12311865  1
  Mo  Mo186  1  0.12172006  0.48541553  0.12673149  1
  Mo  Mo187  1  0.80779172  0.19507846  0.75925395  1
  Mo  Mo188  1  0.70146495  0.30125849  0.11420139  1
  Mo  Mo189  1  0.39115066  0.01332819  0.76093649  1
  Mo  Mo190  1  0.09133785  0.89709345  0.64472296  1
  Mo  Mo191  1  0.18898857  0.60498665  0.73965441  1
  Mo  Mo192  1  -0.00359425  -0.00249672  0.25964440  1
  Mo  Mo193  1  0.30598502  0.10674570  0.37601477  1
  Mo  Mo194  1  0.20286311  -0.00257465  0.50574003  1
  Mo  Mo195  1  0.80438649  0.60593628  0.00458310  1
  Mo  Mo196  1  0.60237743  0.40855145  0.22541822  1
  Mo  Mo197  1  0.10041867  0.09357096  0.11544415  1
  Mo  Mo198  1  0.39841601  0.80210595  0.25014327  1
  Mo  Mo199  1  0.08998844  0.49778365  0.38337914  1
