# generated using pymatgen
data_HfZrTaTiMo
_symmetry_space_group_name_H-M   'P 1'
_cell_length_a   15.19090875
_cell_length_b   15.18552893
_cell_length_c   16.78269798
_cell_angle_alpha   89.91454574
_cell_angle_beta   89.99038301
_cell_angle_gamma   89.94259841
_symmetry_Int_Tables_number   1
_chemical_formula_structural   HfZrTaTiMo
_chemical_formula_sum   'Hf40 Zr40 Ta40 Ti40 Mo40'
_cell_volume   3871.45976920
_cell_formula_units_Z   40
loop_
 _symmetry_equiv_pos_site_id
 _symmetry_equiv_pos_as_xyz
  1  'x, y, z'
loop_
 _atom_site_type_symbol
 _atom_site_label
 _atom_site_symmetry_multiplicity
 _atom_site_fract_x
 _atom_site_fract_y
 _atom_site_fract_z
 _atom_site_occupancy
  Hf  Hf0  1  0.81413359  0.18863084  0.50869140  1
  Hf  Hf1  1  0.50457319  0.09962550  0.87638679  1
  Hf  Hf2  1  0.39926360  -0.00988875  0.26973532  1
  Hf  Hf3  1  0.69844883  0.50195196  0.36967086  1
  Hf  Hf4  1  0.09607086  0.07819323  0.62129186  1
  Hf  Hf5  1  0.78900139  0.40234303  0.75283990  1
  Hf  Hf6  1  0.60303620  0.19298912  0.00498226  1
  Hf  Hf7  1  0.49881067  0.70200441  0.37009830  1
  Hf  Hf8  1  0.30584181  0.92018635  0.90550027  1
  Hf  Hf9  1  0.61605994  0.59632974  0.76141254  1
  Hf  Hf10  1  0.39408699  0.00491275  0.74992754  1
  Hf  Hf11  1  0.70464839  0.30266903  0.37145087  1
  Hf  Hf12  1  0.90321379  0.91199619  0.62330410  1
  Hf  Hf13  1  0.59767965  0.80525323  0.49521877  1
  Hf  Hf14  1  0.21954090  0.60955734  0.24880791  1
  Hf  Hf15  1  0.00372970  0.58995027  0.24652893  1
  Hf  Hf16  1  0.49452262  0.89774596  0.61988336  1
  Hf  Hf17  1  0.20282246  0.81107890  0.24319663  1
  Hf  Hf18  1  0.90509666  0.29894919  0.37071467  1
  Hf  Hf19  1  0.18949603  0.21632495  0.00354563  1
  Hf  Hf20  1  0.80614652  0.81165799  0.74780965  1
  Hf  Hf21  1  0.70684065  0.70414847  0.35776568  1
  Hf  Hf22  1  -0.01125623  0.60477758  -0.01690335  1
  Hf  Hf23  1  0.10415632  0.09254109  0.88370011  1
  Hf  Hf24  1  0.59390765  0.60139179  0.23852296  1
  Hf  Hf25  1  0.61156688  0.20145852  0.73298459  1
  Hf  Hf26  1  0.79907310  0.19215828  0.24450136  1
  Hf  Hf27  1  0.49536258  0.69732250  0.10950386  1
  Hf  Hf28  1  0.10143110  0.70290063  0.11474279  1
  Hf  Hf29  1  0.50344217  0.08996482  0.60836693  1
  Hf  Hf30  1  0.89368109  0.88439671  0.89319192  1
  Hf  Hf31  1  0.49727722  0.09036833  0.12611916  1
  Hf  Hf32  1  0.19641264  0.59723707  -0.02274648  1
  Hf  Hf33  1  0.50369725  0.70892792  0.87825009  1
  Hf  Hf34  1  0.30935058  0.90578260  0.11137441  1
  Hf  Hf35  1  0.81448863  0.79003877  0.50081190  1
  Hf  Hf36  1  0.59612169  0.19188025  0.25381911  1
  Hf  Hf37  1  0.29008727  0.51189209  0.63615849  1
  Hf  Hf38  1  0.00952187  0.58934770  0.76663962  1
  Hf  Hf39  1  0.60026070  0.39420944  -0.00532175  1
  Zr  Zr40  1  0.61709124  0.81109368  0.01198485  1
  Zr  Zr41  1  0.17614912  0.40563411  0.74149739  1
  Zr  Zr42  1  0.30951556  0.50476587  0.11573865  1
  Zr  Zr43  1  0.00616523  0.20991078  0.51359331  1
  Zr  Zr44  1  0.61393624  0.60159892  0.50672167  1
  Zr  Zr45  1  0.29302180  0.72610773  0.88345051  1
  Zr  Zr46  1  0.50580659  0.70366344  0.63944083  1
  Zr  Zr47  1  0.10304172  0.49620881  0.11587211  1
  Zr  Zr48  1  0.89727877  0.50397336  0.38084585  1
  Zr  Zr49  1  0.87944555  0.09936612  0.88042861  1
  Zr  Zr50  1  0.29639182  0.30703626  0.38690525  1
  Zr  Zr51  1  0.10387705  0.87882472  0.89795600  1
  Zr  Zr52  1  -0.00991330  0.00305709  0.00839868  1
  Zr  Zr53  1  0.71132670  0.72132412  0.88233686  1
  Zr  Zr54  1  0.49681542  0.30859164  0.37388073  1
  Zr  Zr55  1  0.19700406  0.40802070  0.24849584  1
  Zr  Zr56  1  0.59378455  0.40163835  0.51580099  1
  Zr  Zr57  1  0.09280058  0.10020646  0.13029524  1
  Zr  Zr58  1  0.29405926  0.89455712  0.60195392  1
  Zr  Zr59  1  0.50060075  0.49609982  0.11282369  1
  Zr  Zr60  1  0.19984290  -0.02403221  0.75258078  1
  Zr  Zr61  1  0.60599654  0.20414336  0.50485206  1
  Zr  Zr62  1  0.70770303  0.90071357  0.36083636  1
  Zr  Zr63  1  0.39445405  0.19625801  0.26170015  1
  Zr  Zr64  1  0.50287359  0.48719180  0.86253119  1
  Zr  Zr65  1  0.00449912  0.39589019  -0.01239318  1
  Zr  Zr66  1  0.30364144  0.50171924  0.38585008  1
  Zr  Zr67  1  0.19770385  0.19662286  0.25650608  1
  Zr  Zr68  1  0.89674810  0.52081636  0.62868988  1
  Zr  Zr69  1  0.70054870  0.30090968  0.12451926  1
  Zr  Zr70  1  0.20585826  0.18434770  0.74137986  1
  Zr  Zr71  1  0.29670925  0.10170259  0.11742476  1
  Zr  Zr72  1  0.80068782  0.39935312  0.51326338  1
  Zr  Zr73  1  0.09996710  0.70966024  0.37018881  1
  Zr  Zr74  1  0.09301854  0.30603280  0.37031043  1
  Zr  Zr75  1  -0.01332048  0.61999887  0.50268726  1
  Zr  Zr76  1  0.60622052  -0.00278420  0.75114246  1
  Zr  Zr77  1  0.40704497  0.60324053  0.51497719  1
  Zr  Zr78  1  0.30058383  0.30210092  0.86261328  1
  Zr  Zr79  1  -0.00080731  0.19490451  0.74339575  1
  Ta  Ta80  1  0.71284585  0.08227167  0.61055208  1
  Ta  Ta81  1  0.60023508  0.39989862  0.24307551  1
  Ta  Ta82  1  0.50242340  0.29186735  0.86196224  1
  Ta  Ta83  1  -0.00619670  0.80003560  0.23474407  1
  Ta  Ta84  1  0.69846696  0.89837858  0.61504177  1
  Ta  Ta85  1  0.17789827  -0.01433017  0.47761787  1
  Ta  Ta86  1  0.01358560  0.81796112  0.49573020  1
  Ta  Ta87  1  0.80597162  0.60012176  0.23533322  1
  Ta  Ta88  1  0.72283039  0.69667002  0.63331007  1
  Ta  Ta89  1  0.07652273  0.30028511  0.13927797  1
  Ta  Ta90  1  0.80768633  0.40471383  0.23981595  1
  Ta  Ta91  1  0.00919623  0.79241193  0.75390408  1
  Ta  Ta92  1  0.40280751  0.21091464  0.00081841  1
  Ta  Ta93  1  0.49680358  0.50145985  0.37111357  1
  Ta  Ta94  1  0.30193152  0.08689301  0.60117176  1
  Ta  Ta95  1  -0.01701193  0.00561209  0.48815257  1
  Ta  Ta96  1  0.50020406  0.89946914  0.88377006  1
  Ta  Ta97  1  0.40175542  0.19946814  0.50077904  1
  Ta  Ta98  1  0.29690553  0.29136174  0.62232018  1
  Ta  Ta99  1  0.09725029  0.49930274  0.38823137  1
  Ta  Ta100  1  0.39891416  0.39937872  0.52138274  1
  Ta  Ta101  1  0.30397286  0.70292670  0.38496213  1
  Ta  Ta102  1  0.10338312  0.69710677  0.62860345  1
  Ta  Ta103  1  0.19829296  0.19280135  0.50186716  1
  Ta  Ta104  1  0.89389066  0.29798989  0.86624419  1
  Ta  Ta105  1  0.19755692  -0.00163456  0.26876954  1
  Ta  Ta106  1  -0.00734529  -0.01166631  0.76001315  1
  Ta  Ta107  1  0.48655507  0.29964543  0.12944196  1
  Ta  Ta108  1  0.79809208  0.59967491  -0.00612645  1
  Ta  Ta109  1  0.39056066  0.60707417  0.76117962  1
  Ta  Ta110  1  0.70132974  0.28678726  0.87306702  1
  Ta  Ta111  1  0.50026319  0.49703638  0.64836814  1
  Ta  Ta112  1  0.39970165  0.78629980  0.24545980  1
  Ta  Ta113  1  0.39833891  0.59270687  -0.02538694  1
  Ta  Ta114  1  0.81240425  0.60706336  0.77383150  1
  Ta  Ta115  1  0.80256873  0.39896643  -0.00953217  1
  Ta  Ta116  1  0.18555585  0.39748561  0.51882637  1
  Ta  Ta117  1  0.40587654  0.19632864  0.73399714  1
  Ta  Ta118  1  0.19397251  0.60306025  0.50590177  1
  Ta  Ta119  1  0.39051530  0.81099345  0.75484158  1
  Ti  Ti120  1  0.19684239  0.61373562  0.76650564  1
  Ti  Ti121  1  0.29451219  0.30980296  0.12325534  1
  Ti  Ti122  1  0.70186696  0.09232709  0.38437874  1
  Ti  Ti123  1  0.70265002  0.90359369  0.14614063  1
  Ti  Ti124  1  0.08406680  0.10207173  0.37009323  1
  Ti  Ti125  1  0.91211991  0.31376903  0.63555949  1
  Ti  Ti126  1  0.09277185  0.29675823  0.86636866  1
  Ti  Ti127  1  0.29730406  0.09436929  0.39215087  1
  Ti  Ti128  1  0.89194716  0.08905291  0.36378788  1
  Ti  Ti129  1  0.89359775  0.10213667  0.12936919  1
  Ti  Ti130  1  0.30603422  0.70359239  0.10369175  1
  Ti  Ti131  1  0.39696596  0.39369627  0.74125216  1
  Ti  Ti132  1  0.79716166  0.19729811  0.00878459  1
  Ti  Ti133  1  0.70500270  0.50339608  0.11934455  1
  Ti  Ti134  1  0.41518318  -0.01306160  0.47580503  1
  Ti  Ti135  1  0.29687823  0.71123803  0.62740314  1
  Ti  Ti136  1  0.20598650  0.40411354  -0.01670100  1
  Ti  Ti137  1  0.60798973  0.59476688  -0.00931057  1
  Ti  Ti138  1  0.40125265  0.41277515  0.24696079  1
  Ti  Ti139  1  0.60408450  0.00253424  0.00558162  1
  Ti  Ti140  1  -0.00351897  -0.00215505  0.24702595  1
  Ti  Ti141  1  0.10487554  0.90667032  0.11668219  1
  Ti  Ti142  1  0.89746216  0.70657505  0.36113247  1
  Ti  Ti143  1  0.30633363  0.10960524  0.88898426  1
  Ti  Ti144  1  0.70123406  0.92114260  0.88130728  1
  Ti  Ti145  1  0.10134205  0.88659644  0.62472682  1
  Ti  Ti146  1  0.69927261  0.50243101  0.63261357  1
  Ti  Ti147  1  0.89517587  0.89268901  0.12616126  1
  Ti  Ti148  1  0.80124183  0.19648619  0.73332356  1
  Ti  Ti149  1  0.29691618  0.88344606  0.38579433  1
  Ti  Ti150  1  -0.01403095  0.20748005  0.00188953  1
  Ti  Ti151  1  0.90018551  0.49059622  0.11845752  1
  Ti  Ti152  1  0.78528768  -0.00146759  0.01794979  1
  Ti  Ti153  1  0.79758078  0.00811817  0.75080731  1
  Ti  Ti154  1  0.50325664  0.89646343  0.13035840  1
  Ti  Ti155  1  0.70939955  0.70401124  0.12717108  1
  Ti  Ti156  1  0.90166324  0.89717108  0.36100605  1
  Ti  Ti157  1  0.60443376  0.80797810  0.75158726  1
  Ti  Ti158  1  0.59940842  -0.00075397  0.25785098  1
  Ti  Ti159  1  0.39574308  0.39589114  -0.01248439  1
  Mo  Mo160  1  0.70326734  0.10372264  0.87798601  1
  Mo  Mo161  1  0.30180249  0.50041513  0.85797934  1
  Mo  Mo162  1  0.70514383  0.49602351  0.88286069  1
  Mo  Mo163  1  0.89740831  0.68935401  0.12597403  1
  Mo  Mo164  1  -0.00957132  0.39625967  0.75868686  1
  Mo  Mo165  1  0.39867005  0.60261588  0.25012533  1
  Mo  Mo166  1  0.89299609  0.49365414  0.87431743  1
  Mo  Mo167  1  0.89875795  0.29925279  0.12235336  1
  Mo  Mo168  1  0.19978679  0.80344797  0.01915100  1
  Mo  Mo169  1  0.60537731  -0.00322207  0.48722539  1
  Mo  Mo170  1  0.79167770  0.61079315  0.50208196  1
  Mo  Mo171  1  0.69987068  0.08800211  0.12926446  1
  Mo  Mo172  1  0.80625581  -0.00062023  0.23943820  1
  Mo  Mo173  1  0.20156828  0.79423686  0.74704107  1
  Mo  Mo174  1  0.49351792  0.29949350  0.63071390  1
  Mo  Mo175  1  0.09419759  0.70562713  0.88165897  1
  Mo  Mo176  1  0.90102904  0.09208431  0.63253077  1
  Mo  Mo177  1  0.39810951  0.79668674  0.49523555  1
  Mo  Mo178  1  0.41891465  0.01221337  0.00161649  1
  Mo  Mo179  1  0.90546093  0.70901394  0.87820829  1
  Mo  Mo180  1  -0.00773548  0.79799456  0.02315510  1
  Mo  Mo181  1  0.09093232  0.50278877  0.61667652  1
  Mo  Mo182  1  0.10123242  0.29578859  0.62639321  1
  Mo  Mo183  1  0.19998152  0.01376948  0.00353236  1
  Mo  Mo184  1  0.59571951  0.80322598  0.23369819  1
  Mo  Mo185  1  -0.01070525  0.40334661  0.24610524  1
  Mo  Mo186  1  0.59992335  0.39200967  0.74407974  1
  Mo  Mo187  1  0.80333400  -0.00759365  0.49237603  1
  Mo  Mo188  1  0.08691891  0.90614720  0.36230595  1
  Mo  Mo189  1  0.41201442  0.80255786  0.00517912  1
  Mo  Mo190  1  0.50780401  0.09079601  0.38696672  1
  Mo  Mo191  1  0.49982687  0.89014274  0.36208721  1
  Mo  Mo192  1  0.80656466  0.80029320  0.02198580  1
  Mo  Mo193  1  0.10298805  0.49159297  0.87571024  1
  Mo  Mo194  1  0.19181469  0.79258687  0.49683785  1
  Mo  Mo195  1  0.80719603  0.79636362  0.23626460  1
  Mo  Mo196  1  0.70890615  0.29773220  0.62787837  1
  Mo  Mo197  1  0.00427073  0.40954602  0.50931644  1
  Mo  Mo198  1  -0.01013151  0.19272429  0.25093982  1
  Mo  Mo199  1  0.91109152  0.71372468  0.63490591  1
