# generated using pymatgen
data_HfZrTaTiMo
_symmetry_space_group_name_H-M   'P 1'
_cell_length_a   15.21503823
_cell_length_b   15.20522598
_cell_length_c   16.87214078
_cell_angle_alpha   90.04883076
_cell_angle_beta   89.98717293
_cell_angle_gamma   90.06656398
_symmetry_Int_Tables_number   1
_chemical_formula_structural   HfZrTaTiMo
_chemical_formula_sum   'Hf40 Zr40 Ta40 Ti40 Mo40'
_cell_volume   3903.33347155
_cell_formula_units_Z   40
loop_
 _symmetry_equiv_pos_site_id
 _symmetry_equiv_pos_as_xyz
  1  'x, y, z'
loop_
 _atom_site_type_symbol
 _atom_site_label
 _atom_site_symmetry_multiplicity
 _atom_site_fract_x
 _atom_site_fract_y
 _atom_site_fract_z
 _atom_site_occupancy
  Hf  Hf0  1  0.70789407  0.89524149  0.87396724  1
  Hf  Hf1  1  0.19737775  0.59964776  0.74432682  1
  Hf  Hf2  1  0.60156095  0.80802728  -0.00510148  1
  Hf  Hf3  1  0.50986204  0.50940768  0.11113406  1
  Hf  Hf4  1  0.48816697  0.10977595  0.88222065  1
  Hf  Hf5  1  0.18681831  0.22116707  0.49236692  1
  Hf  Hf6  1  0.08225051  0.29680984  0.35402062  1
  Hf  Hf7  1  0.67918955  0.09952523  0.62598672  1
  Hf  Hf8  1  0.08654994  0.11728279  0.61767609  1
  Hf  Hf9  1  0.09719437  0.69787249  0.62499279  1
  Hf  Hf10  1  -0.00627442  0.00917688  0.74213414  1
  Hf  Hf11  1  0.31488525  0.29985554  0.86887057  1
  Hf  Hf12  1  0.29436488  0.90090478  0.87938719  1
  Hf  Hf13  1  0.18460924  0.81389971  0.00614186  1
  Hf  Hf14  1  0.60911515  0.20044511  0.00468203  1
  Hf  Hf15  1  0.39879353  0.60151599  0.74520541  1
  Hf  Hf16  1  0.69028083  0.69158916  0.13426145  1
  Hf  Hf17  1  0.69200581  0.68864666  0.37580778  1
  Hf  Hf18  1  0.72111274  0.30248636  0.37188853  1
  Hf  Hf19  1  0.60586957  0.19854809  0.49381975  1
  Hf  Hf20  1  0.30536140  0.49990615  0.11645678  1
  Hf  Hf21  1  0.41839049  0.19589768  0.73821878  1
  Hf  Hf22  1  0.41908719  0.40491212  0.73852169  1
  Hf  Hf23  1  0.30250750  0.50512740  0.88623444  1
  Hf  Hf24  1  0.82103497  0.37932153  0.74658858  1
  Hf  Hf25  1  0.49084740  0.90063354  0.37360909  1
  Hf  Hf26  1  0.69710755  0.89697300  0.37063630  1
  Hf  Hf27  1  0.80127505  -0.00785481  0.00414160  1
  Hf  Hf28  1  0.40193615  0.60923300  0.24932647  1
  Hf  Hf29  1  0.30606293  0.10825747  0.39130227  1
  Hf  Hf30  1  0.29529128  0.70827119  0.38022673  1
  Hf  Hf31  1  -0.02267085  0.59162880  0.01753948  1
  Hf  Hf32  1  0.39919073  0.03073893  0.24397974  1
  Hf  Hf33  1  0.50855328  0.91836961  0.12655600  1
  Hf  Hf34  1  0.87881066  0.11862513  0.62356414  1
  Hf  Hf35  1  -0.01113811  0.00053923  0.50817185  1
  Hf  Hf36  1  0.49364131  0.70563208  0.11433605  1
  Hf  Hf37  1  0.00206313  0.19188093  -0.00270469  1
  Hf  Hf38  1  0.19101819  0.80341912  0.24078153  1
  Hf  Hf39  1  0.39461564  0.79451777  0.73908407  1
  Zr  Zr40  1  0.50413618  0.49689130  0.88463330  1
  Zr  Zr41  1  0.29263836  0.30838314  0.62662494  1
  Zr  Zr42  1  0.21115901  0.19066316  0.25381209  1
  Zr  Zr43  1  0.20122557  0.20082965  -0.00222491  1
  Zr  Zr44  1  0.18675410  0.60191333  0.00781121  1
  Zr  Zr45  1  0.40716587  0.40095868  0.51096678  1
  Zr  Zr46  1  0.49037903  0.30072619  0.37110645  1
  Zr  Zr47  1  -0.00507296  0.79536203  0.50543537  1
  Zr  Zr48  1  0.40438955  0.00042908  0.51473517  1
  Zr  Zr49  1  0.61540158  0.41023028  0.24776979  1
  Zr  Zr50  1  0.59227283  0.00804320  0.76622599  1
  Zr  Zr51  1  0.90419761  0.47841312  0.36299756  1
  Zr  Zr52  1  0.01137084  0.39590162  0.01735464  1
  Zr  Zr53  1  0.79529271  -0.00389981  0.74880016  1
  Zr  Zr54  1  0.09558270  0.50052688  0.87703161  1
  Zr  Zr55  1  0.09479514  0.69276971  0.37189589  1
  Zr  Zr56  1  0.61800605  0.40901553  0.50308761  1
  Zr  Zr57  1  0.88435285  0.68451241  0.86208686  1
  Zr  Zr58  1  0.71443663  0.49879159  0.63235300  1
  Zr  Zr59  1  0.60163992  0.60051467  0.75557419  1
  Zr  Zr60  1  0.08757226  0.70775395  0.86632856  1
  Zr  Zr61  1  0.88213996  0.10875246  0.88008991  1
  Zr  Zr62  1  0.28401998  0.92623905  0.11577300  1
  Zr  Zr63  1  0.38938029  -0.00649908  0.73871780  1
  Zr  Zr64  1  0.38684978  0.79323634  0.51787720  1
  Zr  Zr65  1  -0.01017387  0.79978578  0.00766307  1
  Zr  Zr66  1  0.49964198  0.30145579  0.12466385  1
  Zr  Zr67  1  0.59376033  0.19229064  0.24416008  1
  Zr  Zr68  1  0.87933615  0.69739040  0.14304228  1
  Zr  Zr69  1  0.72175106  0.50097555  0.86924587  1
  Zr  Zr70  1  0.30970017  0.50356594  0.37958575  1
  Zr  Zr71  1  0.18817308  0.20079418  0.75563062  1
  Zr  Zr72  1  0.29132389  0.10327011  0.61655120  1
  Zr  Zr73  1  0.69657986  0.70378949  0.61795537  1
  Zr  Zr74  1  0.89499632  0.90111057  0.37144696  1
  Zr  Zr75  1  0.19425084  0.59358502  0.50518033  1
  Zr  Zr76  1  0.52022973  0.89756613  0.62655355  1
  Zr  Zr77  1  0.00100786  0.58709664  0.23608971  1
  Zr  Zr78  1  0.69571454  0.08486756  0.13184776  1
  Zr  Zr79  1  0.38842845  0.81351235  0.24259392  1
  Ta  Ta80  1  0.19830098  -0.00188820  0.26046231  1
  Ta  Ta81  1  0.89441415  0.90073559  0.13498039  1
  Ta  Ta82  1  0.73370732  0.29052173  0.89297551  1
  Ta  Ta83  1  -0.00493349  0.80528384  0.24958159  1
  Ta  Ta84  1  0.40173826  0.40635658  0.24843886  1
  Ta  Ta85  1  0.18875791  -0.00343316  0.73904568  1
  Ta  Ta86  1  0.62155312  0.40562457  0.00130626  1
  Ta  Ta87  1  0.11126574  0.08552353  0.12581251  1
  Ta  Ta88  1  0.59553015  0.00397746  -0.01026688  1
  Ta  Ta89  1  -0.00930979  0.80999541  0.73449526  1
  Ta  Ta90  1  0.90670613  0.29348623  0.13312033  1
  Ta  Ta91  1  0.48904777  0.70478353  0.88387428  1
  Ta  Ta92  1  0.28585307  0.09355539  0.87125342  1
  Ta  Ta93  1  0.59810543  0.79750831  0.49478346  1
  Ta  Ta94  1  0.39333625  0.80725397  0.00202595  1
  Ta  Ta95  1  0.80731137  0.19922954  0.24336622  1
  Ta  Ta96  1  0.79370944  0.78226882  -0.00118154  1
  Ta  Ta97  1  0.00727466  0.00148937  0.25267331  1
  Ta  Ta98  1  0.09025135  0.31613977  0.62833442  1
  Ta  Ta99  1  0.80200323  0.58715254  0.49294634  1
  Ta  Ta100  1  0.59733930  0.79765234  0.76094364  1
  Ta  Ta101  1  0.09523443  0.91380740  0.86729477  1
  Ta  Ta102  1  0.82750339  0.38516858  0.50464898  1
  Ta  Ta103  1  0.50643741  0.09724242  0.37641096  1
  Ta  Ta104  1  0.90646211  0.89015702  0.87406879  1
  Ta  Ta105  1  0.28894154  0.90645304  0.38300395  1
  Ta  Ta106  1  0.90884352  0.09431261  0.12699428  1
  Ta  Ta107  1  0.90040599  0.11182286  0.37075480  1
  Ta  Ta108  1  0.10115247  0.89805033  0.37973820  1
  Ta  Ta109  1  0.19654606  0.80673457  0.74367349  1
  Ta  Ta110  1  0.61575711  0.61037874  -0.01265582  1
  Ta  Ta111  1  0.70415822  0.09339054  0.36588139  1
  Ta  Ta112  1  0.11353142  0.48613656  0.35719123  1
  Ta  Ta113  1  0.88865034  0.69311112  0.36360853  1
  Ta  Ta114  1  0.59347126  0.79842172  0.25440026  1
  Ta  Ta115  1  0.40436833  0.39413860  0.00037362  1
  Ta  Ta116  1  -0.01842570  0.21909271  0.75772171  1
  Ta  Ta117  1  0.51381532  0.51203003  0.38098971  1
  Ta  Ta118  1  0.89241001  0.68729717  0.62887003  1
  Ta  Ta119  1  0.02104995  0.40543451  0.49584425  1
  Ti  Ti120  1  0.71897419  0.31160187  0.11848897  1
  Ti  Ti121  1  0.09875583  0.30298890  0.87269022  1
  Ti  Ti122  1  0.20498739  0.59523406  0.23992563  1
  Ti  Ti123  1  0.00954744  -0.00605700  -0.00017764  1
  Ti  Ti124  1  0.20489180  0.39227111  0.00616971  1
  Ti  Ti125  1  0.80176040  -0.00397251  0.24949995  1
  Ti  Ti126  1  0.72515963  0.28699975  0.62122848  1
  Ti  Ti127  1  0.39644960  0.20220269  0.00460415  1
  Ti  Ti128  1  0.48901418  0.90084970  0.87790690  1
  Ti  Ti129  1  0.61454821  0.39025921  0.75186768  1
  Ti  Ti130  1  0.20583254  0.40607496  0.75003521  1
  Ti  Ti131  1  0.30388696  0.50873064  0.61651406  1
  Ti  Ti132  1  0.79396487  0.00458611  0.49883470  1
  Ti  Ti133  1  0.70318044  0.88797025  0.13721495  1
  Ti  Ti134  1  0.51736822  0.30476034  0.88072888  1
  Ti  Ti135  1  0.29558269  0.70390496  0.88247416  1
  Ti  Ti136  1  0.92172529  0.49598962  0.62432592  1
  Ti  Ti137  1  0.29057075  0.31467494  0.36738660  1
  Ti  Ti138  1  0.09498743  0.70045471  0.12993492  1
  Ti  Ti139  1  0.80259128  0.79555274  0.50007728  1
  Ti  Ti140  1  -0.02316332  0.21877817  0.49602078  1
  Ti  Ti141  1  0.62357443  0.20539839  0.76673134  1
  Ti  Ti142  1  0.29751709  0.70204516  0.11474238  1
  Ti  Ti143  1  0.30359646  0.29774232  0.13303985  1
  Ti  Ti144  1  0.39129357  0.01324932  0.00335588  1
  Ti  Ti145  1  0.59170345  0.59836149  0.25327643  1
  Ti  Ti146  1  0.90703873  0.48820014  0.87420828  1
  Ti  Ti147  1  0.41183330  0.20095015  0.51489716  1
  Ti  Ti148  1  0.60164156  -0.00180129  0.49662877  1
  Ti  Ti149  1  0.19021222  -0.01129977  0.50949377  1
  Ti  Ti150  1  0.49351451  0.69749750  0.38693823  1
  Ti  Ti151  1  0.01310058  0.41057264  0.74983335  1
  Ti  Ti152  1  0.09620226  0.09320257  0.38392019  1
  Ti  Ti153  1  0.79605511  0.79279649  0.74474585  1
  Ti  Ti154  1  0.50097019  0.68150694  0.61530120  1
  Ti  Ti155  1  0.70953955  0.89712346  0.61988033  1
  Ti  Ti156  1  0.52907957  0.29608493  0.62914617  1
  Ti  Ti157  1  0.78252194  0.57479565  0.25566068  1
  Ti  Ti158  1  0.10613009  0.29266554  0.14137709  1
  Ti  Ti159  1  -0.00793376  0.59214546  0.49324153  1
  Mo  Mo160  1  0.20806966  0.40344045  0.24100263  1
  Mo  Mo161  1  0.79886158  0.19386909  0.49123199  1
  Mo  Mo162  1  0.79434149  0.79469552  0.25495342  1
  Mo  Mo163  1  0.09128594  0.90366676  0.62811716  1
  Mo  Mo164  1  0.40055441  0.60961135  -0.00448438  1
  Mo  Mo165  1  0.18633190  0.01061174  -0.00998127  1
  Mo  Mo166  1  0.00353521  0.18206973  0.24145232  1
  Mo  Mo167  1  0.91090586  0.30369308  0.62191554  1
  Mo  Mo168  1  0.00542447  0.39173431  0.23045366  1
  Mo  Mo169  1  0.70743205  0.49912029  0.38171021  1
  Mo  Mo170  1  0.10788505  0.48949020  0.13636497  1
  Mo  Mo171  1  0.19566499  0.40047680  0.49470549  1
  Mo  Mo172  1  0.80753859  0.20312080  0.02122901  1
  Mo  Mo173  1  0.79471201  0.20130963  0.75504698  1
  Mo  Mo174  1  0.81309884  0.59258802  0.74018080  1
  Mo  Mo175  1  0.69727043  0.70346671  0.86946278  1
  Mo  Mo176  1  0.90551620  0.29228717  0.36289283  1
  Mo  Mo177  1  0.80373588  0.39354322  0.24309960  1
  Mo  Mo178  1  0.10423173  0.49551343  0.62743190  1
  Mo  Mo179  1  0.40021533  0.21275608  0.25495598  1
  Mo  Mo180  1  0.30134185  0.11288384  0.12035767  1
  Mo  Mo181  1  0.59956837  -0.00604831  0.25530237  1
  Mo  Mo182  1  0.19271564  0.80759613  0.50210129  1
  Mo  Mo183  1  0.50965554  0.49425768  0.62979179  1
  Mo  Mo184  1  0.09360861  0.09767355  0.86785315  1
  Mo  Mo185  1  -0.00593253  0.59676190  0.74197841  1
  Mo  Mo186  1  0.88389626  0.89431860  0.61978401  1
  Mo  Mo187  1  0.29812210  0.69637617  0.62502168  1
  Mo  Mo188  1  0.50570468  0.10940464  0.62444880  1
  Mo  Mo189  1  0.81553148  0.40520373  0.00549878  1
  Mo  Mo190  1  0.08417543  0.90736835  0.13009491  1
  Mo  Mo191  1  0.27490937  0.88978834  0.62248247  1
  Mo  Mo192  1  0.88208711  0.48521761  0.13321408  1
  Mo  Mo193  1  0.91213722  0.31050745  0.88347287  1
  Mo  Mo194  1  0.69672754  0.10410823  0.88784884  1
  Mo  Mo195  1  0.70399755  0.50313033  0.11728077  1
  Mo  Mo196  1  0.59849476  0.60086775  0.50114714  1
  Mo  Mo197  1  0.41088723  0.59687119  0.50840974  1
  Mo  Mo198  1  0.49214219  0.10238429  0.11029780  1
  Mo  Mo199  1  0.79371656  0.59340390  0.00248281  1
