# generated using pymatgen
data_HfZrTaTiMo
_symmetry_space_group_name_H-M   'P 1'
_cell_length_a   15.21355922
_cell_length_b   15.21198443
_cell_length_c   16.84643021
_cell_angle_alpha   90.05058340
_cell_angle_beta   89.97044336
_cell_angle_gamma   90.02127220
_symmetry_Int_Tables_number   1
_chemical_formula_structural   HfZrTaTiMo
_chemical_formula_sum   'Hf40 Zr40 Ta40 Ti40 Mo40'
_cell_volume   3898.74052249
_cell_formula_units_Z   40
loop_
 _symmetry_equiv_pos_site_id
 _symmetry_equiv_pos_as_xyz
  1  'x, y, z'
loop_
 _atom_site_type_symbol
 _atom_site_label
 _atom_site_symmetry_multiplicity
 _atom_site_fract_x
 _atom_site_fract_y
 _atom_site_fract_z
 _atom_site_occupancy
  Hf  Hf0  1  0.29092860  0.48804741  0.38178373  1
  Hf  Hf1  1  0.21145516  0.19833204  0.50190238  1
  Hf  Hf2  1  0.79485647  0.58472699  0.00176584  1
  Hf  Hf3  1  0.30338365  0.70242028  0.38859938  1
  Hf  Hf4  1  0.80340745  -0.00695960  0.50221173  1
  Hf  Hf5  1  0.19852705  0.59037726  0.24510372  1
  Hf  Hf6  1  0.19712332  0.80005032  0.24380704  1
  Hf  Hf7  1  0.80573945  -0.00033002  0.25017139  1
  Hf  Hf8  1  0.68361184  0.49466325  0.37467752  1
  Hf  Hf9  1  0.69493620  0.69014142  0.11810611  1
  Hf  Hf10  1  -0.01264789  -0.00218739  -0.02669026  1
  Hf  Hf11  1  0.59382497  0.60659083  0.75358857  1
  Hf  Hf12  1  0.01546937  0.78853089  0.75194313  1
  Hf  Hf13  1  0.58971813  0.00474403  0.74222381  1
  Hf  Hf14  1  0.10048827  0.70918781  0.37444212  1
  Hf  Hf15  1  0.90800036  0.69018631  0.11935626  1
  Hf  Hf16  1  0.20921274  0.20606542  0.24848042  1
  Hf  Hf17  1  0.79152940  0.00168175  0.74603165  1
  Hf  Hf18  1  0.59637455  -0.01498186  0.02289390  1
  Hf  Hf19  1  0.39500756  0.60169660  0.24471813  1
  Hf  Hf20  1  0.89782198  0.69281421  0.87584111  1
  Hf  Hf21  1  0.29783077  0.50016428  0.62786055  1
  Hf  Hf22  1  0.78899786  0.60375947  0.48882991  1
  Hf  Hf23  1  0.80277078  0.21078449  -0.00380702  1
  Hf  Hf24  1  0.00029604  0.79647338  0.51354369  1
  Hf  Hf25  1  0.80561590  0.79909274  0.24387979  1
  Hf  Hf26  1  0.79837360  0.81705671  0.01359852  1
  Hf  Hf27  1  0.21092871  0.19368177  -0.02065330  1
  Hf  Hf28  1  0.01684084  0.80473099  -0.01637484  1
  Hf  Hf29  1  0.59886133  -0.00134898  0.24343768  1
  Hf  Hf30  1  0.51254035  0.70136040  0.38250792  1
  Hf  Hf31  1  0.50292516  0.10906480  0.37009046  1
  Hf  Hf32  1  0.58681167  0.81215022  0.73550254  1
  Hf  Hf33  1  0.38676201  0.61787737  -0.00698810  1
  Hf  Hf34  1  0.40133513  0.80911886  0.25056464  1
  Hf  Hf35  1  0.41658341  0.23332866  -0.00033355  1
  Hf  Hf36  1  0.39556786  0.39470178  0.23883725  1
  Hf  Hf37  1  -0.00610099  0.60269038  0.25420861  1
  Hf  Hf38  1  0.27736829  0.90500347  0.39143969  1
  Hf  Hf39  1  0.87982254  0.48262693  0.12792676  1
  Zr  Zr40  1  0.70567446  0.11368601  0.37112228  1
  Zr  Zr41  1  0.29259807  0.09739170  0.63391333  1
  Zr  Zr42  1  0.89340250  0.71050851  0.37395813  1
  Zr  Zr43  1  0.09062020  0.08897064  0.11519710  1
  Zr  Zr44  1  0.01443277  0.38345674  0.75779099  1
  Zr  Zr45  1  0.00598666  0.39385816  0.24757654  1
  Zr  Zr46  1  0.28628156  0.71368950  0.61220227  1
  Zr  Zr47  1  0.81359298  0.40854043  0.75057883  1
  Zr  Zr48  1  0.93450388  0.90399619  0.13130429  1
  Zr  Zr49  1  -0.00467396  0.58230393  0.75482800  1
  Zr  Zr50  1  0.69810014  0.70442906  0.88239094  1
  Zr  Zr51  1  0.19351535  -0.01809375  -0.01835163  1
  Zr  Zr52  1  0.11124107  0.30280876  0.37953077  1
  Zr  Zr53  1  0.60575285  0.80436594  0.24467058  1
  Zr  Zr54  1  0.10610254  0.70662206  0.11524434  1
  Zr  Zr55  1  0.80944254  0.19711909  0.50606394  1
  Zr  Zr56  1  0.28664079  0.48683975  0.09922368  1
  Zr  Zr57  1  0.90079792  0.10080116  0.63903361  1
  Zr  Zr58  1  0.40115089  0.19649494  0.76061071  1
  Zr  Zr59  1  0.90167182  0.48612037  0.60975394  1
  Zr  Zr60  1  0.69147851  0.89525419  0.87913364  1
  Zr  Zr61  1  0.70294342  0.29539969  0.86109834  1
  Zr  Zr62  1  0.41142672  0.20839761  0.50649443  1
  Zr  Zr63  1  0.52357741  0.30927014  0.36623165  1
  Zr  Zr64  1  0.89423445  0.68684112  0.63035756  1
  Zr  Zr65  1  0.18414400  -0.00046797  0.24964913  1
  Zr  Zr66  1  0.71370328  0.30371375  0.63520675  1
  Zr  Zr67  1  0.49568673  0.49523915  0.11066608  1
  Zr  Zr68  1  0.39484441  0.00766259  0.49227156  1
  Zr  Zr69  1  0.08244249  0.50103341  0.10076456  1
  Zr  Zr70  1  -0.00051571  0.19294164  -0.01861254  1
  Zr  Zr71  1  0.29788010  0.10860657  0.11951396  1
  Zr  Zr72  1  0.59283383  0.38305369  -0.01254000  1
  Zr  Zr73  1  0.90107519  0.29065676  0.37635431  1
  Zr  Zr74  1  0.49367211  0.72233039  0.87736124  1
  Zr  Zr75  1  0.18282407  0.59644988  0.50438856  1
  Zr  Zr76  1  0.49712337  0.50651550  0.63222800  1
  Zr  Zr77  1  0.69209465  0.09511624  0.88536080  1
  Zr  Zr78  1  0.49649269  0.10637898  0.12876735  1
  Zr  Zr79  1  0.11934708  0.89586865  0.63182507  1
  Ta  Ta80  1  0.39946388  0.39864459  0.50345334  1
  Ta  Ta81  1  0.89608342  0.49245460  0.37527531  1
  Ta  Ta82  1  0.69807405  0.50239651  0.87079722  1
  Ta  Ta83  1  0.40181512  0.41192719  0.76994308  1
  Ta  Ta84  1  0.31433871  0.29619275  0.37561564  1
  Ta  Ta85  1  0.09916033  0.10184092  0.64393472  1
  Ta  Ta86  1  0.30099749  0.90502976  0.12293647  1
  Ta  Ta87  1  0.00515693  -0.00063416  0.51062055  1
  Ta  Ta88  1  0.19129685  0.60746530  0.74663837  1
  Ta  Ta89  1  0.77801055  0.37850055  0.25801305  1
  Ta  Ta90  1  0.00677657  0.18648036  0.24973763  1
  Ta  Ta91  1  0.19379559  0.20716085  0.76355602  1
  Ta  Ta92  1  0.21075663  -0.00680538  0.76507402  1
  Ta  Ta93  1  0.49605324  0.70486863  0.11967527  1
  Ta  Ta94  1  0.38907684  0.00484533  0.26225755  1
  Ta  Ta95  1  0.09952324  0.49696781  0.89302623  1
  Ta  Ta96  1  0.30027985  0.31009952  0.63797374  1
  Ta  Ta97  1  0.79362186  0.79408682  0.74180558  1
  Ta  Ta98  1  0.20408463  0.40611892  0.76347162  1
  Ta  Ta99  1  0.70141585  0.50872422  0.62873365  1
  Ta  Ta100  1  0.40973913  0.82123375  0.01072816  1
  Ta  Ta101  1  0.70193466  0.12359113  0.13015260  1
  Ta  Ta102  1  0.60211182  0.80608381  0.50638963  1
  Ta  Ta103  1  0.30966085  0.88533558  0.87364529  1
  Ta  Ta104  1  0.79342928  0.80104578  0.50703639  1
  Ta  Ta105  1  0.59723014  0.39984770  0.51119428  1
  Ta  Ta106  1  0.59485435  0.59686830  0.24817724  1
  Ta  Ta107  1  0.40151274  -0.00886383  0.75342415  1
  Ta  Ta108  1  0.69247383  0.69835311  0.62605048  1
  Ta  Ta109  1  0.01580585  0.18731146  0.50617990  1
  Ta  Ta110  1  0.11871914  0.69100949  0.88250705  1
  Ta  Ta111  1  -0.01597150  0.38508495  -0.00817768  1
  Ta  Ta112  1  0.11305177  0.29863286  0.10964146  1
  Ta  Ta113  1  0.48921195  0.71084237  0.61367764  1
  Ta  Ta114  1  0.40349355  0.59669183  0.49953158  1
  Ta  Ta115  1  0.91912188  0.08563757  0.37601629  1
  Ta  Ta116  1  0.60656229  0.20321001  0.51692517  1
  Ta  Ta117  1  0.49925160  0.30610345  0.63927143  1
  Ta  Ta118  1  0.90205231  0.28932464  0.13152419  1
  Ta  Ta119  1  0.60546085  0.19445114  0.73749290  1
  Ti  Ti120  1  0.79294064  0.39746465  0.49459948  1
  Ti  Ti121  1  0.50205836  0.11041014  0.88478948  1
  Ti  Ti122  1  0.91858049  0.29292905  0.62410779  1
  Ti  Ti123  1  0.10284884  0.09406021  0.86021833  1
  Ti  Ti124  1  0.40416570  0.20394341  0.24642958  1
  Ti  Ti125  1  0.01199623  0.39302416  0.49945818  1
  Ti  Ti126  1  0.00197097  -0.00677228  0.76130177  1
  Ti  Ti127  1  0.68685978  0.48410259  0.12772391  1
  Ti  Ti128  1  0.09371174  0.49620140  0.37714200  1
  Ti  Ti129  1  0.59514990  0.40457075  0.75663449  1
  Ti  Ti130  1  0.39105885  0.01323663  -0.00827346  1
  Ti  Ti131  1  0.58983891  0.59815157  -0.00880685  1
  Ti  Ti132  1  0.59763665  0.60028745  0.50405578  1
  Ti  Ti133  1  0.78633846  0.59302958  0.25820642  1
  Ti  Ti134  1  0.07249390  0.90487395  0.37940477  1
  Ti  Ti135  1  0.79984953  0.00856789  0.01088152  1
  Ti  Ti136  1  0.53788749  0.29484510  0.14171517  1
  Ti  Ti137  1  0.49030886  0.49960909  0.37613943  1
  Ti  Ti138  1  0.50115048  0.90153622  0.38347534  1
  Ti  Ti139  1  0.89898158  0.10278201  0.13004523  1
  Ti  Ti140  1  0.39139609  0.80729560  0.74015505  1
  Ti  Ti141  1  0.89549594  0.49134077  0.88408019  1
  Ti  Ti142  1  0.30885463  0.90217327  0.61074960  1
  Ti  Ti143  1  0.20219733  0.39539607  0.23993402  1
  Ti  Ti144  1  0.11137031  0.09395971  0.38081650  1
  Ti  Ti145  1  0.28909171  0.51542503  0.87953473  1
  Ti  Ti146  1  0.50025002  0.91494181  0.88043288  1
  Ti  Ti147  1  0.39005404  0.61170835  0.75760962  1
  Ti  Ti148  1  -0.00943391  0.19586855  0.76905036  1
  Ti  Ti149  1  -0.00659043  0.59462480  0.49481552  1
  Ti  Ti150  1  0.69644761  0.90339798  0.62043234  1
  Ti  Ti151  1  0.90148672  0.89620823  0.63554747  1
  Ti  Ti152  1  0.49763069  0.09517326  0.62282239  1
  Ti  Ti153  1  0.70321345  0.89043101  0.38114717  1
  Ti  Ti154  1  0.88959391  0.89475938  0.86317737  1
  Ti  Ti155  1  0.60102186  0.00340093  0.50488494  1
  Ti  Ti156  1  0.22315310  0.78670883  0.00189781  1
  Ti  Ti157  1  0.10279509  0.49115551  0.62344599  1
  Ti  Ti158  1  0.30263351  0.30786792  0.87329629  1
  Ti  Ti159  1  0.11156436  0.29763383  0.62493434  1
  Mo  Mo160  1  0.62562173  0.21239519  0.25058300  1
  Mo  Mo161  1  0.00448495  0.80853852  0.25293053  1
  Mo  Mo162  1  0.40536578  0.80326173  0.49705523  1
  Mo  Mo163  1  0.70170541  0.30340733  0.38985171  1
  Mo  Mo164  1  0.30718591  0.70497980  0.12588501  1
  Mo  Mo165  1  0.30137782  0.70567505  0.86523397  1
  Mo  Mo166  1  0.20403184  0.39320726  0.50970361  1
  Mo  Mo167  1  0.78911639  0.60052424  0.75427984  1
  Mo  Mo168  1  0.09530014  0.68440988  0.62405640  1
  Mo  Mo169  1  0.59811062  0.41201183  0.24717417  1
  Mo  Mo170  1  0.81383734  0.19778226  0.24993741  1
  Mo  Mo171  1  0.89778378  0.90273167  0.38045159  1
  Mo  Mo172  1  0.21201362  0.79519529  0.75315965  1
  Mo  Mo173  1  0.89903929  0.29893282  0.87119010  1
  Mo  Mo174  1  0.30182050  0.10853248  0.36834334  1
  Mo  Mo175  1  0.70826656  0.90868779  0.12651729  1
  Mo  Mo176  1  0.39534964  0.41341471  -0.03450884  1
  Mo  Mo177  1  0.10421571  0.89062482  0.85681766  1
  Mo  Mo178  1  0.79730530  0.39877516  -0.00444182  1
  Mo  Mo179  1  0.59385936  0.79576425  0.01628789  1
  Mo  Mo180  1  0.49766198  0.50806105  0.87185917  1
  Mo  Mo181  1  0.49128818  0.90416656  0.61497942  1
  Mo  Mo182  1  0.31215463  0.09304004  0.87292525  1
  Mo  Mo183  1  0.19678537  0.60424393  -0.00360318  1
  Mo  Mo184  1  0.80442922  0.19595969  0.75211790  1
  Mo  Mo185  1  0.11155067  0.89895282  0.11513113  1
  Mo  Mo186  1  0.69163244  0.09759662  0.62094620  1
  Mo  Mo187  1  0.48742736  0.90810363  0.13317893  1
  Mo  Mo188  1  0.19863477  0.38983499  -0.01828834  1
  Mo  Mo189  1  -0.00631134  0.59467025  -0.00917650  1
  Mo  Mo190  1  0.71597723  0.31122073  0.12201092  1
  Mo  Mo191  1  0.00172352  0.00156788  0.25639456  1
  Mo  Mo192  1  0.18968150  0.81057761  0.49657503  1
  Mo  Mo193  1  0.50562718  0.29926034  0.85595449  1
  Mo  Mo194  1  0.60308618  0.19458588  0.00367750  1
  Mo  Mo195  1  0.18067538  0.01332252  0.50393935  1
  Mo  Mo196  1  0.89073795  0.09472277  0.86028507  1
  Mo  Mo197  1  0.29930029  0.30365703  0.11487810  1
  Mo  Mo198  1  0.10470691  0.29967027  0.87844425  1
  Mo  Mo199  1  0.69285363  0.70116195  0.37713083  1
