# generated using pymatgen
data_HfZrTaTiMo
_symmetry_space_group_name_H-M   'P 1'
_cell_length_a   15.21342470
_cell_length_b   15.19864993
_cell_length_c   16.83642819
_cell_angle_alpha   89.98884098
_cell_angle_beta   89.94037405
_cell_angle_gamma   89.89339837
_symmetry_Int_Tables_number   1
_chemical_formula_structural   HfZrTaTiMo
_chemical_formula_sum   'Hf40 Zr40 Ta40 Ti40 Mo40'
_cell_volume   3892.96920821
_cell_formula_units_Z   40
loop_
 _symmetry_equiv_pos_site_id
 _symmetry_equiv_pos_as_xyz
  1  'x, y, z'
loop_
 _atom_site_type_symbol
 _atom_site_label
 _atom_site_symmetry_multiplicity
 _atom_site_fract_x
 _atom_site_fract_y
 _atom_site_fract_z
 _atom_site_occupancy
  Hf  Hf0  1  0.10822120  0.30631193  0.88339366  1
  Hf  Hf1  1  0.90452914  0.29967087  0.38852150  1
  Hf  Hf2  1  0.40132068  0.00141218  0.50011850  1
  Hf  Hf3  1  0.32076442  0.49499304  0.88136102  1
  Hf  Hf4  1  0.60718489  0.79799545  0.74622902  1
  Hf  Hf5  1  0.89509934  0.89681540  0.61348105  1
  Hf  Hf6  1  0.70711717  0.29581528  0.13034883  1
  Hf  Hf7  1  0.69545215  0.90888639  0.61263570  1
  Hf  Hf8  1  0.19140606  0.01035796  0.50872569  1
  Hf  Hf9  1  0.10090481  0.09280612  0.87719093  1
  Hf  Hf10  1  0.10434480  0.70532639  0.89268129  1
  Hf  Hf11  1  0.60580046  0.41609908  0.01252645  1
  Hf  Hf12  1  0.68450729  0.50661445  0.87052918  1
  Hf  Hf13  1  0.88753153  0.50625475  0.12990065  1
  Hf  Hf14  1  0.50791748  0.29417213  0.62399121  1
  Hf  Hf15  1  0.28759299  0.10917296  0.37971477  1
  Hf  Hf16  1  0.49070928  0.89542376  0.88482754  1
  Hf  Hf17  1  0.40479515  0.40861035  0.50366971  1
  Hf  Hf18  1  0.38953310  0.00882484  0.25240414  1
  Hf  Hf19  1  0.20476487  0.18842649  0.24135115  1
  Hf  Hf20  1  0.20786626  0.39424380  0.23656283  1
  Hf  Hf21  1  0.90738463  0.69150054  0.61761787  1
  Hf  Hf22  1  0.09289383  0.71048264  0.13351502  1
  Hf  Hf23  1  0.80122497  0.59756800  0.74749232  1
  Hf  Hf24  1  0.21820527  0.19696441  0.00118824  1
  Hf  Hf25  1  0.50721684  0.67620481  0.87591055  1
  Hf  Hf26  1  0.28751654  0.90030235  0.88578898  1
  Hf  Hf27  1  0.10214803  0.50856820  0.36173581  1
  Hf  Hf28  1  0.11268199  0.28682859  0.37972100  1
  Hf  Hf29  1  -0.01366021  -0.00029830  -0.00119472  1
  Hf  Hf30  1  -0.00548959  -0.00857064  0.75374436  1
  Hf  Hf31  1  0.39419185  0.60815071  0.50380808  1
  Hf  Hf32  1  0.09158871  0.89547570  0.61899123  1
  Hf  Hf33  1  -0.00350238  -0.00938469  0.24264060  1
  Hf  Hf34  1  0.00269103  0.40024895  0.75202210  1
  Hf  Hf35  1  0.49434891  0.89779498  0.37700426  1
  Hf  Hf36  1  0.69512425  0.67836078  0.13149338  1
  Hf  Hf37  1  0.19447383  0.79692843  0.74900387  1
  Hf  Hf38  1  0.69422280  0.10582722  0.63882938  1
  Hf  Hf39  1  0.00673770  0.59716124  0.75720339  1
  Zr  Zr40  1  0.90064158  0.51465038  0.38404005  1
  Zr  Zr41  1  0.59800599  0.79761339  0.49244496  1
  Zr  Zr42  1  0.20552530  0.79063777  0.49961599  1
  Zr  Zr43  1  0.20918876  0.39349952  0.49556556  1
  Zr  Zr44  1  0.61449262  0.41229347  0.25172450  1
  Zr  Zr45  1  0.71021941  0.91367656  0.38980140  1
  Zr  Zr46  1  0.19574902  0.21039373  0.74392831  1
  Zr  Zr47  1  0.70942727  0.70610926  0.88053464  1
  Zr  Zr48  1  0.11006434  0.68812184  0.62296922  1
  Zr  Zr49  1  0.40950958  0.40359699  0.02499938  1
  Zr  Zr50  1  0.09767496  0.09601430  0.11301810  1
  Zr  Zr51  1  0.11122972  0.50579939  0.89089149  1
  Zr  Zr52  1  0.71173146  0.88565497  0.11753401  1
  Zr  Zr53  1  0.69748206  0.90611120  0.88473158  1
  Zr  Zr54  1  0.59242259  0.21047036  -0.00485280  1
  Zr  Zr55  1  0.59001871  0.41949225  0.74213839  1
  Zr  Zr56  1  0.49721900  0.31271503  0.86834548  1
  Zr  Zr57  1  0.39544277  0.79913797  0.23880328  1
  Zr  Zr58  1  0.30512365  0.09969308  0.86370136  1
  Zr  Zr59  1  0.90735236  0.29547760  0.61588351  1
  Zr  Zr60  1  0.79291085  0.20083750  -0.01524518  1
  Zr  Zr61  1  0.49441179  0.51114137  0.36265058  1
  Zr  Zr62  1  0.38904555  0.20833372  0.50270770  1
  Zr  Zr63  1  0.09278036  0.29701513  0.11750908  1
  Zr  Zr64  1  0.50090855  0.90660570  0.11720978  1
  Zr  Zr65  1  0.09706345  0.88869808  0.37329371  1
  Zr  Zr66  1  0.89109591  0.08414802  0.37846925  1
  Zr  Zr67  1  0.39910758  0.80099461  0.74207907  1
  Zr  Zr68  1  0.09058748  0.50234630  0.13072427  1
  Zr  Zr69  1  0.30175033  0.70174093  0.36409071  1
  Zr  Zr70  1  0.88595845  0.10828026  0.12470109  1
  Zr  Zr71  1  0.70810258  0.30304061  0.63034357  1
  Zr  Zr72  1  -0.00985113  0.20371708  0.25412268  1
  Zr  Zr73  1  0.49274264  0.12365600  0.12816512  1
  Zr  Zr74  1  0.60815904  0.59732254  0.48815282  1
  Zr  Zr75  1  0.22338457  0.60168577  0.02408739  1
  Zr  Zr76  1  0.78905554  0.19000708  0.49348642  1
  Zr  Zr77  1  0.60048222  -0.00032045  0.25122988  1
  Zr  Zr78  1  0.41414808  0.58456401  0.73360373  1
  Zr  Zr79  1  0.30932629  0.69642954  0.88446087  1
  Ta  Ta80  1  0.88858200  0.09459873  0.86689874  1
  Ta  Ta81  1  0.30316736  0.50054827  0.35467903  1
  Ta  Ta82  1  -0.01650646  0.60880111  0.00635821  1
  Ta  Ta83  1  0.59977454  0.20563062  0.26241019  1
  Ta  Ta84  1  0.89209755  0.89019504  0.87827125  1
  Ta  Ta85  1  0.09437018  0.49681692  0.61886588  1
  Ta  Ta86  1  0.60589290  0.79113648  0.25918319  1
  Ta  Ta87  1  0.28835694  0.50702301  0.62070990  1
  Ta  Ta88  1  0.79981382  -0.01172454  0.24465062  1
  Ta  Ta89  1  0.80890928  0.80307757  0.74515531  1
  Ta  Ta90  1  0.80234250  0.39799968  -0.01384107  1
  Ta  Ta91  1  0.58326528  -0.00084152  0.75334171  1
  Ta  Ta92  1  0.80572854  0.39416884  0.76065141  1
  Ta  Ta93  1  0.59561116  0.78424016  0.00479420  1
  Ta  Ta94  1  0.20374664  0.40886959  0.74442235  1
  Ta  Ta95  1  0.50128238  0.09407289  0.62645849  1
  Ta  Ta96  1  0.39445552  0.01065391  0.00210897  1
  Ta  Ta97  1  0.69403482  0.09607204  0.12756665  1
  Ta  Ta98  1  0.90208408  0.70088410  0.87927874  1
  Ta  Ta99  1  0.30134063  0.90248963  0.62656498  1
  Ta  Ta100  1  0.70326488  0.50657636  0.61873224  1
  Ta  Ta101  1  0.09652440  0.89683181  0.11738636  1
  Ta  Ta102  1  -0.00791535  0.40533278  -0.00311021  1
  Ta  Ta103  1  0.19858112  -0.00503986  0.74228034  1
  Ta  Ta104  1  0.49581990  0.10082122  0.87086573  1
  Ta  Ta105  1  0.21010145  0.59709457  0.75079559  1
  Ta  Ta106  1  0.69032949  0.11012735  0.85589622  1
  Ta  Ta107  1  0.40613655  0.19824694  0.74167590  1
  Ta  Ta108  1  0.39928944  0.79859761  0.50960821  1
  Ta  Ta109  1  0.89651155  0.31057236  0.12338203  1
  Ta  Ta110  1  0.51133479  0.69565586  0.62437172  1
  Ta  Ta111  1  0.29917350  0.10175783  0.63265409  1
  Ta  Ta112  1  0.89742254  0.49671573  0.61163061  1
  Ta  Ta113  1  0.21004253  0.61072482  0.23834810  1
  Ta  Ta114  1  0.60502260  0.39408014  0.49032028  1
  Ta  Ta115  1  0.21273884  0.39786440  0.01941880  1
  Ta  Ta116  1  0.29973719  0.08881237  0.12206012  1
  Ta  Ta117  1  -0.01264125  0.20148413  0.75912820  1
  Ta  Ta118  1  0.80484812  0.39114211  0.26482673  1
  Ta  Ta119  1  -0.01305580  0.20810727  -0.01484853  1
  Ti  Ti120  1  0.31164850  0.30562383  0.36218703  1
  Ti  Ti121  1  0.89008215  0.71503473  0.14322359  1
  Ti  Ti122  1  0.08870356  0.10226533  0.63295968  1
  Ti  Ti123  1  0.49953912  0.30205016  0.36989590  1
  Ti  Ti124  1  -0.01668339  0.80170161  0.00770412  1
  Ti  Ti125  1  0.19747568  -0.01298726  0.24622087  1
  Ti  Ti126  1  0.41197508  0.39916187  0.23351304  1
  Ti  Ti127  1  0.78971493  0.58944502  0.25654698  1
  Ti  Ti128  1  0.78847228  0.19461468  0.26415251  1
  Ti  Ti129  1  0.71009620  0.70171892  0.61931026  1
  Ti  Ti130  1  0.79427108  -0.00571548  0.75177138  1
  Ti  Ti131  1  0.89907662  0.88830233  0.37694007  1
  Ti  Ti132  1  0.91204566  0.70143194  0.35959188  1
  Ti  Ti133  1  0.30673214  0.30259158  0.87734656  1
  Ti  Ti134  1  0.38852975  0.39508237  0.73219368  1
  Ti  Ti135  1  0.50115912  0.90510546  0.62038019  1
  Ti  Ti136  1  0.09487432  0.09152418  0.37374541  1
  Ti  Ti137  1  -0.00260181  0.79650074  0.75615476  1
  Ti  Ti138  1  0.01206580  0.18692813  0.50265549  1
  Ti  Ti139  1  0.79489533  -0.00214853  -0.00016619  1
  Ti  Ti140  1  0.59673663  0.19462788  0.48689812  1
  Ti  Ti141  1  0.19390764  0.59607434  0.48848346  1
  Ti  Ti142  1  0.80629365  0.78808640  0.49265281  1
  Ti  Ti143  1  0.79000351  0.40787080  0.49009217  1
  Ti  Ti144  1  0.00467161  0.77784849  0.48781035  1
  Ti  Ti145  1  0.49772042  0.10468272  0.37476060  1
  Ti  Ti146  1  0.79128143  0.59647105  0.00161473  1
  Ti  Ti147  1  0.09385145  0.89636593  0.88786510  1
  Ti  Ti148  1  0.89364912  0.09624159  0.63118523  1
  Ti  Ti149  1  0.39473922  0.78657101  0.01505932  1
  Ti  Ti150  1  -0.00943434  -0.00176953  0.49865210  1
  Ti  Ti151  1  0.59831018  0.00953159  -0.00230419  1
  Ti  Ti152  1  0.89886867  0.50445430  0.88124318  1
  Ti  Ti153  1  0.00885522  0.40492161  0.49797365  1
  Ti  Ti154  1  0.71220207  0.69361792  0.37089969  1
  Ti  Ti155  1  0.10545031  0.29918697  0.61893707  1
  Ti  Ti156  1  0.29434307  0.90284983  0.37647932  1
  Ti  Ti157  1  0.28437277  0.89467264  0.11277880  1
  Ti  Ti158  1  -0.00454495  0.40144086  0.25436098  1
  Ti  Ti159  1  0.32450139  0.28210051  0.13014454  1
  Mo  Mo160  1  0.69709786  0.29893528  0.37652241  1
  Mo  Mo161  1  0.19415248  0.80339154  0.00583826  1
  Mo  Mo162  1  0.19579470  0.81380836  0.24631827  1
  Mo  Mo163  1  -0.00499372  0.60527848  0.24622022  1
  Mo  Mo164  1  0.50705284  0.49784915  0.60889026  1
  Mo  Mo165  1  0.40119345  0.20674268  0.26097371  1
  Mo  Mo166  1  0.59498184  0.20163776  0.75499814  1
  Mo  Mo167  1  0.49972547  0.70673773  0.37125718  1
  Mo  Mo168  1  0.59741849  0.59643323  0.00603722  1
  Mo  Mo169  1  -0.01188020  0.80435556  0.24803746  1
  Mo  Mo170  1  0.59563406  0.01768279  0.49963052  1
  Mo  Mo171  1  0.71457019  0.49341912  0.12795201  1
  Mo  Mo172  1  0.79688710  0.79896535  0.26116096  1
  Mo  Mo173  1  0.70749496  0.49891376  0.38143235  1
  Mo  Mo174  1  0.29760056  0.30342244  0.63015486  1
  Mo  Mo175  1  0.40535420  0.60044829  0.23166863  1
  Mo  Mo176  1  0.60823470  0.60641452  0.73309805  1
  Mo  Mo177  1  0.30818134  0.49827403  0.14313529  1
  Mo  Mo178  1  0.51868928  0.51899406  0.14258665  1
  Mo  Mo179  1  0.70346757  0.30633848  0.86322624  1
  Mo  Mo180  1  0.19845936  -0.00508557  0.00073617  1
  Mo  Mo181  1  0.09321228  0.69431305  0.35289032  1
  Mo  Mo182  1  0.81053277  0.78700613  0.00429931  1
  Mo  Mo183  1  0.30434483  0.69913542  0.62488338  1
  Mo  Mo184  1  0.89751626  0.89729767  0.12355618  1
  Mo  Mo185  1  0.40048082  0.20151749  -0.00366043  1
  Mo  Mo186  1  0.30161286  0.70863315  0.12862232  1
  Mo  Mo187  1  0.19050433  0.19683325  0.51660363  1
  Mo  Mo188  1  0.80112367  -0.00155935  0.50826960  1
  Mo  Mo189  1  0.39793249  -0.00234980  0.74157443  1
  Mo  Mo190  1  0.42477959  0.60167623  0.02743422  1
  Mo  Mo191  1  0.49446310  0.50241929  0.87819363  1
  Mo  Mo192  1  0.60327105  0.61034854  0.26726141  1
  Mo  Mo193  1  0.68964449  0.09999665  0.37112237  1
  Mo  Mo194  1  0.80428638  0.19998236  0.75727409  1
  Mo  Mo195  1  0.50737956  0.70572416  0.12751722  1
  Mo  Mo196  1  0.80548305  0.60682234  0.50084103  1
  Mo  Mo197  1  0.90410662  0.30555588  0.87281891  1
  Mo  Mo198  1  0.50964024  0.30195204  0.13924553  1
  Mo  Mo199  1  0.00804835  0.59769127  0.49717093  1
