# generated using pymatgen
data_HfZrTaTiMo
_symmetry_space_group_name_H-M   'P 1'
_cell_length_a   15.17239902
_cell_length_b   15.18295971
_cell_length_c   16.82614911
_cell_angle_alpha   90.06733535
_cell_angle_beta   90.00942332
_cell_angle_gamma   89.99611126
_symmetry_Int_Tables_number   1
_chemical_formula_structural   HfZrTaTiMo
_chemical_formula_sum   'Hf40 Zr40 Ta40 Ti40 Mo40'
_cell_volume   3876.10132968
_cell_formula_units_Z   40
loop_
 _symmetry_equiv_pos_site_id
 _symmetry_equiv_pos_as_xyz
  1  'x, y, z'
loop_
 _atom_site_type_symbol
 _atom_site_label
 _atom_site_symmetry_multiplicity
 _atom_site_fract_x
 _atom_site_fract_y
 _atom_site_fract_z
 _atom_site_occupancy
  Hf  Hf0  1  0.40727385  0.21224278  0.02882305  1
  Hf  Hf1  1  0.69422958  0.69286145  0.12451287  1
  Hf  Hf2  1  0.07328818  0.30067054  0.38545122  1
  Hf  Hf3  1  0.20236648  0.22081928  0.01659783  1
  Hf  Hf4  1  0.59247830  0.79339844  0.50620702  1
  Hf  Hf5  1  0.52709854  0.49232081  0.63260537  1
  Hf  Hf6  1  0.11500755  0.10446633  0.87843182  1
  Hf  Hf7  1  0.10791605  0.70499332  0.38264746  1
  Hf  Hf8  1  0.18568581  0.40950952  0.27093188  1
  Hf  Hf9  1  0.10927279  0.10543394  0.61822365  1
  Hf  Hf10  1  0.91683598  0.49238558  0.12867229  1
  Hf  Hf11  1  0.39346629  0.18834463  0.48061081  1
  Hf  Hf12  1  -0.00183851  -0.00230048  0.00507105  1
  Hf  Hf13  1  0.70636541  0.11411298  0.37279031  1
  Hf  Hf14  1  0.68987292  0.67663550  0.62782993  1
  Hf  Hf15  1  0.40010274  0.60975819  -0.02705521  1
  Hf  Hf16  1  0.70205019  0.90303987  0.37952735  1
  Hf  Hf17  1  0.01028058  -0.00321060  0.74754290  1
  Hf  Hf18  1  0.40320083  0.21773474  0.24562231  1
  Hf  Hf19  1  0.01510897  0.41105399  -0.01068954  1
  Hf  Hf20  1  0.89874539  0.48160724  0.36884077  1
  Hf  Hf21  1  0.49691099  0.89252317  0.13745879  1
  Hf  Hf22  1  0.49944643  0.70739294  0.85754565  1
  Hf  Hf23  1  0.59206739  0.59674503  0.25489895  1
  Hf  Hf24  1  -0.00163613  0.19997948  0.75036192  1
  Hf  Hf25  1  0.80089646  0.38209667  0.23759255  1
  Hf  Hf26  1  0.29239061  0.31216355  0.87399539  1
  Hf  Hf27  1  0.90221338  0.90146487  0.61721250  1
  Hf  Hf28  1  0.41266245  0.38747413  0.50291623  1
  Hf  Hf29  1  0.70333250  0.90092010  0.87145451  1
  Hf  Hf30  1  0.40716554  0.38819176  0.74205802  1
  Hf  Hf31  1  0.89629029  0.50375985  0.87678395  1
  Hf  Hf32  1  0.20363773  0.61151350  0.51487680  1
  Hf  Hf33  1  0.59275269  0.21843525  0.50138502  1
  Hf  Hf34  1  0.70476369  0.68011913  0.86585080  1
  Hf  Hf35  1  0.79166988  0.00005368  0.00719268  1
  Hf  Hf36  1  0.10547877  0.91004362  0.37831256  1
  Hf  Hf37  1  0.00159162  0.79402567  0.25057394  1
  Hf  Hf38  1  0.51108146  0.92493531  0.87927205  1
  Hf  Hf39  1  0.09452765  0.10388050  0.13085388  1
  Zr  Zr40  1  0.41176225  0.00926204  0.01309128  1
  Zr  Zr41  1  0.80726813  0.58030907  0.74214421  1
  Zr  Zr42  1  0.48713866  0.51822426  0.11993941  1
  Zr  Zr43  1  0.80108513  0.59106700  0.00551277  1
  Zr  Zr44  1  0.41171894  0.61058777  0.52979382  1
  Zr  Zr45  1  0.79826644  0.38764988  0.00430153  1
  Zr  Zr46  1  0.10722126  0.88931723  0.87895809  1
  Zr  Zr47  1  0.39284600  0.40931860  0.25335380  1
  Zr  Zr48  1  0.59286027  0.79478185  -0.00105736  1
  Zr  Zr49  1  0.49232336  0.90025196  0.36764872  1
  Zr  Zr50  1  0.81659670  0.00515244  0.25261428  1
  Zr  Zr51  1  0.30069422  0.91217105  0.86801603  1
  Zr  Zr52  1  0.80641863  0.79244447  0.73803150  1
  Zr  Zr53  1  0.69782197  0.90285154  0.13409370  1
  Zr  Zr54  1  0.00819979  0.77976444  0.73971985  1
  Zr  Zr55  1  0.10151768  0.30075065  0.61764259  1
  Zr  Zr56  1  0.19280547  0.21493463  0.24694298  1
  Zr  Zr57  1  0.90870683  0.89721104  0.38585274  1
  Zr  Zr58  1  0.29753852  0.08587075  0.35075171  1
  Zr  Zr59  1  0.78694414  0.19808196  0.74908340  1
  Zr  Zr60  1  0.08637549  0.51237876  0.62194766  1
  Zr  Zr61  1  0.08962798  0.10196175  0.37004879  1
  Zr  Zr62  1  0.30317873  0.88824080  0.36304664  1
  Zr  Zr63  1  0.21474743  0.60539151  0.25789295  1
  Zr  Zr64  1  0.41835349  0.02385489  0.75106761  1
  Zr  Zr65  1  -0.00731741  0.40189550  0.75052439  1
  Zr  Zr66  1  0.20967269  0.00237035  0.01085229  1
  Zr  Zr67  1  0.31303499  0.51835833  0.39088769  1
  Zr  Zr68  1  0.90538496  0.88645969  0.87364684  1
  Zr  Zr69  1  0.40070335  0.80901591  0.73034664  1
  Zr  Zr70  1  0.19939091  0.58398906  -0.01012275  1
  Zr  Zr71  1  0.81577020  0.78785123  -0.00082871  1
  Zr  Zr72  1  0.21223332  0.80957929  0.51540815  1
  Zr  Zr73  1  0.60265910  0.78969616  0.26044721  1
  Zr  Zr74  1  0.57851806  0.20275334  0.74050326  1
  Zr  Zr75  1  0.31644962  0.68675351  0.11915862  1
  Zr  Zr76  1  0.38302538  0.41078842  -0.00122797  1
  Zr  Zr77  1  0.89307292  0.09537778  0.87236707  1
  Zr  Zr78  1  0.80156520  0.78550747  0.50464172  1
  Zr  Zr79  1  0.60125271  0.81243129  0.73578754  1
  Ta  Ta80  1  0.50559530  0.09772276  0.35501590  1
  Ta  Ta81  1  0.70631044  0.10588076  0.13794450  1
  Ta  Ta82  1  0.79711554  0.19230387  0.00356772  1
  Ta  Ta83  1  0.40354037  0.81106207  0.52206866  1
  Ta  Ta84  1  0.80592741  0.57694408  0.50543992  1
  Ta  Ta85  1  0.79842314  0.01026895  0.50206373  1
  Ta  Ta86  1  0.48464306  0.68921606  0.38457945  1
  Ta  Ta87  1  0.51685705  0.09696826  0.14765080  1
  Ta  Ta88  1  0.29840088  0.89333326  0.13481394  1
  Ta  Ta89  1  0.01019476  0.58786133  0.25624412  1
  Ta  Ta90  1  0.10432046  0.91308616  0.61658376  1
  Ta  Ta91  1  0.19810918  0.79750190  0.24305700  1
  Ta  Ta92  1  0.70679225  0.49813810  0.36834251  1
  Ta  Ta93  1  0.87895550  0.28655616  0.38329478  1
  Ta  Ta94  1  0.59052486  0.39318366  0.00043589  1
  Ta  Ta95  1  0.39721677  0.59652280  0.74310384  1
  Ta  Ta96  1  0.69160224  0.49197857  0.12802620  1
  Ta  Ta97  1  0.28372014  0.70481223  0.85549963  1
  Ta  Ta98  1  0.80667987  0.78842439  0.25563449  1
  Ta  Ta99  1  0.58895293  0.00861887  0.49476765  1
  Ta  Ta100  1  0.09129803  0.32970968  0.12945793  1
  Ta  Ta101  1  -0.02150451  0.40003916  0.50848349  1
  Ta  Ta102  1  0.50594961  0.49410112  0.86460214  1
  Ta  Ta103  1  -0.02731678  0.20952003  0.23831193  1
  Ta  Ta104  1  0.20297238  0.39954568  0.49476060  1
  Ta  Ta105  1  0.67669753  0.09620350  0.87751282  1
  Ta  Ta106  1  0.51669268  0.48782758  0.38256857  1
  Ta  Ta107  1  0.30292477  0.93214302  0.62933484  1
  Ta  Ta108  1  0.90209493  0.68288853  0.37747116  1
  Ta  Ta109  1  0.68735074  0.31386745  0.37237952  1
  Ta  Ta110  1  0.69656374  0.91220048  0.61501709  1
  Ta  Ta111  1  0.69185457  0.10093091  0.61840177  1
  Ta  Ta112  1  0.31736598  0.11974329  0.87889872  1
  Ta  Ta113  1  0.19857029  0.78749814  0.00265834  1
  Ta  Ta114  1  0.90595611  0.89148401  0.12633021  1
  Ta  Ta115  1  0.80230449  0.59789311  0.24590315  1
  Ta  Ta116  1  0.09097196  0.50564632  0.39606041  1
  Ta  Ta117  1  -0.00686818  0.20779084  0.00707629  1
  Ta  Ta118  1  0.49559255  0.28806229  0.88131176  1
  Ta  Ta119  1  0.19822104  0.81415528  0.73172921  1
  Ti  Ti120  1  0.69190002  0.29403368  0.88361104  1
  Ti  Ti121  1  0.29732890  0.49448510  0.62741072  1
  Ti  Ti122  1  0.89009396  0.29722343  0.62392711  1
  Ti  Ti123  1  0.21838602  0.01256305  0.49638524  1
  Ti  Ti124  1  0.39193795  0.80442716  -0.00481144  1
  Ti  Ti125  1  0.89627483  0.29432613  0.87750379  1
  Ti  Ti126  1  0.89784734  0.10007475  0.62292104  1
  Ti  Ti127  1  0.59985128  0.18959508  0.01002553  1
  Ti  Ti128  1  0.00611958  0.79078053  0.50810652  1
  Ti  Ti129  1  0.59924496  0.58872556  -0.00818793  1
  Ti  Ti130  1  0.69272489  0.29364681  0.12169963  1
  Ti  Ti131  1  0.09914916  0.30119453  0.87226830  1
  Ti  Ti132  1  0.79194093  0.00037508  0.74181819  1
  Ti  Ti133  1  0.48928871  0.09912344  0.61330856  1
  Ti  Ti134  1  0.91668381  0.67221502  0.61681688  1
  Ti  Ti135  1  0.30081473  0.11370211  0.62547297  1
  Ti  Ti136  1  0.30213774  0.09436281  0.14470121  1
  Ti  Ti137  1  0.10165602  0.68850813  0.12602630  1
  Ti  Ti138  1  0.70494104  0.68862618  0.37959284  1
  Ti  Ti139  1  0.90373080  0.10688930  0.38322008  1
  Ti  Ti140  1  0.20826818  0.20218480  0.75057379  1
  Ti  Ti141  1  0.79572120  0.20389231  0.51125845  1
  Ti  Ti142  1  0.30068240  0.29554168  0.61981504  1
  Ti  Ti143  1  0.39995447  0.77204034  0.24748402  1
  Ti  Ti144  1  0.61380237  0.39667165  0.75914295  1
  Ti  Ti145  1  0.00426759  -0.00171936  0.24194924  1
  Ti  Ti146  1  0.79410359  0.38812316  0.74979809  1
  Ti  Ti147  1  0.27194549  0.48297631  0.12645517  1
  Ti  Ti148  1  0.00507748  0.62034900  -0.00925016  1
  Ti  Ti149  1  0.78083196  0.39238842  0.50873512  1
  Ti  Ti150  1  0.20015692  0.20593505  0.48632211  1
  Ti  Ti151  1  0.60567848  0.21270301  0.24948906  1
  Ti  Ti152  1  0.90993502  0.69487000  0.13072139  1
  Ti  Ti153  1  0.60990944  0.58733643  0.49543237  1
  Ti  Ti154  1  0.00073902  0.01132646  0.50352627  1
  Ti  Ti155  1  0.58987169  0.39614947  0.24201732  1
  Ti  Ti156  1  0.10072037  0.88932343  0.12156317  1
  Ti  Ti157  1  0.20251491  0.40472904  0.74413052  1
  Ti  Ti158  1  0.19044286  0.61404711  0.73680443  1
  Ti  Ti159  1  0.10979609  0.50948527  0.85665565  1
  Mo  Mo160  1  0.79463090  0.20224497  0.24827298  1
  Mo  Mo161  1  0.29049288  0.31019548  0.12870377  1
  Mo  Mo162  1  0.19034779  -0.01166229  0.23414377  1
  Mo  Mo163  1  0.09748416  0.70912828  0.61651595  1
  Mo  Mo164  1  0.20589133  0.01489327  0.74709229  1
  Mo  Mo165  1  0.29730382  0.70436075  0.64372109  1
  Mo  Mo166  1  0.89532400  0.48560657  0.62264506  1
  Mo  Mo167  1  0.60395613  0.01082013  0.01087276  1
  Mo  Mo168  1  0.61259157  0.01175618  0.74138448  1
  Mo  Mo169  1  0.40173669  -0.00216674  0.23647486  1
  Mo  Mo170  1  0.38799552  0.20691354  0.74803683  1
  Mo  Mo171  1  0.09666114  0.51326106  0.12736071  1
  Mo  Mo172  1  0.10686550  0.69933592  0.87188142  1
  Mo  Mo173  1  0.91429109  0.69198790  0.87340621  1
  Mo  Mo174  1  0.60646189  0.00545654  0.25949116  1
  Mo  Mo175  1  0.00149858  0.60018902  0.75599891  1
  Mo  Mo176  1  0.29487412  0.50697375  0.84623335  1
  Mo  Mo177  1  0.49201069  0.29142092  0.62195909  1
  Mo  Mo178  1  0.50634081  0.91747969  0.61491949  1
  Mo  Mo179  1  0.31108496  0.71134689  0.38227097  1
  Mo  Mo180  1  0.60694712  0.40485700  0.49771945  1
  Mo  Mo181  1  0.50460242  0.69942545  0.63524953  1
  Mo  Mo182  1  0.50041550  0.70018023  0.11492032  1
  Mo  Mo183  1  -0.00040045  0.39510856  0.25593804  1
  Mo  Mo184  1  0.01031242  0.79201537  0.01237977  1
  Mo  Mo185  1  0.39837368  0.00051664  0.49847098  1
  Mo  Mo186  1  0.50290653  0.29852809  0.36704538  1
  Mo  Mo187  1  0.51117962  0.30781673  0.12456798  1
  Mo  Mo188  1  0.40782678  0.59870127  0.25809581  1
  Mo  Mo189  1  0.19031861  0.40503345  -0.01033516  1
  Mo  Mo190  1  0.29141008  0.30300183  0.38522495  1
  Mo  Mo191  1  0.59749368  0.58817082  0.75751461  1
  Mo  Mo192  1  0.70774693  0.48354940  0.62604142  1
  Mo  Mo193  1  0.89976894  0.09692557  0.12029181  1
  Mo  Mo194  1  0.69198769  0.48153867  0.87877530  1
  Mo  Mo195  1  -0.01812505  0.19900953  0.50840750  1
  Mo  Mo196  1  0.50188547  0.11520809  0.88591076  1
  Mo  Mo197  1  0.90109896  0.29223264  0.11504772  1
  Mo  Mo198  1  0.69298727  0.30601420  0.62769251  1
  Mo  Mo199  1  -0.00811077  0.60150454  0.49218908  1
