# generated using pymatgen
data_HfZrTaTiMo
_symmetry_space_group_name_H-M   'P 1'
_cell_length_a   15.21844185
_cell_length_b   15.21289461
_cell_length_c   16.80291443
_cell_angle_alpha   90.06765555
_cell_angle_beta   90.00846531
_cell_angle_gamma   90.01068112
_symmetry_Int_Tables_number   1
_chemical_formula_structural   HfZrTaTiMo
_chemical_formula_sum   'Hf40 Zr40 Ta40 Ti40 Mo40'
_cell_volume   3890.14999006
_cell_formula_units_Z   40
loop_
 _symmetry_equiv_pos_site_id
 _symmetry_equiv_pos_as_xyz
  1  'x, y, z'
loop_
 _atom_site_type_symbol
 _atom_site_label
 _atom_site_symmetry_multiplicity
 _atom_site_fract_x
 _atom_site_fract_y
 _atom_site_fract_z
 _atom_site_occupancy
  Hf  Hf0  1  0.50001084  0.49263387  0.11426136  1
  Hf  Hf1  1  0.42167002  0.18420381  0.00004673  1
  Hf  Hf2  1  -0.00565838  0.60562427  0.26650582  1
  Hf  Hf3  1  0.20572147  0.01246442  0.74606332  1
  Hf  Hf4  1  0.79828872  -0.00403514  0.74090885  1
  Hf  Hf5  1  0.89824436  0.91459914  0.13143399  1
  Hf  Hf6  1  0.59395755  0.37752415  -0.00047223  1
  Hf  Hf7  1  0.10434530  0.30407815  0.12070811  1
  Hf  Hf8  1  0.58033784  0.81175969  0.00661478  1
  Hf  Hf9  1  0.59436940  0.61000365  0.49853987  1
  Hf  Hf10  1  0.90596851  0.70454273  0.63214598  1
  Hf  Hf11  1  -0.00191824  0.39562334  0.26963293  1
  Hf  Hf12  1  0.10050322  0.89148743  0.36217676  1
  Hf  Hf13  1  0.78695471  0.80221752  0.23786810  1
  Hf  Hf14  1  0.21533482  0.80616329  0.01502815  1
  Hf  Hf15  1  0.69924573  0.50585532  0.62394762  1
  Hf  Hf16  1  0.79140403  0.80301158  0.01109291  1
  Hf  Hf17  1  -0.00791730  0.60291248  -0.00683189  1
  Hf  Hf18  1  0.19176985  0.60224795  0.24129900  1
  Hf  Hf19  1  0.40329942  0.38862440  0.24605227  1
  Hf  Hf20  1  0.51485232  0.90644929  0.62470065  1
  Hf  Hf21  1  0.30923511  0.91064296  0.62609382  1
  Hf  Hf22  1  0.90690256  0.29856043  0.61637684  1
  Hf  Hf23  1  0.79753977  0.38613257  0.26766956  1
  Hf  Hf24  1  0.59702625  -0.00153200  0.27344717  1
  Hf  Hf25  1  0.09610031  0.89116235  0.62200108  1
  Hf  Hf26  1  0.38826106  0.37470236  -0.01108604  1
  Hf  Hf27  1  0.70005380  0.49982046  0.11801037  1
  Hf  Hf28  1  0.09424138  0.49627272  0.87441109  1
  Hf  Hf29  1  0.82182082  0.60498763  0.48410641  1
  Hf  Hf30  1  0.28653795  0.48173110  0.11120379  1
  Hf  Hf31  1  -0.00009614  -0.00093290  0.74171273  1
  Hf  Hf32  1  0.20190993  0.58502440  0.74971955  1
  Hf  Hf33  1  0.20433228  0.19266214  0.24877007  1
  Hf  Hf34  1  0.79216493  0.40131407  0.49565793  1
  Hf  Hf35  1  0.10313684  0.90718698  0.87922960  1
  Hf  Hf36  1  0.40664969  0.80848414  0.76110905  1
  Hf  Hf37  1  0.59615608  0.61754811  0.23724475  1
  Hf  Hf38  1  0.29485430  0.70270543  0.87394669  1
  Hf  Hf39  1  0.60997002  0.82313207  0.48971651  1
  Zr  Zr40  1  0.49281345  0.51266823  0.36938630  1
  Zr  Zr41  1  0.39339856  0.60881268  0.23014852  1
  Zr  Zr42  1  0.79942637  0.59683720  0.25618525  1
  Zr  Zr43  1  0.40657905  0.58354783  0.74844315  1
  Zr  Zr44  1  0.51229403  0.69300671  0.87506302  1
  Zr  Zr45  1  0.00888812  0.20215833  0.74245838  1
  Zr  Zr46  1  0.90410138  0.10235076  0.87457944  1
  Zr  Zr47  1  0.79479860  0.60220666  -0.00926048  1
  Zr  Zr48  1  -0.00463776  0.40775432  0.49296731  1
  Zr  Zr49  1  0.21662320  0.20893809  0.01010581  1
  Zr  Zr50  1  0.79704398  0.80847787  0.75750324  1
  Zr  Zr51  1  0.20216602  0.00317410  0.00629275  1
  Zr  Zr52  1  0.29807293  0.70851653  0.63594040  1
  Zr  Zr53  1  0.69638472  0.71147244  0.37272075  1
  Zr  Zr54  1  0.40198899  0.38805922  0.76161163  1
  Zr  Zr55  1  0.38298778  0.19254243  0.75337873  1
  Zr  Zr56  1  0.00695267  0.80176097  0.01269187  1
  Zr  Zr57  1  0.58573325  0.20326367  0.75102583  1
  Zr  Zr58  1  0.48983629  0.10172437  0.61073579  1
  Zr  Zr59  1  0.19616692  0.60250941  0.50660146  1
  Zr  Zr60  1  0.70273996  0.29694763  0.86829039  1
  Zr  Zr61  1  0.78639699  0.01451901  0.00800708  1
  Zr  Zr62  1  0.90601792  0.30362419  0.86648418  1
  Zr  Zr63  1  0.71197986  0.28960192  0.12434747  1
  Zr  Zr64  1  0.20034508  -0.01021639  0.49415268  1
  Zr  Zr65  1  0.39954717  0.59261925  0.51734905  1
  Zr  Zr66  1  0.39862501  0.61135681  0.00665413  1
  Zr  Zr67  1  0.78875232  -0.00803103  0.49133551  1
  Zr  Zr68  1  0.70365346  0.71334352  0.62138960  1
  Zr  Zr69  1  0.10519067  0.48168739  0.62234393  1
  Zr  Zr70  1  0.09283524  0.69159380  0.63977674  1
  Zr  Zr71  1  0.30271563  0.69594152  0.37079224  1
  Zr  Zr72  1  0.08423647  0.50172156  0.12101917  1
  Zr  Zr73  1  0.31376809  0.08050937  0.13283385  1
  Zr  Zr74  1  0.89460082  0.48647963  0.12529638  1
  Zr  Zr75  1  0.10980160  0.28669050  0.39564189  1
  Zr  Zr76  1  0.20185917  0.39229122  0.25756141  1
  Zr  Zr77  1  0.60796924  0.20331523  0.25691272  1
  Zr  Zr78  1  0.40755343  0.79735342  0.49475363  1
  Zr  Zr79  1  0.68826157  0.50261297  0.87393061  1
  Ta  Ta80  1  0.40915782  0.19844120  0.24843472  1
  Ta  Ta81  1  0.89758830  0.09391702  0.61054393  1
  Ta  Ta82  1  0.31555991  0.29053229  0.39065592  1
  Ta  Ta83  1  0.90398576  0.50995721  0.63540018  1
  Ta  Ta84  1  0.61665165  0.18033659  0.00297436  1
  Ta  Ta85  1  0.00389837  0.79561935  0.23995627  1
  Ta  Ta86  1  0.69012744  0.09761169  0.61822695  1
  Ta  Ta87  1  0.09605817  0.10809269  0.60397365  1
  Ta  Ta88  1  0.79551419  0.01074027  0.25935443  1
  Ta  Ta89  1  0.09715445  0.70154953  0.86787317  1
  Ta  Ta90  1  0.79631449  0.19636957  0.73211286  1
  Ta  Ta91  1  0.20880013  0.79630988  0.23174108  1
  Ta  Ta92  1  -0.00331238  0.80557702  0.76109216  1
  Ta  Ta93  1  0.67483501  0.91377199  0.13168231  1
  Ta  Ta94  1  -0.00065534  0.00948646  0.00910150  1
  Ta  Ta95  1  0.69034539  0.49641566  0.37487579  1
  Ta  Ta96  1  0.20487713  0.38341429  0.75134226  1
  Ta  Ta97  1  0.19004713  0.60931511  0.00469392  1
  Ta  Ta98  1  0.11279624  0.29899197  0.88088298  1
  Ta  Ta99  1  0.78641678  0.19757194  0.49850154  1
  Ta  Ta100  1  0.10412532  0.51015824  0.38498983  1
  Ta  Ta101  1  0.40850454  -0.02530719  -0.00751459  1
  Ta  Ta102  1  0.79780243  0.39998464  0.73773054  1
  Ta  Ta103  1  0.79978448  0.60176320  0.75704835  1
  Ta  Ta104  1  0.70331610  0.09912484  0.86755721  1
  Ta  Ta105  1  0.59963962  0.39964183  0.24954109  1
  Ta  Ta106  1  0.89835528  0.90378642  0.88717900  1
  Ta  Ta107  1  0.49219696  0.30645992  0.61279156  1
  Ta  Ta108  1  0.00516413  0.78136830  0.48711108  1
  Ta  Ta109  1  -0.00108472  0.00961461  0.25352941  1
  Ta  Ta110  1  0.28680532  0.30228201  0.60746750  1
  Ta  Ta111  1  -0.01052537  -0.01933606  0.49748388  1
  Ta  Ta112  1  0.69015509  0.29907589  0.62298084  1
  Ta  Ta113  1  0.30188275  0.89867608  0.35501996  1
  Ta  Ta114  1  0.29641796  0.09966659  0.37517034  1
  Ta  Ta115  1  0.29714897  0.49039341  0.37682131  1
  Ta  Ta116  1  0.49012310  0.11756664  0.38674493  1
  Ta  Ta117  1  0.50900217  0.70257504  0.63606182  1
  Ta  Ta118  1  0.90960545  0.29432584  0.12718650  1
  Ta  Ta119  1  0.81675956  0.81018396  0.49639693  1
  Ti  Ti120  1  0.80968830  0.20424471  0.00023681  1
  Ti  Ti121  1  0.60703122  0.80941525  0.75373161  1
  Ti  Ti122  1  0.51235582  0.08826928  0.87787947  1
  Ti  Ti123  1  0.59399350  0.40590032  0.50268604  1
  Ti  Ti124  1  0.40458325  -0.00116869  0.26033376  1
  Ti  Ti125  1  0.40266191  -0.00477950  0.48422230  1
  Ti  Ti126  1  0.59248575  0.40445266  0.74686026  1
  Ti  Ti127  1  0.60358991  -0.00137922  0.75056027  1
  Ti  Ti128  1  0.50621021  0.30905805  0.38833958  1
  Ti  Ti129  1  0.50006790  0.49454474  0.89033084  1
  Ti  Ti130  1  0.10889137  0.91362073  0.14036206  1
  Ti  Ti131  1  0.19928075  0.81188369  0.75652063  1
  Ti  Ti132  1  0.69058866  0.90894497  0.88349796  1
  Ti  Ti133  1  0.40614303  -0.00078038  0.76367501  1
  Ti  Ti134  1  0.00321595  0.19810798  0.00230851  1
  Ti  Ti135  1  0.60125088  0.01439652  0.47871610  1
  Ti  Ti136  1  0.08995713  0.10133754  0.13268918  1
  Ti  Ti137  1  0.90373805  0.09780492  0.38464069  1
  Ti  Ti138  1  0.29847264  0.09449720  0.88091449  1
  Ti  Ti139  1  -0.00386026  0.19993390  0.25779559  1
  Ti  Ti140  1  0.80508464  0.19415912  0.26544581  1
  Ti  Ti141  1  0.60278656  0.60033921  0.74521738  1
  Ti  Ti142  1  0.10324886  0.10683481  0.87949370  1
  Ti  Ti143  1  0.09511585  0.09346012  0.38231639  1
  Ti  Ti144  1  0.89799204  0.28675872  0.38971314  1
  Ti  Ti145  1  0.89688880  0.11142476  0.13238331  1
  Ti  Ti146  1  0.39766962  0.40735167  0.50688036  1
  Ti  Ti147  1  0.90105618  0.70535506  0.87090395  1
  Ti  Ti148  1  -0.00259275  0.39248789  -0.00618253  1
  Ti  Ti149  1  0.28794569  0.48912609  0.88816885  1
  Ti  Ti150  1  0.89852769  0.89365125  0.36053151  1
  Ti  Ti151  1  0.29523581  0.10808624  0.60534839  1
  Ti  Ti152  1  0.89566380  0.49700415  0.86074651  1
  Ti  Ti153  1  0.52225833  0.08616842  0.12699577  1
  Ti  Ti154  1  0.69848413  0.70609324  0.87878273  1
  Ti  Ti155  1  0.89697241  0.69355649  0.12534676  1
  Ti  Ti156  1  0.19553102  0.20212978  0.74146979  1
  Ti  Ti157  1  0.00534319  0.39992976  0.74503227  1
  Ti  Ti158  1  0.20347463  0.79838621  0.49444460  1
  Ti  Ti159  1  0.80612347  0.39482155  -0.00592404  1
  Mo  Mo160  1  0.49821504  0.71735340  0.11998300  1
  Mo  Mo161  1  0.70342139  0.11042874  0.38213416  1
  Mo  Mo162  1  0.31341942  0.29064915  0.12915034  1
  Mo  Mo163  1  0.30604732  0.48371228  0.63002238  1
  Mo  Mo164  1  0.90439189  0.89570306  0.61798997  1
  Mo  Mo165  1  0.69756519  0.90905111  0.62548960  1
  Mo  Mo166  1  0.59306953  0.00806389  0.00016051  1
  Mo  Mo167  1  0.10750360  0.70516265  0.37050907  1
  Mo  Mo168  1  0.29840388  0.69962146  0.12087362  1
  Mo  Mo169  1  0.90794797  0.71534825  0.36739854  1
  Mo  Mo170  1  0.19556575  0.00131733  0.25527144  1
  Mo  Mo171  1  0.71099895  0.09487379  0.13565505  1
  Mo  Mo172  1  -0.01051555  0.18567100  0.49617818  1
  Mo  Mo173  1  0.69242920  0.70585264  0.11735168  1
  Mo  Mo174  1  -0.00063487  0.60209029  0.49153945  1
  Mo  Mo175  1  0.40018574  0.20234132  0.49911850  1
  Mo  Mo176  1  0.89735484  0.49751503  0.37551854  1
  Mo  Mo177  1  0.58455072  0.80582398  0.24430536  1
  Mo  Mo178  1  0.10473871  0.29064674  0.61232201  1
  Mo  Mo179  1  0.50637791  0.28683011  0.87431318  1
  Mo  Mo180  1  0.29269760  0.28435381  0.87063926  1
  Mo  Mo181  1  0.50855601  0.49292228  0.62824102  1
  Mo  Mo182  1  0.60223779  0.60675869  0.01232392  1
  Mo  Mo183  1  0.59990219  0.21128006  0.49934870  1
  Mo  Mo184  1  0.39286940  0.80496423  -0.00637561  1
  Mo  Mo185  1  0.19484806  0.40491696  -0.00497245  1
  Mo  Mo186  1  0.30021570  0.90844070  0.86908657  1
  Mo  Mo187  1  0.09257224  0.70456809  0.12393018  1
  Mo  Mo188  1  0.31109243  0.89759829  0.14340488  1
  Mo  Mo189  1  0.41232339  0.80258500  0.25061922  1
  Mo  Mo190  1  0.50695710  0.90408481  0.86610805  1
  Mo  Mo191  1  0.21061937  0.40217460  0.49273090  1
  Mo  Mo192  1  -0.00898156  0.59651628  0.76357517  1
  Mo  Mo193  1  0.49729978  0.71329998  0.36759682  1
  Mo  Mo194  1  0.49377155  0.90643054  0.37732344  1
  Mo  Mo195  1  0.48455214  0.91327856  0.13257869  1
  Mo  Mo196  1  0.70580965  0.90422618  0.36397352  1
  Mo  Mo197  1  0.49918930  0.28433700  0.12842206  1
  Mo  Mo198  1  0.68994839  0.30465902  0.38386513  1
  Mo  Mo199  1  0.20193767  0.19175387  0.49564669  1
