# generated using pymatgen
data_HfZrTaTiMo
_symmetry_space_group_name_H-M   'P 1'
_cell_length_a   15.20570176
_cell_length_b   15.22102124
_cell_length_c   16.86267499
_cell_angle_alpha   90.05118827
_cell_angle_beta   90.02485810
_cell_angle_gamma   89.93823726
_symmetry_Int_Tables_number   1
_chemical_formula_structural   HfZrTaTiMo
_chemical_formula_sum   'Hf40 Zr40 Ta40 Ti40 Mo40'
_cell_volume   3902.79970235
_cell_formula_units_Z   40
loop_
 _symmetry_equiv_pos_site_id
 _symmetry_equiv_pos_as_xyz
  1  'x, y, z'
loop_
 _atom_site_type_symbol
 _atom_site_label
 _atom_site_symmetry_multiplicity
 _atom_site_fract_x
 _atom_site_fract_y
 _atom_site_fract_z
 _atom_site_occupancy
  Hf  Hf0  1  0.29730187  0.11630970  0.37218808  1
  Hf  Hf1  1  0.19061706  -0.00779107  0.48705870  1
  Hf  Hf2  1  0.18815645  0.18366883  -0.01183483  1
  Hf  Hf3  1  0.11630493  0.91780540  0.88625435  1
  Hf  Hf4  1  0.61707090  0.77634796  0.49626168  1
  Hf  Hf5  1  0.40292187  0.78823840  0.48953206  1
  Hf  Hf6  1  0.10945448  0.68824321  0.13070124  1
  Hf  Hf7  1  0.80503515  -0.00468700  0.75172475  1
  Hf  Hf8  1  0.81880468  0.79644286  0.75284970  1
  Hf  Hf9  1  0.39645519  0.00902723  0.49531616  1
  Hf  Hf10  1  0.69721162  0.51175848  0.37997060  1
  Hf  Hf11  1  0.58413989  0.00365836  -0.02171405  1
  Hf  Hf12  1  0.09474403  0.09204648  0.61913993  1
  Hf  Hf13  1  0.77705418  -0.00203385  0.24632369  1
  Hf  Hf14  1  0.10624968  0.50074378  0.87175628  1
  Hf  Hf15  1  0.40646534  0.60187037  0.74565759  1
  Hf  Hf16  1  0.81795427  0.41253617  0.26452895  1
  Hf  Hf17  1  0.00098417  0.58588016  0.26479972  1
  Hf  Hf18  1  0.28629472  0.08800210  0.13118083  1
  Hf  Hf19  1  -0.00597342  0.19985502  -0.00220558  1
  Hf  Hf20  1  0.30838731  0.49933242  0.87005956  1
  Hf  Hf21  1  0.37289451  -0.00809611  -0.01026719  1
  Hf  Hf22  1  0.28381593  0.89467911  0.61319160  1
  Hf  Hf23  1  0.60933591  0.78817829  0.74191169  1
  Hf  Hf24  1  0.40608436  0.60240245  0.00393343  1
  Hf  Hf25  1  0.90784243  0.31901171  0.13166677  1
  Hf  Hf26  1  0.38761062  0.20368489  0.01266008  1
  Hf  Hf27  1  0.71866439  0.89312046  0.60980497  1
  Hf  Hf28  1  0.80354426  0.59194695  0.00509871  1
  Hf  Hf29  1  0.81419008  0.80134786  0.00059718  1
  Hf  Hf30  1  0.68850296  0.09916448  0.62143997  1
  Hf  Hf31  1  0.30306661  0.28915779  0.86357656  1
  Hf  Hf32  1  0.00176427  0.59073160  0.48837093  1
  Hf  Hf33  1  0.59455962  0.79446785  -0.00182443  1
  Hf  Hf34  1  0.71045926  0.29134449  0.13731206  1
  Hf  Hf35  1  0.48166092  0.51322526  0.37482902  1
  Hf  Hf36  1  -0.01317033  -0.00209704  0.23771993  1
  Hf  Hf37  1  0.89782248  0.69540085  0.14078794  1
  Hf  Hf38  1  0.89139160  0.90352983  0.37948260  1
  Hf  Hf39  1  0.79308633  0.20331022  -0.01392725  1
  Zr  Zr40  1  0.80935834  0.40474770  0.49143145  1
  Zr  Zr41  1  0.49935604  0.31722388  0.12681581  1
  Zr  Zr42  1  0.60266201  0.39987309  0.25447393  1
  Zr  Zr43  1  0.89434877  0.70548685  0.61499442  1
  Zr  Zr44  1  0.20409861  0.59686142  0.00212034  1
  Zr  Zr45  1  0.58316933  -0.00367937  0.75885675  1
  Zr  Zr46  1  0.39159506  0.21619993  0.23696241  1
  Zr  Zr47  1  0.18556777  0.17401212  0.76644895  1
  Zr  Zr48  1  0.11032015  0.29046473  0.38131883  1
  Zr  Zr49  1  0.36618531  -0.00084713  0.76058809  1
  Zr  Zr50  1  0.50357811  0.91993550  0.12465095  1
  Zr  Zr51  1  0.47164768  0.12163623  0.86516095  1
  Zr  Zr52  1  0.79988097  0.19991164  0.49968510  1
  Zr  Zr53  1  0.70291007  0.67908385  0.87579032  1
  Zr  Zr54  1  0.51628118  0.91022398  0.38458437  1
  Zr  Zr55  1  0.40875138  0.00498277  0.25699953  1
  Zr  Zr56  1  0.10869184  0.70136426  0.61589602  1
  Zr  Zr57  1  0.50633744  0.90721388  0.61072572  1
  Zr  Zr58  1  0.10298944  0.71163580  0.88020124  1
  Zr  Zr59  1  0.90160577  0.30001665  0.63000567  1
  Zr  Zr60  1  0.70340388  0.89310158  0.87495873  1
  Zr  Zr61  1  0.41627952  0.39230753  0.75108509  1
  Zr  Zr62  1  0.80064820  0.39885981  -0.01176464  1
  Zr  Zr63  1  0.79074694  0.20522239  0.75286183  1
  Zr  Zr64  1  0.00682012  0.39951589  -0.01160501  1
  Zr  Zr65  1  0.60988471  0.82729523  0.25383313  1
  Zr  Zr66  1  0.00225557  0.80186328  0.24943761  1
  Zr  Zr67  1  0.50399111  0.48915631  0.61449949  1
  Zr  Zr68  1  0.30094816  0.29675992  0.64019943  1
  Zr  Zr69  1  0.70009883  0.70725846  0.13452121  1
  Zr  Zr70  1  0.08497056  0.09678294  0.36910752  1
  Zr  Zr71  1  0.49166376  0.30476109  0.36870100  1
  Zr  Zr72  1  0.87654795  0.11174889  0.12989867  1
  Zr  Zr73  1  0.59281175  0.61020128  0.25031206  1
  Zr  Zr74  1  0.59316390  0.21619248  -0.00947757  1
  Zr  Zr75  1  0.21358155  0.78072534  0.26672795  1
  Zr  Zr76  1  0.40856148  0.80324426  0.74630257  1
  Zr  Zr77  1  0.10192316  0.30464982  0.62935119  1
  Zr  Zr78  1  0.00193502  0.60694248  0.74255514  1
  Zr  Zr79  1  0.70280451  0.50991855  0.61389519  1
  Ta  Ta80  1  0.20974566  0.38675289  -0.00047012  1
  Ta  Ta81  1  0.79054767  0.61947084  0.49299300  1
  Ta  Ta82  1  0.51683180  0.50433836  0.87991365  1
  Ta  Ta83  1  0.01936421  0.39746041  0.26088459  1
  Ta  Ta84  1  0.48764031  0.71364034  0.13557569  1
  Ta  Ta85  1  0.51116805  0.68776624  0.61685221  1
  Ta  Ta86  1  0.80041508  0.40920796  0.75577182  1
  Ta  Ta87  1  0.79819632  0.00410910  -0.00614274  1
  Ta  Ta88  1  0.89211200  0.69914398  0.36850005  1
  Ta  Ta89  1  0.10233530  0.48641071  0.12921582  1
  Ta  Ta90  1  0.00849623  0.80037732  0.48558910  1
  Ta  Ta91  1  0.20367651  0.80454562  0.74689338  1
  Ta  Ta92  1  0.71430901  0.49880437  0.13467042  1
  Ta  Ta93  1  0.30342369  0.69416229  0.61859080  1
  Ta  Ta94  1  0.10904032  0.29558563  0.12870551  1
  Ta  Ta95  1  0.21741514  0.39002911  0.25564906  1
  Ta  Ta96  1  0.68411116  0.30582348  0.62381195  1
  Ta  Ta97  1  0.30477173  0.70884371  0.87408003  1
  Ta  Ta98  1  0.91795815  0.90658267  0.61408009  1
  Ta  Ta99  1  0.20570982  0.59184971  0.48368495  1
  Ta  Ta100  1  0.00645062  0.39847368  0.75707697  1
  Ta  Ta101  1  0.40361371  0.21085813  0.50600794  1
  Ta  Ta102  1  0.61210025  0.40000223  0.75967584  1
  Ta  Ta103  1  0.30268248  0.49003389  0.12908583  1
  Ta  Ta104  1  0.91125527  0.70401841  0.87881564  1
  Ta  Ta105  1  0.21317938  0.80676047  0.01392016  1
  Ta  Ta106  1  0.89953820  0.51126278  0.86623744  1
  Ta  Ta107  1  -0.00376715  0.59894507  0.00651056  1
  Ta  Ta108  1  0.28324538  0.50158052  0.62923106  1
  Ta  Ta109  1  0.49270141  0.11558542  0.62831718  1
  Ta  Ta110  1  0.69263030  0.09292579  0.38619312  1
  Ta  Ta111  1  0.50955521  0.11206225  0.38499456  1
  Ta  Ta112  1  0.20326738  0.78501559  0.47726268  1
  Ta  Ta113  1  0.69478114  0.10440432  0.86813876  1
  Ta  Ta114  1  0.38603357  0.39978780  0.50356282  1
  Ta  Ta115  1  0.29538740  0.09833709  0.62146616  1
  Ta  Ta116  1  0.91985861  0.90467337  0.88278188  1
  Ta  Ta117  1  0.39916064  0.79774064  0.00013944  1
  Ta  Ta118  1  0.60013141  0.59197803  0.01547444  1
  Ta  Ta119  1  0.00666435  0.00551872  0.74915606  1
  Ti  Ti120  1  0.11038221  0.90120686  0.12917295  1
  Ti  Ti121  1  0.50210782  0.69669521  0.87511091  1
  Ti  Ti122  1  0.30881005  0.88340641  0.14185438  1
  Ti  Ti123  1  0.90150828  0.09561130  0.87235865  1
  Ti  Ti124  1  0.30671018  0.89499714  0.36947949  1
  Ti  Ti125  1  0.00857308  0.80331930  0.01482129  1
  Ti  Ti126  1  0.59407617  0.39189723  0.49017946  1
  Ti  Ti127  1  -0.00158812  0.19903407  0.49831550  1
  Ti  Ti128  1  0.58431652  0.21711978  0.75716442  1
  Ti  Ti129  1  0.20391548  0.57963046  0.27153099  1
  Ti  Ti130  1  0.90821856  0.29662151  0.86135299  1
  Ti  Ti131  1  0.09744474  0.89481179  0.36825883  1
  Ti  Ti132  1  0.20182574  0.60295368  0.74760268  1
  Ti  Ti133  1  0.89882618  0.09971179  0.62723117  1
  Ti  Ti134  1  0.70794491  0.90656764  0.11241744  1
  Ti  Ti135  1  0.70913050  0.71487533  0.35889092  1
  Ti  Ti136  1  0.20758634  0.20337065  0.50412810  1
  Ti  Ti137  1  0.88515560  0.10434060  0.36958602  1
  Ti  Ti138  1  0.39591520  0.59696914  0.50257220  1
  Ti  Ti139  1  0.30561700  0.69081538  0.13539870  1
  Ti  Ti140  1  0.09149530  0.10017357  0.13151476  1
  Ti  Ti141  1  0.40874177  0.40201715  -0.00415565  1
  Ti  Ti142  1  0.70787055  0.90989395  0.39811215  1
  Ti  Ti143  1  0.00815642  0.40023517  0.49493790  1
  Ti  Ti144  1  0.49620518  0.51070666  0.13391917  1
  Ti  Ti145  1  -0.00936864  0.20433050  0.24905621  1
  Ti  Ti146  1  0.79884983  0.59933973  0.74589395  1
  Ti  Ti147  1  -0.00530449  -0.00158026  0.01618520  1
  Ti  Ti148  1  0.69882773  0.28587710  0.37006040  1
  Ti  Ti149  1  -0.00815917  0.00405685  0.49489943  1
  Ti  Ti150  1  0.19291401  0.20111988  0.24607220  1
  Ti  Ti151  1  0.20031834  0.40466754  0.49676040  1
  Ti  Ti152  1  0.60438950  0.59140353  0.74772911  1
  Ti  Ti153  1  0.90600063  0.29658516  0.37340337  1
  Ti  Ti154  1  0.67347842  0.09367950  0.11422785  1
  Ti  Ti155  1  0.19531257  -0.00676259  0.25621352  1
  Ti  Ti156  1  0.61016536  0.40909680  -0.00430161  1
  Ti  Ti157  1  0.59994514  0.18346092  0.24537859  1
  Ti  Ti158  1  0.01305069  0.81591292  0.74713460  1
  Ti  Ti159  1  0.91225672  0.49712560  0.62657155  1
  Mo  Mo160  1  0.70320859  0.50318786  0.87245411  1
  Mo  Mo161  1  0.90128748  0.49753656  0.38568880  1
  Mo  Mo162  1  0.49493090  0.31701838  0.88111630  1
  Mo  Mo163  1  0.59711821  0.20688789  0.49975757  1
  Mo  Mo164  1  0.81037750  0.00697845  0.50393665  1
  Mo  Mo165  1  0.29026051  0.88349040  0.87829769  1
  Mo  Mo166  1  0.10396039  0.48820709  0.37458861  1
  Mo  Mo167  1  0.60063157  0.01699546  0.25116809  1
  Mo  Mo168  1  0.09384832  0.89480569  0.61234075  1
  Mo  Mo169  1  0.39687413  0.19422950  0.74062718  1
  Mo  Mo170  1  0.27062738  0.07993966  0.88298772  1
  Mo  Mo171  1  0.80013063  0.60288298  0.25846275  1
  Mo  Mo172  1  0.50960615  0.29874735  0.61969517  1
  Mo  Mo173  1  0.18404636  -0.01599968  0.74136882  1
  Mo  Mo174  1  -0.00935114  0.19558911  0.75551415  1
  Mo  Mo175  1  0.48496615  0.87807782  0.87642425  1
  Mo  Mo176  1  0.10226986  0.69502745  0.37797367  1
  Mo  Mo177  1  0.19679716  0.41082155  0.75158320  1
  Mo  Mo178  1  0.60357625  0.00921968  0.50819866  1
  Mo  Mo179  1  0.28733669  0.30560800  0.11809316  1
  Mo  Mo180  1  0.69997220  0.69282635  0.62910751  1
  Mo  Mo181  1  0.10337103  0.49638348  0.62547989  1
  Mo  Mo182  1  0.29970565  0.48673232  0.37891086  1
  Mo  Mo183  1  0.07274903  0.08997264  0.88187570  1
  Mo  Mo184  1  0.38691973  0.60508355  0.24618029  1
  Mo  Mo185  1  0.31662158  0.68091809  0.37508357  1
  Mo  Mo186  1  0.80529746  0.81073792  0.24782955  1
  Mo  Mo187  1  0.09707402  0.30116827  0.86595366  1
  Mo  Mo188  1  0.81316338  0.79904110  0.49583233  1
  Mo  Mo189  1  0.39235982  0.41468509  0.24675054  1
  Mo  Mo190  1  0.49892242  0.10381707  0.11895002  1
  Mo  Mo191  1  0.59387597  0.60118240  0.48864677  1
  Mo  Mo192  1  0.30227307  0.30107737  0.38430712  1
  Mo  Mo193  1  0.18521108  -0.00931784  0.02033012  1
  Mo  Mo194  1  0.89649102  0.90347642  0.11390030  1
  Mo  Mo195  1  0.79603490  0.20361373  0.26661372  1
  Mo  Mo196  1  0.50169746  0.70399082  0.36911883  1
  Mo  Mo197  1  0.40980504  0.79316425  0.26083221  1
  Mo  Mo198  1  0.91098008  0.50261594  0.12808172  1
  Mo  Mo199  1  0.69647551  0.30479471  0.86697453  1
