# generated using pymatgen
data_HfZrTaTiMo
_symmetry_space_group_name_H-M   'P 1'
_cell_length_a   15.20386082
_cell_length_b   15.18952516
_cell_length_c   16.79401795
_cell_angle_alpha   90.08926863
_cell_angle_beta   90.07034198
_cell_angle_gamma   90.12809554
_symmetry_Int_Tables_number   1
_chemical_formula_structural   HfZrTaTiMo
_chemical_formula_sum   'Hf40 Zr40 Ta40 Ti40 Mo40'
_cell_volume   3878.38353382
_cell_formula_units_Z   40
loop_
 _symmetry_equiv_pos_site_id
 _symmetry_equiv_pos_as_xyz
  1  'x, y, z'
loop_
 _atom_site_type_symbol
 _atom_site_label
 _atom_site_symmetry_multiplicity
 _atom_site_fract_x
 _atom_site_fract_y
 _atom_site_fract_z
 _atom_site_occupancy
  Hf  Hf0  1  0.19964688  0.19471746  0.51213253  1
  Hf  Hf1  1  0.48972644  0.29582615  0.88382348  1
  Hf  Hf2  1  0.60446277  -0.00856482  0.50274818  1
  Hf  Hf3  1  0.11337306  0.89634426  0.11508436  1
  Hf  Hf4  1  0.70230896  0.29098937  0.88957519  1
  Hf  Hf5  1  0.60534105  0.59197666  0.74825836  1
  Hf  Hf6  1  0.89281595  0.89686801  0.13680073  1
  Hf  Hf7  1  0.49971642  0.30555724  0.36840043  1
  Hf  Hf8  1  0.52218432  0.90592150  0.86515112  1
  Hf  Hf9  1  0.67415857  0.08194894  0.89226963  1
  Hf  Hf10  1  -0.00323210  0.39600187  0.24174022  1
  Hf  Hf11  1  0.10627101  0.69288381  0.11042119  1
  Hf  Hf12  1  0.91794303  0.09671736  0.37280161  1
  Hf  Hf13  1  0.80570688  -0.01698176  -0.00233688  1
  Hf  Hf14  1  0.88343029  0.28676181  0.12950358  1
  Hf  Hf15  1  0.09230227  0.10155910  0.86693618  1
  Hf  Hf16  1  0.28923218  0.50593685  0.12147945  1
  Hf  Hf17  1  0.90215786  0.30953093  0.87969727  1
  Hf  Hf18  1  0.00412763  0.59634261  0.76106808  1
  Hf  Hf19  1  0.59016844  0.39373687  0.74563061  1
  Hf  Hf20  1  0.09479273  0.90187920  0.38930231  1
  Hf  Hf21  1  0.00458765  0.79547771  0.24319909  1
  Hf  Hf22  1  0.71103960  0.09448542  0.61787763  1
  Hf  Hf23  1  0.50497873  0.89549971  0.36746276  1
  Hf  Hf24  1  0.61768840  0.20751250  0.24854471  1
  Hf  Hf25  1  0.40918433  0.20716215  0.50576363  1
  Hf  Hf26  1  0.88416953  0.11311442  0.87497524  1
  Hf  Hf27  1  0.80536849  0.40193672  0.74847302  1
  Hf  Hf28  1  0.10336894  0.29296543  0.88286146  1
  Hf  Hf29  1  -0.02809668  0.59288445  -0.00597411  1
  Hf  Hf30  1  0.71891287  0.87944445  0.86606294  1
  Hf  Hf31  1  0.29562186  0.70588688  0.64067673  1
  Hf  Hf32  1  0.58450094  0.39767301  0.50613747  1
  Hf  Hf33  1  0.29463971  0.30193255  0.37436349  1
  Hf  Hf34  1  0.19413942  0.00120749  0.74497317  1
  Hf  Hf35  1  0.19090993  0.40299882  0.50512928  1
  Hf  Hf36  1  0.50425588  0.09873034  0.37105371  1
  Hf  Hf37  1  0.30348604  0.90228323  0.86742443  1
  Hf  Hf38  1  0.39899646  0.58846340  0.75204848  1
  Hf  Hf39  1  0.09415512  0.49760729  0.36966146  1
  Zr  Zr40  1  0.09660341  0.88159388  0.62191224  1
  Zr  Zr41  1  0.20607758  0.59916337  0.50885955  1
  Zr  Zr42  1  0.50156887  0.50767558  0.12145983  1
  Zr  Zr43  1  -0.00963798  0.19328514  0.01278759  1
  Zr  Zr44  1  0.82186396  0.59776259  0.50780460  1
  Zr  Zr45  1  0.81385355  0.80515782  0.50428948  1
  Zr  Zr46  1  0.11544776  0.49101602  0.89299693  1
  Zr  Zr47  1  0.39762785  0.80461159  0.50241347  1
  Zr  Zr48  1  0.49912856  0.50948754  0.37024823  1
  Zr  Zr49  1  0.70203742  0.29277564  0.62187108  1
  Zr  Zr50  1  0.79785732  0.01606548  0.75206457  1
  Zr  Zr51  1  0.59826353  0.41477110  0.24554518  1
  Zr  Zr52  1  0.19804374  0.00442185  0.25666360  1
  Zr  Zr53  1  0.10617374  0.70243934  0.89386761  1
  Zr  Zr54  1  0.39572078  -0.00136837  0.25127056  1
  Zr  Zr55  1  0.39165789  0.19786545  0.24622720  1
  Zr  Zr56  1  0.69781129  0.50257387  0.61273484  1
  Zr  Zr57  1  0.30374734  0.70768459  0.11448222  1
  Zr  Zr58  1  0.09870367  0.50087437  0.12170917  1
  Zr  Zr59  1  0.71766957  0.10388955  0.11891810  1
  Zr  Zr60  1  0.08997174  0.28854309  0.37907343  1
  Zr  Zr61  1  0.09910109  0.69622416  0.37104816  1
  Zr  Zr62  1  0.78897379  0.39696060  0.26244001  1
  Zr  Zr63  1  0.41189999  0.59648701  0.51486425  1
  Zr  Zr64  1  0.88271376  0.71687987  0.86394105  1
  Zr  Zr65  1  0.80654755  0.20639472  0.48507332  1
  Zr  Zr66  1  0.70531320  0.69062823  0.38228910  1
  Zr  Zr67  1  0.50701546  0.71034963  0.63972852  1
  Zr  Zr68  1  0.50460262  0.89158400  0.12573744  1
  Zr  Zr69  1  0.41849693  0.01565350  -0.00880469  1
  Zr  Zr70  1  0.30268787  0.90414360  0.11357251  1
  Zr  Zr71  1  0.39827299  -0.00426195  0.50541807  1
  Zr  Zr72  1  0.41043564  0.60291356  -0.01088159  1
  Zr  Zr73  1  0.00117409  0.00242353  0.00544446  1
  Zr  Zr74  1  0.59963627  0.18734757  0.75353582  1
  Zr  Zr75  1  0.90522250  0.91741505  0.63500024  1
  Zr  Zr76  1  0.30288662  0.09734333  0.63195136  1
  Zr  Zr77  1  0.69208118  0.31465061  0.10762350  1
  Zr  Zr78  1  -0.02239252  0.80495086  0.00166380  1
  Zr  Zr79  1  0.50112632  0.69768768  0.36872419  1
  Ta  Ta80  1  0.69952108  0.89152736  0.12928328  1
  Ta  Ta81  1  0.80265426  -0.00147480  0.25649957  1
  Ta  Ta82  1  0.00534865  0.39797824  0.74993130  1
  Ta  Ta83  1  0.29791440  0.12115344  0.86379384  1
  Ta  Ta84  1  -0.01461044  0.20069155  0.73755999  1
  Ta  Ta85  1  0.18769544  0.20938835  0.73649275  1
  Ta  Ta86  1  0.38883391  0.40584973  0.51016927  1
  Ta  Ta87  1  0.29007634  0.30265690  0.12584015  1
  Ta  Ta88  1  0.07780528  0.09100665  0.61602348  1
  Ta  Ta89  1  0.60396698  0.79583394  0.50547288  1
  Ta  Ta90  1  -0.00446676  0.39733466  0.01339115  1
  Ta  Ta91  1  0.50412490  0.49785322  0.87785110  1
  Ta  Ta92  1  0.80647886  0.59774592  0.74196228  1
  Ta  Ta93  1  0.20704710  0.01389913  -0.01157753  1
  Ta  Ta94  1  0.29900330  0.30605421  0.62973173  1
  Ta  Ta95  1  0.10640847  0.29499748  0.12052625  1
  Ta  Ta96  1  0.88401440  0.50490871  0.13132798  1
  Ta  Ta97  1  0.90245331  0.88931182  0.36798784  1
  Ta  Ta98  1  0.30098494  0.69673821  0.87193604  1
  Ta  Ta99  1  0.70752368  0.50283665  0.87951869  1
  Ta  Ta100  1  0.80714498  0.41654563  -0.00146422  1
  Ta  Ta101  1  0.70396736  0.89668112  0.36779328  1
  Ta  Ta102  1  0.19918519  0.58929180  0.75001958  1
  Ta  Ta103  1  0.57901547  0.18847239  0.00593350  1
  Ta  Ta104  1  0.38071951  0.20663171  0.00287216  1
  Ta  Ta105  1  0.39014930  0.40344136  0.24290370  1
  Ta  Ta106  1  0.19940512  0.79445426  0.50469707  1
  Ta  Ta107  1  0.19783790  0.40291917  0.74160281  1
  Ta  Ta108  1  0.40872960  0.80241197  -0.01638938  1
  Ta  Ta109  1  0.29138796  0.31212094  0.87003371  1
  Ta  Ta110  1  0.29795417  0.50540204  0.36582928  1
  Ta  Ta111  1  0.70479334  0.09726067  0.37214597  1
  Ta  Ta112  1  0.41449174  0.01443022  0.75590858  1
  Ta  Ta113  1  0.70956374  0.70617105  0.62734863  1
  Ta  Ta114  1  0.92330358  0.70713319  0.63726937  1
  Ta  Ta115  1  0.08375852  0.49899120  0.62396186  1
  Ta  Ta116  1  0.80151169  0.77751011  0.24917656  1
  Ta  Ta117  1  0.09686302  0.90007786  0.87443392  1
  Ta  Ta118  1  0.48885241  0.29972355  0.11860810  1
  Ta  Ta119  1  0.80731738  -0.00134191  0.49026556  1
  Ti  Ti120  1  0.18967603  0.79013411  0.75497027  1
  Ti  Ti121  1  0.50426139  0.09886157  0.13056469  1
  Ti  Ti122  1  -0.00042849  0.19069393  0.24032231  1
  Ti  Ti123  1  0.31097371  0.89429096  0.64478902  1
  Ti  Ti124  1  0.51289225  0.69747987  0.12643615  1
  Ti  Ti125  1  0.69908464  0.52628382  0.11354390  1
  Ti  Ti126  1  0.90370970  0.30561431  0.37352602  1
  Ti  Ti127  1  0.89754720  0.51310068  0.36973618  1
  Ti  Ti128  1  0.69340335  0.69402326  0.86964428  1
  Ti  Ti129  1  0.19344596  0.19775393  0.25274832  1
  Ti  Ti130  1  0.39002304  0.40178943  -0.00016210  1
  Ti  Ti131  1  0.80428615  0.40135097  0.49113300  1
  Ti  Ti132  1  0.19770066  0.39988331  0.25032090  1
  Ti  Ti133  1  0.29456443  0.89305697  0.37682452  1
  Ti  Ti134  1  0.39579397  0.79740059  0.25028291  1
  Ti  Ti135  1  0.50556809  0.70776949  0.86209481  1
  Ti  Ti136  1  0.60404195  0.19921101  0.49343734  1
  Ti  Ti137  1  0.39592460  0.40111325  0.74319282  1
  Ti  Ti138  1  0.50853782  0.10293989  0.62496039  1
  Ti  Ti139  1  -0.01533504  0.60565810  0.24370688  1
  Ti  Ti140  1  0.10301837  0.09596614  0.39327053  1
  Ti  Ti141  1  0.20608298  0.79257969  0.25255760  1
  Ti  Ti142  1  0.40005807  0.21175220  0.74440559  1
  Ti  Ti143  1  0.29543931  0.09474274  0.38436852  1
  Ti  Ti144  1  0.90566886  0.31063578  0.61458411  1
  Ti  Ti145  1  0.20264391  -0.01029530  0.51026435  1
  Ti  Ti146  1  0.29924213  0.69745745  0.37179369  1
  Ti  Ti147  1  0.69572450  0.89441579  0.63749009  1
  Ti  Ti148  1  0.60683175  0.79267217  0.24744550  1
  Ti  Ti149  1  0.10733708  0.10124411  0.12371996  1
  Ti  Ti150  1  0.60805933  -0.00092169  0.24665738  1
  Ti  Ti151  1  0.59389532  0.41258506  -0.00210351  1
  Ti  Ti152  1  0.60730276  0.79162332  0.00019736  1
  Ti  Ti153  1  0.39590165  0.60438198  0.24477118  1
  Ti  Ti154  1  0.50534006  0.90236158  0.64524238  1
  Ti  Ti155  1  0.00640761  0.00032336  0.24468588  1
  Ti  Ti156  1  0.29431991  0.10700212  0.12055239  1
  Ti  Ti157  1  0.00642765  0.60428570  0.50484118  1
  Ti  Ti158  1  0.08688594  0.30092689  0.61681434  1
  Ti  Ti159  1  0.69326651  0.50186253  0.38582243  1
  Mo  Mo160  1  0.80652739  0.21485070  0.74124707  1
  Mo  Mo161  1  0.60640732  0.60506054  0.51168618  1
  Mo  Mo162  1  0.20946139  0.59955085  -0.00938835  1
  Mo  Mo163  1  0.00697523  0.80564080  0.75924822  1
  Mo  Mo164  1  0.60373151  0.60739564  -0.01404594  1
  Mo  Mo165  1  -0.00307265  0.78834756  0.49807257  1
  Mo  Mo166  1  0.69756297  0.30334001  0.38357399  1
  Mo  Mo167  1  0.20856453  0.80818095  -0.01287636  1
  Mo  Mo168  1  0.39885374  0.80284960  0.76358507  1
  Mo  Mo169  1  0.78733060  0.78267929  0.01307989  1
  Mo  Mo170  1  0.00365186  0.00885890  0.75289441  1
  Mo  Mo171  1  0.79466556  0.59285190  0.25408335  1
  Mo  Mo172  1  0.49152108  0.29234495  0.62600841  1
  Mo  Mo173  1  -0.01788540  0.41129811  0.49492624  1
  Mo  Mo174  1  0.20440279  0.59889294  0.25453010  1
  Mo  Mo175  1  0.69502797  0.70086884  0.12579110  1
  Mo  Mo176  1  0.48829844  0.10702060  0.87375268  1
  Mo  Mo177  1  0.90762006  0.69747619  0.37286908  1
  Mo  Mo178  1  0.90076156  0.11473316  0.61424701  1
  Mo  Mo179  1  0.89775876  0.49985297  0.87397129  1
  Mo  Mo180  1  0.90447582  0.09292050  0.14471010  1
  Mo  Mo181  1  0.61566632  0.61070582  0.24515669  1
  Mo  Mo182  1  0.20152421  0.19413838  0.00072119  1
  Mo  Mo183  1  0.49192168  0.49249709  0.62770982  1
  Mo  Mo184  1  0.80772492  0.19761148  0.27153519  1
  Mo  Mo185  1  0.79149466  0.20029160  0.00124522  1
  Mo  Mo186  1  0.91563891  0.91256269  0.85107073  1
  Mo  Mo187  1  0.60282928  -0.01188958  0.01208149  1
  Mo  Mo188  1  0.10180241  0.69341889  0.63149217  1
  Mo  Mo189  1  0.88996133  0.68897277  0.12733179  1
  Mo  Mo190  1  0.30832245  0.49175960  0.87472733  1
  Mo  Mo191  1  0.29309041  0.49594092  0.63063318  1
  Mo  Mo192  1  -0.00656676  -0.00629920  0.49520721  1
  Mo  Mo193  1  0.60808535  0.79591494  0.74774320  1
  Mo  Mo194  1  0.90795132  0.49707935  0.62554065  1
  Mo  Mo195  1  0.60056261  -0.00127478  0.74013267  1
  Mo  Mo196  1  0.80337420  0.79456858  0.73595114  1
  Mo  Mo197  1  0.78751540  0.60773611  -0.00463572  1
  Mo  Mo198  1  0.00080522  0.20363736  0.50735364  1
  Mo  Mo199  1  0.20687162  0.38969773  0.00413947  1
