# generated using pymatgen
data_HfZrTaTiMo
_symmetry_space_group_name_H-M   'P 1'
_cell_length_a   15.21486357
_cell_length_b   15.22308527
_cell_length_c   16.84292193
_cell_angle_alpha   90.00243116
_cell_angle_beta   89.96933487
_cell_angle_gamma   90.01795376
_symmetry_Int_Tables_number   1
_chemical_formula_structural   HfZrTaTiMo
_chemical_formula_sum   'Hf40 Zr40 Ta40 Ti40 Mo40'
_cell_volume   3901.10908459
_cell_formula_units_Z   40
loop_
 _symmetry_equiv_pos_site_id
 _symmetry_equiv_pos_as_xyz
  1  'x, y, z'
loop_
 _atom_site_type_symbol
 _atom_site_label
 _atom_site_symmetry_multiplicity
 _atom_site_fract_x
 _atom_site_fract_y
 _atom_site_fract_z
 _atom_site_occupancy
  Hf  Hf0  1  0.61984930  0.60039907  0.48716161  1
  Hf  Hf1  1  0.90191895  0.30826474  0.87338316  1
  Hf  Hf2  1  0.09654237  0.49733999  0.37830174  1
  Hf  Hf3  1  0.88386673  0.89760060  0.62767392  1
  Hf  Hf4  1  0.09612602  0.29482378  0.61176351  1
  Hf  Hf5  1  -0.00195867  0.59883112  0.74836466  1
  Hf  Hf6  1  0.39317683  0.79608315  0.25503354  1
  Hf  Hf7  1  0.10515086  0.49019969  0.86137405  1
  Hf  Hf8  1  0.58992143  0.78980269  0.75198983  1
  Hf  Hf9  1  0.59832194  0.40658175  0.48383858  1
  Hf  Hf10  1  0.30597286  0.49001803  0.87335624  1
  Hf  Hf11  1  0.00824329  0.20204137  -0.00416668  1
  Hf  Hf12  1  0.79751345  -0.00903755  0.02296572  1
  Hf  Hf13  1  0.81441325  0.00013248  0.25141107  1
  Hf  Hf14  1  0.00208071  0.00285233  0.49399165  1
  Hf  Hf15  1  0.49636400  0.69368374  0.12155337  1
  Hf  Hf16  1  0.60964091  -0.01098840  0.74479416  1
  Hf  Hf17  1  0.09680121  0.49894184  0.62198273  1
  Hf  Hf18  1  0.09901694  0.30011957  0.38722643  1
  Hf  Hf19  1  0.40624547  -0.00624522  0.75652417  1
  Hf  Hf20  1  0.11289228  0.09052046  0.12350309  1
  Hf  Hf21  1  0.01029873  -0.01380490  -0.00248973  1
  Hf  Hf22  1  0.20684449  0.00565928  0.26606891  1
  Hf  Hf23  1  0.89186902  0.30470115  0.61373804  1
  Hf  Hf24  1  -0.01391826  0.38693561  0.25874426  1
  Hf  Hf25  1  0.58555364  0.39249470  0.75280828  1
  Hf  Hf26  1  0.19580916  0.80571134  0.25778060  1
  Hf  Hf27  1  0.11978298  0.09419038  0.88043365  1
  Hf  Hf28  1  -0.01133085  0.80421518  0.49050590  1
  Hf  Hf29  1  0.68992807  0.30634332  0.61637295  1
  Hf  Hf30  1  0.21759132  0.61331643  0.74018407  1
  Hf  Hf31  1  0.80383701  0.20084622  -0.00750682  1
  Hf  Hf32  1  0.69614516  0.70050707  0.88735967  1
  Hf  Hf33  1  0.29915748  0.49929279  0.37718380  1
  Hf  Hf34  1  0.09655103  0.69658332  0.37016051  1
  Hf  Hf35  1  0.90462808  0.10444403  0.61478218  1
  Hf  Hf36  1  0.21412611  0.61042711  0.50746917  1
  Hf  Hf37  1  0.49372624  0.90439886  0.37166018  1
  Hf  Hf38  1  0.21137365  0.20610912  0.25528335  1
  Hf  Hf39  1  0.09454145  0.30218487  0.13029661  1
  Zr  Zr40  1  0.47511817  0.29708666  0.88278293  1
  Zr  Zr41  1  0.22321532  0.22148065  0.00261112  1
  Zr  Zr42  1  0.31797092  0.28973546  0.38525540  1
  Zr  Zr43  1  0.39566801  0.39430079  0.23957325  1
  Zr  Zr44  1  0.86908417  0.90096445  0.86880943  1
  Zr  Zr45  1  0.00714438  0.58688219  -0.00376127  1
  Zr  Zr46  1  0.29855645  0.87129833  0.62685679  1
  Zr  Zr47  1  0.49616197  0.70721350  0.61885863  1
  Zr  Zr48  1  0.31742474  0.12119304  0.87735490  1
  Zr  Zr49  1  0.70970771  0.08342530  0.87513264  1
  Zr  Zr50  1  0.50615185  0.10580394  0.61573719  1
  Zr  Zr51  1  0.09608173  0.71075139  0.12985280  1
  Zr  Zr52  1  0.80337373  0.62145818  0.75726861  1
  Zr  Zr53  1  0.28687869  0.91148804  0.11701730  1
  Zr  Zr54  1  0.00631946  0.20229769  0.75252508  1
  Zr  Zr55  1  0.38436562  0.79702857  0.77590311  1
  Zr  Zr56  1  0.10340816  0.71613092  0.62619158  1
  Zr  Zr57  1  -0.01432382  0.60359077  0.49858022  1
  Zr  Zr58  1  0.51532892  0.50318685  0.88552645  1
  Zr  Zr59  1  0.79467153  0.20042448  0.75674348  1
  Zr  Zr60  1  0.40591615  0.21610864  0.73667404  1
  Zr  Zr61  1  0.60343762  0.79511474  0.48661687  1
  Zr  Zr62  1  0.71052731  0.12683540  0.14161087  1
  Zr  Zr63  1  0.00422584  -0.00088008  0.75143650  1
  Zr  Zr64  1  0.60413289  -0.00038785  0.48967881  1
  Zr  Zr65  1  0.29559937  0.70430010  0.10854552  1
  Zr  Zr66  1  0.71598068  0.11381730  0.37013657  1
  Zr  Zr67  1  0.48880155  0.11417197  0.36680124  1
  Zr  Zr68  1  0.38997827  0.38356017  0.01605825  1
  Zr  Zr69  1  0.51060341  0.10344266  0.13848180  1
  Zr  Zr70  1  0.29000048  0.50724240  0.12080633  1
  Zr  Zr71  1  0.78473251  0.41406460  0.75952155  1
  Zr  Zr72  1  0.18095411  0.81572019  -0.01446224  1
  Zr  Zr73  1  -0.01573802  0.79409844  0.76158149  1
  Zr  Zr74  1  -0.01988995  0.78972951  -0.01479064  1
  Zr  Zr75  1  0.90080267  0.68549942  0.13773942  1
  Zr  Zr76  1  0.41989138  0.60110252  0.75236138  1
  Zr  Zr77  1  0.30368026  0.08355428  0.61761472  1
  Zr  Zr78  1  0.52395815  0.30180515  0.13038113  1
  Zr  Zr79  1  0.71105116  0.09494783  0.61445536  1
  Ta  Ta80  1  0.79190506  0.41856404  0.48984455  1
  Ta  Ta81  1  0.31420043  0.11298881  0.12406761  1
  Ta  Ta82  1  0.59646882  0.59633447  0.25216142  1
  Ta  Ta83  1  0.88653270  0.48259708  0.13058457  1
  Ta  Ta84  1  0.40722965  0.00561360  0.00233147  1
  Ta  Ta85  1  0.49764503  0.90116140  0.13106137  1
  Ta  Ta86  1  0.80120616  0.59574832  0.00363657  1
  Ta  Ta87  1  0.19845891  0.80273326  0.48401682  1
  Ta  Ta88  1  0.68921716  0.48695854  0.13173685  1
  Ta  Ta89  1  0.88899345  0.29133743  0.12418691  1
  Ta  Ta90  1  0.08704499  0.50449484  0.13492817  1
  Ta  Ta91  1  0.20746362  -0.00936257  0.48799228  1
  Ta  Ta92  1  0.20696546  0.19193561  0.49867585  1
  Ta  Ta93  1  0.51276064  0.09413606  0.88291608  1
  Ta  Ta94  1  0.91589740  0.09889378  0.12770829  1
  Ta  Ta95  1  0.78973855  0.38247162  0.26164363  1
  Ta  Ta96  1  0.59395609  0.21430813  0.48561873  1
  Ta  Ta97  1  0.38687723  0.79070368  0.48302997  1
  Ta  Ta98  1  0.88328968  0.50902913  0.36763173  1
  Ta  Ta99  1  0.20338194  0.20063854  0.74149805  1
  Ta  Ta100  1  0.91343645  0.89112018  0.13566406  1
  Ta  Ta101  1  0.20256315  0.60117600  0.25243352  1
  Ta  Ta102  1  0.60079345  0.39863710  0.26708963  1
  Ta  Ta103  1  0.69805744  0.69228777  0.13537417  1
  Ta  Ta104  1  0.60050446  0.80696565  0.01826555  1
  Ta  Ta105  1  0.78746393  0.79650220  0.02107381  1
  Ta  Ta106  1  0.41124688  0.59535091  0.49891342  1
  Ta  Ta107  1  0.10083071  0.10603017  0.38133691  1
  Ta  Ta108  1  0.60058228  0.80003868  0.24628327  1
  Ta  Ta109  1  0.88192428  0.50661191  0.62044288  1
  Ta  Ta110  1  0.18100706  0.41283727  0.00393018  1
  Ta  Ta111  1  0.78184974  0.40153640  -0.00820651  1
  Ta  Ta112  1  0.10226407  0.90718190  0.62125029  1
  Ta  Ta113  1  0.60947368  0.21028238  -0.00754002  1
  Ta  Ta114  1  0.51254726  0.49454720  0.62084583  1
  Ta  Ta115  1  0.20715676  0.40154794  0.50829453  1
  Ta  Ta116  1  0.60656284  -0.00276446  0.25135319  1
  Ta  Ta117  1  -0.00784754  0.40256700  0.74184222  1
  Ta  Ta118  1  0.80098986  0.79521014  0.25207751  1
  Ta  Ta119  1  0.49160384  0.50061804  0.37170597  1
  Ti  Ti120  1  0.40912202  0.39215678  0.50557088  1
  Ti  Ti121  1  -0.00529249  0.59585629  0.25520096  1
  Ti  Ti122  1  0.10104413  0.69216959  0.87312385  1
  Ti  Ti123  1  0.50178112  0.70273142  0.89629112  1
  Ti  Ti124  1  0.09345853  0.90203332  0.37428748  1
  Ti  Ti125  1  0.49176513  0.90454465  0.60853829  1
  Ti  Ti126  1  -0.01210172  0.39808774  0.00404260  1
  Ti  Ti127  1  0.88976827  0.70481238  0.61970114  1
  Ti  Ti128  1  0.50347548  0.90103585  0.88900264  1
  Ti  Ti129  1  0.10813417  0.30288230  0.86837935  1
  Ti  Ti130  1  -0.00522208  0.18873706  0.25692841  1
  Ti  Ti131  1  0.39441203  0.00378221  0.25121502  1
  Ti  Ti132  1  0.60438254  -0.00082084  0.01521190  1
  Ti  Ti133  1  0.79792596  0.78165042  0.47487600  1
  Ti  Ti134  1  0.69608547  0.88717918  0.61768207  1
  Ti  Ti135  1  0.40044510  0.81041544  -0.00437482  1
  Ti  Ti136  1  0.68587036  0.89384684  0.88205962  1
  Ti  Ti137  1  0.00651192  -0.00496029  0.25767243  1
  Ti  Ti138  1  0.39804606  0.59725769  0.24679694  1
  Ti  Ti139  1  0.90595583  0.09485596  0.87488212  1
  Ti  Ti140  1  0.18909372  0.81088657  0.76791506  1
  Ti  Ti141  1  0.70731790  0.69584367  0.62199461  1
  Ti  Ti142  1  0.70511680  0.89296147  0.36498450  1
  Ti  Ti143  1  0.31455351  0.50033833  0.62402521  1
  Ti  Ti144  1  0.49754012  0.69405067  0.36873815  1
  Ti  Ti145  1  0.20669076  0.39369595  0.73299626  1
  Ti  Ti146  1  0.28808493  0.92191103  0.88676128  1
  Ti  Ti147  1  0.20266407  -0.00103547  0.74792246  1
  Ti  Ti148  1  0.40315094  0.59156851  0.00275609  1
  Ti  Ti149  1  0.30607915  0.29747682  0.61349382  1
  Ti  Ti150  1  0.60823690  0.58971238  0.01209172  1
  Ti  Ti151  1  -0.01061644  0.40428750  0.49597493  1
  Ti  Ti152  1  0.60102727  0.19833099  0.75924504  1
  Ti  Ti153  1  0.29607704  0.69117424  0.89638429  1
  Ti  Ti154  1  0.10636518  0.09867072  0.61676644  1
  Ti  Ti155  1  0.89667008  0.50626384  0.87679802  1
  Ti  Ti156  1  0.61734082  0.58843060  0.74554958  1
  Ti  Ti157  1  0.80896321  -0.01356680  0.48025371  1
  Ti  Ti158  1  0.19489692  0.40497230  0.24759025  1
  Ti  Ti159  1  0.89166017  0.28337772  0.39259019  1
  Mo  Mo160  1  0.69679665  0.90023866  0.13967235  1
  Mo  Mo161  1  0.70403734  0.69500422  0.35132555  1
  Mo  Mo162  1  0.89663284  0.69858925  0.35675473  1
  Mo  Mo163  1  0.50653997  0.50755056  0.12638959  1
  Mo  Mo164  1  0.79571271  -0.00933140  0.74203451  1
  Mo  Mo165  1  0.27695263  0.31858704  0.85839421  1
  Mo  Mo166  1  0.50156368  0.30482972  0.36795917  1
  Mo  Mo167  1  0.70099412  0.50669785  0.62237712  1
  Mo  Mo168  1  0.09973207  0.90339318  0.86631037  1
  Mo  Mo169  1  -0.00634230  0.80719612  0.26215168  1
  Mo  Mo170  1  0.82380138  0.20813776  0.25407110  1
  Mo  Mo171  1  0.30125970  0.89773353  0.37533198  1
  Mo  Mo172  1  0.29738363  0.29998319  0.13162533  1
  Mo  Mo173  1  0.49838605  0.30520501  0.61846900  1
  Mo  Mo174  1  0.61607016  0.21626884  0.26766887  1
  Mo  Mo175  1  0.39609595  -0.00989668  0.49550316  1
  Mo  Mo176  1  0.79633336  0.58608402  0.24011468  1
  Mo  Mo177  1  0.71348085  0.31075975  0.12717211  1
  Mo  Mo178  1  0.91254295  0.09987966  0.37902327  1
  Mo  Mo179  1  0.30641741  0.69088451  0.37014494  1
  Mo  Mo180  1  0.68728155  0.29863917  0.87561305  1
  Mo  Mo181  1  0.30422309  0.09268914  0.38728135  1
  Mo  Mo182  1  0.79870185  0.20416850  0.50179341  1
  Mo  Mo183  1  0.60441349  0.40036830  -0.00053652  1
  Mo  Mo184  1  0.89885413  0.89961755  0.36873394  1
  Mo  Mo185  1  0.40428290  0.20131331  0.50876587  1
  Mo  Mo186  1  0.00283271  0.20036593  0.49761829  1
  Mo  Mo187  1  0.20927023  0.00853680  0.00157184  1
  Mo  Mo188  1  0.09058988  0.90588930  0.13511021  1
  Mo  Mo189  1  0.79962996  0.60942638  0.49554461  1
  Mo  Mo190  1  0.39380394  0.40798141  0.73273174  1
  Mo  Mo191  1  0.70721518  0.30415643  0.38499564  1
  Mo  Mo192  1  0.19749523  0.59571401  -0.00843976  1
  Mo  Mo193  1  0.70274125  0.50478776  0.88209585  1
  Mo  Mo194  1  0.42252284  0.18848942  0.01166508  1
  Mo  Mo195  1  0.77122187  0.81097693  0.74586031  1
  Mo  Mo196  1  0.40076139  0.19652713  0.24696807  1
  Mo  Mo197  1  0.88658054  0.69557170  0.88542376  1
  Mo  Mo198  1  0.30522075  0.69756139  0.62118863  1
  Mo  Mo199  1  0.69967345  0.50613974  0.36096926  1
