# generated using pymatgen
data_HfZrTaTiMo
_symmetry_space_group_name_H-M   'P 1'
_cell_length_a   15.21397494
_cell_length_b   15.20133432
_cell_length_c   16.82977821
_cell_angle_alpha   90.00238744
_cell_angle_beta   90.00468282
_cell_angle_gamma   90.06850535
_symmetry_Int_Tables_number   1
_chemical_formula_structural   HfZrTaTiMo
_chemical_formula_sum   'Hf40 Zr40 Ta40 Ti40 Mo40'
_cell_volume   3892.26577600
_cell_formula_units_Z   40
loop_
 _symmetry_equiv_pos_site_id
 _symmetry_equiv_pos_as_xyz
  1  'x, y, z'
loop_
 _atom_site_type_symbol
 _atom_site_label
 _atom_site_symmetry_multiplicity
 _atom_site_fract_x
 _atom_site_fract_y
 _atom_site_fract_z
 _atom_site_occupancy
  Hf  Hf0  1  0.70179250  0.89894992  0.38668326  1
  Hf  Hf1  1  0.50195325  0.29191955  0.89130203  1
  Hf  Hf2  1  0.79502937  -0.00794185  0.25103756  1
  Hf  Hf3  1  0.40564159  0.40409146  0.76322810  1
  Hf  Hf4  1  0.61188592  0.41758087  -0.00085421  1
  Hf  Hf5  1  0.01091311  -0.00608601  -0.01223467  1
  Hf  Hf6  1  0.30094259  0.90690465  0.62473223  1
  Hf  Hf7  1  0.18437889  0.60381716  -0.00058509  1
  Hf  Hf8  1  0.49395655  0.09474374  0.62644260  1
  Hf  Hf9  1  0.89418337  0.10211940  0.86857807  1
  Hf  Hf10  1  0.49981120  0.89533654  0.63340931  1
  Hf  Hf11  1  0.79315556  0.59104253  0.00612876  1
  Hf  Hf12  1  0.48665278  0.69964943  0.64506064  1
  Hf  Hf13  1  0.20678518  0.80928421  0.25306708  1
  Hf  Hf14  1  0.60317736  0.80800353  0.24773892  1
  Hf  Hf15  1  0.40961828  0.40392468  0.24762284  1
  Hf  Hf16  1  0.39338207  -0.00610022  0.76965831  1
  Hf  Hf17  1  0.68561513  0.49649463  0.37275399  1
  Hf  Hf18  1  0.61021612  0.38952155  0.76152017  1
  Hf  Hf19  1  0.18857758  0.60971641  0.24935430  1
  Hf  Hf20  1  0.78993417  0.21370603  0.74272446  1
  Hf  Hf21  1  0.69641861  0.08096548  0.11510287  1
  Hf  Hf22  1  0.79522537  0.58650168  0.51073688  1
  Hf  Hf23  1  0.49670140  0.90307198  0.38252510  1
  Hf  Hf24  1  0.21847480  0.41017533  0.50461080  1
  Hf  Hf25  1  0.09802396  0.30328651  0.61707796  1
  Hf  Hf26  1  0.10296757  0.30180920  0.13565690  1
  Hf  Hf27  1  0.49851278  0.68426056  0.37083714  1
  Hf  Hf28  1  0.40740624  0.20138894  0.23746516  1
  Hf  Hf29  1  0.49615587  0.49678653  0.63025910  1
  Hf  Hf30  1  0.19998264  0.18270392  0.49271125  1
  Hf  Hf31  1  0.61336261  0.81587277  0.00122195  1
  Hf  Hf32  1  0.30538805  0.30537302  0.11043746  1
  Hf  Hf33  1  0.79510361  -0.02120789  -0.00596269  1
  Hf  Hf34  1  0.08682892  0.49308324  0.85932983  1
  Hf  Hf35  1  0.91212903  0.09978643  0.63588476  1
  Hf  Hf36  1  0.80334916  0.79679933  0.73241202  1
  Hf  Hf37  1  0.20493515  0.40828406  0.74165356  1
  Hf  Hf38  1  0.71658541  0.30415252  0.89166702  1
  Hf  Hf39  1  0.81267969  0.00023073  0.50945664  1
  Zr  Zr40  1  0.91780041  0.68790971  0.14181481  1
  Zr  Zr41  1  0.20820902  0.40102343  0.25648694  1
  Zr  Zr42  1  0.59601434  0.60663842  -0.00476056  1
  Zr  Zr43  1  -0.00019544  0.79221070  -0.00862485  1
  Zr  Zr44  1  0.59823929  0.39761155  0.23283654  1
  Zr  Zr45  1  0.89277114  0.88990967  0.12911559  1
  Zr  Zr46  1  -0.00814728  0.40612786  0.25988419  1
  Zr  Zr47  1  0.10197931  0.08540039  0.13378480  1
  Zr  Zr48  1  0.69089074  0.90329952  0.62337609  1
  Zr  Zr49  1  0.49229946  0.71614757  0.11858918  1
  Zr  Zr50  1  0.91499451  0.31532948  0.87038320  1
  Zr  Zr51  1  -0.00804443  0.58895042  -0.00164140  1
  Zr  Zr52  1  0.02750917  0.00121301  0.49811560  1
  Zr  Zr53  1  0.48668439  0.70162246  0.87252345  1
  Zr  Zr54  1  0.18785113  0.81116549  0.49982780  1
  Zr  Zr55  1  0.31276850  0.30287808  0.62482463  1
  Zr  Zr56  1  0.00689689  0.79101763  0.73857873  1
  Zr  Zr57  1  0.11071875  0.10153698  0.64550910  1
  Zr  Zr58  1  0.09439989  0.51814864  0.38693553  1
  Zr  Zr59  1  0.10642754  0.30428603  0.38199900  1
  Zr  Zr60  1  0.40529731  0.19971540  0.49753126  1
  Zr  Zr61  1  0.59938935  0.19990496  0.23100701  1
  Zr  Zr62  1  0.29820404  0.10633048  0.88645596  1
  Zr  Zr63  1  0.50153327  0.10711133  0.37492585  1
  Zr  Zr64  1  0.31155536  0.51084116  0.37613217  1
  Zr  Zr65  1  0.39972562  0.79022320  0.50161034  1
  Zr  Zr66  1  0.29443848  0.69989948  0.11227384  1
  Zr  Zr67  1  0.01634411  0.39315316  0.00391543  1
  Zr  Zr68  1  0.79611401  0.19813532  0.24586225  1
  Zr  Zr69  1  0.29981881  0.89813698  0.10504373  1
  Zr  Zr70  1  0.80592769  0.42421038  0.73392411  1
  Zr  Zr71  1  0.18441003  0.20347870  -0.00243910  1
  Zr  Zr72  1  0.91960805  0.88601828  0.36942573  1
  Zr  Zr73  1  0.80665160  0.78726295  0.50554768  1
  Zr  Zr74  1  -0.00955070  0.19966449  0.48907145  1
  Zr  Zr75  1  0.89601620  0.67696544  0.86039027  1
  Zr  Zr76  1  0.79869718  0.00401385  0.74625611  1
  Zr  Zr77  1  -0.00144695  0.19399904  0.26351115  1
  Zr  Zr78  1  0.60259087  0.58175985  0.76893426  1
  Zr  Zr79  1  0.68299481  0.68793921  0.63159292  1
  Ta  Ta80  1  0.90240525  0.29275996  0.12161587  1
  Ta  Ta81  1  0.30333572  0.90644763  0.38048515  1
  Ta  Ta82  1  0.71320089  0.30960271  0.10757546  1
  Ta  Ta83  1  0.59936160  0.60043519  0.23610989  1
  Ta  Ta84  1  0.30084120  0.09732486  0.63505896  1
  Ta  Ta85  1  0.30185400  0.09370195  0.11382960  1
  Ta  Ta86  1  0.21190024  0.19154676  0.25336590  1
  Ta  Ta87  1  0.89966363  0.08941665  0.37337031  1
  Ta  Ta88  1  -0.00297214  0.61567179  0.51286891  1
  Ta  Ta89  1  0.90008838  0.30440327  0.62070936  1
  Ta  Ta90  1  0.59450687  0.00617939  0.76319501  1
  Ta  Ta91  1  0.29500964  0.70487590  0.37549866  1
  Ta  Ta92  1  0.80620530  0.19291869  0.00547246  1
  Ta  Ta93  1  0.21427897  0.80202153  0.76014392  1
  Ta  Ta94  1  0.70276757  0.10089207  0.38260533  1
  Ta  Ta95  1  0.42019725  0.40301348  0.49204968  1
  Ta  Ta96  1  0.29736571  0.08777810  0.37012269  1
  Ta  Ta97  1  0.29547795  0.51151521  0.88415217  1
  Ta  Ta98  1  0.08554821  0.71981841  0.37616278  1
  Ta  Ta99  1  0.79355970  0.39438429  0.24832046  1
  Ta  Ta100  1  0.79840291  0.78722606  0.26045691  1
  Ta  Ta101  1  0.09325644  0.10425809  0.86247491  1
  Ta  Ta102  1  0.10141454  0.50883497  0.61899028  1
  Ta  Ta103  1  0.10381109  0.90763714  0.64318566  1
  Ta  Ta104  1  0.09689936  0.88654058  0.12998331  1
  Ta  Ta105  1  0.90397133  0.09339521  0.12124201  1
  Ta  Ta106  1  0.69877534  0.89687191  0.86244685  1
  Ta  Ta107  1  0.40645125  -0.00358589  -0.01182439  1
  Ta  Ta108  1  0.70451237  0.70690678  0.86720298  1
  Ta  Ta109  1  -0.00248236  0.80278641  0.52513151  1
  Ta  Ta110  1  0.39646260  -0.00280077  0.24281204  1
  Ta  Ta111  1  0.09269926  0.51211746  0.13475409  1
  Ta  Ta112  1  0.29515910  0.31357786  0.88876399  1
  Ta  Ta113  1  0.59786881  0.19533345  0.75646227  1
  Ta  Ta114  1  0.51446732  0.29676727  0.63066397  1
  Ta  Ta115  1  0.71247906  0.70965162  0.12701410  1
  Ta  Ta116  1  0.48839196  0.50852199  0.11592630  1
  Ta  Ta117  1  0.69034121  0.29398500  0.37688420  1
  Ta  Ta118  1  0.59648932  0.00694001  0.50096598  1
  Ta  Ta119  1  0.40586828  0.20067031  0.75854041  1
  Ti  Ti120  1  0.41040968  0.19322162  0.00912575  1
  Ti  Ti121  1  0.89117079  0.48602935  0.13240240  1
  Ti  Ti122  1  0.29810039  0.71089284  0.89000742  1
  Ti  Ti123  1  0.19802076  -0.00524483  0.77052800  1
  Ti  Ti124  1  0.79242473  0.19880684  0.50551787  1
  Ti  Ti125  1  0.19107391  0.60816929  0.74451199  1
  Ti  Ti126  1  0.69824420  0.69129478  0.37331904  1
  Ti  Ti127  1  -0.00954582  0.41021433  0.49964643  1
  Ti  Ti128  1  0.19861365  0.61452371  0.50529373  1
  Ti  Ti129  1  0.88153016  0.30049608  0.38267041  1
  Ti  Ti130  1  0.88949321  0.49842732  0.37863398  1
  Ti  Ti131  1  -0.01542998  0.58398854  0.72645249  1
  Ti  Ti132  1  0.89739299  0.88711328  0.86921965  1
  Ti  Ti133  1  0.60280697  0.20807353  0.50089104  1
  Ti  Ti134  1  0.37776058  0.60005708  0.75570479  1
  Ti  Ti135  1  0.68900951  0.10846483  0.62356932  1
  Ti  Ti136  1  0.39215510  0.59425493  0.50786820  1
  Ti  Ti137  1  0.40124045  0.80220042  0.25388433  1
  Ti  Ti138  1  0.59837274  0.19801200  0.01295147  1
  Ti  Ti139  1  0.29025560  0.69984287  0.62992235  1
  Ti  Ti140  1  0.00717120  0.21623997  0.75235127  1
  Ti  Ti141  1  0.49744722  0.89009032  0.87049816  1
  Ti  Ti142  1  0.50603482  0.91853256  0.11935525  1
  Ti  Ti143  1  0.10305621  0.70150210  0.86739358  1
  Ti  Ti144  1  0.58645289  0.58981059  0.50098703  1
  Ti  Ti145  1  0.29256321  0.50106194  0.11463663  1
  Ti  Ti146  1  -0.00289315  0.19536047  -0.00406059  1
  Ti  Ti147  1  0.31707315  0.29461478  0.37483631  1
  Ti  Ti148  1  0.40300759  0.41215380  -0.00373927  1
  Ti  Ti149  1  0.20995842  0.20921867  0.75963657  1
  Ti  Ti150  1  0.60132537  0.39749754  0.50142292  1
  Ti  Ti151  1  0.39727873  0.60269007  0.24448086  1
  Ti  Ti152  1  0.78845439  0.39049513  0.50927926  1
  Ti  Ti153  1  0.59548609  0.00426007  0.25052327  1
  Ti  Ti154  1  0.79570306  0.58994458  0.24974704  1
  Ti  Ti155  1  0.59056136  0.00775501  -0.01608754  1
  Ti  Ti156  1  0.90387932  0.68605203  0.36907523  1
  Ti  Ti157  1  0.11118728  0.92433185  0.35790958  1
  Ti  Ti158  1  0.69386860  0.10550270  0.88146689  1
  Ti  Ti159  1  0.59806981  0.78815107  0.49837823  1
  Mo  Mo160  1  0.70273479  0.50802296  0.13560482  1
  Mo  Mo161  1  0.48447037  0.49638594  0.88112282  1
  Mo  Mo162  1  -0.00684162  0.59802285  0.26091471  1
  Mo  Mo163  1  0.79765190  0.79177965  -0.00864056  1
  Mo  Mo164  1  0.91083643  0.90594893  0.62724018  1
  Mo  Mo165  1  0.00666842  0.40135959  0.73144007  1
  Mo  Mo166  1  0.10061444  0.70501804  0.12892194  1
  Mo  Mo167  1  0.10893317  0.69902013  0.63118350  1
  Mo  Mo168  1  0.10530426  0.09609219  0.35945780  1
  Mo  Mo169  1  0.39317138  0.59674096  -0.00255953  1
  Mo  Mo170  1  0.11137302  0.29623859  0.86399584  1
  Mo  Mo171  1  0.68556645  0.48735605  0.61287214  1
  Mo  Mo172  1  0.89469639  0.49584505  0.87015124  1
  Mo  Mo173  1  0.19288991  -0.00740763  -0.01304981  1
  Mo  Mo174  1  0.39304491  0.00288685  0.50103244  1
  Mo  Mo175  1  0.18672836  0.80807405  -0.01403427  1
  Mo  Mo176  1  0.89980790  0.69099776  0.62826846  1
  Mo  Mo177  1  0.21000432  0.00426408  0.50229245  1
  Mo  Mo178  1  0.72557862  0.50824594  0.87573514  1
  Mo  Mo179  1  0.50399747  0.10173072  0.87809633  1
  Mo  Mo180  1  0.49230161  0.09062862  0.11768510  1
  Mo  Mo181  1  0.38862358  0.79589611  0.75357702  1
  Mo  Mo182  1  0.90370769  0.49281506  0.60600311  1
  Mo  Mo183  1  0.20322860  0.41094563  -0.00030192  1
  Mo  Mo184  1  0.09748297  0.89799245  0.86054436  1
  Mo  Mo185  1  0.50094349  0.30361056  0.10024906  1
  Mo  Mo186  1  0.29656776  0.89274749  0.89209545  1
  Mo  Mo187  1  0.00807855  0.79652424  0.25415031  1
  Mo  Mo188  1  0.50875300  0.30990795  0.37571673  1
  Mo  Mo189  1  0.40570342  0.80614632  -0.00490967  1
  Mo  Mo190  1  0.69424506  0.89313801  0.12945392  1
  Mo  Mo191  1  0.21211882  0.00146037  0.24237739  1
  Mo  Mo192  1  0.59690712  0.80513829  0.76024627  1
  Mo  Mo193  1  0.00036216  -0.00401573  0.24599614  1
  Mo  Mo194  1  0.69499972  0.29633224  0.61877856  1
  Mo  Mo195  1  0.30339658  0.51730925  0.62384402  1
  Mo  Mo196  1  0.79856129  0.60032203  0.73223924  1
  Mo  Mo197  1  0.81475047  0.40117478  0.00857766  1
  Mo  Mo198  1  0.50453909  0.50269979  0.37351387  1
  Mo  Mo199  1  0.00265790  -0.00303675  0.76413326  1
