# generated using pymatgen
data_HfZrTaTiMo
_symmetry_space_group_name_H-M   'P 1'
_cell_length_a   15.20261418
_cell_length_b   15.22621400
_cell_length_c   16.84012509
_cell_angle_alpha   89.94245342
_cell_angle_beta   89.97564550
_cell_angle_gamma   89.92630794
_symmetry_Int_Tables_number   1
_chemical_formula_structural   HfZrTaTiMo
_chemical_formula_sum   'Hf40 Zr40 Ta40 Ti40 Mo40'
_cell_volume   3898.11726108
_cell_formula_units_Z   40
loop_
 _symmetry_equiv_pos_site_id
 _symmetry_equiv_pos_as_xyz
  1  'x, y, z'
loop_
 _atom_site_type_symbol
 _atom_site_label
 _atom_site_symmetry_multiplicity
 _atom_site_fract_x
 _atom_site_fract_y
 _atom_site_fract_z
 _atom_site_occupancy
  Hf  Hf0  1  -0.01559908  0.59312999  0.76127051  1
  Hf  Hf1  1  0.09776037  0.70137893  0.36977707  1
  Hf  Hf2  1  0.90149151  0.69200774  0.12730271  1
  Hf  Hf3  1  0.29498513  0.71072729  0.62583841  1
  Hf  Hf4  1  0.00436807  0.18589737  0.48561244  1
  Hf  Hf5  1  -0.00180375  -0.00986432  0.50134124  1
  Hf  Hf6  1  0.10161431  0.09952913  0.63307061  1
  Hf  Hf7  1  0.39581874  0.21083989  0.00385463  1
  Hf  Hf8  1  0.69218574  0.70597368  0.36344882  1
  Hf  Hf9  1  0.00224464  0.39197381  0.25772859  1
  Hf  Hf10  1  -0.00838931  0.80816855  0.23649427  1
  Hf  Hf11  1  0.20657915  0.19745164  0.49494181  1
  Hf  Hf12  1  0.79801956  0.58906198  -0.00796380  1
  Hf  Hf13  1  0.09891153  0.31698875  0.87693621  1
  Hf  Hf14  1  0.49186806  0.71261187  0.62479456  1
  Hf  Hf15  1  0.71284747  0.09723634  0.11163726  1
  Hf  Hf16  1  0.91558423  0.47653801  0.88824191  1
  Hf  Hf17  1  0.29409897  0.70649215  0.36238741  1
  Hf  Hf18  1  0.89547551  0.28589147  0.12020878  1
  Hf  Hf19  1  0.68825557  0.48501125  0.12234136  1
  Hf  Hf20  1  0.60268406  0.80378464  0.50452651  1
  Hf  Hf21  1  0.41236638  0.41808076  0.26275354  1
  Hf  Hf22  1  -0.01050508  0.19407809  0.26313355  1
  Hf  Hf23  1  0.79171131  -0.00059332  0.75597355  1
  Hf  Hf24  1  0.11535473  0.50147526  0.14257331  1
  Hf  Hf25  1  0.79917481  0.58757176  0.25595378  1
  Hf  Hf26  1  0.88682382  0.90609382  0.10489436  1
  Hf  Hf27  1  0.09009988  0.69488890  0.62679462  1
  Hf  Hf28  1  0.40452038  0.80755238  0.24827945  1
  Hf  Hf29  1  0.70777906  0.50143586  0.62287109  1
  Hf  Hf30  1  0.69942733  0.70545571  0.13165024  1
  Hf  Hf31  1  0.01199779  0.59570880  -0.00281204  1
  Hf  Hf32  1  0.79125154  0.17886684  0.50294919  1
  Hf  Hf33  1  0.00494862  0.00539375  0.23861456  1
  Hf  Hf34  1  0.50248901  0.32250523  0.12194694  1
  Hf  Hf35  1  0.22089802  -0.01123054  0.76009610  1
  Hf  Hf36  1  0.90400188  0.90541410  0.88916967  1
  Hf  Hf37  1  0.31027511  0.10437782  0.62655618  1
  Hf  Hf38  1  0.58630158  0.81220617  0.75182342  1
  Hf  Hf39  1  0.68931245  0.28450504  0.38934979  1
  Zr  Zr40  1  0.67375818  0.10033962  0.87370230  1
  Zr  Zr41  1  0.39361974  0.81134989  0.48401323  1
  Zr  Zr42  1  0.58288125  0.58076272  0.25733097  1
  Zr  Zr43  1  0.21054437  0.60783112  0.00566008  1
  Zr  Zr44  1  0.11816717  0.69397118  0.86819633  1
  Zr  Zr45  1  0.91376880  0.49352197  0.60504019  1
  Zr  Zr46  1  0.60198197  0.38183598  0.73890293  1
  Zr  Zr47  1  0.80507087  0.80025404  0.50659962  1
  Zr  Zr48  1  0.79688664  0.38449495  0.25907109  1
  Zr  Zr49  1  0.20454597  -0.00544886  0.01305444  1
  Zr  Zr50  1  0.39707955  0.21896640  0.24978114  1
  Zr  Zr51  1  0.10535628  0.10502233  0.87405067  1
  Zr  Zr52  1  0.79601246  0.20263288  0.75749477  1
  Zr  Zr53  1  0.20929498  0.39491431  0.00480056  1
  Zr  Zr54  1  0.32526383  0.49707128  0.12972171  1
  Zr  Zr55  1  0.40841115  0.02013990  0.48601531  1
  Zr  Zr56  1  0.89430002  0.69449460  0.62356465  1
  Zr  Zr57  1  0.19229828  0.81849708  0.23273950  1
  Zr  Zr58  1  0.18725506  0.20492409  0.25185094  1
  Zr  Zr59  1  0.39010155  0.61451179  0.76256426  1
  Zr  Zr60  1  0.49433215  0.68999634  0.12782724  1
  Zr  Zr61  1  0.00008022  0.00136821  0.75833886  1
  Zr  Zr62  1  0.79616975  0.78963431  -0.00993408  1
  Zr  Zr63  1  0.21230672  0.60073140  0.50457670  1
  Zr  Zr64  1  0.20669012  0.40252128  0.73186919  1
  Zr  Zr65  1  0.39704219  0.00321605  0.24721267  1
  Zr  Zr66  1  0.52060010  0.10961247  0.13811102  1
  Zr  Zr67  1  0.90408427  0.29439849  0.61039610  1
  Zr  Zr68  1  0.48702523  0.50467173  0.63251957  1
  Zr  Zr69  1  0.41130126  0.00245724  0.01807620  1
  Zr  Zr70  1  0.58996070  0.59637262  -0.00679399  1
  Zr  Zr71  1  0.89769595  0.70120759  0.37008028  1
  Zr  Zr72  1  0.29220849  0.49958975  0.87057711  1
  Zr  Zr73  1  0.81484700  0.39869112  0.75114638  1
  Zr  Zr74  1  0.90321992  0.48266940  0.11636153  1
  Zr  Zr75  1  0.19158254  0.40876364  0.51567212  1
  Zr  Zr76  1  0.51929851  0.91170800  0.36788158  1
  Zr  Zr77  1  0.68772367  0.69556630  0.86868375  1
  Zr  Zr78  1  0.80685216  0.78971023  0.76323406  1
  Zr  Zr79  1  0.11044310  0.89179116  0.63049266  1
  Ta  Ta80  1  0.79895865  -0.01381830  0.24463962  1
  Ta  Ta81  1  0.09571348  0.29502097  0.62222262  1
  Ta  Ta82  1  0.29233802  0.11370011  0.13026156  1
  Ta  Ta83  1  0.29534700  0.31684463  0.38076620  1
  Ta  Ta84  1  0.38526884  0.80223266  0.01122737  1
  Ta  Ta85  1  0.69796086  0.28803254  0.12207597  1
  Ta  Ta86  1  0.11332024  0.49652401  0.36361094  1
  Ta  Ta87  1  0.20602833  0.20430391  0.74876483  1
  Ta  Ta88  1  0.69540477  0.48860139  0.39040511  1
  Ta  Ta89  1  0.31502080  0.90704182  0.62051324  1
  Ta  Ta90  1  0.00621491  0.79752758  0.76479095  1
  Ta  Ta91  1  0.50347623  0.49525688  0.86243010  1
  Ta  Ta92  1  0.68542056  0.90541159  0.88565237  1
  Ta  Ta93  1  0.70026157  0.48971106  0.86479223  1
  Ta  Ta94  1  0.29355664  0.69368623  0.14200838  1
  Ta  Ta95  1  0.38468701  0.82339465  0.75877993  1
  Ta  Ta96  1  0.49573550  0.30606067  0.39148962  1
  Ta  Ta97  1  0.80069789  0.19677798  -0.02119892  1
  Ta  Ta98  1  0.79940943  -0.00982599  0.51159971  1
  Ta  Ta99  1  0.10133394  0.90836615  0.37245732  1
  Ta  Ta100  1  0.39375059  0.41640633  0.50152012  1
  Ta  Ta101  1  0.59327785  0.39498552  0.51350695  1
  Ta  Ta102  1  0.51404179  0.11769992  0.36380752  1
  Ta  Ta103  1  0.79001265  0.18226620  0.25624744  1
  Ta  Ta104  1  0.59308528  0.59949985  0.49986993  1
  Ta  Ta105  1  0.01329094  0.79680541  0.00375299  1
  Ta  Ta106  1  0.49014904  0.92349094  0.87854454  1
  Ta  Ta107  1  0.89742127  0.09295796  0.62790934  1
  Ta  Ta108  1  0.19795304  0.19812688  0.00632403  1
  Ta  Ta109  1  0.90514068  0.49300867  0.38866119  1
  Ta  Ta110  1  0.69550678  0.69346316  0.63504282  1
  Ta  Ta111  1  0.69425077  0.08418323  0.37639382  1
  Ta  Ta112  1  0.60944334  0.00258476  0.51682440  1
  Ta  Ta113  1  0.79150446  0.59889813  0.49119107  1
  Ta  Ta114  1  0.58232781  0.18860128  0.51702387  1
  Ta  Ta115  1  0.20422152  -0.00113820  0.49359735  1
  Ta  Ta116  1  0.11494061  0.89166424  0.88177273  1
  Ta  Ta117  1  0.70004366  0.89729644  0.63425878  1
  Ta  Ta118  1  0.58010613  0.81396283  0.00340141  1
  Ta  Ta119  1  0.71414233  0.90129011  0.37376578  1
  Ti  Ti120  1  0.29400275  0.10497502  0.36635039  1
  Ti  Ti121  1  0.40840472  0.19319238  0.75069022  1
  Ti  Ti122  1  0.40135582  0.38918960  0.74658668  1
  Ti  Ti123  1  0.41199480  0.40712787  -0.01209858  1
  Ti  Ti124  1  0.31601278  0.09428696  0.87610838  1
  Ti  Ti125  1  0.10121898  0.30298583  0.37999064  1
  Ti  Ti126  1  0.49295151  0.68841906  0.37690436  1
  Ti  Ti127  1  0.79508640  0.38046619  -0.01096072  1
  Ti  Ti128  1  -0.00481250  0.20545536  0.75671403  1
  Ti  Ti129  1  0.89076388  0.29869539  0.39043878  1
  Ti  Ti130  1  0.40088896  0.60305878  -0.01159990  1
  Ti  Ti131  1  0.90613138  0.89485418  0.63589433  1
  Ti  Ti132  1  0.19419719  0.00694865  0.23446249  1
  Ti  Ti133  1  0.01218610  0.39833120  0.74380864  1
  Ti  Ti134  1  0.00419433  0.59791421  0.25134607  1
  Ti  Ti135  1  0.19107543  0.59305955  0.73844278  1
  Ti  Ti136  1  0.90195747  0.09950349  0.11343964  1
  Ti  Ti137  1  0.60245548  0.38696534  0.26027742  1
  Ti  Ti138  1  0.89929190  0.89459344  0.37100594  1
  Ti  Ti139  1  0.59264647  0.19384130  0.72847854  1
  Ti  Ti140  1  0.58103450  0.00645810  0.73568204  1
  Ti  Ti141  1  0.70204403  0.29311473  0.61282120  1
  Ti  Ti142  1  0.61069620  0.82454973  0.23872872  1
  Ti  Ti143  1  0.00639517  0.01030333  -0.00002283  1
  Ti  Ti144  1  0.60371943  0.39551095  -0.01405080  1
  Ti  Ti145  1  0.89114351  0.08146121  0.37534216  1
  Ti  Ti146  1  0.48618163  0.71737148  0.87838202  1
  Ti  Ti147  1  -0.00067260  0.20749092  -0.00722611  1
  Ti  Ti148  1  0.01138007  0.59089936  0.49139517  1
  Ti  Ti149  1  0.19811291  0.80014459  0.02154756  1
  Ti  Ti150  1  0.68965093  0.91040892  0.10705361  1
  Ti  Ti151  1  0.59917722  0.59959794  0.75139051  1
  Ti  Ti152  1  0.19653409  0.81070714  0.49275849  1
  Ti  Ti153  1  0.30488480  0.28918625  0.86865269  1
  Ti  Ti154  1  0.59675164  0.20565787  -0.00562549  1
  Ti  Ti155  1  0.50638563  0.29266044  0.86971123  1
  Ti  Ti156  1  0.10144244  0.29679063  0.12446124  1
  Ti  Ti157  1  0.30690723  0.51315499  0.36956047  1
  Ti  Ti158  1  0.31407599  0.30038234  0.61853362  1
  Ti  Ti159  1  0.00254607  0.79843943  0.49748708  1
  Mo  Mo160  1  0.20869461  0.39515047  0.25801773  1
  Mo  Mo161  1  0.80006464  0.00617015  -0.01427501  1
  Mo  Mo162  1  0.40286465  0.60515913  0.49645675  1
  Mo  Mo163  1  0.39988892  0.60681443  0.25700844  1
  Mo  Mo164  1  0.39591430  0.21056464  0.48845507  1
  Mo  Mo165  1  0.79399990  0.39478405  0.49343431  1
  Mo  Mo166  1  0.48743281  0.29364234  0.61722364  1
  Mo  Mo167  1  0.08883785  0.11230195  0.11391844  1
  Mo  Mo168  1  0.61846072  0.01099949  0.24819140  1
  Mo  Mo169  1  0.00564594  0.39390468  0.48157049  1
  Mo  Mo170  1  0.09204139  0.50081876  0.62321853  1
  Mo  Mo171  1  0.69240782  0.30338596  0.87558190  1
  Mo  Mo172  1  0.59707262  0.00380416  -0.00184495  1
  Mo  Mo173  1  0.20005243  0.59967355  0.25196601  1
  Mo  Mo174  1  0.50981920  0.89922217  0.12984740  1
  Mo  Mo175  1  0.79245731  0.59070222  0.75857291  1
  Mo  Mo176  1  0.90414594  0.10264065  0.88132032  1
  Mo  Mo177  1  0.30228940  0.89352471  0.88802229  1
  Mo  Mo178  1  0.49457918  0.09835239  0.62418147  1
  Mo  Mo179  1  0.30267304  0.90077899  0.12807033  1
  Mo  Mo180  1  0.20390150  0.79685480  0.75158329  1
  Mo  Mo181  1  0.50571525  0.49636370  0.11581950  1
  Mo  Mo182  1  0.10413889  0.49554140  0.87130156  1
  Mo  Mo183  1  0.40720985  0.00390765  0.75234768  1
  Mo  Mo184  1  0.30148817  0.71853500  0.88213266  1
  Mo  Mo185  1  0.48949937  0.11359503  0.87452459  1
  Mo  Mo186  1  0.09003923  0.90721513  0.11174959  1
  Mo  Mo187  1  0.28296468  0.91733970  0.37013693  1
  Mo  Mo188  1  0.00644823  0.39133773  0.01338236  1
  Mo  Mo189  1  0.30480623  0.50518081  0.63251521  1
  Mo  Mo190  1  0.29584226  0.30314924  0.12601153  1
  Mo  Mo191  1  0.09647236  0.69794598  0.12942121  1
  Mo  Mo192  1  0.60999399  0.21234296  0.25296210  1
  Mo  Mo193  1  0.49622464  0.90477432  0.62299334  1
  Mo  Mo194  1  0.90616247  0.29148120  0.87969077  1
  Mo  Mo195  1  0.70158374  0.09522315  0.63232673  1
  Mo  Mo196  1  0.79566018  0.80511840  0.24283973  1
  Mo  Mo197  1  0.50136518  0.49877732  0.39371779  1
  Mo  Mo198  1  0.10619667  0.08840325  0.37370651  1
  Mo  Mo199  1  0.90649321  0.69607876  0.88148525  1
