# generated using pymatgen
data_HfZrTaTiMo
_symmetry_space_group_name_H-M   'P 1'
_cell_length_a   15.20524039
_cell_length_b   15.21270502
_cell_length_c   16.85495459
_cell_angle_alpha   89.97631189
_cell_angle_beta   90.03252584
_cell_angle_gamma   89.87309490
_symmetry_Int_Tables_number   1
_chemical_formula_structural   HfZrTaTiMo
_chemical_formula_sum   'Hf40 Zr40 Ta40 Ti40 Mo40'
_cell_volume   3898.75683280
_cell_formula_units_Z   40
loop_
 _symmetry_equiv_pos_site_id
 _symmetry_equiv_pos_as_xyz
  1  'x, y, z'
loop_
 _atom_site_type_symbol
 _atom_site_label
 _atom_site_symmetry_multiplicity
 _atom_site_fract_x
 _atom_site_fract_y
 _atom_site_fract_z
 _atom_site_occupancy
  Hf  Hf0  1  0.39119871  0.59479602  0.00164187  1
  Hf  Hf1  1  0.40720519  0.20178180  0.50032302  1
  Hf  Hf2  1  0.49961265  0.69329203  0.86787449  1
  Hf  Hf3  1  0.00014679  0.20641154  0.25190044  1
  Hf  Hf4  1  0.80421041  0.18977881  0.75403797  1
  Hf  Hf5  1  0.60660910  0.00534089  0.51792058  1
  Hf  Hf6  1  0.70282573  0.50205441  0.12908853  1
  Hf  Hf7  1  0.59738460  0.42524474  0.73734724  1
  Hf  Hf8  1  0.39903729  0.40511246  0.26116995  1
  Hf  Hf9  1  0.19865527  0.78864926  0.24153337  1
  Hf  Hf10  1  0.60933825  0.00754238  0.73994288  1
  Hf  Hf11  1  0.30164082  0.10847195  0.14465337  1
  Hf  Hf12  1  0.40768572  -0.00340743  0.49880931  1
  Hf  Hf13  1  0.29649236  0.50130437  0.38952247  1
  Hf  Hf14  1  0.40693698  0.81098790  -0.00156233  1
  Hf  Hf15  1  0.50333382  0.29498504  0.13019973  1
  Hf  Hf16  1  0.86936170  0.49236364  0.62433675  1
  Hf  Hf17  1  0.71881435  0.69022713  0.61767726  1
  Hf  Hf18  1  0.59660851  0.21354570  0.74372564  1
  Hf  Hf19  1  0.10576721  0.30514310  0.87044212  1
  Hf  Hf20  1  0.59030186  -0.00487400  -0.01098476  1
  Hf  Hf21  1  0.19471006  0.40865221  0.73058087  1
  Hf  Hf22  1  0.58753285  0.39875189  -0.00521176  1
  Hf  Hf23  1  0.18658234  0.41144892  0.00387580  1
  Hf  Hf24  1  0.29734220  0.09287819  0.36652764  1
  Hf  Hf25  1  0.80412657  0.60244993  0.25592562  1
  Hf  Hf26  1  0.20053302  0.00098044  0.00718551  1
  Hf  Hf27  1  0.39779537  0.39471853  0.72161987  1
  Hf  Hf28  1  0.09570602  0.08006711  0.63662741  1
  Hf  Hf29  1  0.19127252  0.39736738  0.52257937  1
  Hf  Hf30  1  0.01722948  0.78988063  0.49262115  1
  Hf  Hf31  1  0.28087083  0.51361365  0.87679199  1
  Hf  Hf32  1  0.91112812  0.30186759  0.87164569  1
  Hf  Hf33  1  0.70370869  0.89612537  0.87562012  1
  Hf  Hf34  1  0.60188215  0.61671279  0.25973612  1
  Hf  Hf35  1  0.30599998  0.30460905  0.12146131  1
  Hf  Hf36  1  0.69755954  0.09430187  0.11636560  1
  Hf  Hf37  1  0.70822644  0.30073765  0.12227909  1
  Hf  Hf38  1  0.50795042  0.67954906  0.62572040  1
  Hf  Hf39  1  0.49648503  0.90104813  0.85811684  1
  Zr  Zr40  1  0.41014262  0.20479301  0.26672510  1
  Zr  Zr41  1  0.49587894  0.50203234  0.13769945  1
  Zr  Zr42  1  0.60468065  0.60306899  0.48061098  1
  Zr  Zr43  1  0.61032762  0.78773212  0.74249837  1
  Zr  Zr44  1  0.72177629  0.90370692  0.62969289  1
  Zr  Zr45  1  -0.00522206  0.78883093  0.24437808  1
  Zr  Zr46  1  0.59374870  0.60503761  0.00572089  1
  Zr  Zr47  1  0.29504341  0.91521916  0.63376462  1
  Zr  Zr48  1  0.28739092  0.30142170  0.38514283  1
  Zr  Zr49  1  0.60543660  0.40221636  0.50722068  1
  Zr  Zr50  1  0.29977511  0.91914680  0.86064416  1
  Zr  Zr51  1  0.90307216  0.09868466  0.12998262  1
  Zr  Zr52  1  0.72353191  0.31828871  0.63364959  1
  Zr  Zr53  1  0.89101990  0.89870503  0.36876709  1
  Zr  Zr54  1  0.31613202  0.31633085  0.88325581  1
  Zr  Zr55  1  0.00425087  -0.00332437  0.49667860  1
  Zr  Zr56  1  0.18720899  0.61099451  0.73921780  1
  Zr  Zr57  1  0.39816486  0.20291764  0.74574876  1
  Zr  Zr58  1  0.80275229  0.59733891  0.76503003  1
  Zr  Zr59  1  0.89708417  0.89822753  0.12122272  1
  Zr  Zr60  1  0.80628056  0.19883625  -0.01343205  1
  Zr  Zr61  1  0.38951934  0.61550861  0.25826126  1
  Zr  Zr62  1  0.10017566  0.29831562  0.12407919  1
  Zr  Zr63  1  -0.00975019  0.19395882  0.50041028  1
  Zr  Zr64  1  0.39471920  0.59427143  0.74719887  1
  Zr  Zr65  1  0.27483752  0.69979552  0.39737430  1
  Zr  Zr66  1  -0.01810378  0.39234583  0.50599887  1
  Zr  Zr67  1  0.90240660  0.49203494  0.12566067  1
  Zr  Zr68  1  0.00886950  0.77445625  0.75871134  1
  Zr  Zr69  1  0.82249631  0.80273296  0.76576162  1
  Zr  Zr70  1  0.10395038  0.88699778  0.88025149  1
  Zr  Zr71  1  0.11388179  0.89859425  0.36764446  1
  Zr  Zr72  1  0.89759553  0.09938552  0.36199979  1
  Zr  Zr73  1  0.10364104  0.50536880  0.38479622  1
  Zr  Zr74  1  0.59083578  0.19659220  -0.01598602  1
  Zr  Zr75  1  0.30887359  0.90637412  0.13457610  1
  Zr  Zr76  1  0.20535955  0.20364899  0.74267720  1
  Zr  Zr77  1  0.78025214  0.80068358  0.24657335  1
  Zr  Zr78  1  0.31660072  0.88890088  0.36833614  1
  Zr  Zr79  1  0.10511783  0.09197886  0.86493290  1
  Ta  Ta80  1  0.61440234  0.19007933  0.25360613  1
  Ta  Ta81  1  0.70324762  0.69833215  0.89065161  1
  Ta  Ta82  1  0.91360889  0.69182470  0.61850004  1
  Ta  Ta83  1  0.18192561  0.61166605  0.01325992  1
  Ta  Ta84  1  0.71070668  0.47774945  0.36517703  1
  Ta  Ta85  1  0.49939606  0.09634249  0.12922026  1
  Ta  Ta86  1  0.29070327  0.70703451  0.60944041  1
  Ta  Ta87  1  0.07422381  0.50207605  0.86936817  1
  Ta  Ta88  1  0.10999907  0.10387636  0.36429648  1
  Ta  Ta89  1  0.42717232  -0.00785707  0.25987581  1
  Ta  Ta90  1  0.49407478  0.72842478  0.37574459  1
  Ta  Ta91  1  0.80521386  -0.00260399  -0.01337816  1
  Ta  Ta92  1  0.39876415  0.79830657  0.73465400  1
  Ta  Ta93  1  0.59985825  0.80850645  0.50822433  1
  Ta  Ta94  1  0.01188961  0.78167074  0.00516270  1
  Ta  Ta95  1  0.69522193  0.89439923  0.11106925  1
  Ta  Ta96  1  0.90073712  0.30072261  0.11883187  1
  Ta  Ta97  1  0.80435081  0.41063760  -0.01317488  1
  Ta  Ta98  1  0.49495312  0.09600526  0.63031640  1
  Ta  Ta99  1  0.18961326  0.59647682  0.23834972  1
  Ta  Ta100  1  0.19287093  0.40080820  0.24878007  1
  Ta  Ta101  1  0.89908700  0.49672984  0.37251734  1
  Ta  Ta102  1  0.52592764  0.09357361  0.37767638  1
  Ta  Ta103  1  0.29174753  0.50092068  0.12586793  1
  Ta  Ta104  1  0.68419194  0.91355866  0.37810376  1
  Ta  Ta105  1  0.70065551  0.09840364  0.87087180  1
  Ta  Ta106  1  0.01187202  0.19234120  -0.00066696  1
  Ta  Ta107  1  0.40971480  0.80414779  0.51716951  1
  Ta  Ta108  1  0.20998467  0.19297492  -0.00440847  1
  Ta  Ta109  1  0.51025340  0.90462899  0.12692957  1
  Ta  Ta110  1  0.91100647  0.89242028  0.62111839  1
  Ta  Ta111  1  0.69761334  0.31166022  0.86559662  1
  Ta  Ta112  1  -0.00305935  0.40220565  0.25679467  1
  Ta  Ta113  1  0.00434547  0.59820847  0.24928037  1
  Ta  Ta114  1  0.19201823  0.19144301  0.50812116  1
  Ta  Ta115  1  0.39721824  0.02038135  -0.00158718  1
  Ta  Ta116  1  0.29857063  0.70352230  0.11815504  1
  Ta  Ta117  1  -0.02039931  -0.01616227  0.75930738  1
  Ta  Ta118  1  0.87175690  0.30417975  0.36756875  1
  Ta  Ta119  1  0.80176667  0.00892621  0.50034355  1
  Ti  Ti120  1  0.80611787  0.80419237  0.49579467  1
  Ti  Ti121  1  0.50334950  0.50055753  0.37196083  1
  Ti  Ti122  1  0.79931148  0.20977170  0.51063006  1
  Ti  Ti123  1  0.30383729  0.51442965  0.60649937  1
  Ti  Ti124  1  0.40817811  0.39928640  0.51202558  1
  Ti  Ti125  1  0.81031331  0.79403653  -0.00662419  1
  Ti  Ti126  1  0.80042530  0.59101343  0.48697923  1
  Ti  Ti127  1  0.48723934  0.48556847  0.87329129  1
  Ti  Ti128  1  0.88775731  0.08827163  0.62942015  1
  Ti  Ti129  1  0.70120501  0.71611129  0.37994608  1
  Ti  Ti130  1  0.10584450  0.68552891  0.88282819  1
  Ti  Ti131  1  0.10799471  0.09751077  0.13553116  1
  Ti  Ti132  1  0.08674038  0.29061519  0.63032887  1
  Ti  Ti133  1  0.70966056  0.11391461  0.38017768  1
  Ti  Ti134  1  0.60785466  0.38877334  0.25811591  1
  Ti  Ti135  1  0.29637879  0.10395796  0.62174751  1
  Ti  Ti136  1  0.90451012  0.69534007  0.37764118  1
  Ti  Ti137  1  0.07463185  0.51776635  0.62710423  1
  Ti  Ti138  1  0.09432844  0.29831183  0.37802324  1
  Ti  Ti139  1  0.69766086  0.70765586  0.11167780  1
  Ti  Ti140  1  0.10413404  0.89420915  0.12093034  1
  Ti  Ti141  1  0.40723426  0.60391329  0.49342694  1
  Ti  Ti142  1  0.51655812  0.29909658  0.38188265  1
  Ti  Ti143  1  0.40488475  0.20580691  -0.00776053  1
  Ti  Ti144  1  -0.00491874  0.19012406  0.74749705  1
  Ti  Ti145  1  0.60778325  0.20062883  0.51660965  1
  Ti  Ti146  1  0.10110926  0.88734623  0.63045031  1
  Ti  Ti147  1  -0.00305643  0.59916418  0.49600728  1
  Ti  Ti148  1  0.48659640  0.09995219  0.86111367  1
  Ti  Ti149  1  0.89395463  0.69005515  0.11417091  1
  Ti  Ti150  1  0.50293594  0.71775044  0.13196833  1
  Ti  Ti151  1  -0.00775690  0.58074616  0.00199491  1
  Ti  Ti152  1  0.29305851  0.71663160  0.88214001  1
  Ti  Ti153  1  0.78222695  0.00773419  0.24853500  1
  Ti  Ti154  1  0.69298354  0.50639318  0.88028399  1
  Ti  Ti155  1  -0.00271180  -0.00368293  -0.00272839  1
  Ti  Ti156  1  0.20377919  0.79922741  0.74730241  1
  Ti  Ti157  1  0.20009980  -0.00362980  0.49839029  1
  Ti  Ti158  1  -0.01653067  0.40328609  0.74042233  1
  Ti  Ti159  1  0.01168611  -0.00571714  0.24581412  1
  Mo  Mo160  1  0.09292749  0.69169245  0.37251089  1
  Mo  Mo161  1  0.61072888  0.00100088  0.24834425  1
  Mo  Mo162  1  0.90671397  0.09224708  0.87708292  1
  Mo  Mo163  1  0.69136271  0.28660892  0.37937263  1
  Mo  Mo164  1  0.69212346  0.51936893  0.62230762  1
  Mo  Mo165  1  -0.00571104  0.59119746  0.74843270  1
  Mo  Mo166  1  0.80832246  -0.00001136  0.76133242  1
  Mo  Mo167  1  0.90885072  0.89217899  0.89535347  1
  Mo  Mo168  1  0.49541981  0.50509981  0.61161823  1
  Mo  Mo169  1  0.79989320  0.39251989  0.24771018  1
  Mo  Mo170  1  0.18339614  0.60528848  0.51850408  1
  Mo  Mo171  1  0.29400409  0.29655948  0.60764826  1
  Mo  Mo172  1  0.79775876  0.39996471  0.49392051  1
  Mo  Mo173  1  0.60101970  0.80086013  -0.00023257  1
  Mo  Mo174  1  0.19080399  -0.00138260  0.74642607  1
  Mo  Mo175  1  0.59311070  0.81147323  0.25005356  1
  Mo  Mo176  1  0.09069799  0.69573515  0.12047221  1
  Mo  Mo177  1  0.89573559  0.49439532  0.87637491  1
  Mo  Mo178  1  0.80085118  0.60144083  -0.00473580  1
  Mo  Mo179  1  0.79508433  0.20132684  0.24479834  1
  Mo  Mo180  1  0.79587709  0.40162324  0.76778412  1
  Mo  Mo181  1  0.09776007  0.70404122  0.62242395  1
  Mo  Mo182  1  0.20289346  0.81028882  0.50669577  1
  Mo  Mo183  1  0.19389305  0.20668206  0.25653447  1
  Mo  Mo184  1  0.50426548  0.30916666  0.87010108  1
  Mo  Mo185  1  -0.00403745  0.39009850  -0.00246475  1
  Mo  Mo186  1  0.20538112  0.79618182  0.00558896  1
  Mo  Mo187  1  0.40120832  0.00743936  0.74135534  1
  Mo  Mo188  1  0.90527774  0.29106287  0.63852855  1
  Mo  Mo189  1  0.50975696  0.90266226  0.38181520  1
  Mo  Mo190  1  0.39678387  0.40362860  0.00243729  1
  Mo  Mo191  1  0.70849957  0.10667754  0.62197783  1
  Mo  Mo192  1  0.19749573  0.00041704  0.24177442  1
  Mo  Mo193  1  0.50269341  0.29677926  0.61258187  1
  Mo  Mo194  1  0.60202567  0.60070896  0.75957780  1
  Mo  Mo195  1  0.91435065  0.68334206  0.89669524  1
  Mo  Mo196  1  0.30198572  0.10614143  0.87971007  1
  Mo  Mo197  1  0.50165603  0.89417454  0.63486468  1
  Mo  Mo198  1  0.40905836  0.79629887  0.24345169  1
  Mo  Mo199  1  0.09592218  0.49816527  0.12984041  1
