# generated using pymatgen
data_HfZrTaTiMo
_symmetry_space_group_name_H-M   'P 1'
_cell_length_a   15.22172208
_cell_length_b   15.22362209
_cell_length_c   16.86276101
_cell_angle_alpha   89.96853537
_cell_angle_beta   89.99585524
_cell_angle_gamma   89.94117460
_symmetry_Int_Tables_number   1
_chemical_formula_structural   HfZrTaTiMo
_chemical_formula_sum   'Hf40 Zr40 Ta40 Ti40 Mo40'
_cell_volume   3907.60064104
_cell_formula_units_Z   40
loop_
 _symmetry_equiv_pos_site_id
 _symmetry_equiv_pos_as_xyz
  1  'x, y, z'
loop_
 _atom_site_type_symbol
 _atom_site_label
 _atom_site_symmetry_multiplicity
 _atom_site_fract_x
 _atom_site_fract_y
 _atom_site_fract_z
 _atom_site_occupancy
  Hf  Hf0  1  0.50781312  0.88950860  0.11240945  1
  Hf  Hf1  1  0.80968947  0.39037060  0.75109886  1
  Hf  Hf2  1  0.50155487  0.09218001  0.37079243  1
  Hf  Hf3  1  0.60439049  0.40225425  0.74502683  1
  Hf  Hf4  1  0.30080859  0.50681932  0.38309552  1
  Hf  Hf5  1  0.30363384  0.89049325  0.38095978  1
  Hf  Hf6  1  0.40192048  -0.00972328  0.24287792  1
  Hf  Hf7  1  0.91475172  0.50232920  0.63712052  1
  Hf  Hf8  1  0.90618910  0.51496660  0.38428007  1
  Hf  Hf9  1  0.39083473  0.60502729  -0.00385660  1
  Hf  Hf10  1  0.39325479  0.40027210  0.74047895  1
  Hf  Hf11  1  0.79698078  0.80709717  -0.00244178  1
  Hf  Hf12  1  0.10484147  0.88936481  0.87529330  1
  Hf  Hf13  1  0.19497741  0.41029933  0.24773639  1
  Hf  Hf14  1  0.40378339  -0.01087670  0.52187732  1
  Hf  Hf15  1  0.80459422  0.60409896  0.25235120  1
  Hf  Hf16  1  0.10157227  0.30453901  0.38934962  1
  Hf  Hf17  1  0.09411839  0.31219844  0.11033168  1
  Hf  Hf18  1  0.59415468  0.38578156  0.51520351  1
  Hf  Hf19  1  0.18329822  -0.00515495  0.73939626  1
  Hf  Hf20  1  0.29818744  0.48727127  0.11371130  1
  Hf  Hf21  1  0.29903565  0.30221628  0.38813671  1
  Hf  Hf22  1  0.50754267  0.28837978  0.37470111  1
  Hf  Hf23  1  0.69704416  0.89691959  0.38393335  1
  Hf  Hf24  1  0.69187074  0.70409928  0.12492999  1
  Hf  Hf25  1  0.39429885  -0.00141921  0.00185148  1
  Hf  Hf26  1  0.30062006  0.10267583  0.37520216  1
  Hf  Hf27  1  0.50049413  0.10567311  0.87005211  1
  Hf  Hf28  1  0.00281094  0.41134209  0.25347022  1
  Hf  Hf29  1  0.60154820  0.00800938  0.50963886  1
  Hf  Hf30  1  0.79383840  0.41268154  0.51140990  1
  Hf  Hf31  1  0.40039190  0.21036995  0.01425639  1
  Hf  Hf32  1  0.19407804  -0.00629418  0.25075779  1
  Hf  Hf33  1  0.10407028  0.87743606  0.61230783  1
  Hf  Hf34  1  0.28749059  0.51145580  0.86764209  1
  Hf  Hf35  1  0.28567308  0.11461914  0.63711050  1
  Hf  Hf36  1  0.50445282  0.50959503  0.12553674  1
  Hf  Hf37  1  0.58255072  0.79615155  0.51462902  1
  Hf  Hf38  1  0.20924401  0.79171000  0.00321037  1
  Hf  Hf39  1  0.28724950  0.68648736  0.12847144  1
  Zr  Zr40  1  0.89750025  0.30069044  0.38507244  1
  Zr  Zr41  1  0.60734488  0.20902833  0.01218578  1
  Zr  Zr42  1  0.91160782  0.50483256  0.12062111  1
  Zr  Zr43  1  0.80508721  0.39987120  0.24813135  1
  Zr  Zr44  1  -0.00467762  0.20544114  0.24733924  1
  Zr  Zr45  1  0.87881952  0.09933743  0.88803937  1
  Zr  Zr46  1  0.50774051  0.69671564  0.87337733  1
  Zr  Zr47  1  0.00001920  0.78271528  0.00126570  1
  Zr  Zr48  1  0.09428777  0.28673581  0.62059148  1
  Zr  Zr49  1  0.69778203  0.10608384  0.36834705  1
  Zr  Zr50  1  0.09281224  0.09401088  0.88554154  1
  Zr  Zr51  1  0.18835186  0.78393292  0.25052632  1
  Zr  Zr52  1  0.60276535  0.78652924  0.73237415  1
  Zr  Zr53  1  0.41292229  0.20279122  0.51625064  1
  Zr  Zr54  1  0.60830625  -0.00636144  0.74603760  1
  Zr  Zr55  1  0.39689228  0.39772186  0.24724541  1
  Zr  Zr56  1  0.60685859  0.59119164  0.51674269  1
  Zr  Zr57  1  -0.00103986  -0.00154809  0.25529963  1
  Zr  Zr58  1  0.40699024  0.20403168  0.22979053  1
  Zr  Zr59  1  0.89833721  0.69439167  0.86277919  1
  Zr  Zr60  1  0.89215310  0.10076885  0.11419545  1
  Zr  Zr61  1  0.70541031  0.28954121  0.87433672  1
  Zr  Zr62  1  0.49929736  0.88983901  0.87951367  1
  Zr  Zr63  1  0.39656612  0.41237275  0.51503079  1
  Zr  Zr64  1  0.60680554  0.38297123  0.23716235  1
  Zr  Zr65  1  0.51018903  0.50934303  0.36831457  1
  Zr  Zr66  1  0.30217481  0.71593001  0.86125109  1
  Zr  Zr67  1  0.80712127  0.80871755  0.74175121  1
  Zr  Zr68  1  0.61795482  0.00345917  -0.00519783  1
  Zr  Zr69  1  0.71638254  0.09318232  0.63192775  1
  Zr  Zr70  1  0.00254139  0.19755478  0.75848373  1
  Zr  Zr71  1  0.29327666  0.10330399  0.86417893  1
  Zr  Zr72  1  0.79796379  0.19674462  0.50057424  1
  Zr  Zr73  1  0.49728969  0.49796316  0.87186288  1
  Zr  Zr74  1  0.30309291  0.30297839  0.87634675  1
  Zr  Zr75  1  0.19797189  0.20380675  0.24065589  1
  Zr  Zr76  1  0.69510620  0.69197771  0.38067860  1
  Zr  Zr77  1  0.80020562  0.80442461  0.25444542  1
  Zr  Zr78  1  0.19848683  -0.00071252  0.50483116  1
  Zr  Zr79  1  0.79343053  0.39958800  -0.00489291  1
  Ta  Ta80  1  0.40162727  -0.00039044  0.73608068  1
  Ta  Ta81  1  0.40069347  0.62044860  0.51450979  1
  Ta  Ta82  1  0.01918899  0.79138240  0.74637557  1
  Ta  Ta83  1  0.71521330  0.90945888  0.87046866  1
  Ta  Ta84  1  0.28587532  0.72072862  0.62570860  1
  Ta  Ta85  1  0.90039674  0.50089778  0.86248439  1
  Ta  Ta86  1  0.02026831  0.61267027  0.25531307  1
  Ta  Ta87  1  0.70530202  0.90634780  0.12797133  1
  Ta  Ta88  1  0.90119183  0.89919886  0.38852010  1
  Ta  Ta89  1  0.50051586  0.50879184  0.63756903  1
  Ta  Ta90  1  0.29271835  0.09267166  0.12254882  1
  Ta  Ta91  1  0.39916749  0.79257674  0.24799316  1
  Ta  Ta92  1  0.10405560  0.49191421  0.62657269  1
  Ta  Ta93  1  0.58943108  0.79450223  0.25353371  1
  Ta  Ta94  1  0.09709484  0.89534119  0.12134295  1
  Ta  Ta95  1  0.89845081  0.89869579  0.12586689  1
  Ta  Ta96  1  0.49437389  0.70288280  0.11839941  1
  Ta  Ta97  1  0.09466822  0.09644292  0.11056824  1
  Ta  Ta98  1  0.90055562  0.29469169  0.62039905  1
  Ta  Ta99  1  0.70183272  0.50689139  0.12439235  1
  Ta  Ta100  1  0.78784613  0.20732070  0.24416378  1
  Ta  Ta101  1  0.80370579  0.60307012  -0.00205961  1
  Ta  Ta102  1  0.10284419  0.68344863  0.87312557  1
  Ta  Ta103  1  0.91895876  0.09972473  0.62482207  1
  Ta  Ta104  1  0.20096798  0.60101551  0.51445096  1
  Ta  Ta105  1  0.18628618  0.60976570  0.73690897  1
  Ta  Ta106  1  -0.00366342  0.79958467  0.25069404  1
  Ta  Ta107  1  0.09366089  0.87931409  0.38985769  1
  Ta  Ta108  1  0.70127118  0.51579592  0.86933640  1
  Ta  Ta109  1  0.60477586  -0.00772596  0.24595892  1
  Ta  Ta110  1  0.78469424  0.60245488  0.73234268  1
  Ta  Ta111  1  0.90874797  0.90728045  0.61761527  1
  Ta  Ta112  1  -0.00636277  -0.01192729  0.00394950  1
  Ta  Ta113  1  -0.00208184  0.40551218  -0.01487624  1
  Ta  Ta114  1  0.09918258  0.29835552  0.88181198  1
  Ta  Ta115  1  0.19938758  0.19915037  0.00791059  1
  Ta  Ta116  1  0.29117868  0.69616213  0.37940532  1
  Ta  Ta117  1  0.69651514  0.29010178  0.63106569  1
  Ta  Ta118  1  0.80777789  0.61255519  0.51754057  1
  Ta  Ta119  1  0.18602646  0.39491557  0.75150694  1
  Ti  Ti120  1  0.80347549  0.19187178  0.74958752  1
  Ti  Ti121  1  0.28674219  0.31001017  0.62307705  1
  Ti  Ti122  1  0.90156808  0.10153272  0.37605344  1
  Ti  Ti123  1  0.29395416  0.50944948  0.63145123  1
  Ti  Ti124  1  0.60902631  0.60309018  -0.00150348  1
  Ti  Ti125  1  0.30120113  0.89222633  0.12402081  1
  Ti  Ti126  1  0.48705972  0.70131596  0.37524486  1
  Ti  Ti127  1  0.90604188  0.69714764  0.12588062  1
  Ti  Ti128  1  0.00835711  0.61030973  0.50677752  1
  Ti  Ti129  1  0.50747411  0.09505779  0.12802159  1
  Ti  Ti130  1  0.10791715  0.51138667  0.38696056  1
  Ti  Ti131  1  0.09640241  0.10138418  0.37798910  1
  Ti  Ti132  1  0.39657455  0.60424709  0.24930278  1
  Ti  Ti133  1  0.69610531  0.29936481  0.37959322  1
  Ti  Ti134  1  0.90870427  0.90420189  0.86761527  1
  Ti  Ti135  1  0.19871611  -0.00491150  0.00358099  1
  Ti  Ti136  1  0.70199010  0.49727953  0.37264535  1
  Ti  Ti137  1  0.80885520  -0.00201330  0.49690350  1
  Ti  Ti138  1  0.19108669  0.19518747  0.50320524  1
  Ti  Ti139  1  0.70377342  0.10168530  0.13199009  1
  Ti  Ti140  1  0.69885976  0.70484837  0.87490019  1
  Ti  Ti141  1  0.10491935  0.52501541  0.11121255  1
  Ti  Ti142  1  0.80264153  0.00115843  0.25576754  1
  Ti  Ti143  1  0.49859689  0.30363609  0.87795088  1
  Ti  Ti144  1  0.59460129  0.40479579  0.00553419  1
  Ti  Ti145  1  0.51152517  0.11257682  0.63393838  1
  Ti  Ti146  1  0.40300802  0.20746730  0.74332022  1
  Ti  Ti147  1  0.20231122  0.40442562  -0.00808613  1
  Ti  Ti148  1  0.09085104  0.50148012  0.86836596  1
  Ti  Ti149  1  0.90913974  0.71061724  0.62469443  1
  Ti  Ti150  1  0.30279493  0.90566784  0.86857716  1
  Ti  Ti151  1  0.00355729  0.00676834  0.49572513  1
  Ti  Ti152  1  0.60257571  0.20213144  0.75413044  1
  Ti  Ti153  1  0.89320072  0.29648816  0.10984651  1
  Ti  Ti154  1  0.00441187  0.40450539  0.50309841  1
  Ti  Ti155  1  0.91023144  0.71122752  0.38760249  1
  Ti  Ti156  1  0.40032924  0.61508036  0.73700564  1
  Ti  Ti157  1  0.39883350  0.81453271  0.73021746  1
  Ti  Ti158  1  0.49759465  0.89230344  0.37676564  1
  Ti  Ti159  1  0.71302568  0.89292601  0.61306500  1
  Mo  Mo160  1  0.60301599  0.59697337  0.74159086  1
  Mo  Mo161  1  0.00061735  0.19096346  0.49557209  1
  Mo  Mo162  1  0.18636607  0.59632099  -0.00956204  1
  Mo  Mo163  1  0.80007359  -0.00666212  0.00353143  1
  Mo  Mo164  1  0.79362650  0.19673925  0.00801696  1
  Mo  Mo165  1  0.40703437  0.40085977  -0.00099815  1
  Mo  Mo166  1  0.60754708  0.79307744  -0.00344329  1
  Mo  Mo167  1  0.09062178  0.09128233  0.62301045  1
  Mo  Mo168  1  -0.00185478  0.59731931  0.74662530  1
  Mo  Mo169  1  0.08914154  0.69617917  0.12266615  1
  Mo  Mo170  1  0.00234991  0.39610614  0.76268135  1
  Mo  Mo171  1  0.20297391  0.20868541  0.75003667  1
  Mo  Mo172  1  0.50277311  0.90582412  0.62911003  1
  Mo  Mo173  1  0.09309270  0.68814409  0.62398312  1
  Mo  Mo174  1  0.90745518  0.29889186  0.88483808  1
  Mo  Mo175  1  0.60212961  0.20153213  0.50682856  1
  Mo  Mo176  1  0.49662441  0.31261957  0.11593151  1
  Mo  Mo177  1  0.70615424  0.30100706  0.11896380  1
  Mo  Mo178  1  0.69836436  0.09630571  0.86436258  1
  Mo  Mo179  1  0.20415673  0.79964901  0.75223485  1
  Mo  Mo180  1  0.19659009  0.40789631  0.50833389  1
  Mo  Mo181  1  0.60333626  0.19060496  0.23204124  1
  Mo  Mo182  1  0.81566046  -0.00024769  0.74506273  1
  Mo  Mo183  1  0.80201148  0.80192728  0.50647630  1
  Mo  Mo184  1  -0.01118380  -0.01518855  0.74731151  1
  Mo  Mo185  1  0.70675549  0.70072797  0.61572554  1
  Mo  Mo186  1  0.09709071  0.68994330  0.38312975  1
  Mo  Mo187  1  0.28958401  0.29926485  0.11279474  1
  Mo  Mo188  1  0.59198092  0.60919631  0.24892500  1
  Mo  Mo189  1  -0.00737690  0.79658436  0.50107017  1
  Mo  Mo190  1  0.30050632  0.90120553  0.62736287  1
  Mo  Mo191  1  0.39481364  0.79706300  0.50303394  1
  Mo  Mo192  1  0.49063268  0.69927980  0.63074456  1
  Mo  Mo193  1  0.39863619  0.80186655  0.00575826  1
  Mo  Mo194  1  0.49800231  0.29651364  0.63876691  1
  Mo  Mo195  1  0.19999706  0.59040522  0.25343274  1
  Mo  Mo196  1  0.70681979  0.49497560  0.63023697  1
  Mo  Mo197  1  -0.00130342  0.20590746  -0.00231994  1
  Mo  Mo198  1  -0.00626076  0.59158674  -0.00862463  1
  Mo  Mo199  1  0.20128547  0.78604977  0.49322865  1
