# generated using pymatgen
data_HfZrTaTiMo
_symmetry_space_group_name_H-M   'P 1'
_cell_length_a   15.19942078
_cell_length_b   15.21339124
_cell_length_c   16.86566358
_cell_angle_alpha   90.04534714
_cell_angle_beta   89.98100706
_cell_angle_gamma   90.13013904
_symmetry_Int_Tables_number   1
_chemical_formula_structural   HfZrTaTiMo
_chemical_formula_sum   'Hf40 Zr40 Ta40 Ti40 Mo40'
_cell_volume   3899.91575723
_cell_formula_units_Z   40
loop_
 _symmetry_equiv_pos_site_id
 _symmetry_equiv_pos_as_xyz
  1  'x, y, z'
loop_
 _atom_site_type_symbol
 _atom_site_label
 _atom_site_symmetry_multiplicity
 _atom_site_fract_x
 _atom_site_fract_y
 _atom_site_fract_z
 _atom_site_occupancy
  Hf  Hf0  1  0.30134210  0.32328125  0.38195437  1
  Hf  Hf1  1  0.59983709  0.19368427  0.75865302  1
  Hf  Hf2  1  0.08844325  0.11759787  0.12367301  1
  Hf  Hf3  1  0.89778983  0.69710482  0.13669993  1
  Hf  Hf4  1  0.19047038  0.81369676  0.75487118  1
  Hf  Hf5  1  0.01329835  0.40050265  0.01024682  1
  Hf  Hf6  1  0.51394321  0.90110692  0.37299250  1
  Hf  Hf7  1  0.41364127  0.21162417  0.48985046  1
  Hf  Hf8  1  0.21517373  0.41673147  0.23989225  1
  Hf  Hf9  1  0.09540907  0.90178216  0.61359767  1
  Hf  Hf10  1  0.30586188  0.52149175  0.38243649  1
  Hf  Hf11  1  0.30596026  0.90703742  0.13546412  1
  Hf  Hf12  1  0.70679225  0.49764061  0.86778282  1
  Hf  Hf13  1  0.79869036  0.58932630  0.26564560  1
  Hf  Hf14  1  0.11438278  0.30315040  0.87265311  1
  Hf  Hf15  1  0.10356148  0.29109083  0.36792847  1
  Hf  Hf16  1  0.29776455  0.50771817  0.87734390  1
  Hf  Hf17  1  0.09281046  0.70259369  0.61970395  1
  Hf  Hf18  1  -0.00128348  0.39984075  0.73906397  1
  Hf  Hf19  1  0.29853901  0.70268013  0.88733877  1
  Hf  Hf20  1  0.78709091  0.58283548  0.48625345  1
  Hf  Hf21  1  0.89802187  0.10113379  0.88691313  1
  Hf  Hf22  1  0.21913079  0.01853830  0.75528778  1
  Hf  Hf23  1  0.49388470  0.09916033  0.63365594  1
  Hf  Hf24  1  0.29324763  0.31932231  0.60876868  1
  Hf  Hf25  1  0.20855174  0.60941712  0.73684644  1
  Hf  Hf26  1  0.08034130  0.71393684  0.87450018  1
  Hf  Hf27  1  0.59514791  -0.02270224  -0.00437831  1
  Hf  Hf28  1  0.79735937  0.78809587  -0.00461973  1
  Hf  Hf29  1  0.80471123  0.20148294  0.74914721  1
  Hf  Hf30  1  0.68895754  0.70674714  0.37393426  1
  Hf  Hf31  1  0.39430708  0.78520980  0.73453692  1
  Hf  Hf32  1  0.18964328  0.81781076  -0.00831832  1
  Hf  Hf33  1  -0.01783382  0.60415468  -0.01072007  1
  Hf  Hf34  1  0.40258254  0.39059450  0.00537907  1
  Hf  Hf35  1  0.01178064  0.38989326  0.23731711  1
  Hf  Hf36  1  0.40502015  0.60480852  0.01400610  1
  Hf  Hf37  1  0.01216807  0.39299397  0.50732269  1
  Hf  Hf38  1  0.31142125  0.12756342  0.88063004  1
  Hf  Hf39  1  0.28861492  0.70436733  0.11875665  1
  Zr  Zr40  1  0.41120017  0.21123318  0.26245448  1
  Zr  Zr41  1  0.48640737  0.69719706  0.37288634  1
  Zr  Zr42  1  0.10872142  0.10161943  0.62513761  1
  Zr  Zr43  1  0.00308307  0.79278139  0.26796537  1
  Zr  Zr44  1  0.88610097  0.89724946  0.37290709  1
  Zr  Zr45  1  0.88203121  0.70397144  0.60931333  1
  Zr  Zr46  1  0.50852627  0.29484249  0.12606569  1
  Zr  Zr47  1  0.71207657  0.29531947  0.62153510  1
  Zr  Zr48  1  0.91356139  0.27639663  0.11254815  1
  Zr  Zr49  1  0.60626003  0.40008501  0.48780820  1
  Zr  Zr50  1  0.78184067  0.59237269  0.00070201  1
  Zr  Zr51  1  0.10069915  0.50508831  0.87148704  1
  Zr  Zr52  1  0.10195373  0.11006988  0.88344171  1
  Zr  Zr53  1  0.50193142  0.30767545  0.62443214  1
  Zr  Zr54  1  0.31876948  0.90943471  0.87681092  1
  Zr  Zr55  1  0.20555885  0.01776062  0.00496953  1
  Zr  Zr56  1  0.80657934  0.18216895  0.24614203  1
  Zr  Zr57  1  0.60190918  0.79069513  0.73690361  1
  Zr  Zr58  1  0.00776240  -0.00858732  0.75623982  1
  Zr  Zr59  1  0.89435309  0.49497750  0.13725326  1
  Zr  Zr60  1  0.70822844  0.28641601  0.11080569  1
  Zr  Zr61  1  0.60749974  0.39373514  0.75700367  1
  Zr  Zr62  1  0.57658464  0.18198497  -0.00945340  1
  Zr  Zr63  1  0.91310008  0.48860392  0.37049514  1
  Zr  Zr64  1  0.90853347  0.30215813  0.88457170  1
  Zr  Zr65  1  0.40308216  0.00678616  0.48905766  1
  Zr  Zr66  1  0.80924104  -0.02514917  0.51970219  1
  Zr  Zr67  1  0.30026341  0.91197087  0.61463676  1
  Zr  Zr68  1  0.09603903  0.90863296  0.13546651  1
  Zr  Zr69  1  0.41176386  0.01418377  0.01263403  1
  Zr  Zr70  1  0.89654614  0.28784951  0.37122449  1
  Zr  Zr71  1  0.09020230  0.71154946  0.11925402  1
  Zr  Zr72  1  0.79569424  -0.01227588  -0.00418106  1
  Zr  Zr73  1  0.50139276  0.50741441  0.87967081  1
  Zr  Zr74  1  0.28924054  0.11258308  0.36693276  1
  Zr  Zr75  1  0.50047663  0.70551303  0.14502677  1
  Zr  Zr76  1  0.68938846  0.68719176  0.14228458  1
  Zr  Zr77  1  0.61778402  0.00908421  0.51526985  1
  Zr  Zr78  1  0.40148013  0.41636266  0.74442915  1
  Zr  Zr79  1  0.80232596  -0.01196667  0.74402801  1
  Ta  Ta80  1  0.00248913  0.59408675  0.50021816  1
  Ta  Ta81  1  0.58062640  0.59768840  0.73464007  1
  Ta  Ta82  1  0.18945660  0.01479211  0.25708396  1
  Ta  Ta83  1  0.78164915  -0.00762374  0.24572565  1
  Ta  Ta84  1  0.59003657  0.78265743  0.00034288  1
  Ta  Ta85  1  0.42149036  0.41679914  0.25415449  1
  Ta  Ta86  1  0.80149608  0.78962634  0.75331023  1
  Ta  Ta87  1  0.60550405  -0.01009530  0.73869285  1
  Ta  Ta88  1  -0.00736554  0.80426479  0.49125731  1
  Ta  Ta89  1  0.68245125  0.69155686  0.87050377  1
  Ta  Ta90  1  0.21007274  0.41741594  0.01859318  1
  Ta  Ta91  1  0.80577210  0.40094132  -0.00355410  1
  Ta  Ta92  1  -0.01847473  0.59930888  0.74774903  1
  Ta  Ta93  1  -0.00639530  0.19617078  0.50524167  1
  Ta  Ta94  1  0.69338006  0.88747044  0.12854789  1
  Ta  Ta95  1  0.91205230  0.88055391  0.87761177  1
  Ta  Ta96  1  0.59233109  0.56442607  0.26645217  1
  Ta  Ta97  1  0.68896824  0.27140523  0.37890844  1
  Ta  Ta98  1  0.68770118  0.48340678  0.12973505  1
  Ta  Ta99  1  0.19233993  0.20722165  0.49742236  1
  Ta  Ta100  1  0.50136449  0.89202001  0.61785029  1
  Ta  Ta101  1  0.89404815  0.49434613  0.61802047  1
  Ta  Ta102  1  0.19194932  0.61584474  0.25671316  1
  Ta  Ta103  1  0.30008790  0.11825094  0.61878816  1
  Ta  Ta104  1  0.60569657  0.40343867  -0.00719590  1
  Ta  Ta105  1  0.30139341  0.90335822  0.37258145  1
  Ta  Ta106  1  0.10739590  0.52142226  0.12574784  1
  Ta  Ta107  1  0.30218320  0.11537546  0.14073357  1
  Ta  Ta108  1  0.20101125  0.60233494  0.50818941  1
  Ta  Ta109  1  0.78991246  0.59968247  0.74425615  1
  Ta  Ta110  1  0.53290066  0.10968383  0.37563972  1
  Ta  Ta111  1  0.79114119  0.17894143  0.50479750  1
  Ta  Ta112  1  0.89627174  0.89523413  0.13050037  1
  Ta  Ta113  1  0.49261477  0.70119308  0.87577928  1
  Ta  Ta114  1  -0.01489491  0.01178785  0.25262632  1
  Ta  Ta115  1  0.00375421  0.20159750  0.74380711  1
  Ta  Ta116  1  0.20201150  0.80649215  0.26287892  1
  Ta  Ta117  1  0.69843098  0.49991599  0.62614880  1
  Ta  Ta118  1  0.70545516  0.28813459  0.89017894  1
  Ta  Ta119  1  0.90361203  0.10214695  0.62576980  1
  Ti  Ti120  1  0.90208892  0.69301792  0.38314128  1
  Ti  Ti121  1  0.69683797  0.88676275  0.86996476  1
  Ti  Ti122  1  0.77846392  0.38933606  0.25848522  1
  Ti  Ti123  1  0.80632223  0.38388464  0.49704277  1
  Ti  Ti124  1  0.20274981  0.22424662  0.01507654  1
  Ti  Ti125  1  0.58422623  0.59188093  0.49652696  1
  Ti  Ti126  1  0.31825586  0.52432204  0.61598838  1
  Ti  Ti127  1  0.50575702  0.49845553  0.12456830  1
  Ti  Ti128  1  0.09965753  0.91018288  0.37512960  1
  Ti  Ti129  1  -0.01281667  0.79724885  0.74281740  1
  Ti  Ti130  1  0.10948105  0.49929780  0.37820619  1
  Ti  Ti131  1  0.49185726  0.08068061  0.85539033  1
  Ti  Ti132  1  0.89299835  0.08749951  0.11003207  1
  Ti  Ti133  1  0.69454046  0.08964103  0.87576803  1
  Ti  Ti134  1  0.10594506  0.49852773  0.62299017  1
  Ti  Ti135  1  0.41083040  0.42416610  0.49866287  1
  Ti  Ti136  1  0.61085782  0.18617196  0.24456941  1
  Ti  Ti137  1  0.40978939  0.00872084  0.25568870  1
  Ti  Ti138  1  0.68777677  0.69311383  0.61167440  1
  Ti  Ti139  1  0.00444277  -0.01599011  -0.00267379  1
  Ti  Ti140  1  0.50575914  0.90195201  0.13889692  1
  Ti  Ti141  1  0.00216800  0.00379305  0.49598116  1
  Ti  Ti142  1  0.30613608  0.30671713  0.13499125  1
  Ti  Ti143  1  0.81093148  0.40264688  0.74984708  1
  Ti  Ti144  1  0.39497644  0.80536008  0.25606726  1
  Ti  Ti145  1  0.29981907  0.31295246  0.87560083  1
  Ti  Ti146  1  0.48772940  0.28801317  0.87674075  1
  Ti  Ti147  1  0.79321037  0.79952690  0.25459536  1
  Ti  Ti148  1  0.38534028  0.20734384  0.74368303  1
  Ti  Ti149  1  0.38768188  0.59886569  0.24229539  1
  Ti  Ti150  1  0.68949474  0.08696041  0.11465199  1
  Ti  Ti151  1  0.20438612  0.40226408  0.74230764  1
  Ti  Ti152  1  0.60515989  0.80406011  0.50635991  1
  Ti  Ti153  1  0.90003318  0.09505054  0.37988173  1
  Ti  Ti154  1  0.10147812  0.69466429  0.38636931  1
  Ti  Ti155  1  0.19598909  0.01177914  0.48628018  1
  Ti  Ti156  1  0.10347476  0.29574954  0.62774923  1
  Ti  Ti157  1  0.50302598  0.88919052  0.86533057  1
  Ti  Ti158  1  0.29568062  0.71252919  0.38483221  1
  Ti  Ti159  1  0.20079244  0.80767861  0.49195539  1
  Mo  Mo160  1  0.29313875  0.71104085  0.60827687  1
  Mo  Mo161  1  0.38481110  0.20538180  0.00775631  1
  Mo  Mo162  1  0.00697883  0.19354895  -0.00157584  1
  Mo  Mo163  1  0.40025112  0.61018910  0.74501899  1
  Mo  Mo164  1  0.71305332  0.08501724  0.37543757  1
  Mo  Mo165  1  0.09880349  0.90452694  0.87409513  1
  Mo  Mo166  1  0.00513855  0.18559651  0.25334301  1
  Mo  Mo167  1  0.20714222  0.21696745  0.74495033  1
  Mo  Mo168  1  0.90697773  0.29498426  0.62037681  1
  Mo  Mo169  1  0.08809347  0.09982839  0.37610111  1
  Mo  Mo170  1  0.70298246  0.48297717  0.37555489  1
  Mo  Mo171  1  0.41629115  0.81288442  0.00301507  1
  Mo  Mo172  1  0.39829709  0.80563309  0.49911441  1
  Mo  Mo173  1  0.91121048  0.89130269  0.62439859  1
  Mo  Mo174  1  0.50557917  0.30163008  0.37205292  1
  Mo  Mo175  1  0.19648452  0.21225926  0.24138966  1
  Mo  Mo176  1  0.49954267  0.09250011  0.13636232  1
  Mo  Mo177  1  0.01364834  0.59551463  0.26303289  1
  Mo  Mo178  1  0.11511134  0.30607991  0.12842843  1
  Mo  Mo179  1  0.19361855  0.60059605  0.00105333  1
  Mo  Mo180  1  0.39808928  0.61301358  0.50151750  1
  Mo  Mo181  1  0.49215585  0.69656310  0.60442266  1
  Mo  Mo182  1  0.60580422  0.81533383  0.25443131  1
  Mo  Mo183  1  -0.01455649  0.80803046  0.00182326  1
  Mo  Mo184  1  0.60101063  0.00663875  0.24475504  1
  Mo  Mo185  1  0.59865365  0.59468099  0.00413730  1
  Mo  Mo186  1  0.89851995  0.50027268  0.86613841  1
  Mo  Mo187  1  0.49435619  0.49804079  0.37641900  1
  Mo  Mo188  1  0.88434941  0.69226006  0.86370109  1
  Mo  Mo189  1  0.79170256  0.18901161  -0.00243605  1
  Mo  Mo190  1  0.60657941  0.19631625  0.50427422  1
  Mo  Mo191  1  0.41130334  -0.00260427  0.74370482  1
  Mo  Mo192  1  0.79166157  0.78807603  0.49562096  1
  Mo  Mo193  1  0.70258988  0.09564367  0.63784682  1
  Mo  Mo194  1  0.19898696  0.41185465  0.50369568  1
  Mo  Mo195  1  0.70716837  0.87894498  0.62987945  1
  Mo  Mo196  1  0.30858291  0.50952586  0.13065044  1
  Mo  Mo197  1  0.60390921  0.38060927  0.25911047  1
  Mo  Mo198  1  0.50648963  0.50763028  0.62027753  1
  Mo  Mo199  1  0.69546847  0.90013194  0.37305793  1
