# generated using pymatgen
data_HfZrTaTiMo
_symmetry_space_group_name_H-M   'P 1'
_cell_length_a   15.21625281
_cell_length_b   15.22126224
_cell_length_c   16.85899638
_cell_angle_alpha   90.00866715
_cell_angle_beta   89.95545600
_cell_angle_gamma   89.99264456
_symmetry_Int_Tables_number   1
_chemical_formula_structural   HfZrTaTiMo
_chemical_formula_sum   'Hf40 Zr40 Ta40 Ti40 Mo40'
_cell_volume   3904.72057661
_cell_formula_units_Z   40
loop_
 _symmetry_equiv_pos_site_id
 _symmetry_equiv_pos_as_xyz
  1  'x, y, z'
loop_
 _atom_site_type_symbol
 _atom_site_label
 _atom_site_symmetry_multiplicity
 _atom_site_fract_x
 _atom_site_fract_y
 _atom_site_fract_z
 _atom_site_occupancy
  Hf  Hf0  1  -0.00473791  0.59979819  0.50805161  1
  Hf  Hf1  1  0.89038453  0.90163930  0.12597761  1
  Hf  Hf2  1  0.30943043  0.30894180  0.88755595  1
  Hf  Hf3  1  0.30767956  0.69693202  0.62372461  1
  Hf  Hf4  1  -0.01227987  0.79984260  0.24814997  1
  Hf  Hf5  1  0.81614122  0.39451011  0.49622125  1
  Hf  Hf6  1  0.20547464  0.80150394  0.26684484  1
  Hf  Hf7  1  0.40410341  0.38866518  0.25565247  1
  Hf  Hf8  1  0.00018538  0.19298029  0.73920704  1
  Hf  Hf9  1  0.40691665  0.79196568  0.75818356  1
  Hf  Hf10  1  0.78673997  0.18267783  0.74214002  1
  Hf  Hf11  1  0.19974398  0.81210764  0.75800137  1
  Hf  Hf12  1  0.21910487  0.60198997  0.77090496  1
  Hf  Hf13  1  0.28713412  0.08420206  0.38691271  1
  Hf  Hf14  1  0.90746018  0.91013233  0.39150923  1
  Hf  Hf15  1  -0.00031481  0.79767429  0.00117869  1
  Hf  Hf16  1  0.59813283  0.38453147  0.01657560  1
  Hf  Hf17  1  -0.00831452  0.21244870  0.24167787  1
  Hf  Hf18  1  -0.00600382  0.20796885  0.01178417  1
  Hf  Hf19  1  0.68909014  0.29406076  0.62771528  1
  Hf  Hf20  1  0.50097327  0.48338259  0.88005664  1
  Hf  Hf21  1  0.39953313  0.79798927  0.25802105  1
  Hf  Hf22  1  0.29208740  0.09362857  0.61028391  1
  Hf  Hf23  1  0.39544900  0.40425720  0.74652225  1
  Hf  Hf24  1  0.70938401  0.49763575  0.35258710  1
  Hf  Hf25  1  0.11181662  0.50069213  0.13005356  1
  Hf  Hf26  1  0.89454408  0.29846860  0.87220120  1
  Hf  Hf27  1  0.89030572  0.90762607  0.62335232  1
  Hf  Hf28  1  0.10268677  0.49764937  0.63480831  1
  Hf  Hf29  1  0.10244807  0.71034962  0.63540087  1
  Hf  Hf30  1  0.10555274  0.91098664  0.12843419  1
  Hf  Hf31  1  0.40885652  0.39976991  0.49014277  1
  Hf  Hf32  1  0.19330718  0.59031186  0.48596862  1
  Hf  Hf33  1  0.59701651  0.60168516  0.50140077  1
  Hf  Hf34  1  0.20586494  0.80131098  -0.01717362  1
  Hf  Hf35  1  0.59659489  0.59639325  0.00603024  1
  Hf  Hf36  1  0.41849186  -0.00323756  -0.00554110  1
  Hf  Hf37  1  -0.00100813  0.60318185  -0.00491267  1
  Hf  Hf38  1  0.19122122  0.20066081  0.25267932  1
  Hf  Hf39  1  0.39903345  0.19068544  0.74026259  1
  Zr  Zr40  1  0.29015805  0.30194907  0.60372942  1
  Zr  Zr41  1  0.82371065  0.61723477  0.24516597  1
  Zr  Zr42  1  0.30114537  0.08969418  0.12294187  1
  Zr  Zr43  1  0.90119747  0.49860694  0.87452265  1
  Zr  Zr44  1  0.69647532  0.70713779  0.37671088  1
  Zr  Zr45  1  0.40194181  0.60143860  0.48251657  1
  Zr  Zr46  1  0.42030226  0.18504211  0.49685437  1
  Zr  Zr47  1  0.90412298  0.49646445  0.12596952  1
  Zr  Zr48  1  0.20987890  0.01196227  0.75331131  1
  Zr  Zr49  1  0.88451978  0.09715070  0.87698589  1
  Zr  Zr50  1  0.20170464  0.21389211  0.75052152  1
  Zr  Zr51  1  0.69246908  0.29765940  0.87280450  1
  Zr  Zr52  1  0.79729585  0.59351766  0.50266543  1
  Zr  Zr53  1  0.89754176  0.70483175  0.63554848  1
  Zr  Zr54  1  0.20674535  0.80807241  0.48884453  1
  Zr  Zr55  1  0.59458963  0.59633766  0.75501411  1
  Zr  Zr56  1  0.50348189  0.27548736  0.87126344  1
  Zr  Zr57  1  0.60674122  0.40204329  0.49779331  1
  Zr  Zr58  1  0.68607135  0.10477628  0.38036579  1
  Zr  Zr59  1  0.80196017  -0.00056911  0.26517732  1
  Zr  Zr60  1  0.39185084  0.59755140  0.25204617  1
  Zr  Zr61  1  -0.00361321  -0.00097351  0.00082797  1
  Zr  Zr62  1  0.29867374  0.50025741  0.61916751  1
  Zr  Zr63  1  0.59364821  0.01172619  0.51273747  1
  Zr  Zr64  1  0.71126986  0.70231182  0.11946002  1
  Zr  Zr65  1  0.71047566  0.30106390  0.36658406  1
  Zr  Zr66  1  0.79217029  0.60482695  0.76001398  1
  Zr  Zr67  1  0.59102982  0.20356304  0.23340849  1
  Zr  Zr68  1  0.69303263  0.90216403  0.12594466  1
  Zr  Zr69  1  0.90034374  0.90350466  0.85885438  1
  Zr  Zr70  1  0.08359922  0.69918724  0.37220362  1
  Zr  Zr71  1  0.39348048  0.18856151  0.25049294  1
  Zr  Zr72  1  0.09846829  0.30998611  0.88360108  1
  Zr  Zr73  1  0.79527727  0.80734906  -0.01268159  1
  Zr  Zr74  1  0.09768684  0.10415430  0.87925428  1
  Zr  Zr75  1  0.59601100  0.60337666  0.23619828  1
  Zr  Zr76  1  0.30351147  0.88538515  0.12075482  1
  Zr  Zr77  1  0.92833521  0.49426404  0.35883044  1
  Zr  Zr78  1  0.89810092  0.30497794  0.63272776  1
  Zr  Zr79  1  0.11134823  0.70163651  0.12929093  1
  Ta  Ta80  1  0.50383323  0.70548795  0.37267709  1
  Ta  Ta81  1  0.42073536  -0.00259689  0.74543034  1
  Ta  Ta82  1  0.79142964  0.80688904  0.50452296  1
  Ta  Ta83  1  0.10072331  0.10222919  0.12122681  1
  Ta  Ta84  1  0.67458736  0.08697941  0.86730596  1
  Ta  Ta85  1  0.20025352  0.60524626  -0.01821914  1
  Ta  Ta86  1  0.08787434  0.30556359  0.37624180  1
  Ta  Ta87  1  0.89172154  0.10183419  0.12255516  1
  Ta  Ta88  1  0.59803159  0.18019574  0.01395141  1
  Ta  Ta89  1  0.71530057  0.29787619  0.12905363  1
  Ta  Ta90  1  0.30570336  0.89477455  0.62730700  1
  Ta  Ta91  1  0.48754213  0.48592904  0.12481562  1
  Ta  Ta92  1  0.68224079  0.71409153  0.87746209  1
  Ta  Ta93  1  0.20579144  0.00370587  -0.01039253  1
  Ta  Ta94  1  0.21312262  0.41949689  -0.00277996  1
  Ta  Ta95  1  0.59560723  0.80695154  0.25065250  1
  Ta  Ta96  1  0.70330772  0.09366151  0.12816138  1
  Ta  Ta97  1  0.00709345  -0.00183896  0.72741891  1
  Ta  Ta98  1  0.80443390  0.19498463  0.24729651  1
  Ta  Ta99  1  0.50182884  0.90690598  0.37661793  1
  Ta  Ta100  1  0.89569455  0.70940984  0.38744919  1
  Ta  Ta101  1  0.20114824  0.59654185  0.26360691  1
  Ta  Ta102  1  0.52853331  0.89668614  0.86634652  1
  Ta  Ta103  1  0.40608724  0.79095659  -0.00975562  1
  Ta  Ta104  1  0.69213680  0.70906192  0.62516851  1
  Ta  Ta105  1  0.01175298  0.01766359  0.51773572  1
  Ta  Ta106  1  0.31495010  0.10856395  0.88515616  1
  Ta  Ta107  1  0.90002858  0.49749248  0.63906862  1
  Ta  Ta108  1  0.51063391  0.28932456  0.37371054  1
  Ta  Ta109  1  0.20642985  0.20518102  0.00881408  1
  Ta  Ta110  1  0.78156808  0.40675368  0.75488451  1
  Ta  Ta111  1  0.77850321  0.81165909  0.75271145  1
  Ta  Ta112  1  0.50233068  0.49856784  0.63129239  1
  Ta  Ta113  1  0.01344370  0.40379687  0.50286953  1
  Ta  Ta114  1  0.39731999  -0.01930362  0.50269650  1
  Ta  Ta115  1  0.29117354  0.29355134  0.38746525  1
  Ta  Ta116  1  0.38528566  0.59002932  0.00658862  1
  Ta  Ta117  1  0.08915053  0.70710696  0.86296096  1
  Ta  Ta118  1  0.41118289  0.20238442  0.01686333  1
  Ta  Ta119  1  0.58757857  0.00158607  0.25217295  1
  Ti  Ti120  1  0.58994741  0.80102847  0.00172354  1
  Ti  Ti121  1  0.70409406  0.49150716  0.13665942  1
  Ti  Ti122  1  0.09441767  0.90652212  0.86924636  1
  Ti  Ti123  1  0.51484237  0.49268876  0.36021368  1
  Ti  Ti124  1  -0.01217174  0.20901948  0.50693847  1
  Ti  Ti125  1  0.00546876  0.59779112  0.75733164  1
  Ti  Ti126  1  0.17108692  0.18724200  0.49145503  1
  Ti  Ti127  1  0.20244776  0.39601038  0.25282593  1
  Ti  Ti128  1  0.29287894  0.48550863  0.37628087  1
  Ti  Ti129  1  0.40209036  0.79785437  0.49027946  1
  Ti  Ti130  1  0.58880175  0.80670818  0.50474768  1
  Ti  Ti131  1  0.79318998  0.18592590  0.50983604  1
  Ti  Ti132  1  0.90542956  0.11231490  0.38544893  1
  Ti  Ti133  1  0.49086404  0.68969903  0.87816447  1
  Ti  Ti134  1  0.00513716  0.81120456  0.50825716  1
  Ti  Ti135  1  0.39900346  -0.00566132  0.25708074  1
  Ti  Ti136  1  0.30633064  0.31984063  0.11799559  1
  Ti  Ti137  1  0.50109154  0.70426946  0.62660288  1
  Ti  Ti138  1  0.00274913  0.40110085  0.75508767  1
  Ti  Ti139  1  0.69641138  0.90110489  0.38513943  1
  Ti  Ti140  1  0.78848622  0.19848279  0.00294921  1
  Ti  Ti141  1  0.89579692  0.70760379  0.86330455  1
  Ti  Ti142  1  0.68967337  0.90350620  0.62614578  1
  Ti  Ti143  1  0.00454315  0.01487717  0.25284431  1
  Ti  Ti144  1  0.00353347  0.40473705  0.00133841  1
  Ti  Ti145  1  0.50207034  0.29565790  0.62733426  1
  Ti  Ti146  1  0.10196925  0.30325873  0.61955508  1
  Ti  Ti147  1  0.82755738  0.38101964  0.24624656  1
  Ti  Ti148  1  0.31731196  0.90810395  0.87341526  1
  Ti  Ti149  1  0.69866851  0.49916610  0.62971218  1
  Ti  Ti150  1  0.20045935  0.00278328  0.25405252  1
  Ti  Ti151  1  0.10514630  0.92671486  0.38073136  1
  Ti  Ti152  1  0.19710065  0.40936366  0.76563735  1
  Ti  Ti153  1  0.48568063  0.70384781  0.12151021  1
  Ti  Ti154  1  0.79395097  0.80661522  0.25942368  1
  Ti  Ti155  1  0.10472444  0.30746508  0.12071894  1
  Ti  Ti156  1  0.79730688  0.40347717  -0.00040160  1
  Ti  Ti157  1  0.49808791  0.90069095  0.12712578  1
  Ti  Ti158  1  0.61047033  -0.00590904  0.00007771  1
  Ti  Ti159  1  0.79362216  0.59764949  -0.01028675  1
  Mo  Mo160  1  0.50473998  0.08161832  0.12372921  1
  Mo  Mo161  1  0.10745194  0.90670142  0.62317683  1
  Mo  Mo162  1  0.60596815  0.40035827  0.23417060  1
  Mo  Mo163  1  0.08434883  0.09929787  0.37426351  1
  Mo  Mo164  1  0.30972289  0.50320948  0.87717338  1
  Mo  Mo165  1  0.59935693  0.20831180  0.50076896  1
  Mo  Mo166  1  0.30548157  0.70591630  0.87866569  1
  Mo  Mo167  1  0.89563843  0.30071203  0.11279591  1
  Mo  Mo168  1  0.29503726  0.50488221  0.12952686  1
  Mo  Mo169  1  0.01569713  0.39151000  0.24020208  1
  Mo  Mo170  1  0.49814034  0.08681335  0.87446819  1
  Mo  Mo171  1  0.49267735  0.09389086  0.37230817  1
  Mo  Mo172  1  0.30318803  0.69527039  0.37934180  1
  Mo  Mo173  1  0.19407751  0.39072668  0.49153808  1
  Mo  Mo174  1  0.90230346  0.70469984  0.11901536  1
  Mo  Mo175  1  0.09944195  0.11373141  0.62327209  1
  Mo  Mo176  1  0.30037664  0.69137848  0.11878025  1
  Mo  Mo177  1  0.10649358  0.49149437  0.36467900  1
  Mo  Mo178  1  0.10147672  0.50256542  0.87498471  1
  Mo  Mo179  1  0.60883065  -0.00308921  0.73496111  1
  Mo  Mo180  1  0.40091712  0.39810164  0.00828277  1
  Mo  Mo181  1  0.80334768  0.00052939  0.49308368  1
  Mo  Mo182  1  0.58833486  0.18322483  0.74082125  1
  Mo  Mo183  1  0.90575296  0.29188588  0.38031522  1
  Mo  Mo184  1  0.69966409  0.90578999  0.87265555  1
  Mo  Mo185  1  -0.00145689  0.80451917  0.75065274  1
  Mo  Mo186  1  0.89496635  0.10038833  0.61568449  1
  Mo  Mo187  1  0.49892607  0.29470064  0.12535079  1
  Mo  Mo188  1  0.01042978  0.60580560  0.24480887  1
  Mo  Mo189  1  0.19521232  -0.00506620  0.50811925  1
  Mo  Mo190  1  0.59823344  0.39534147  0.74254815  1
  Mo  Mo191  1  0.79452839  -0.00024752  0.74107635  1
  Mo  Mo192  1  0.40755494  0.59905796  0.74933985  1
  Mo  Mo193  1  0.30404604  0.90182466  0.37587220  1
  Mo  Mo194  1  0.69833706  0.49914944  0.88726174  1
  Mo  Mo195  1  0.78565862  0.01693970  -0.00012019  1
  Mo  Mo196  1  0.50420111  0.09737361  0.62999831  1
  Mo  Mo197  1  0.70498111  0.09162930  0.61999310  1
  Mo  Mo198  1  0.49430958  0.88849456  0.62254299  1
  Mo  Mo199  1  0.59825611  0.79878108  0.74505850  1
