# generated using pymatgen
data_HfZrTaTiMo
_symmetry_space_group_name_H-M   'P 1'
_cell_length_a   15.20972622
_cell_length_b   15.21058271
_cell_length_c   16.82834908
_cell_angle_alpha   90.04318717
_cell_angle_beta   89.96640261
_cell_angle_gamma   89.88287350
_symmetry_Int_Tables_number   1
_chemical_formula_structural   HfZrTaTiMo
_chemical_formula_sum   'Hf40 Zr40 Ta40 Ti40 Mo40'
_cell_volume   3893.20842930
_cell_formula_units_Z   40
loop_
 _symmetry_equiv_pos_site_id
 _symmetry_equiv_pos_as_xyz
  1  'x, y, z'
loop_
 _atom_site_type_symbol
 _atom_site_label
 _atom_site_symmetry_multiplicity
 _atom_site_fract_x
 _atom_site_fract_y
 _atom_site_fract_z
 _atom_site_occupancy
  Hf  Hf0  1  0.19960593  0.20906333  0.47845941  1
  Hf  Hf1  1  0.08267251  0.30315950  0.61659500  1
  Hf  Hf2  1  0.59537449  -0.00395663  0.23858697  1
  Hf  Hf3  1  0.60598943  -0.00759510  0.50366653  1
  Hf  Hf4  1  0.39231552  0.39621772  0.51186952  1
  Hf  Hf5  1  0.00619991  0.38511397  0.25885191  1
  Hf  Hf6  1  0.39199904  0.00180477  0.01175411  1
  Hf  Hf7  1  0.70612965  0.49555705  0.85929722  1
  Hf  Hf8  1  0.70158371  0.90687690  0.36528301  1
  Hf  Hf9  1  0.69797304  0.30173033  0.37478984  1
  Hf  Hf10  1  0.38895336  0.80437658  0.50404642  1
  Hf  Hf11  1  0.40399892  0.39784058  0.01815186  1
  Hf  Hf12  1  0.71201731  0.69621480  0.86176102  1
  Hf  Hf13  1  0.79571437  0.81362911  0.50739855  1
  Hf  Hf14  1  0.29024763  0.29423623  0.63049479  1
  Hf  Hf15  1  0.00618604  0.78861011  0.24080862  1
  Hf  Hf16  1  0.31047679  0.49286189  0.87918150  1
  Hf  Hf17  1  0.89948701  0.89715338  0.12415176  1
  Hf  Hf18  1  0.88309452  0.29342746  0.13996692  1
  Hf  Hf19  1  0.91668265  0.49557386  0.62033863  1
  Hf  Hf20  1  0.01422060  -0.00470124  0.74929975  1
  Hf  Hf21  1  0.30258616  0.09814136  0.35607280  1
  Hf  Hf22  1  0.01245663  0.59753717  0.75905754  1
  Hf  Hf23  1  0.89667759  0.11574883  0.87217664  1
  Hf  Hf24  1  0.37658129  0.19971696  0.02211360  1
  Hf  Hf25  1  0.09662797  0.70638118  0.62851610  1
  Hf  Hf26  1  0.59598474  0.79428236  -0.01182545  1
  Hf  Hf27  1  0.60129470  0.21268196  0.02132457  1
  Hf  Hf28  1  0.59191507  0.40283096  0.73418245  1
  Hf  Hf29  1  0.90657229  0.89737304  0.36884703  1
  Hf  Hf30  1  0.10593846  0.48039871  0.12298414  1
  Hf  Hf31  1  0.10976154  0.49272542  0.88016340  1
  Hf  Hf32  1  0.41203332  0.79974013  0.24771761  1
  Hf  Hf33  1  0.49556772  0.10006068  0.61806667  1
  Hf  Hf34  1  0.50556593  0.10281657  0.36783710  1
  Hf  Hf35  1  0.80505821  0.00200323  0.74471082  1
  Hf  Hf36  1  0.50630095  0.51581997  0.11821595  1
  Hf  Hf37  1  0.80077936  0.00771381  0.00221610  1
  Hf  Hf38  1  0.10787499  0.70679466  0.37746337  1
  Hf  Hf39  1  0.41109711  0.59572016  0.51141025  1
  Zr  Zr40  1  0.41607982  0.59598600  0.75467776  1
  Zr  Zr41  1  0.79845946  0.79035366  0.24674001  1
  Zr  Zr42  1  0.38660050  0.79868983  0.77692544  1
  Zr  Zr43  1  0.00820021  0.00153544  -0.00447145  1
  Zr  Zr44  1  0.20481625  0.79464958  -0.01560589  1
  Zr  Zr45  1  0.89731861  0.49849030  0.12754510  1
  Zr  Zr46  1  0.69929851  0.50501755  0.37698528  1
  Zr  Zr47  1  0.59109044  0.80678391  0.75525341  1
  Zr  Zr48  1  0.00512297  -0.02068813  0.50003240  1
  Zr  Zr49  1  0.69459976  0.89145664  0.12644568  1
  Zr  Zr50  1  0.19007156  0.41445805  0.50507373  1
  Zr  Zr51  1  0.00248943  0.59860117  -0.00611698  1
  Zr  Zr52  1  0.49530932  0.89910841  0.37496724  1
  Zr  Zr53  1  0.71009417  0.29250123  0.86962720  1
  Zr  Zr54  1  -0.02338317  0.79363241  0.76235023  1
  Zr  Zr55  1  0.17964610  0.80718931  0.77305499  1
  Zr  Zr56  1  0.20593863  -0.00881840  0.48584634  1
  Zr  Zr57  1  0.49847640  0.10569889  0.87789793  1
  Zr  Zr58  1  0.21213120  0.61072996  0.50526607  1
  Zr  Zr59  1  0.80571816  0.59799934  0.25043832  1
  Zr  Zr60  1  0.70200582  0.90750321  0.87373103  1
  Zr  Zr61  1  0.39647771  0.40595186  0.23337766  1
  Zr  Zr62  1  0.59740392  0.00807956  0.01293631  1
  Zr  Zr63  1  0.00935181  0.59926481  0.24728954  1
  Zr  Zr64  1  0.90307247  0.49226411  0.38512767  1
  Zr  Zr65  1  0.59033473  0.40902725  0.51431877  1
  Zr  Zr66  1  0.29814948  0.09696021  0.62063591  1
  Zr  Zr67  1  0.00906998  0.20136349  0.00992781  1
  Zr  Zr68  1  0.60166881  0.62209044  0.24298703  1
  Zr  Zr69  1  0.29376973  0.29307559  0.86186318  1
  Zr  Zr70  1  0.10793400  0.90390350  0.12487754  1
  Zr  Zr71  1  0.50288521  0.70563906  0.63256614  1
  Zr  Zr72  1  0.71006134  0.09703433  0.61587181  1
  Zr  Zr73  1  0.49578728  0.30786541  0.87878864  1
  Zr  Zr74  1  0.48905737  0.30860633  0.36856327  1
  Zr  Zr75  1  0.19512251  0.37425870  0.00213018  1
  Zr  Zr76  1  0.60399562  0.19850182  0.74174771  1
  Zr  Zr77  1  0.09056079  0.28666187  0.86367575  1
  Zr  Zr78  1  0.10152472  0.09676271  0.61732690  1
  Zr  Zr79  1  0.30504915  0.49855347  0.36873642  1
  Ta  Ta80  1  0.90727784  0.09716219  0.13790024  1
  Ta  Ta81  1  -0.02184985  0.20167730  0.73982169  1
  Ta  Ta82  1  0.29180364  0.51768305  0.11792874  1
  Ta  Ta83  1  0.00060067  0.79422191  -0.01201206  1
  Ta  Ta84  1  0.30288113  0.88998639  0.12478304  1
  Ta  Ta85  1  0.39843936  0.61139650  0.24273240  1
  Ta  Ta86  1  0.59474616  0.20426181  0.49994320  1
  Ta  Ta87  1  0.39877381  -0.00145653  0.74908476  1
  Ta  Ta88  1  0.29593742  0.70498719  0.63672339  1
  Ta  Ta89  1  0.88879914  0.09494270  0.38860559  1
  Ta  Ta90  1  0.61050645  0.60863629  0.50891975  1
  Ta  Ta91  1  0.70675048  0.51122360  0.63701712  1
  Ta  Ta92  1  0.40040480  0.40178014  0.73160489  1
  Ta  Ta93  1  0.39917090  0.80322168  -0.01471100  1
  Ta  Ta94  1  -0.01465585  0.39072577  -0.00215278  1
  Ta  Ta95  1  0.89460932  0.29143635  0.38862051  1
  Ta  Ta96  1  0.79673902  0.39548959  -0.00164143  1
  Ta  Ta97  1  0.01163722  0.59439261  0.50297386  1
  Ta  Ta98  1  0.51246010  0.50485122  0.88341782  1
  Ta  Ta99  1  0.09100065  0.09214554  0.36882209  1
  Ta  Ta100  1  0.59691569  0.80167357  0.51385644  1
  Ta  Ta101  1  0.28630278  0.89812932  0.63675870  1
  Ta  Ta102  1  0.71871832  0.11085080  0.14183300  1
  Ta  Ta103  1  0.40147696  0.20125994  0.74466951  1
  Ta  Ta104  1  0.26719719  0.29708121  0.14194243  1
  Ta  Ta105  1  0.90059360  0.69648474  0.38779881  1
  Ta  Ta106  1  0.39391549  0.20241851  0.23647515  1
  Ta  Ta107  1  0.81165120  0.38259982  0.73403874  1
  Ta  Ta108  1  0.69743136  0.70800499  0.38493747  1
  Ta  Ta109  1  0.12027370  0.68897042  0.11413585  1
  Ta  Ta110  1  0.60473768  0.40435140  0.23812292  1
  Ta  Ta111  1  0.90096169  0.10373911  0.60235827  1
  Ta  Ta112  1  0.79493862  0.40312185  0.51208397  1
  Ta  Ta113  1  0.71247649  0.70844935  0.64060794  1
  Ta  Ta114  1  0.80495101  0.60907950  0.51175049  1
  Ta  Ta115  1  0.59995597  0.20998160  0.23730835  1
  Ta  Ta116  1  0.50421894  0.51259390  0.36890811  1
  Ta  Ta117  1  -0.00105776  0.39588961  0.74858390  1
  Ta  Ta118  1  0.89766175  0.48770982  0.86852125  1
  Ta  Ta119  1  0.40058283  0.61555863  -0.00530998  1
  Ti  Ti120  1  0.18342036  0.21775057  0.27050752  1
  Ti  Ti121  1  0.82095312  0.60905098  0.74306482  1
  Ti  Ti122  1  0.19136408  0.80980191  0.50353464  1
  Ti  Ti123  1  0.10431634  0.49804537  0.37173294  1
  Ti  Ti124  1  0.60994795  0.59979758  -0.00247135  1
  Ti  Ti125  1  0.80468324  0.59316703  -0.00414710  1
  Ti  Ti126  1  0.49810030  0.71909772  0.11690514  1
  Ti  Ti127  1  0.70981686  0.69219524  0.11511611  1
  Ti  Ti128  1  0.20315983  0.01589858  0.00733230  1
  Ti  Ti129  1  0.11081453  0.09416712  0.87113935  1
  Ti  Ti130  1  -0.00145537  0.79169758  0.50584421  1
  Ti  Ti131  1  -0.00946764  0.19231272  0.26434548  1
  Ti  Ti132  1  0.60888294  0.40314514  0.01002930  1
  Ti  Ti133  1  0.11329388  0.11220806  0.14548933  1
  Ti  Ti134  1  0.19623107  0.41280653  0.73680145  1
  Ti  Ti135  1  0.70963083  0.49220932  0.12799833  1
  Ti  Ti136  1  0.20862800  0.79153404  0.24383153  1
  Ti  Ti137  1  0.00393251  -0.00285437  0.25349572  1
  Ti  Ti138  1  0.80105140  0.20434415  0.00476304  1
  Ti  Ti139  1  0.29767825  0.10637030  0.87029205  1
  Ti  Ti140  1  0.89527096  0.89779909  0.87880886  1
  Ti  Ti141  1  0.89622453  0.89558641  0.62736723  1
  Ti  Ti142  1  0.50691129  0.70151467  0.38099469  1
  Ti  Ti143  1  0.70362849  0.29506447  0.61785812  1
  Ti  Ti144  1  0.49701179  0.91280117  0.87853483  1
  Ti  Ti145  1  0.21010081  0.60318954  0.75352034  1
  Ti  Ti146  1  0.28834622  0.89313888  0.36170237  1
  Ti  Ti147  1  0.89527412  0.28864884  0.59978096  1
  Ti  Ti148  1  0.28787701  0.92280872  0.87648843  1
  Ti  Ti149  1  0.20777775  0.59938525  0.24818555  1
  Ti  Ti150  1  0.49517273  0.10286582  0.13223452  1
  Ti  Ti151  1  0.30985115  0.69944422  0.37344289  1
  Ti  Ti152  1  0.59367984  -0.00318376  0.73784601  1
  Ti  Ti153  1  0.70547948  0.10334109  0.36841837  1
  Ti  Ti154  1  0.18893911  0.18927593  0.74439470  1
  Ti  Ti155  1  0.69772032  0.10075562  0.87095073  1
  Ti  Ti156  1  0.39842828  -0.00297900  0.49892872  1
  Ti  Ti157  1  0.39849700  0.20128478  0.49172090  1
  Ti  Ti158  1  0.39105876  -0.00353153  0.23360506  1
  Ti  Ti159  1  0.80760410  0.78766677  -0.00146316  1
  Mo  Mo160  1  -0.00133328  0.40024608  0.49267231  1
  Mo  Mo161  1  0.69299189  0.89818169  0.63280639  1
  Mo  Mo162  1  0.29962963  0.68831468  0.87505965  1
  Mo  Mo163  1  0.10326430  0.89345381  0.62658261  1
  Mo  Mo164  1  0.60009378  0.79545352  0.25011841  1
  Mo  Mo165  1  0.19673179  -0.00748747  0.25660199  1
  Mo  Mo166  1  0.80612945  0.20115878  0.73726769  1
  Mo  Mo167  1  0.19950158  0.18278727  0.00508166  1
  Mo  Mo168  1  0.29696965  0.30192374  0.35901329  1
  Mo  Mo169  1  0.49186014  0.89786183  0.11884997  1
  Mo  Mo170  1  0.28511225  0.09507946  0.14756519  1
  Mo  Mo171  1  -0.00048710  0.19511734  0.48638831  1
  Mo  Mo172  1  0.50638080  0.50240139  0.62502666  1
  Mo  Mo173  1  0.81005285  0.00892671  0.24960440  1
  Mo  Mo174  1  0.08817014  0.30426686  0.38421536  1
  Mo  Mo175  1  0.10462716  0.89419362  0.36038911  1
  Mo  Mo176  1  0.50700705  0.69478759  0.88370232  1
  Mo  Mo177  1  0.70282626  0.30629696  0.13043992  1
  Mo  Mo178  1  0.78950006  0.20073073  0.49229034  1
  Mo  Mo179  1  0.49725965  0.30286844  0.12984454  1
  Mo  Mo180  1  0.10104781  0.69334764  0.88110966  1
  Mo  Mo181  1  0.80113978  0.19639079  0.26486580  1
  Mo  Mo182  1  0.90118548  0.69766932  0.61573857  1
  Mo  Mo183  1  0.29970598  0.50885636  0.63623975  1
  Mo  Mo184  1  0.19659919  0.40509769  0.25392609  1
  Mo  Mo185  1  0.49386802  0.29103163  0.61947812  1
  Mo  Mo186  1  0.48315944  0.90706447  0.62549887  1
  Mo  Mo187  1  0.30459780  0.70107547  0.12297458  1
  Mo  Mo188  1  0.61042376  0.59752826  0.75016381  1
  Mo  Mo189  1  0.90158684  0.70210473  0.10597702  1
  Mo  Mo190  1  0.89541483  0.30481829  0.87295923  1
  Mo  Mo191  1  0.09535451  0.90914146  0.88637243  1
  Mo  Mo192  1  0.80125393  0.80621537  0.74526148  1
  Mo  Mo193  1  0.10662676  0.50368883  0.63395491  1
  Mo  Mo194  1  0.80169510  -0.00358334  0.50199837  1
  Mo  Mo195  1  0.08514438  0.28646512  0.13459873  1
  Mo  Mo196  1  0.89378883  0.69011781  0.88280923  1
  Mo  Mo197  1  0.79332405  0.39221837  0.25623603  1
  Mo  Mo198  1  0.20843177  0.59431685  -0.00314807  1
  Mo  Mo199  1  0.20663437  0.00311129  0.75736110  1
