# generated using pymatgen
data_HfZrTaTiMo
_symmetry_space_group_name_H-M   'P 1'
_cell_length_a   15.19154026
_cell_length_b   15.18200428
_cell_length_c   16.81420280
_cell_angle_alpha   89.99738825
_cell_angle_beta   90.01792021
_cell_angle_gamma   90.19549289
_symmetry_Int_Tables_number   1
_chemical_formula_structural   HfZrTaTiMo
_chemical_formula_sum   'Hf40 Zr40 Ta40 Ti40 Mo40'
_cell_volume   3877.97182807
_cell_formula_units_Z   40
loop_
 _symmetry_equiv_pos_site_id
 _symmetry_equiv_pos_as_xyz
  1  'x, y, z'
loop_
 _atom_site_type_symbol
 _atom_site_label
 _atom_site_symmetry_multiplicity
 _atom_site_fract_x
 _atom_site_fract_y
 _atom_site_fract_z
 _atom_site_occupancy
  Hf  Hf0  1  0.10381813  0.89129803  0.11484901  1
  Hf  Hf1  1  0.19867726  0.41172466  -0.00151029  1
  Hf  Hf2  1  0.78484773  0.60265746  0.50348606  1
  Hf  Hf3  1  0.10839704  0.89723786  0.86017295  1
  Hf  Hf4  1  0.59095421  0.60409973  0.76330446  1
  Hf  Hf5  1  0.02117874  0.59719086  -0.00282503  1
  Hf  Hf6  1  0.69771381  0.89584217  0.37353951  1
  Hf  Hf7  1  0.77736644  0.80494411  0.75972055  1
  Hf  Hf8  1  0.59193545  0.61262574  -0.01827016  1
  Hf  Hf9  1  0.69102252  0.49577666  0.10801487  1
  Hf  Hf10  1  0.49280584  0.69875904  0.38056900  1
  Hf  Hf11  1  0.10090748  0.29830149  0.86943367  1
  Hf  Hf12  1  -0.01089366  0.79214236  -0.00675926  1
  Hf  Hf13  1  0.78520120  0.80226857  -0.01353794  1
  Hf  Hf14  1  0.71386755  0.09192349  0.63615970  1
  Hf  Hf15  1  0.50408222  0.09363304  0.62747115  1
  Hf  Hf16  1  0.30947315  0.49984638  0.62728268  1
  Hf  Hf17  1  0.50586010  0.30154904  0.37522058  1
  Hf  Hf18  1  0.90197879  0.50025750  0.12487797  1
  Hf  Hf19  1  0.11326069  0.28315712  0.36101520  1
  Hf  Hf20  1  0.92953641  0.10709267  0.64663809  1
  Hf  Hf21  1  0.68347102  0.68702230  0.36665615  1
  Hf  Hf22  1  0.39930944  0.20542760  0.51819156  1
  Hf  Hf23  1  -0.01367230  0.59124731  0.26955801  1
  Hf  Hf24  1  0.71210754  0.31146720  0.37781671  1
  Hf  Hf25  1  0.59984067  0.19519500  0.24522541  1
  Hf  Hf26  1  0.79008933  0.39968297  0.75388983  1
  Hf  Hf27  1  0.68839798  0.70635366  0.12538074  1
  Hf  Hf28  1  0.90409285  0.91952331  0.37411047  1
  Hf  Hf29  1  0.90829935  0.50142827  0.87538016  1
  Hf  Hf30  1  0.79314547  0.80433850  0.24176127  1
  Hf  Hf31  1  0.10192896  0.49569013  0.14677062  1
  Hf  Hf32  1  0.79580941  0.00570470  -0.00392494  1
  Hf  Hf33  1  -0.00761903  0.38992468  0.74882235  1
  Hf  Hf34  1  0.10681726  0.29921989  0.13674072  1
  Hf  Hf35  1  0.20383838  0.59042422  0.50642970  1
  Hf  Hf36  1  0.89930241  0.49946598  0.62506643  1
  Hf  Hf37  1  0.29922237  0.69942881  0.38196356  1
  Hf  Hf38  1  0.00419467  0.81260761  0.25278167  1
  Hf  Hf39  1  0.49889923  0.90147745  0.38732483  1
  Zr  Zr40  1  0.18123986  0.01605445  0.50130506  1
  Zr  Zr41  1  0.69255371  0.30374118  0.62853343  1
  Zr  Zr42  1  0.29639685  0.50392290  0.13788343  1
  Zr  Zr43  1  0.19924215  -0.01550586  0.25133125  1
  Zr  Zr44  1  0.69685332  0.49386479  0.88280359  1
  Zr  Zr45  1  0.22053366  0.79979664  0.73038014  1
  Zr  Zr46  1  0.80943241  0.60862740  -0.00362892  1
  Zr  Zr47  1  0.89095298  0.90931008  0.64488346  1
  Zr  Zr48  1  0.49113857  0.69839444  0.11952158  1
  Zr  Zr49  1  0.48218930  0.88960676  0.61351506  1
  Zr  Zr50  1  0.60438944  0.20067448  0.50345221  1
  Zr  Zr51  1  0.50155446  0.10783188  0.86893836  1
  Zr  Zr52  1  0.09093045  0.92189037  0.64576911  1
  Zr  Zr53  1  0.41536675  0.40093134  0.24528556  1
  Zr  Zr54  1  0.00031163  0.39029752  0.48668086  1
  Zr  Zr55  1  0.70432639  0.09219049  0.37982415  1
  Zr  Zr56  1  0.31544137  0.29254922  0.86851150  1
  Zr  Zr57  1  0.10227978  0.69007855  0.85467752  1
  Zr  Zr58  1  0.39869434  0.40072831  0.00090770  1
  Zr  Zr59  1  0.08886515  0.69733248  0.62571017  1
  Zr  Zr60  1  0.82065892  0.20834919  0.50894847  1
  Zr  Zr61  1  -0.00898376  0.59728802  0.49185665  1
  Zr  Zr62  1  0.57951337  0.80801994  0.74879561  1
  Zr  Zr63  1  0.50725842  0.90012037  0.11493980  1
  Zr  Zr64  1  0.20095208  0.17706700  0.74977170  1
  Zr  Zr65  1  0.10653930  0.09646101  0.12370558  1
  Zr  Zr66  1  0.21301349  0.19467971  -0.00429057  1
  Zr  Zr67  1  0.29968043  0.11059221  0.37520394  1
  Zr  Zr68  1  0.10367954  0.70863147  0.37704134  1
  Zr  Zr69  1  0.41110591  0.00756148  0.24716538  1
  Zr  Zr70  1  0.01601445  0.17929233  0.49086917  1
  Zr  Zr71  1  0.10139586  0.69043821  0.14206348  1
  Zr  Zr72  1  0.29619823  0.90084852  0.39186559  1
  Zr  Zr73  1  0.88677831  0.70788675  0.37606171  1
  Zr  Zr74  1  0.00414374  0.00023406  -0.01208708  1
  Zr  Zr75  1  0.79176920  0.81222413  0.51165057  1
  Zr  Zr76  1  0.30272184  0.30678248  0.37105397  1
  Zr  Zr77  1  0.80140309  0.19939610  0.24367497  1
  Zr  Zr78  1  0.09141961  0.29130010  0.63249826  1
  Zr  Zr79  1  0.20361603  0.77830282  -0.00714005  1
  Ta  Ta80  1  0.40579036  0.60467615  0.25282450  1
  Ta  Ta81  1  0.61564196  0.40923164  0.24495378  1
  Ta  Ta82  1  0.00344865  0.39815258  -0.00098393  1
  Ta  Ta83  1  0.48553134  0.72260579  0.87918880  1
  Ta  Ta84  1  0.40320529  0.20262310  0.73206190  1
  Ta  Ta85  1  0.30311241  0.68971866  0.86180996  1
  Ta  Ta86  1  0.40212582  0.40520209  0.50727864  1
  Ta  Ta87  1  0.79785668  0.00251046  0.23154616  1
  Ta  Ta88  1  0.89922468  0.70274847  0.85508898  1
  Ta  Ta89  1  0.79609708  0.40629063  0.50787435  1
  Ta  Ta90  1  -0.00303509  0.19495172  0.24753897  1
  Ta  Ta91  1  0.80241039  0.39685849  0.24023921  1
  Ta  Ta92  1  0.61311436  -0.01219022  0.51126346  1
  Ta  Ta93  1  0.70408770  0.29139118  0.10889223  1
  Ta  Ta94  1  0.89270151  0.70501620  0.63917226  1
  Ta  Ta95  1  0.77885055  0.58503088  0.24807701  1
  Ta  Ta96  1  0.31949154  0.88991167  0.87110495  1
  Ta  Ta97  1  0.89219885  0.29655029  0.88677034  1
  Ta  Ta98  1  0.90587321  0.29975987  0.11618065  1
  Ta  Ta99  1  0.00122354  0.20293675  -0.00382791  1
  Ta  Ta100  1  0.29306764  0.49991720  0.85805430  1
  Ta  Ta101  1  0.39016494  0.80611177  0.24969131  1
  Ta  Ta102  1  0.61048029  -0.00125434  0.23576603  1
  Ta  Ta103  1  0.00015075  0.82021375  0.50328730  1
  Ta  Ta104  1  0.69172606  0.50528881  0.63349349  1
  Ta  Ta105  1  0.40446213  0.39839197  0.74539140  1
  Ta  Ta106  1  0.89438772  0.89856992  0.11817378  1
  Ta  Ta107  1  0.41826675  0.19846657  0.00852671  1
  Ta  Ta108  1  0.19794000  0.80305304  0.51768312  1
  Ta  Ta109  1  0.21657400  -0.00715021  -0.01381414  1
  Ta  Ta110  1  0.51183506  0.30095588  0.12350929  1
  Ta  Ta111  1  0.70386559  0.10951836  0.87304493  1
  Ta  Ta112  1  0.68866232  0.69771548  0.63189079  1
  Ta  Ta113  1  0.59683221  0.78690328  0.51169238  1
  Ta  Ta114  1  0.31044572  0.50211807  0.37552160  1
  Ta  Ta115  1  0.20543567  0.59305090  0.73187723  1
  Ta  Ta116  1  0.30118112  0.89577612  0.11996105  1
  Ta  Ta117  1  0.37933997  0.60490974  -0.00449292  1
  Ta  Ta118  1  0.29222845  0.70087489  0.13696583  1
  Ta  Ta119  1  0.80797948  0.20819423  0.75470353  1
  Ti  Ti120  1  0.50369455  0.50389642  0.63166802  1
  Ti  Ti121  1  0.39300672  -0.00335825  0.75062531  1
  Ti  Ti122  1  0.90025898  0.10815568  0.36817041  1
  Ti  Ti123  1  0.60025875  -0.00009886  0.75111321  1
  Ti  Ti124  1  0.29936577  0.91843065  0.61414598  1
  Ti  Ti125  1  0.59851648  0.01412105  0.00760831  1
  Ti  Ti126  1  -0.00152049  0.59568481  0.74290983  1
  Ti  Ti127  1  0.47978594  0.50386913  0.87278356  1
  Ti  Ti128  1  -0.01129447  0.00325922  0.23552065  1
  Ti  Ti129  1  0.79584224  0.00553329  0.76710326  1
  Ti  Ti130  1  0.40447820  0.19702641  0.23994284  1
  Ti  Ti131  1  0.30202435  0.29482165  0.13472588  1
  Ti  Ti132  1  0.87235009  0.48609980  0.37431439  1
  Ti  Ti133  1  0.69386855  0.29054880  0.88567885  1
  Ti  Ti134  1  0.90278767  0.90085641  0.86198455  1
  Ti  Ti135  1  0.60041887  0.20866589  0.75033919  1
  Ti  Ti136  1  0.51091233  0.50206963  0.37548202  1
  Ti  Ti137  1  0.58942182  0.39610789  0.75937566  1
  Ti  Ti138  1  0.09105850  0.07945571  0.35764938  1
  Ti  Ti139  1  0.80274312  0.39291631  0.00051991  1
  Ti  Ti140  1  0.90722295  0.10610281  0.87142152  1
  Ti  Ti141  1  0.12137176  0.48791221  0.36592995  1
  Ti  Ti142  1  0.10872939  0.49759766  0.86093237  1
  Ti  Ti143  1  0.50390744  0.09426789  0.38706644  1
  Ti  Ti144  1  0.81358705  0.00716344  0.50788244  1
  Ti  Ti145  1  0.50128247  0.50439942  0.11865595  1
  Ti  Ti146  1  0.59798793  0.40660067  0.50547175  1
  Ti  Ti147  1  0.89605852  0.10621709  0.11438442  1
  Ti  Ti148  1  0.20915857  0.21569246  0.52010855  1
  Ti  Ti149  1  0.59075261  0.59248523  0.50747063  1
  Ti  Ti150  1  0.58795585  0.80169594  0.24846696  1
  Ti  Ti151  1  -0.00896892  0.39000236  0.26409364  1
  Ti  Ti152  1  0.10561060  0.48505761  0.62394426  1
  Ti  Ti153  1  0.58647719  0.38809628  -0.01023882  1
  Ti  Ti154  1  0.30790387  0.09662523  0.12422639  1
  Ti  Ti155  1  0.39750369  0.80451433  0.00089369  1
  Ti  Ti156  1  0.67378231  0.90853393  0.88183901  1
  Ti  Ti157  1  0.79330037  0.60201262  0.75315253  1
  Ti  Ti158  1  0.40196161  0.00585570  -0.00111634  1
  Ti  Ti159  1  0.89921992  0.69916611  0.13119828  1
  Mo  Mo160  1  0.69093283  0.90533501  0.62981993  1
  Mo  Mo161  1  0.90387670  0.29989801  0.36732487  1
  Mo  Mo162  1  0.89433001  0.30172311  0.62801637  1
  Mo  Mo163  1  0.69878487  0.09917541  0.11763518  1
  Mo  Mo164  1  0.58991414  0.59043760  0.24412035  1
  Mo  Mo165  1  0.60525108  0.20108464  -0.00177457  1
  Mo  Mo166  1  0.20619423  0.59813234  0.26652486  1
  Mo  Mo167  1  0.10563738  0.09749229  0.88601957  1
  Mo  Mo168  1  0.50692474  0.30545874  0.86969861  1
  Mo  Mo169  1  0.00974797  0.01143553  0.77616411  1
  Mo  Mo170  1  0.29875357  0.30578515  0.63317520  1
  Mo  Mo171  1  0.41132181  0.59031667  0.49829994  1
  Mo  Mo172  1  0.21097273  0.19117051  0.23953118  1
  Mo  Mo173  1  0.09444867  0.90004727  0.38102581  1
  Mo  Mo174  1  -0.00276992  0.19894638  0.76967226  1
  Mo  Mo175  1  0.80559017  0.19835824  -0.00339510  1
  Mo  Mo176  1  0.50062862  0.10691398  0.11958848  1
  Mo  Mo177  1  0.40069590  0.60753150  0.75151683  1
  Mo  Mo178  1  0.30360601  0.09356035  0.62347872  1
  Mo  Mo179  1  0.49310414  0.91507790  0.88295633  1
  Mo  Mo180  1  0.59301831  0.81131348  -0.01187563  1
  Mo  Mo181  1  0.20593906  0.59115917  -0.00453546  1
  Mo  Mo182  1  0.11005657  0.09717860  0.63163409  1
  Mo  Mo183  1  -0.01160368  0.00358240  0.49952304  1
  Mo  Mo184  1  0.39834916  0.79966500  0.74722007  1
  Mo  Mo185  1  0.20236892  0.39969884  0.74860912  1
  Mo  Mo186  1  0.20489569  0.39732262  0.25390120  1
  Mo  Mo187  1  0.20483261  0.39798833  0.49916819  1
  Mo  Mo188  1  0.39282343  0.79536027  0.50375212  1
  Mo  Mo189  1  0.40414414  0.00941547  0.49910977  1
  Mo  Mo190  1  0.21832813  -0.00080810  0.76239381  1
  Mo  Mo191  1  0.69077756  0.49573439  0.37797726  1
  Mo  Mo192  1  0.70134949  0.90281646  0.11823534  1
  Mo  Mo193  1  0.20680566  0.80073457  0.25019404  1
  Mo  Mo194  1  0.69386166  0.70554245  0.86936672  1
  Mo  Mo195  1  0.31325400  0.08614601  0.87649037  1
  Mo  Mo196  1  -0.00959615  0.79805552  0.75277789  1
  Mo  Mo197  1  0.49841959  0.31375996  0.62986346  1
  Mo  Mo198  1  0.49117110  0.68381890  0.62015418  1
  Mo  Mo199  1  0.31506249  0.70422165  0.61248355  1
