# generated using pymatgen
data_HfZrTaTiMo
_symmetry_space_group_name_H-M   'P 1'
_cell_length_a   15.22057524
_cell_length_b   15.20536209
_cell_length_c   16.86595782
_cell_angle_alpha   89.96501458
_cell_angle_beta   89.96353944
_cell_angle_gamma   90.06260473
_symmetry_Int_Tables_number   1
_chemical_formula_structural   HfZrTaTiMo
_chemical_formula_sum   'Hf40 Zr40 Ta40 Ti40 Mo40'
_cell_volume   3903.35826462
_cell_formula_units_Z   40
loop_
 _symmetry_equiv_pos_site_id
 _symmetry_equiv_pos_as_xyz
  1  'x, y, z'
loop_
 _atom_site_type_symbol
 _atom_site_label
 _atom_site_symmetry_multiplicity
 _atom_site_fract_x
 _atom_site_fract_y
 _atom_site_fract_z
 _atom_site_occupancy
  Hf  Hf0  1  0.00918216  0.21451395  0.51550631  1
  Hf  Hf1  1  0.20941684  0.82746743  -0.00814791  1
  Hf  Hf2  1  0.41979999  0.60003259  0.75281947  1
  Hf  Hf3  1  0.09799722  0.89606315  0.40044196  1
  Hf  Hf4  1  0.00174577  0.19901351  0.74097008  1
  Hf  Hf5  1  0.68864787  0.30721720  0.86952809  1
  Hf  Hf6  1  0.47978490  0.70691585  0.36744570  1
  Hf  Hf7  1  0.60387191  0.59971588  0.26703469  1
  Hf  Hf8  1  0.10355179  0.50333744  0.86211712  1
  Hf  Hf9  1  0.29595089  0.70574869  0.11821330  1
  Hf  Hf10  1  0.10418776  0.09518392  0.38678353  1
  Hf  Hf11  1  0.89805767  0.10994095  0.38868749  1
  Hf  Hf12  1  0.39325670  -0.01650789  0.00501838  1
  Hf  Hf13  1  0.88268070  0.89770550  0.60891680  1
  Hf  Hf14  1  0.50039416  0.69331967  0.13278225  1
  Hf  Hf15  1  0.49807175  0.11519447  0.61922285  1
  Hf  Hf16  1  0.50233847  0.51320013  0.61480846  1
  Hf  Hf17  1  0.81406704  0.60490046  0.75111990  1
  Hf  Hf18  1  0.01089207  -0.00412169  0.73056280  1
  Hf  Hf19  1  0.01553333  0.61245132  0.26147560  1
  Hf  Hf20  1  0.60143660  -0.00450985  0.26136350  1
  Hf  Hf21  1  0.78939675  0.19758968  0.74312948  1
  Hf  Hf22  1  0.89704000  0.30392433  0.87203058  1
  Hf  Hf23  1  0.20894625  0.78255998  0.25540185  1
  Hf  Hf24  1  0.59878031  0.19739156  -0.00222269  1
  Hf  Hf25  1  0.71666700  0.50147640  0.61601923  1
  Hf  Hf26  1  0.20325943  0.19948705  0.24489424  1
  Hf  Hf27  1  0.39516042  0.20031387  0.00437632  1
  Hf  Hf28  1  0.29244074  0.08718353  0.87769927  1
  Hf  Hf29  1  0.59006578  0.39392465  0.26379126  1
  Hf  Hf30  1  0.40371523  0.59130274  -0.00721954  1
  Hf  Hf31  1  0.91561053  0.68428562  0.12161167  1
  Hf  Hf32  1  0.09665609  0.71491176  0.86873708  1
  Hf  Hf33  1  -0.01362207  0.79357564  0.72178482  1
  Hf  Hf34  1  0.60038269  0.40005368  0.48581670  1
  Hf  Hf35  1  0.60482934  0.79672261  0.74461644  1
  Hf  Hf36  1  0.71216423  0.50141640  0.13893647  1
  Hf  Hf37  1  0.10006037  0.31218215  0.12229803  1
  Hf  Hf38  1  0.10692097  0.29482240  0.37146005  1
  Hf  Hf39  1  0.79085026  -0.00093178  0.00264740  1
  Zr  Zr40  1  0.78565257  0.40474149  -0.00229985  1
  Zr  Zr41  1  -0.01032291  0.59060056  0.51814001  1
  Zr  Zr42  1  0.90392400  0.90175765  0.12319571  1
  Zr  Zr43  1  0.61714044  0.59496765  0.00027623  1
  Zr  Zr44  1  0.00883771  0.80700793  0.25865282  1
  Zr  Zr45  1  0.40768622  0.20530629  0.23772803  1
  Zr  Zr46  1  0.29975964  0.88279981  0.38936378  1
  Zr  Zr47  1  0.59558362  0.40442812  0.74323934  1
  Zr  Zr48  1  0.51406371  0.70276468  0.88011339  1
  Zr  Zr49  1  0.09715265  0.49249291  0.38930382  1
  Zr  Zr50  1  0.60628638  -0.00380739  0.73524640  1
  Zr  Zr51  1  0.38786873  0.39762787  -0.00237284  1
  Zr  Zr52  1  0.80622402  0.79379256  0.00110873  1
  Zr  Zr53  1  0.09304973  0.09391043  0.12134473  1
  Zr  Zr54  1  -0.01521758  0.20420601  0.24629809  1
  Zr  Zr55  1  0.90013761  0.08858807  0.87022579  1
  Zr  Zr56  1  0.12076198  0.69337551  0.40225752  1
  Zr  Zr57  1  0.38987190  -0.00836999  0.24451843  1
  Zr  Zr58  1  0.68773932  0.29314569  0.13846080  1
  Zr  Zr59  1  0.88752528  0.32277746  0.62307240  1
  Zr  Zr60  1  -0.00366522  0.20215189  -0.00047806  1
  Zr  Zr61  1  -0.00943840  0.41769155  0.24063961  1
  Zr  Zr62  1  0.59957460  -0.00072888  0.50300444  1
  Zr  Zr63  1  -0.00679804  0.40435641  0.75132397  1
  Zr  Zr64  1  0.80425493  0.80402477  0.26315578  1
  Zr  Zr65  1  0.40447029  -0.00074108  0.74185710  1
  Zr  Zr66  1  -0.00244336  -0.00213801  0.25667033  1
  Zr  Zr67  1  0.19528896  0.80252112  0.72751096  1
  Zr  Zr68  1  0.51318207  0.09217340  0.12055228  1
  Zr  Zr69  1  0.20073150  0.37878509  0.51111299  1
  Zr  Zr70  1  0.19642775  0.60143873  -0.00766716  1
  Zr  Zr71  1  0.49681828  0.90131553  0.37931328  1
  Zr  Zr72  1  0.90796554  0.88517695  0.86788207  1
  Zr  Zr73  1  0.70390432  0.70827193  0.13639389  1
  Zr  Zr74  1  0.30080682  0.70538643  0.86170362  1
  Zr  Zr75  1  0.68312147  0.29501315  0.62137501  1
  Zr  Zr76  1  0.30575803  0.10725317  0.37699895  1
  Zr  Zr77  1  0.01274515  0.60593123  0.72481113  1
  Zr  Zr78  1  -0.00788524  0.42355543  0.00261806  1
  Zr  Zr79  1  0.69171388  0.08965044  0.87164189  1
  Ta  Ta80  1  0.79259463  0.20689685  0.50258826  1
  Ta  Ta81  1  0.70434196  0.09614045  0.38277693  1
  Ta  Ta82  1  0.30158862  0.49180103  0.84932708  1
  Ta  Ta83  1  0.70415200  0.69912150  0.61733350  1
  Ta  Ta84  1  0.50824155  0.48918199  0.87233673  1
  Ta  Ta85  1  0.70962430  0.29345477  0.37215755  1
  Ta  Ta86  1  0.01185063  -0.01478460  -0.00487043  1
  Ta  Ta87  1  0.50236912  0.90543147  0.87709677  1
  Ta  Ta88  1  0.59996510  0.78580285  0.49848525  1
  Ta  Ta89  1  0.39681311  0.00818357  0.50889422  1
  Ta  Ta90  1  0.79614982  0.20060192  0.00101145  1
  Ta  Ta91  1  0.19560280  -0.01318533  0.25194864  1
  Ta  Ta92  1  0.50034599  0.88402512  0.13301601  1
  Ta  Ta93  1  0.80018408  0.01151389  0.25738842  1
  Ta  Ta94  1  0.39028894  0.40879237  0.49944329  1
  Ta  Ta95  1  0.19997479  0.41187544  0.24836947  1
  Ta  Ta96  1  0.32698390  0.69182702  0.62521357  1
  Ta  Ta97  1  0.28652035  0.09037404  0.11756856  1
  Ta  Ta98  1  0.28564294  0.29986984  0.86442999  1
  Ta  Ta99  1  0.19343276  0.19766495  0.75233211  1
  Ta  Ta100  1  0.38803620  0.40355270  0.25180983  1
  Ta  Ta101  1  0.48010242  0.29680546  0.37976579  1
  Ta  Ta102  1  0.60055276  0.19106361  0.27097838  1
  Ta  Ta103  1  0.58327390  0.19761983  0.75192509  1
  Ta  Ta104  1  0.29639320  0.30573040  0.12284532  1
  Ta  Ta105  1  0.58362808  0.39781749  0.00491039  1
  Ta  Ta106  1  0.60178808  0.60009141  0.48019171  1
  Ta  Ta107  1  0.48029449  0.50253772  0.37670070  1
  Ta  Ta108  1  0.81371488  0.59535665  0.27395684  1
  Ta  Ta109  1  0.29128286  0.50094036  0.12645542  1
  Ta  Ta110  1  0.70679513  0.89469300  0.38601665  1
  Ta  Ta111  1  0.61823610  0.59957187  0.75379535  1
  Ta  Ta112  1  0.60336285  0.81442518  0.00184283  1
  Ta  Ta113  1  0.20474176  0.00314213  0.73218514  1
  Ta  Ta114  1  0.88249824  0.30510621  0.12606953  1
  Ta  Ta115  1  0.90573136  0.31266204  0.38413675  1
  Ta  Ta116  1  0.59003705  0.20024091  0.48372888  1
  Ta  Ta117  1  0.38238331  0.21290088  0.50426602  1
  Ta  Ta118  1  0.48569938  0.29592506  0.86793762  1
  Ta  Ta119  1  0.49402715  0.48982670  0.13380104  1
  Ti  Ti120  1  0.22120755  0.58587632  0.52252590  1
  Ti  Ti121  1  0.37604957  0.60154227  0.25044258  1
  Ti  Ti122  1  0.29221303  0.50858245  0.37701967  1
  Ti  Ti123  1  0.30663145  0.48823806  0.64591966  1
  Ti  Ti124  1  0.80166772  -0.01336096  0.74327792  1
  Ti  Ti125  1  0.11248303  0.89370449  0.12166843  1
  Ti  Ti126  1  0.11617604  0.10985157  0.61947128  1
  Ti  Ti127  1  0.91209540  0.69214274  0.88066168  1
  Ti  Ti128  1  0.89669741  0.91033197  0.40063631  1
  Ti  Ti129  1  0.21397519  0.79105093  0.51933222  1
  Ti  Ti130  1  0.89038830  0.10407839  0.12426456  1
  Ti  Ti131  1  0.09593987  0.52780424  0.12166420  1
  Ti  Ti132  1  0.30793895  0.90018813  0.61763556  1
  Ti  Ti133  1  0.79119695  0.60685955  0.47811495  1
  Ti  Ti134  1  0.20693338  0.00456084  0.51678244  1
  Ti  Ti135  1  0.70408416  0.09467101  0.61510771  1
  Ti  Ti136  1  0.19565775  0.40089388  -0.00737735  1
  Ti  Ti137  1  0.70135354  0.89096946  0.61113436  1
  Ti  Ti138  1  0.09958264  0.10600163  0.87469059  1
  Ti  Ti139  1  0.90504006  0.71252301  0.39072354  1
  Ti  Ti140  1  0.80810650  0.41617316  0.48328607  1
  Ti  Ti141  1  0.00417718  0.79172853  0.52442623  1
  Ti  Ti142  1  0.40589290  0.80636880  0.74748951  1
  Ti  Ti143  1  0.10582948  0.48252521  0.62759692  1
  Ti  Ti144  1  0.29120662  0.29371951  0.64051397  1
  Ti  Ti145  1  0.19740824  0.20531981  -0.00376573  1
  Ti  Ti146  1  0.70116350  0.89448437  0.87148923  1
  Ti  Ti147  1  0.49826779  0.88282397  0.61289801  1
  Ti  Ti148  1  0.81790679  0.58776342  -0.00800580  1
  Ti  Ti149  1  0.71529147  0.70240608  0.87497947  1
  Ti  Ti150  1  0.11499441  0.91606648  0.86710867  1
  Ti  Ti151  1  0.89085480  0.10147996  0.61801211  1
  Ti  Ti152  1  0.70583042  0.10085065  0.13374325  1
  Ti  Ti153  1  0.49789776  0.09612220  0.87793421  1
  Ti  Ti154  1  0.00356653  0.00488367  0.51737207  1
  Ti  Ti155  1  0.48455342  0.30862128  0.62220917  1
  Ti  Ti156  1  0.80140206  0.40068476  0.26411918  1
  Ti  Ti157  1  0.69406296  0.90764782  0.13248915  1
  Ti  Ti158  1  0.40574750  0.79779099  -0.00432551  1
  Ti  Ti159  1  0.39246368  0.19930352  0.74992789  1
  Mo  Mo160  1  0.10599746  0.29746607  0.88160652  1
  Mo  Mo161  1  0.21043969  0.59503697  0.72954829  1
  Mo  Mo162  1  0.59956889  0.80519499  0.25029492  1
  Mo  Mo163  1  0.19609084  0.01071002  -0.00469689  1
  Mo  Mo164  1  0.40310556  0.79757646  0.51196664  1
  Mo  Mo165  1  0.10292922  0.90344989  0.60633564  1
  Mo  Mo166  1  0.39783922  0.79342092  0.24463489  1
  Mo  Mo167  1  0.51477482  0.69880500  0.62195232  1
  Mo  Mo168  1  0.79797257  0.20059328  0.25450097  1
  Mo  Mo169  1  0.40165815  0.38945525  0.74911137  1
  Mo  Mo170  1  0.69880130  0.49644280  0.37212769  1
  Mo  Mo171  1  0.80043784  0.00558507  0.49998304  1
  Mo  Mo172  1  0.69490232  0.70473036  0.37071489  1
  Mo  Mo173  1  0.00105298  0.60687416  -0.00633649  1
  Mo  Mo174  1  0.30186865  0.10554941  0.62692144  1
  Mo  Mo175  1  0.20171678  0.59213969  0.24778779  1
  Mo  Mo176  1  0.29845160  0.90068583  0.13048054  1
  Mo  Mo177  1  0.10316200  0.70907700  0.11435781  1
  Mo  Mo178  1  0.79635361  0.79403317  0.48742453  1
  Mo  Mo179  1  0.49666062  0.10350914  0.38598973  1
  Mo  Mo180  1  -0.00356048  0.39936909  0.50489950  1
  Mo  Mo181  1  0.90120994  0.50413424  0.37843175  1
  Mo  Mo182  1  0.10249472  0.29772229  0.63258231  1
  Mo  Mo183  1  0.89390397  0.50309893  0.13317741  1
  Mo  Mo184  1  0.40062942  0.59782053  0.50019005  1
  Mo  Mo185  1  0.79053042  0.80025216  0.74783264  1
  Mo  Mo186  1  0.20731511  0.19321218  0.50492179  1
  Mo  Mo187  1  0.30250008  0.68303508  0.38977256  1
  Mo  Mo188  1  0.12046102  0.69147854  0.61069707  1
  Mo  Mo189  1  0.30633965  0.90035361  0.86167546  1
  Mo  Mo190  1  0.87759115  0.69817327  0.60904689  1
  Mo  Mo191  1  0.49575146  0.30359162  0.13169172  1
  Mo  Mo192  1  0.01491142  0.79852437  -0.00002825  1
  Mo  Mo193  1  0.89728356  0.50783923  0.87209091  1
  Mo  Mo194  1  0.89043899  0.50199034  0.62023239  1
  Mo  Mo195  1  0.19573459  0.39193447  0.74446764  1
  Mo  Mo196  1  0.69919387  0.50773501  0.87322953  1
  Mo  Mo197  1  0.30063228  0.31697683  0.37173943  1
  Mo  Mo198  1  0.59831869  -0.01105598  0.00202887  1
  Mo  Mo199  1  0.79090522  0.41342832  0.76248139  1
