# generated using pymatgen
data_HfZrTaTiMo
_symmetry_space_group_name_H-M   'P 1'
_cell_length_a   15.19609276
_cell_length_b   15.21092527
_cell_length_c   16.87076741
_cell_angle_alpha   90.03007855
_cell_angle_beta   90.00715041
_cell_angle_gamma   90.00944247
_symmetry_Int_Tables_number   1
_chemical_formula_structural   HfZrTaTiMo
_chemical_formula_sum   'Hf40 Zr40 Ta40 Ti40 Mo40'
_cell_volume   3899.62043509
_cell_formula_units_Z   40
loop_
 _symmetry_equiv_pos_site_id
 _symmetry_equiv_pos_as_xyz
  1  'x, y, z'
loop_
 _atom_site_type_symbol
 _atom_site_label
 _atom_site_symmetry_multiplicity
 _atom_site_fract_x
 _atom_site_fract_y
 _atom_site_fract_z
 _atom_site_occupancy
  Hf  Hf0  1  0.70151527  0.90429576  0.11996195  1
  Hf  Hf1  1  0.00577119  0.18397639  0.48053923  1
  Hf  Hf2  1  0.69614732  0.48889437  0.87834410  1
  Hf  Hf3  1  0.70535123  0.29488615  0.64061104  1
  Hf  Hf4  1  0.39712988  0.39824838  0.49856879  1
  Hf  Hf5  1  0.58297821  0.38409029  0.76384759  1
  Hf  Hf6  1  0.92231710  0.89654276  0.61039518  1
  Hf  Hf7  1  0.18409954  0.60993020  -0.00133175  1
  Hf  Hf8  1  0.10799340  0.29819303  0.88441621  1
  Hf  Hf9  1  0.40677284  0.20178280  0.75930155  1
  Hf  Hf10  1  0.59754964  0.60305678  -0.00441031  1
  Hf  Hf11  1  0.39704384  0.39190342  0.22601200  1
  Hf  Hf12  1  0.80582917  0.19904959  0.00955488  1
  Hf  Hf13  1  0.80961062  0.80283926  0.24936996  1
  Hf  Hf14  1  0.80974901  0.01294128  0.49398191  1
  Hf  Hf15  1  0.69874044  0.70780061  0.63228384  1
  Hf  Hf16  1  0.28618782  0.49483449  0.88197050  1
  Hf  Hf17  1  0.90335606  0.49678582  0.37141926  1
  Hf  Hf18  1  0.70270442  0.70806090  0.86450433  1
  Hf  Hf19  1  0.40556203  -0.00773622  0.23843929  1
  Hf  Hf20  1  0.40206860  0.00208237  0.76061033  1
  Hf  Hf21  1  0.80588636  0.80095475  -0.00650044  1
  Hf  Hf22  1  0.29098126  0.29152366  0.62559033  1
  Hf  Hf23  1  0.61299531  -0.00236536  0.25317692  1
  Hf  Hf24  1  -0.00823779  0.60084929  0.74713180  1
  Hf  Hf25  1  0.50922958  0.11058391  0.89194811  1
  Hf  Hf26  1  0.08620552  0.51054013  0.12127201  1
  Hf  Hf27  1  0.80276793  0.60196350  0.24854261  1
  Hf  Hf28  1  0.30238360  0.88246742  0.11537004  1
  Hf  Hf29  1  0.20471964  0.80744038  0.49828209  1
  Hf  Hf30  1  0.19339662  0.40410878  0.24039084  1
  Hf  Hf31  1  0.39990607  0.00515415  0.50203996  1
  Hf  Hf32  1  0.29788278  0.90101858  0.63102957  1
  Hf  Hf33  1  0.70026095  0.49309203  0.12240565  1
  Hf  Hf34  1  0.51158748  0.09220910  0.12224969  1
  Hf  Hf35  1  0.49257253  0.89643524  0.37901246  1
  Hf  Hf36  1  0.09971392  0.09293410  0.63189211  1
  Hf  Hf37  1  0.00563111  -0.00185037  0.00054445  1
  Hf  Hf38  1  0.68068821  0.10247997  0.63544814  1
  Hf  Hf39  1  0.01677430  0.80910624  0.74550409  1
  Zr  Zr40  1  0.49269786  0.50343068  0.62664662  1
  Zr  Zr41  1  0.49969960  0.28311571  0.62289926  1
  Zr  Zr42  1  0.61526809  0.40032010  0.49384911  1
  Zr  Zr43  1  0.70666374  0.88744603  0.38533173  1
  Zr  Zr44  1  -0.00602266  0.20032443  0.75967927  1
  Zr  Zr45  1  0.50532106  0.50086602  0.36817847  1
  Zr  Zr46  1  0.88447907  0.29543199  0.35929336  1
  Zr  Zr47  1  0.40313513  0.21991767  0.01938586  1
  Zr  Zr48  1  0.08752344  0.29800213  0.61884058  1
  Zr  Zr49  1  0.18883796  0.39631991  0.75194039  1
  Zr  Zr50  1  0.58809532  0.59940566  0.76005333  1
  Zr  Zr51  1  0.29956695  0.10174979  0.36221748  1
  Zr  Zr52  1  0.30881746  0.70038741  0.64349739  1
  Zr  Zr53  1  0.91723495  0.69376582  0.11674294  1
  Zr  Zr54  1  0.18209438  0.40591630  0.49868043  1
  Zr  Zr55  1  0.29771455  0.50365948  0.36946391  1
  Zr  Zr56  1  0.70981840  0.89792108  0.62630027  1
  Zr  Zr57  1  0.19315243  0.01799547  0.49192068  1
  Zr  Zr58  1  0.70039903  0.49949153  0.63255395  1
  Zr  Zr59  1  0.80813399  0.40237425  0.75552636  1
  Zr  Zr60  1  0.79972758  0.59666354  0.50077727  1
  Zr  Zr61  1  0.19693399  -0.01858836  0.24730531  1
  Zr  Zr62  1  0.39180682  0.61067498  -0.00242940  1
  Zr  Zr63  1  0.80638684  0.59380314  -0.00418789  1
  Zr  Zr64  1  0.60214443  0.00325189  0.49182728  1
  Zr  Zr65  1  0.90998524  0.90431371  0.12192408  1
  Zr  Zr66  1  0.78965237  0.21168798  0.49454417  1
  Zr  Zr67  1  0.89852472  0.10972049  0.62526190  1
  Zr  Zr68  1  0.19596193  -0.00676763  0.75727402  1
  Zr  Zr69  1  0.58988862  0.19712502  0.48749501  1
  Zr  Zr70  1  0.91391055  0.89673230  0.87466429  1
  Zr  Zr71  1  0.28451032  0.50699897  0.63247604  1
  Zr  Zr72  1  0.39092006  0.60329875  0.23649893  1
  Zr  Zr73  1  0.81189897  0.01286884  0.76029130  1
  Zr  Zr74  1  0.59431304  0.79946426  0.24131506  1
  Zr  Zr75  1  0.29490140  0.71767660  0.86092923  1
  Zr  Zr76  1  0.49796112  0.69874703  0.37202090  1
  Zr  Zr77  1  0.10078253  0.70174786  0.62172479  1
  Zr  Zr78  1  0.91505123  0.89320994  0.39090768  1
  Zr  Zr79  1  0.49767202  0.29829691  0.35935630  1
  Ta  Ta80  1  0.60048542  0.60049631  0.23700027  1
  Ta  Ta81  1  0.29249178  0.10705228  0.88565046  1
  Ta  Ta82  1  0.00670701  0.58781413  0.50367235  1
  Ta  Ta83  1  0.00031221  0.19376339  0.25127776  1
  Ta  Ta84  1  0.19926469  0.80597798  -0.00456393  1
  Ta  Ta85  1  0.00519963  0.60682626  0.25423615  1
  Ta  Ta86  1  0.69992369  0.69289096  0.37881005  1
  Ta  Ta87  1  0.09577342  0.09658900  0.87442423  1
  Ta  Ta88  1  0.50127133  0.10253230  0.35828626  1
  Ta  Ta89  1  0.59346381  -0.00023675  0.75889678  1
  Ta  Ta90  1  0.89712245  0.30190223  0.88072319  1
  Ta  Ta91  1  0.09511543  0.50321611  0.36887043  1
  Ta  Ta92  1  0.29187102  0.29684787  0.37000318  1
  Ta  Ta93  1  0.09304935  0.09436079  0.12910634  1
  Ta  Ta94  1  -0.01109334  0.39744431  0.00357781  1
  Ta  Ta95  1  0.48924512  0.71348198  0.11779087  1
  Ta  Ta96  1  0.19901113  0.60519402  0.49499581  1
  Ta  Ta97  1  0.09921862  0.30015665  0.37082668  1
  Ta  Ta98  1  0.59432409  0.60913858  0.50224912  1
  Ta  Ta99  1  0.30886790  0.30143584  0.88396668  1
  Ta  Ta100  1  0.01943814  0.80170536  0.25265791  1
  Ta  Ta101  1  0.40778776  0.79769098  0.50625437  1
  Ta  Ta102  1  0.50978760  0.89978412  0.62548660  1
  Ta  Ta103  1  0.58810229  0.38322114  0.00130953  1
  Ta  Ta104  1  0.80136277  0.01047942  -0.01152277  1
  Ta  Ta105  1  0.20161423  0.00156031  0.00204448  1
  Ta  Ta106  1  -0.00158262  0.19823220  0.00277922  1
  Ta  Ta107  1  0.71468371  0.11649730  0.35388459  1
  Ta  Ta108  1  0.69917948  0.70095956  0.12026935  1
  Ta  Ta109  1  0.38312305  0.79995441  0.24847105  1
  Ta  Ta110  1  0.19572429  0.20089225  0.23933601  1
  Ta  Ta111  1  0.39274264  0.39966897  0.75564383  1
  Ta  Ta112  1  0.69524089  0.90266138  0.87086443  1
  Ta  Ta113  1  -0.00474275  0.00005616  0.25367383  1
  Ta  Ta114  1  0.69346941  0.27832493  0.87309013  1
  Ta  Ta115  1  0.49916061  0.89771780  0.88743004  1
  Ta  Ta116  1  0.39508656  0.60710363  0.50127919  1
  Ta  Ta117  1  0.50092460  0.49932626  0.11570218  1
  Ta  Ta118  1  -0.00176771  0.40640336  0.75603497  1
  Ta  Ta119  1  0.61451634  0.19953754  0.01502008  1
  Ti  Ti120  1  0.89863379  0.29731555  0.13421237  1
  Ti  Ti121  1  0.10732937  0.89931430  0.37875915  1
  Ti  Ti122  1  0.48224655  0.48212332  0.89132100  1
  Ti  Ti123  1  0.19473898  0.19501007  0.01147197  1
  Ti  Ti124  1  0.61088292  0.00094928  -0.00183658  1
  Ti  Ti125  1  0.38673541  0.19512913  0.49455187  1
  Ti  Ti126  1  0.39552829  0.19934989  0.23353903  1
  Ti  Ti127  1  0.80738176  0.60342830  0.75031101  1
  Ti  Ti128  1  0.79350476  0.38851450  -0.00076971  1
  Ti  Ti129  1  0.81657212  0.79512855  0.75005724  1
  Ti  Ti130  1  0.50085175  0.71002785  0.87519887  1
  Ti  Ti131  1  0.80750870  0.40060721  0.49842141  1
  Ti  Ti132  1  0.70159490  0.30370798  0.13930865  1
  Ti  Ti133  1  0.29233372  0.50644414  0.11558904  1
  Ti  Ti134  1  0.10807956  0.71867253  0.12488121  1
  Ti  Ti135  1  0.39885683  -0.00451989  0.00127323  1
  Ti  Ti136  1  0.29498657  0.09740151  0.12346214  1
  Ti  Ti137  1  0.90104756  0.30616372  0.62260051  1
  Ti  Ti138  1  0.29680659  0.71018547  0.37592472  1
  Ti  Ti139  1  0.90255165  0.50419832  0.88042553  1
  Ti  Ti140  1  0.11470921  0.89565832  0.87738989  1
  Ti  Ti141  1  0.20301485  0.39021184  0.01378353  1
  Ti  Ti142  1  0.08746390  0.49889814  0.88692375  1
  Ti  Ti143  1  0.72087961  0.09722224  0.13689684  1
  Ti  Ti144  1  0.50466775  0.70797992  0.62980607  1
  Ti  Ti145  1  0.39871235  0.59195786  0.76466556  1
  Ti  Ti146  1  0.41507592  0.80946095  0.75390102  1
  Ti  Ti147  1  0.09253270  0.29795940  0.12274094  1
  Ti  Ti148  1  0.19453443  0.61715648  0.24759945  1
  Ti  Ti149  1  0.90457221  0.70119313  0.38366364  1
  Ti  Ti150  1  0.59548220  0.80395667  0.00307196  1
  Ti  Ti151  1  0.09616932  0.70080986  0.38085789  1
  Ti  Ti152  1  0.60210316  0.20661487  0.24125993  1
  Ti  Ti153  1  0.89693945  0.49123651  0.12642803  1
  Ti  Ti154  1  0.18350205  0.60330634  0.75899577  1
  Ti  Ti155  1  0.08239015  0.70381342  0.87819136  1
  Ti  Ti156  1  0.70138646  0.49016689  0.36019832  1
  Ti  Ti157  1  0.91161977  0.49637456  0.61987645  1
  Ti  Ti158  1  0.30065004  0.10627980  0.63096151  1
  Ti  Ti159  1  -0.00258487  0.40050887  0.24497040  1
  Mo  Mo160  1  0.28628972  0.29532396  0.12543065  1
  Mo  Mo161  1  0.48797369  0.08830361  0.62965068  1
  Mo  Mo162  1  0.79705379  0.20539871  0.76063719  1
  Mo  Mo163  1  0.30490698  0.91026834  0.88753602  1
  Mo  Mo164  1  0.10215940  0.89698935  0.12317490  1
  Mo  Mo165  1  0.39284693  0.40566944  0.01662997  1
  Mo  Mo166  1  0.70206806  0.09548061  0.87957057  1
  Mo  Mo167  1  0.19804092  0.78945985  0.25851430  1
  Mo  Mo168  1  0.90114785  0.09440170  0.36650796  1
  Mo  Mo169  1  0.80457722  0.78685398  0.50392475  1
  Mo  Mo170  1  -0.01302719  0.39703413  0.49494686  1
  Mo  Mo171  1  0.21134922  0.19486941  0.76325411  1
  Mo  Mo172  1  -0.00206743  0.59688208  -0.00625896  1
  Mo  Mo173  1  0.51122920  0.30145360  0.13480571  1
  Mo  Mo174  1  0.01659705  0.79290615  -0.00501414  1
  Mo  Mo175  1  0.59581299  0.81197437  0.75611056  1
  Mo  Mo176  1  0.59774161  0.78971090  0.50370490  1
  Mo  Mo177  1  0.90269843  0.69759630  0.87311942  1
  Mo  Mo178  1  0.50343041  0.89940130  0.10830485  1
  Mo  Mo179  1  0.01126284  -0.00443699  0.49240410  1
  Mo  Mo180  1  0.40359929  0.80283145  -0.00655809  1
  Mo  Mo181  1  0.80443046  0.19685153  0.23230681  1
  Mo  Mo182  1  0.80133175  0.40206816  0.24208694  1
  Mo  Mo183  1  0.00936344  0.78391044  0.49639168  1
  Mo  Mo184  1  0.81165808  0.00302296  0.25744277  1
  Mo  Mo185  1  0.29172401  0.69687939  0.12257079  1
  Mo  Mo186  1  0.90648786  0.10276018  0.12719537  1
  Mo  Mo187  1  0.20674559  0.20733175  0.49076637  1
  Mo  Mo188  1  0.30459545  0.89009066  0.37693199  1
  Mo  Mo189  1  0.60051548  0.40608985  0.24026019  1
  Mo  Mo190  1  0.90466817  0.10923269  0.88059222  1
  Mo  Mo191  1  0.09790182  0.10296008  0.35730145  1
  Mo  Mo192  1  0.00447088  0.00028144  0.75855693  1
  Mo  Mo193  1  0.08972933  0.50031028  0.62538626  1
  Mo  Mo194  1  0.89271392  0.70133204  0.61951781  1
  Mo  Mo195  1  0.49776325  0.30227286  0.88397512  1
  Mo  Mo196  1  0.10522096  0.90296406  0.61833222  1
  Mo  Mo197  1  0.20211310  0.79978412  0.75498501  1
  Mo  Mo198  1  0.59940242  0.18623699  0.75803252  1
  Mo  Mo199  1  0.69661710  0.30879761  0.34987871  1
