# generated using pymatgen
data_HfZrTaTiMo
_symmetry_space_group_name_H-M   'P 1'
_cell_length_a   15.21513646
_cell_length_b   15.21672486
_cell_length_c   16.85426578
_cell_angle_alpha   89.99681695
_cell_angle_beta   89.93759749
_cell_angle_gamma   90.11052279
_symmetry_Int_Tables_number   1
_chemical_formula_structural   HfZrTaTiMo
_chemical_formula_sum   'Hf40 Zr40 Ta40 Ti40 Mo40'
_cell_volume   3902.16663830
_cell_formula_units_Z   40
loop_
 _symmetry_equiv_pos_site_id
 _symmetry_equiv_pos_as_xyz
  1  'x, y, z'
loop_
 _atom_site_type_symbol
 _atom_site_label
 _atom_site_symmetry_multiplicity
 _atom_site_fract_x
 _atom_site_fract_y
 _atom_site_fract_z
 _atom_site_occupancy
  Hf  Hf0  1  0.89242309  0.67484378  0.61957511  1
  Hf  Hf1  1  0.07263878  0.49296988  0.60485360  1
  Hf  Hf2  1  0.59845244  -0.00726950  0.76363677  1
  Hf  Hf3  1  0.69230838  0.87855322  0.62715426  1
  Hf  Hf4  1  0.00475727  -0.00237490  0.00374595  1
  Hf  Hf5  1  0.30070974  0.50117338  0.11866414  1
  Hf  Hf6  1  0.79762264  0.41270271  0.00294415  1
  Hf  Hf7  1  0.58114474  0.40701327  0.25204981  1
  Hf  Hf8  1  0.30790182  0.70020228  0.12774628  1
  Hf  Hf9  1  0.01869394  0.80143144  0.73930496  1
  Hf  Hf10  1  0.71461300  0.51420368  0.63778744  1
  Hf  Hf11  1  0.70754067  0.68137155  0.88090609  1
  Hf  Hf12  1  0.21486967  0.78159493  0.73858457  1
  Hf  Hf13  1  0.41117953  -0.00016722  -0.00869703  1
  Hf  Hf14  1  0.79497766  0.19916705  0.00289057  1
  Hf  Hf15  1  0.60941144  0.00521951  0.25515327  1
  Hf  Hf16  1  0.10976962  0.69613939  0.38786526  1
  Hf  Hf17  1  0.59391708  0.38885994  0.74071891  1
  Hf  Hf18  1  0.38487719  0.61914093  0.75566022  1
  Hf  Hf19  1  0.18801984  0.19143095  0.51266464  1
  Hf  Hf20  1  0.88467976  0.30607492  0.13401840  1
  Hf  Hf21  1  0.29817490  0.49819822  0.38084181  1
  Hf  Hf22  1  0.88947806  0.49066521  0.34774148  1
  Hf  Hf23  1  0.40119917  0.79221701  -0.01460225  1
  Hf  Hf24  1  0.90388401  0.11002315  0.64554624  1
  Hf  Hf25  1  0.27414203  0.50979495  0.61927486  1
  Hf  Hf26  1  0.91545105  0.30992264  0.88597894  1
  Hf  Hf27  1  0.61042092  0.62239814  0.50938026  1
  Hf  Hf28  1  0.59532356  0.19179004  0.51374420  1
  Hf  Hf29  1  0.39405399  0.39015562  -0.01626657  1
  Hf  Hf30  1  0.49658044  0.50725445  0.86301280  1
  Hf  Hf31  1  0.68919949  0.51023491  0.12252326  1
  Hf  Hf32  1  0.69940999  0.30304782  0.37510806  1
  Hf  Hf33  1  0.29962166  0.89912203  0.13460009  1
  Hf  Hf34  1  0.51562710  0.10811722  0.11955613  1
  Hf  Hf35  1  0.59111236  0.79048498  0.77271756  1
  Hf  Hf36  1  0.49472615  0.51381710  0.38814871  1
  Hf  Hf37  1  0.00160505  0.01173842  0.51100510  1
  Hf  Hf38  1  0.39042826  0.20666497  0.52174443  1
  Hf  Hf39  1  0.10964325  0.68192623  0.60876533  1
  Zr  Zr40  1  0.19420631  0.39508710  0.24314709  1
  Zr  Zr41  1  0.19656966  0.20967058  -0.00090148  1
  Zr  Zr42  1  0.48330743  0.30615004  0.38963564  1
  Zr  Zr43  1  0.29998989  0.10383538  0.86141437  1
  Zr  Zr44  1  0.00285231  0.80354485  0.50736565  1
  Zr  Zr45  1  0.50438210  0.89617072  0.12554796  1
  Zr  Zr46  1  -0.00998499  0.36451831  0.48239649  1
  Zr  Zr47  1  0.20805468  0.20161236  0.24301478  1
  Zr  Zr48  1  0.70767307  0.08153799  0.62944186  1
  Zr  Zr49  1  0.41354816  0.20837653  0.73378495  1
  Zr  Zr50  1  0.31176828  0.90458120  0.36259613  1
  Zr  Zr51  1  0.18880473  0.60601645  0.24115065  1
  Zr  Zr52  1  0.90762687  0.10409465  0.86990132  1
  Zr  Zr53  1  0.37885679  0.39739249  0.74564568  1
  Zr  Zr54  1  0.60378599  0.81870597  -0.02208699  1
  Zr  Zr55  1  0.11055562  0.89405753  0.37193169  1
  Zr  Zr56  1  0.69858942  0.49400295  0.86898871  1
  Zr  Zr57  1  0.20364645  -0.00521531  -0.00235284  1
  Zr  Zr58  1  0.79617423  -0.00868579  -0.01480169  1
  Zr  Zr59  1  0.82310855  0.20116033  0.49742824  1
  Zr  Zr60  1  0.70485940  0.90767304  0.12244067  1
  Zr  Zr61  1  0.80156336  0.40792826  0.49573289  1
  Zr  Zr62  1  -0.00550721  0.60487945  0.02099672  1
  Zr  Zr63  1  0.09899997  0.09296039  0.37123596  1
  Zr  Zr64  1  0.71548334  0.29869480  0.62541855  1
  Zr  Zr65  1  0.01507663  0.78999376  0.23726148  1
  Zr  Zr66  1  0.30273075  0.10797195  0.37623261  1
  Zr  Zr67  1  0.09921587  0.10041002  0.86258000  1
  Zr  Zr68  1  0.08868444  0.49962195  0.38077204  1
  Zr  Zr69  1  0.89696919  0.90584400  0.63213703  1
  Zr  Zr70  1  0.90213405  0.10703502  0.37229924  1
  Zr  Zr71  1  0.80896540  0.78624830  0.76218386  1
  Zr  Zr72  1  0.78101259  0.61356459  0.24468978  1
  Zr  Zr73  1  0.67156543  0.29809827  0.12838827  1
  Zr  Zr74  1  -0.00045812  0.20309556  0.23743478  1
  Zr  Zr75  1  0.77711978  0.18183902  0.24324294  1
  Zr  Zr76  1  0.49512721  0.52088727  0.63241243  1
  Zr  Zr77  1  0.78791627  0.78448579  0.49413654  1
  Zr  Zr78  1  0.20684311  -0.01559308  0.51909244  1
  Zr  Zr79  1  0.31470596  0.70471954  0.36199786  1
  Ta  Ta80  1  0.90828595  0.69373157  0.37008170  1
  Ta  Ta81  1  0.49560608  0.90849275  0.63343094  1
  Ta  Ta82  1  0.90386588  0.89890991  0.37292481  1
  Ta  Ta83  1  -0.00312860  -0.00627104  0.23697406  1
  Ta  Ta84  1  0.10161917  0.09835460  0.12205598  1
  Ta  Ta85  1  0.39178036  0.62190732  0.50569681  1
  Ta  Ta86  1  0.40559906  0.20783333  0.24745547  1
  Ta  Ta87  1  0.20367393  0.38404524  0.49490480  1
  Ta  Ta88  1  0.01038581  0.42012880  0.75896595  1
  Ta  Ta89  1  0.68458810  0.51041771  0.37019373  1
  Ta  Ta90  1  0.40818788  0.00604838  0.51014060  1
  Ta  Ta91  1  0.49839587  0.09634594  0.38015711  1
  Ta  Ta92  1  0.61419171  0.78495925  0.24836563  1
  Ta  Ta93  1  0.81791552  0.79230104  -0.01328764  1
  Ta  Ta94  1  0.41596905  0.81258094  0.50125265  1
  Ta  Ta95  1  0.19427758  -0.02326879  0.74263705  1
  Ta  Ta96  1  0.17501452  0.58575952  0.75648555  1
  Ta  Ta97  1  0.69651378  0.89006828  0.37455904  1
  Ta  Ta98  1  0.59836465  0.40791063  0.51105099  1
  Ta  Ta99  1  0.22947843  0.78607297  0.51525272  1
  Ta  Ta100  1  0.50352090  0.11009554  0.87229380  1
  Ta  Ta101  1  0.31077660  0.10255934  0.12329650  1
  Ta  Ta102  1  0.19182951  0.79444832  0.00712196  1
  Ta  Ta103  1  0.10623141  0.30303711  0.63611544  1
  Ta  Ta104  1  0.09001769  0.50690690  0.89360484  1
  Ta  Ta105  1  0.80648628  0.80588312  0.25568659  1
  Ta  Ta106  1  0.09192434  0.70454094  0.88105792  1
  Ta  Ta107  1  0.30035235  0.09034177  0.64075100  1
  Ta  Ta108  1  0.59362153  0.20457692  -0.00943215  1
  Ta  Ta109  1  0.27714748  0.49364503  0.87707089  1
  Ta  Ta110  1  0.60284593  0.19578664  0.74092214  1
  Ta  Ta111  1  0.69848383  0.10606295  0.86904177  1
  Ta  Ta112  1  0.81964286  0.40697073  0.75818241  1
  Ta  Ta113  1  0.79816518  -0.01044021  0.49233882  1
  Ta  Ta114  1  0.80096895  0.21102324  0.76040555  1
  Ta  Ta115  1  0.00390601  0.39593977  0.01990767  1
  Ta  Ta116  1  0.49266058  0.49264688  0.11650121  1
  Ta  Ta117  1  0.89947981  0.89560374  0.12361715  1
  Ta  Ta118  1  0.58691080  0.39543944  -0.00614224  1
  Ta  Ta119  1  0.91562783  0.31204373  0.63836106  1
  Ti  Ti120  1  0.39497108  0.59582070  -0.00975457  1
  Ti  Ti121  1  0.41536501  0.59232348  0.24736346  1
  Ti  Ti122  1  0.50484395  0.90190101  0.37023328  1
  Ti  Ti123  1  0.69629153  0.70952308  0.10556539  1
  Ti  Ti124  1  0.51992947  0.70897230  0.37560766  1
  Ti  Ti125  1  -0.00289745  0.59616252  0.22689435  1
  Ti  Ti126  1  0.59582246  -0.01492838  0.49966996  1
  Ti  Ti127  1  0.80605470  -0.00794300  0.76841674  1
  Ti  Ti128  1  0.58765342  0.60030916  -0.00520634  1
  Ti  Ti129  1  0.10191222  0.28805941  0.37036824  1
  Ti  Ti130  1  0.39916856  -0.00155433  0.75329446  1
  Ti  Ti131  1  0.92752809  0.89022000  0.87062989  1
  Ti  Ti132  1  0.80405618  0.59361870  0.48530133  1
  Ti  Ti133  1  0.11692088  0.31671499  0.87285128  1
  Ti  Ti134  1  0.00717985  0.80472321  0.01059441  1
  Ti  Ti135  1  0.40160180  0.20476265  -0.00717569  1
  Ti  Ti136  1  0.41973625  0.79449094  0.24698438  1
  Ti  Ti137  1  0.30774980  0.29788124  0.11925054  1
  Ti  Ti138  1  0.58587694  0.19986323  0.26114836  1
  Ti  Ti139  1  0.00810301  0.21850253  0.75531986  1
  Ti  Ti140  1  0.89131665  0.09209058  0.12149578  1
  Ti  Ti141  1  0.50782084  0.68864855  0.12271856  1
  Ti  Ti142  1  0.80379017  -0.00617984  0.25504992  1
  Ti  Ti143  1  0.19558244  -0.00215599  0.23986158  1
  Ti  Ti144  1  0.28795321  0.89268590  0.87471671  1
  Ti  Ti145  1  0.69562286  0.29953952  0.87242451  1
  Ti  Ti146  1  -0.01675219  0.60190752  0.75627062  1
  Ti  Ti147  1  0.09903193  0.09564901  0.64943290  1
  Ti  Ti148  1  0.28165899  0.68950318  0.88462416  1
  Ti  Ti149  1  0.00321279  0.40607487  0.22815263  1
  Ti  Ti150  1  0.39032501  0.39395516  0.25042385  1
  Ti  Ti151  1  0.50540730  0.71986597  0.62923583  1
  Ti  Ti152  1  0.89606227  0.52053639  0.88626473  1
  Ti  Ti153  1  0.19418955  0.40569229  0.00979782  1
  Ti  Ti154  1  0.40756598  0.01307020  0.24678702  1
  Ti  Ti155  1  0.39649217  0.40553829  0.51849492  1
  Ti  Ti156  1  0.21177712  0.21631542  0.74697560  1
  Ti  Ti157  1  0.69552117  0.09151232  0.38808651  1
  Ti  Ti158  1  0.40143087  0.81048754  0.76479450  1
  Ti  Ti159  1  0.88629255  0.70292825  0.12476943  1
  Mo  Mo160  1  0.01367489  0.19247787  0.52328306  1
  Mo  Mo161  1  0.10994610  0.89589271  0.62190266  1
  Mo  Mo162  1  0.31628830  0.89447858  0.63265444  1
  Mo  Mo163  1  0.58358586  0.60734241  0.24402648  1
  Mo  Mo164  1  0.59802142  0.60601046  0.74460854  1
  Mo  Mo165  1  0.20194030  0.60246713  -0.00117596  1
  Mo  Mo166  1  0.50188109  0.09079532  0.62871316  1
  Mo  Mo167  1  0.59169299  0.80863645  0.49832057  1
  Mo  Mo168  1  0.89996732  0.49165759  0.62542337  1
  Mo  Mo169  1  0.69826221  0.09906146  0.11930046  1
  Mo  Mo170  1  0.20339168  0.59578913  0.49498375  1
  Mo  Mo171  1  -0.00119293  0.20244748  0.02022237  1
  Mo  Mo172  1  0.60337699  0.01488921  -0.01876444  1
  Mo  Mo173  1  0.81044871  0.59380252  0.75616888  1
  Mo  Mo174  1  0.10780538  0.88790173  0.87457125  1
  Mo  Mo175  1  0.49032563  0.69543563  0.87955610  1
  Mo  Mo176  1  0.91413175  0.69791433  0.88244275  1
  Mo  Mo177  1  0.69160267  0.69625426  0.63879251  1
  Mo  Mo178  1  0.18654179  0.40437545  0.75246218  1
  Mo  Mo179  1  0.48755060  0.90985472  0.87086556  1
  Mo  Mo180  1  0.48223173  0.30225762  0.12356886  1
  Mo  Mo181  1  0.50631592  0.30880409  0.61134558  1
  Mo  Mo182  1  0.29132863  0.30412423  0.62352732  1
  Mo  Mo183  1  0.79462898  0.60542683  0.01319669  1
  Mo  Mo184  1  0.10676711  0.70450825  0.11892501  1
  Mo  Mo185  1  0.00568759  -0.00432782  0.74933953  1
  Mo  Mo186  1  0.10007604  0.29748300  0.11857163  1
  Mo  Mo187  1  0.89249939  0.50083807  0.13949702  1
  Mo  Mo188  1  0.50720833  0.29658522  0.87049963  1
  Mo  Mo189  1  0.78348531  0.40039062  0.24993674  1
  Mo  Mo190  1  0.20897160  0.80404122  0.24450065  1
  Mo  Mo191  1  0.70319674  0.69846880  0.37263592  1
  Mo  Mo192  1  0.29528958  0.30346052  0.37962525  1
  Mo  Mo193  1  0.31777046  0.69619079  0.62703972  1
  Mo  Mo194  1  0.10189681  0.90337996  0.12815385  1
  Mo  Mo195  1  0.89087034  0.30723673  0.33685222  1
  Mo  Mo196  1  -0.01621161  0.59405511  0.48519049  1
  Mo  Mo197  1  0.10085279  0.50048882  0.11401228  1
  Mo  Mo198  1  0.71089761  0.89987010  0.87203600  1
  Mo  Mo199  1  0.29652709  0.30187803  0.87547094  1
