# generated using pymatgen
data_HfZrTaTiMo
_symmetry_space_group_name_H-M   'P 1'
_cell_length_a   15.20624196
_cell_length_b   15.20860651
_cell_length_c   16.84340750
_cell_angle_alpha   90.04197051
_cell_angle_beta   89.96596329
_cell_angle_gamma   90.14430472
_symmetry_Int_Tables_number   1
_chemical_formula_structural   HfZrTaTiMo
_chemical_formula_sum   'Hf40 Zr40 Ta40 Ti40 Mo40'
_cell_volume   3895.28919311
_cell_formula_units_Z   40
loop_
 _symmetry_equiv_pos_site_id
 _symmetry_equiv_pos_as_xyz
  1  'x, y, z'
loop_
 _atom_site_type_symbol
 _atom_site_label
 _atom_site_symmetry_multiplicity
 _atom_site_fract_x
 _atom_site_fract_y
 _atom_site_fract_z
 _atom_site_occupancy
  Hf  Hf0  1  0.01075910  -0.00172585  -0.01188405  1
  Hf  Hf1  1  0.39557524  0.59246100  0.74554792  1
  Hf  Hf2  1  0.60247905  0.40469709  0.00427123  1
  Hf  Hf3  1  0.40525109  0.40079969  0.27396570  1
  Hf  Hf4  1  0.20945014  0.41044684  0.00359729  1
  Hf  Hf5  1  0.89446294  0.69078261  0.36855035  1
  Hf  Hf6  1  0.69918805  0.09890339  0.63714814  1
  Hf  Hf7  1  0.82097281  0.20504812  0.50714051  1
  Hf  Hf8  1  0.91413806  0.09515944  0.63495780  1
  Hf  Hf9  1  0.10961622  0.89701237  0.12817092  1
  Hf  Hf10  1  0.29511095  0.70254821  0.61759761  1
  Hf  Hf11  1  0.51196392  0.10163179  0.85631440  1
  Hf  Hf12  1  0.71307016  0.90663858  0.12890328  1
  Hf  Hf13  1  0.30237585  0.29236512  0.60678950  1
  Hf  Hf14  1  0.08928320  0.49724517  0.36005903  1
  Hf  Hf15  1  0.61041994  0.19379209  0.49201147  1
  Hf  Hf16  1  0.82086991  0.40900754  0.24710955  1
  Hf  Hf17  1  0.89276011  0.90344475  0.37546329  1
  Hf  Hf18  1  0.30385575  0.30175037  0.87825379  1
  Hf  Hf19  1  0.19652431  0.40003158  0.74911355  1
  Hf  Hf20  1  -0.00631528  0.79071925  0.49492471  1
  Hf  Hf21  1  0.79835529  0.41114263  -0.01218378  1
  Hf  Hf22  1  0.29287750  0.67729572  0.88436497  1
  Hf  Hf23  1  0.10595475  0.51549619  0.88304767  1
  Hf  Hf24  1  0.71338343  0.51754193  0.12944868  1
  Hf  Hf25  1  0.29547433  0.70543423  0.13851684  1
  Hf  Hf26  1  0.20164900  0.39420685  0.48447758  1
  Hf  Hf27  1  0.50407146  0.29490830  0.14138273  1
  Hf  Hf28  1  0.69955118  0.30410968  0.13106492  1
  Hf  Hf29  1  0.59623254  0.60882608  0.25980608  1
  Hf  Hf30  1  0.71817144  0.32325484  0.39194790  1
  Hf  Hf31  1  -0.00043836  0.39956664  0.50815453  1
  Hf  Hf32  1  0.10276437  0.29733020  0.12872562  1
  Hf  Hf33  1  0.88267777  0.69457415  0.12195244  1
  Hf  Hf34  1  0.78805115  0.19150530  -0.01017181  1
  Hf  Hf35  1  0.29315745  0.49708187  0.61173522  1
  Hf  Hf36  1  0.88069591  0.89159967  0.88311114  1
  Hf  Hf37  1  0.49266175  0.70846115  0.61916181  1
  Hf  Hf38  1  0.50190816  0.70929697  0.86758830  1
  Hf  Hf39  1  0.88885777  0.48825895  0.39123938  1
  Zr  Zr40  1  0.71353597  0.08604430  0.36928226  1
  Zr  Zr41  1  0.29294380  0.50376580  0.14846190  1
  Zr  Zr42  1  0.48534299  0.50152400  0.87687260  1
  Zr  Zr43  1  0.70247042  0.70938451  0.38021092  1
  Zr  Zr44  1  -0.02334951  0.58143545  0.23737425  1
  Zr  Zr45  1  0.09779619  0.29033522  0.87882475  1
  Zr  Zr46  1  0.09774131  0.70577332  0.35332017  1
  Zr  Zr47  1  0.20882287  -0.01073939  -0.00800823  1
  Zr  Zr48  1  0.49908968  0.09765041  0.61902544  1
  Zr  Zr49  1  0.69045711  0.29741442  0.86322762  1
  Zr  Zr50  1  0.49671105  0.29644310  0.87261055  1
  Zr  Zr51  1  0.08779115  0.28508847  0.37008350  1
  Zr  Zr52  1  0.09849058  0.89276101  0.62789305  1
  Zr  Zr53  1  0.31063328  0.10795810  0.87243343  1
  Zr  Zr54  1  0.68741036  0.10292814  0.14262087  1
  Zr  Zr55  1  0.20760377  -0.00867667  0.75877644  1
  Zr  Zr56  1  0.30527355  0.28472954  0.14136166  1
  Zr  Zr57  1  0.00398090  0.00050002  0.50105475  1
  Zr  Zr58  1  0.89751890  0.29815537  0.11354736  1
  Zr  Zr59  1  0.49780324  0.50141347  0.60037682  1
  Zr  Zr60  1  0.60555517  0.80677541  -0.00596891  1
  Zr  Zr61  1  0.69490775  0.70848773  0.63000716  1
  Zr  Zr62  1  0.09736433  0.69555735  0.12924795  1
  Zr  Zr63  1  0.59718032  0.60933629  0.00300635  1
  Zr  Zr64  1  0.50833091  0.90378499  0.13529924  1
  Zr  Zr65  1  0.61712704  0.00587306  -0.00645345  1
  Zr  Zr66  1  0.30660546  0.89617402  0.61264111  1
  Zr  Zr67  1  0.18566711  0.59930914  0.48724497  1
  Zr  Zr68  1  0.09181604  0.68890909  0.62417799  1
  Zr  Zr69  1  -0.00126621  0.39871768  -0.00389631  1
  Zr  Zr70  1  0.60017362  0.21057176  0.27590723  1
  Zr  Zr71  1  0.41350172  0.01057751  0.00307461  1
  Zr  Zr72  1  0.40058066  0.17066282  0.27155161  1
  Zr  Zr73  1  -0.00925786  0.19783601  0.24362096  1
  Zr  Zr74  1  0.89644094  0.09009046  0.11113607  1
  Zr  Zr75  1  0.79579776  0.41525475  0.74088498  1
  Zr  Zr76  1  0.80543912  0.20630550  0.74525678  1
  Zr  Zr77  1  0.91055603  0.11050416  0.87451254  1
  Zr  Zr78  1  0.90097328  0.89050685  0.10637826  1
  Zr  Zr79  1  0.40462184  0.39693542  0.01496040  1
  Ta  Ta80  1  0.30718392  0.89718563  0.12502641  1
  Ta  Ta81  1  0.79766867  -0.00309571  0.50857477  1
  Ta  Ta82  1  0.91501069  0.51486487  0.62626696  1
  Ta  Ta83  1  0.89969763  0.71141891  0.64038735  1
  Ta  Ta84  1  0.39844154  0.79902215  0.00161755  1
  Ta  Ta85  1  0.91175590  0.31015935  0.63598170  1
  Ta  Ta86  1  0.70208522  0.09333293  0.85448322  1
  Ta  Ta87  1  0.28928416  0.07123658  0.39566514  1
  Ta  Ta88  1  0.59529604  0.81345668  0.49289855  1
  Ta  Ta89  1  0.40658360  -0.00798761  0.74826030  1
  Ta  Ta90  1  0.90528809  0.69770340  0.86172678  1
  Ta  Ta91  1  0.20458310  0.18785950  0.01241041  1
  Ta  Ta92  1  0.60588235  -0.00763046  0.49476514  1
  Ta  Ta93  1  0.69418331  0.30772304  0.61690324  1
  Ta  Ta94  1  0.39787079  0.39474737  0.73960955  1
  Ta  Ta95  1  0.40378421  0.20429361  0.73347200  1
  Ta  Ta96  1  0.00708246  -0.01076760  0.76265388  1
  Ta  Ta97  1  0.69507898  0.51157086  0.86667464  1
  Ta  Ta98  1  0.70847984  0.70917938  0.85683278  1
  Ta  Ta99  1  0.50242844  0.50669703  0.13818833  1
  Ta  Ta100  1  0.91517126  0.10749122  0.37888500  1
  Ta  Ta101  1  0.11349435  0.90974693  0.36913274  1
  Ta  Ta102  1  0.19017867  0.78913566  0.76561339  1
  Ta  Ta103  1  0.19365874  0.16957071  0.25088425  1
  Ta  Ta104  1  -0.00792019  0.81309368  0.24881109  1
  Ta  Ta105  1  0.81046341  0.60979869  0.51436676  1
  Ta  Ta106  1  0.69182798  0.71428073  0.13465285  1
  Ta  Ta107  1  0.50137062  0.30716790  0.39802074  1
  Ta  Ta108  1  0.11298327  0.10061408  0.63047485  1
  Ta  Ta109  1  0.69341532  0.90114204  0.63786511  1
  Ta  Ta110  1  0.29739601  0.70511949  0.36086537  1
  Ta  Ta111  1  0.90223397  0.50901437  0.86568235  1
  Ta  Ta112  1  0.49873875  0.30607281  0.60103827  1
  Ta  Ta113  1  0.01730185  0.00664859  0.25078234  1
  Ta  Ta114  1  0.58311043  0.19638235  0.00529856  1
  Ta  Ta115  1  0.58910362  0.40278680  0.73657827  1
  Ta  Ta116  1  0.60119330  0.59540396  0.74448207  1
  Ta  Ta117  1  0.39176011  0.80243305  0.75466706  1
  Ta  Ta118  1  0.19870564  0.59490384  0.74690350  1
  Ta  Ta119  1  0.29849389  0.09356217  0.61090060  1
  Ti  Ti120  1  0.39754002  0.81473151  0.25894789  1
  Ti  Ti121  1  0.90548303  0.30945254  0.86092483  1
  Ti  Ti122  1  0.30947549  0.88875288  0.87878558  1
  Ti  Ti123  1  0.20263731  0.80382231  0.48716784  1
  Ti  Ti124  1  0.00173452  0.78060555  -0.01264759  1
  Ti  Ti125  1  0.10893968  0.10251393  0.87136019  1
  Ti  Ti126  1  0.69864291  0.50397644  0.61245858  1
  Ti  Ti127  1  0.19586853  0.39086594  0.26006201  1
  Ti  Ti128  1  0.80376823  0.20480795  0.26071768  1
  Ti  Ti129  1  0.80167902  0.61304705  -0.01388605  1
  Ti  Ti130  1  0.79208291  0.81204635  0.50474959  1
  Ti  Ti131  1  0.40132134  0.60210050  0.26231596  1
  Ti  Ti132  1  0.09389221  0.50120229  0.12484573  1
  Ti  Ti133  1  0.80532558  -0.00663516  0.75040686  1
  Ti  Ti134  1  0.01655628  0.19891487  0.50676701  1
  Ti  Ti135  1  0.21958304  -0.00984818  0.24972394  1
  Ti  Ti136  1  0.57801697  0.00897109  0.26650458  1
  Ti  Ti137  1  0.00848426  0.59916970  0.75152287  1
  Ti  Ti138  1  0.38750318  0.60190785  0.48021169  1
  Ti  Ti139  1  0.39612678  0.19085583  0.48817231  1
  Ti  Ti140  1  0.59839829  0.81541669  0.26621365  1
  Ti  Ti141  1  0.01559717  0.20602815  0.74546200  1
  Ti  Ti142  1  0.49365832  0.70528087  0.13377837  1
  Ti  Ti143  1  0.80017086  0.60501252  0.74373176  1
  Ti  Ti144  1  0.38897987  0.59749062  0.01405714  1
  Ti  Ti145  1  0.70263612  0.51364829  0.38737427  1
  Ti  Ti146  1  0.60138033  0.61311880  0.49604155  1
  Ti  Ti147  1  0.89572896  0.89517243  0.63426947  1
  Ti  Ti148  1  0.79514119  0.80139965  0.25364833  1
  Ti  Ti149  1  0.29377211  0.28413597  0.37690186  1
  Ti  Ti150  1  0.50335115  0.89827266  0.62310917  1
  Ti  Ti151  1  0.19698996  0.79033141  -0.00950703  1
  Ti  Ti152  1  0.50456579  0.50373297  0.39036973  1
  Ti  Ti153  1  0.21061866  0.19834770  0.74416131  1
  Ti  Ti154  1  0.81930338  0.00055478  0.25063261  1
  Ti  Ti155  1  0.49287718  0.71151066  0.38120685  1
  Ti  Ti156  1  0.10623759  0.30003532  0.62479737  1
  Ti  Ti157  1  0.68059564  0.89899561  0.84993054  1
  Ti  Ti158  1  0.60671805  0.41295382  0.26326462  1
  Ti  Ti159  1  0.48321443  0.91360675  0.38306708  1
  Mo  Mo160  1  0.20072459  0.59522728  0.25626248  1
  Mo  Mo161  1  0.30203722  0.49554423  0.87335293  1
  Mo  Mo162  1  -0.00985874  0.59719298  0.00072484  1
  Mo  Mo163  1  0.90157840  0.50556581  0.10671659  1
  Mo  Mo164  1  0.00175873  0.39529566  0.24112780  1
  Mo  Mo165  1  0.29845847  0.08651494  0.12986732  1
  Mo  Mo166  1  0.90148373  0.29635345  0.38162149  1
  Mo  Mo167  1  0.39525802  -0.00664484  0.25512029  1
  Mo  Mo168  1  0.49486002  0.09614912  0.39523227  1
  Mo  Mo169  1  0.40724237  -0.00773014  0.50395048  1
  Mo  Mo170  1  0.19547980  -0.00424776  0.50516690  1
  Mo  Mo171  1  0.49505943  0.10440755  0.13094081  1
  Mo  Mo172  1  0.19684382  0.60418799  0.00886219  1
  Mo  Mo173  1  0.58626638  0.80272563  0.74899913  1
  Mo  Mo174  1  0.49058671  0.90031258  0.86972554  1
  Mo  Mo175  1  0.80378573  0.40779288  0.52545555  1
  Mo  Mo176  1  0.79854938  0.80299267  0.74703963  1
  Mo  Mo177  1  0.59618232  -0.00263758  0.74486012  1
  Mo  Mo178  1  0.40257939  0.79206054  0.48876688  1
  Mo  Mo179  1  -0.00175060  0.80398063  0.75810658  1
  Mo  Mo180  1  0.69718683  0.90269840  0.37074503  1
  Mo  Mo181  1  0.19590073  0.19134314  0.50068528  1
  Mo  Mo182  1  0.00334036  0.40644103  0.74596734  1
  Mo  Mo183  1  0.09307663  0.69760359  0.87568739  1
  Mo  Mo184  1  0.40203725  0.19406219  0.01262342  1
  Mo  Mo185  1  0.59260264  0.21371590  0.73266725  1
  Mo  Mo186  1  0.09683595  0.88740478  0.87446372  1
  Mo  Mo187  1  0.10315103  0.09279642  0.37497485  1
  Mo  Mo188  1  0.79109396  -0.00359421  -0.01697089  1
  Mo  Mo189  1  0.78543947  0.60178323  0.25150935  1
  Mo  Mo190  1  0.01602375  0.18850764  0.00362925  1
  Mo  Mo191  1  0.20196608  0.80831336  0.25206889  1
  Mo  Mo192  1  0.39320578  0.40373842  0.47715198  1
  Mo  Mo193  1  0.29641420  0.50399233  0.36088707  1
  Mo  Mo194  1  0.10889598  0.09459098  0.12272052  1
  Mo  Mo195  1  0.78853691  0.78780261  -0.00694794  1
  Mo  Mo196  1  -0.00775323  0.60168086  0.50033919  1
  Mo  Mo197  1  0.30033208  0.88992169  0.38366752  1
  Mo  Mo198  1  0.09668177  0.49122554  0.62967359  1
  Mo  Mo199  1  0.60490930  0.41057353  0.49931551  1
