# generated using pymatgen
data_HfZrTaTiMo
_symmetry_space_group_name_H-M   'P 1'
_cell_length_a   15.19421737
_cell_length_b   15.21811980
_cell_length_c   16.87211947
_cell_angle_alpha   90.00613018
_cell_angle_beta   89.93155054
_cell_angle_gamma   89.96184028
_symmetry_Int_Tables_number   1
_chemical_formula_structural   HfZrTaTiMo
_chemical_formula_sum   'Hf40 Zr40 Ta40 Ti40 Mo40'
_cell_volume   3901.29298648
_cell_formula_units_Z   40
loop_
 _symmetry_equiv_pos_site_id
 _symmetry_equiv_pos_as_xyz
  1  'x, y, z'
loop_
 _atom_site_type_symbol
 _atom_site_label
 _atom_site_symmetry_multiplicity
 _atom_site_fract_x
 _atom_site_fract_y
 _atom_site_fract_z
 _atom_site_occupancy
  Hf  Hf0  1  -0.02216702  0.79668736  0.50683524  1
  Hf  Hf1  1  0.50617344  0.88064894  0.12655811  1
  Hf  Hf2  1  0.08802288  0.88903717  0.62998030  1
  Hf  Hf3  1  0.31317046  0.30571487  0.90023290  1
  Hf  Hf4  1  0.08768872  0.29738412  0.11266614  1
  Hf  Hf5  1  0.60982794  0.00019014  0.74849972  1
  Hf  Hf6  1  0.39915560  0.57524399  0.26240539  1
  Hf  Hf7  1  0.59544984  0.79412965  -0.01279111  1
  Hf  Hf8  1  0.68897260  0.29891334  0.60971516  1
  Hf  Hf9  1  0.19957878  0.60262730  0.24813370  1
  Hf  Hf10  1  0.51580208  0.69411232  0.37795707  1
  Hf  Hf11  1  0.61509645  -0.00838886  0.24830194  1
  Hf  Hf12  1  0.21955049  0.39716151  0.22482405  1
  Hf  Hf13  1  0.59595111  0.39258007  0.76078670  1
  Hf  Hf14  1  0.40685326  0.00258845  0.50618620  1
  Hf  Hf15  1  0.29375605  0.30324330  0.36544959  1
  Hf  Hf16  1  0.27424952  0.31769242  0.62322288  1
  Hf  Hf17  1  0.79293196  0.60084143  0.24773562  1
  Hf  Hf18  1  0.30859035  0.11316999  0.62429010  1
  Hf  Hf19  1  0.50468374  0.89796184  0.36747891  1
  Hf  Hf20  1  0.80844342  0.00648059  0.00506939  1
  Hf  Hf21  1  0.10351788  0.09949613  0.63557682  1
  Hf  Hf22  1  0.40376437  0.78183934  0.25119665  1
  Hf  Hf23  1  0.51156242  0.10560639  0.88594043  1
  Hf  Hf24  1  0.79757841  0.19658373  0.49092563  1
  Hf  Hf25  1  -0.00411706  0.79383701  0.25973381  1
  Hf  Hf26  1  0.00441805  0.81278863  -0.00681034  1
  Hf  Hf27  1  0.20666425  0.79157268  -0.00089046  1
  Hf  Hf28  1  0.28997039  0.89638319  0.61555256  1
  Hf  Hf29  1  0.79127039  0.40597606  0.26233425  1
  Hf  Hf30  1  0.38576407  -0.00446159  0.23758557  1
  Hf  Hf31  1  0.40925707  0.59480683  0.49842769  1
  Hf  Hf32  1  0.80002130  0.18958712  0.75281125  1
  Hf  Hf33  1  0.38346632  0.39876513  0.75356676  1
  Hf  Hf34  1  0.49029081  0.30329528  0.61929632  1
  Hf  Hf35  1  0.10877290  0.88077034  0.85454760  1
  Hf  Hf36  1  0.08974324  0.09389870  0.86692444  1
  Hf  Hf37  1  0.01280318  0.20258264  0.50410096  1
  Hf  Hf38  1  0.40168292  0.79474820  0.50584846  1
  Hf  Hf39  1  0.60134965  0.58990470  -0.02187748  1
  Zr  Zr40  1  0.58708367  0.38904447  -0.01375785  1
  Zr  Zr41  1  0.39230699  0.20929458  0.22575170  1
  Zr  Zr42  1  0.29717951  0.09687258  0.37127974  1
  Zr  Zr43  1  0.20071936  0.18494853  0.00673633  1
  Zr  Zr44  1  0.09569580  0.89940167  0.39125007  1
  Zr  Zr45  1  0.68746666  0.69718349  0.11410317  1
  Zr  Zr46  1  0.39412464  0.60879908  -0.01567578  1
  Zr  Zr47  1  0.81008242  0.79473239  -0.00720690  1
  Zr  Zr48  1  -0.00982608  0.39431317  0.24227865  1
  Zr  Zr49  1  0.90493476  0.92277998  0.85810526  1
  Zr  Zr50  1  0.70948229  0.09845077  0.61955276  1
  Zr  Zr51  1  0.50551951  0.11454771  0.36512983  1
  Zr  Zr52  1  0.41462005  0.00389186  0.74327820  1
  Zr  Zr53  1  0.38120308  0.40950985  0.49384895  1
  Zr  Zr54  1  0.91267036  0.10078126  0.37316717  1
  Zr  Zr55  1  -0.00904610  0.61653008  -0.00268451  1
  Zr  Zr56  1  0.10589407  0.48408042  0.36631062  1
  Zr  Zr57  1  0.79199594  0.80086454  0.75281215  1
  Zr  Zr58  1  0.20755827  0.21530707  0.76563685  1
  Zr  Zr59  1  0.90683306  0.10899879  0.13303136  1
  Zr  Zr60  1  0.21196123  -0.00790014  0.75240276  1
  Zr  Zr61  1  0.78620571  0.80729796  0.24359313  1
  Zr  Zr62  1  0.20263770  0.80891978  0.25228826  1
  Zr  Zr63  1  0.87536737  0.69594192  0.38503319  1
  Zr  Zr64  1  0.60594554  0.21680720  0.24402299  1
  Zr  Zr65  1  0.70891750  0.50116221  0.62446589  1
  Zr  Zr66  1  0.50548461  0.70628506  0.64253471  1
  Zr  Zr67  1  0.09791387  0.70539166  0.12834899  1
  Zr  Zr68  1  0.00047713  0.21312148  0.74695788  1
  Zr  Zr69  1  0.88843902  0.49620101  0.11274336  1
  Zr  Zr70  1  0.81558714  0.60550573  0.74657502  1
  Zr  Zr71  1  0.61047766  0.00702369  0.49154396  1
  Zr  Zr72  1  0.38540842  0.80912812  0.75313390  1
  Zr  Zr73  1  0.60821261  0.19326023  0.01699671  1
  Zr  Zr74  1  0.80646762  0.40039986  0.75523046  1
  Zr  Zr75  1  0.28337272  0.68685662  0.63521013  1
  Zr  Zr76  1  0.89987454  0.31465758  0.61341914  1
  Zr  Zr77  1  0.29349651  0.89488636  0.38852329  1
  Zr  Zr78  1  0.90898080  0.30610449  0.88158691  1
  Zr  Zr79  1  0.19914996  0.56585757  0.50731759  1
  Ta  Ta80  1  0.40081935  0.00068522  0.01145130  1
  Ta  Ta81  1  0.69586857  0.90680781  0.87858420  1
  Ta  Ta82  1  0.69215671  0.31057188  0.38697632  1
  Ta  Ta83  1  0.10809371  0.31730169  0.89760594  1
  Ta  Ta84  1  0.51205131  0.11306652  0.61743345  1
  Ta  Ta85  1  0.49348455  0.51395761  0.11906250  1
  Ta  Ta86  1  0.02010616  0.60228531  0.75387589  1
  Ta  Ta87  1  0.89521328  0.90446496  0.37454702  1
  Ta  Ta88  1  0.01177438  -0.00601373  0.24874641  1
  Ta  Ta89  1  0.49294857  0.70463321  0.86009588  1
  Ta  Ta90  1  0.40917893  0.20341963  0.75745141  1
  Ta  Ta91  1  0.92796975  0.51594143  0.61562158  1
  Ta  Ta92  1  0.39885573  0.80059993  -0.00607975  1
  Ta  Ta93  1  0.89877464  0.51178544  0.88349466  1
  Ta  Ta94  1  0.49926322  0.90654020  0.88313219  1
  Ta  Ta95  1  0.60571407  0.59743302  0.76376367  1
  Ta  Ta96  1  0.00933602  0.00549047  0.00136908  1
  Ta  Ta97  1  0.81421177  -0.01517365  0.49917636  1
  Ta  Ta98  1  0.10036246  0.28405813  0.36286638  1
  Ta  Ta99  1  0.71316231  0.31165719  0.12611225  1
  Ta  Ta100  1  0.09641474  0.50183732  0.89093962  1
  Ta  Ta101  1  0.20293127  0.20088409  0.49786304  1
  Ta  Ta102  1  0.31428229  0.09646629  0.88650659  1
  Ta  Ta103  1  0.40371342  0.20639464  0.49370138  1
  Ta  Ta104  1  0.10785168  0.09664190  0.36799054  1
  Ta  Ta105  1  0.80176403  0.20711370  0.00088985  1
  Ta  Ta106  1  0.80606073  0.21411976  0.26039393  1
  Ta  Ta107  1  0.41051324  0.20408619  0.01930894  1
  Ta  Ta108  1  0.58995281  0.41462228  0.49528842  1
  Ta  Ta109  1  0.28132709  0.49679749  0.88206744  1
  Ta  Ta110  1  0.49921355  0.50402030  0.63575385  1
  Ta  Ta111  1  0.70009499  0.52370976  0.38582904  1
  Ta  Ta112  1  0.09698074  0.50273500  0.11659940  1
  Ta  Ta113  1  0.60318507  0.80234282  0.50822620  1
  Ta  Ta114  1  0.61403933  0.61031502  0.51254898  1
  Ta  Ta115  1  0.69670251  0.89395606  0.62462047  1
  Ta  Ta116  1  0.90582398  0.31263582  0.38629927  1
  Ta  Ta117  1  -0.00578945  0.59665913  0.25896135  1
  Ta  Ta118  1  0.78814012  0.40734613  -0.01118489  1
  Ta  Ta119  1  0.68419829  0.49592847  0.12096645  1
  Ti  Ti120  1  0.89671367  0.70232290  0.12851114  1
  Ti  Ti121  1  0.48586187  0.49045660  0.87070198  1
  Ti  Ti122  1  0.19920340  0.59946673  0.00763065  1
  Ti  Ti123  1  0.71473832  0.09353949  0.87808390  1
  Ti  Ti124  1  0.30777849  0.90154133  0.88160845  1
  Ti  Ti125  1  0.59806111  0.80419529  0.75835902  1
  Ti  Ti126  1  0.59725949  0.61154268  0.24631457  1
  Ti  Ti127  1  0.69508951  0.28818583  0.87627180  1
  Ti  Ti128  1  0.71107049  0.10523572  0.13509389  1
  Ti  Ti129  1  0.70775362  0.09994930  0.36972520  1
  Ti  Ti130  1  0.18724286  0.00681290  0.50629368  1
  Ti  Ti131  1  0.50516312  0.09104798  0.13019764  1
  Ti  Ti132  1  0.10581286  0.08660395  0.12884742  1
  Ti  Ti133  1  0.17975174  0.77014872  0.50279374  1
  Ti  Ti134  1  0.31703488  0.69204442  0.12402264  1
  Ti  Ti135  1  0.89226067  0.90417616  0.63627843  1
  Ti  Ti136  1  0.90681686  0.08802586  0.62338427  1
  Ti  Ti137  1  0.59320264  0.42215175  0.25832540  1
  Ti  Ti138  1  0.39371648  0.59492656  0.75879530  1
  Ti  Ti139  1  0.70584211  0.88517621  0.37949716  1
  Ti  Ti140  1  0.29463314  0.89863212  0.11921952  1
  Ti  Ti141  1  0.20041944  0.18819003  0.23086797  1
  Ti  Ti142  1  0.50200518  0.32663282  0.13042139  1
  Ti  Ti143  1  0.60406191  -0.00267526  0.00785458  1
  Ti  Ti144  1  0.27601186  0.69780007  0.85800714  1
  Ti  Ti145  1  0.19980925  -0.00989763  -0.00573427  1
  Ti  Ti146  1  0.28673090  0.68665399  0.38377209  1
  Ti  Ti147  1  -0.00734040  0.19562751  -0.00207650  1
  Ti  Ti148  1  0.90832833  0.90340336  0.12820189  1
  Ti  Ti149  1  0.71321458  0.69176024  0.87639139  1
  Ti  Ti150  1  0.49675268  0.31460797  0.37065973  1
  Ti  Ti151  1  0.80789871  0.42461156  0.48976222  1
  Ti  Ti152  1  0.10175467  0.90397862  0.12567002  1
  Ti  Ti153  1  0.70591988  0.90226819  0.11866463  1
  Ti  Ti154  1  0.59795497  0.19801125  0.75208668  1
  Ti  Ti155  1  0.00213366  0.59633603  0.48531056  1
  Ti  Ti156  1  0.00156418  0.19920378  0.24812788  1
  Ti  Ti157  1  -0.00848855  0.78199357  0.74409217  1
  Ti  Ti158  1  0.80979228  0.00375779  0.25017990  1
  Ti  Ti159  1  0.01495195  0.41226136  0.75189437  1
  Mo  Mo160  1  0.59358292  0.21247112  0.48718770  1
  Mo  Mo161  1  0.69143375  0.70676158  0.37890595  1
  Mo  Mo162  1  -0.00299503  0.00091638  0.50654932  1
  Mo  Mo163  1  0.51437304  0.49783578  0.37862246  1
  Mo  Mo164  1  0.07813172  0.67604620  0.61956531  1
  Mo  Mo165  1  0.18755255  0.40315784  0.76291108  1
  Mo  Mo166  1  0.17734446  0.77159113  0.73670846  1
  Mo  Mo167  1  -0.00392503  0.40227107  0.00302378  1
  Mo  Mo168  1  0.19501855  0.00148200  0.24281851  1
  Mo  Mo169  1  0.80620017  0.61144216  0.51475879  1
  Mo  Mo170  1  0.49535368  0.69071676  0.12165366  1
  Mo  Mo171  1  0.79993831  0.00273606  0.74818159  1
  Mo  Mo172  1  0.30642479  0.30294019  0.10709821  1
  Mo  Mo173  1  0.09209949  0.30557780  0.62637740  1
  Mo  Mo174  1  0.41078694  0.39881245  0.24649963  1
  Mo  Mo175  1  -0.00592129  0.00175966  0.74258610  1
  Mo  Mo176  1  0.90058862  0.70034874  0.61974216  1
  Mo  Mo177  1  0.69582949  0.70155203  0.63475862  1
  Mo  Mo178  1  0.50687896  0.90666229  0.62187228  1
  Mo  Mo179  1  0.31004699  0.49832329  0.63679600  1
  Mo  Mo180  1  0.19840860  0.57462096  0.74951173  1
  Mo  Mo181  1  0.10569040  0.68863441  0.87421328  1
  Mo  Mo182  1  0.30397484  0.50421069  0.11375561  1
  Mo  Mo183  1  0.60362148  0.79791422  0.24879583  1
  Mo  Mo184  1  0.40172199  0.40913524  0.00359154  1
  Mo  Mo185  1  0.70323278  0.49511644  0.86727291  1
  Mo  Mo186  1  0.30181222  0.49297759  0.37160892  1
  Mo  Mo187  1  0.91042196  0.70329032  0.87010778  1
  Mo  Mo188  1  0.89927767  0.10740945  0.88211767  1
  Mo  Mo189  1  0.89757607  0.50191985  0.37990871  1
  Mo  Mo190  1  0.17773464  0.37722127  0.49067168  1
  Mo  Mo191  1  0.78513949  0.80181711  0.51063748  1
  Mo  Mo192  1  0.09690962  0.69276371  0.37668614  1
  Mo  Mo193  1  0.00520156  0.40612476  0.49404485  1
  Mo  Mo194  1  0.29774340  0.08968438  0.11188763  1
  Mo  Mo195  1  0.10622156  0.47861537  0.62690249  1
  Mo  Mo196  1  0.88816656  0.29806043  0.11859619  1
  Mo  Mo197  1  0.79238266  0.59733050  -0.00731546  1
  Mo  Mo198  1  0.20202728  0.40837691  0.01869958  1
  Mo  Mo199  1  0.49832524  0.28929857  0.87551720  1
