# generated using pymatgen
data_HfZrTaTiMo
_symmetry_space_group_name_H-M   'P 1'
_cell_length_a   15.21861015
_cell_length_b   15.20765671
_cell_length_c   16.86988543
_cell_angle_alpha   89.91115308
_cell_angle_beta   89.98158552
_cell_angle_gamma   89.91507108
_symmetry_Int_Tables_number   1
_chemical_formula_structural   HfZrTaTiMo
_chemical_formula_sum   'Hf40 Zr40 Ta40 Ti40 Mo40'
_cell_volume   3904.34695867
_cell_formula_units_Z   40
loop_
 _symmetry_equiv_pos_site_id
 _symmetry_equiv_pos_as_xyz
  1  'x, y, z'
loop_
 _atom_site_type_symbol
 _atom_site_label
 _atom_site_symmetry_multiplicity
 _atom_site_fract_x
 _atom_site_fract_y
 _atom_site_fract_z
 _atom_site_occupancy
  Hf  Hf0  1  0.20247920  0.60786042  -0.00133258  1
  Hf  Hf1  1  0.29278000  0.07877603  0.61605664  1
  Hf  Hf2  1  0.69773549  0.91120442  0.62694330  1
  Hf  Hf3  1  0.61035714  0.19310497  0.72848698  1
  Hf  Hf4  1  -0.00242124  0.38788936  0.50175795  1
  Hf  Hf5  1  0.09053517  0.29060144  0.36503596  1
  Hf  Hf6  1  0.19490064  0.20428491  0.50714795  1
  Hf  Hf7  1  0.50356250  0.29279683  0.86055842  1
  Hf  Hf8  1  0.49587574  0.69147696  0.86620524  1
  Hf  Hf9  1  0.38761796  -0.00124985  0.75308379  1
  Hf  Hf10  1  0.51586425  0.28697790  0.38603504  1
  Hf  Hf11  1  -0.00823566  0.80401089  0.74634438  1
  Hf  Hf12  1  0.21361540  0.61307281  0.75347543  1
  Hf  Hf13  1  0.81755489  0.21688263  0.23676839  1
  Hf  Hf14  1  0.10510788  0.09761103  0.12439903  1
  Hf  Hf15  1  0.71194764  0.49653644  0.61834929  1
  Hf  Hf16  1  -0.00375483  0.20906538  -0.00420213  1
  Hf  Hf17  1  0.61400667  0.39505123  0.73601903  1
  Hf  Hf18  1  0.10184736  0.08948363  0.38704911  1
  Hf  Hf19  1  0.10552181  0.71000122  0.87209200  1
  Hf  Hf20  1  0.30068291  0.50087191  0.12875696  1
  Hf  Hf21  1  0.39605521  0.20523828  -0.01170417  1
  Hf  Hf22  1  0.00658236  0.00327959  -0.01206578  1
  Hf  Hf23  1  0.88996950  0.49300788  0.37620345  1
  Hf  Hf24  1  -0.01538258  0.79849094  -0.00796020  1
  Hf  Hf25  1  0.40262429  0.40036692  -0.00235328  1
  Hf  Hf26  1  -0.00133783  0.80311079  0.50859142  1
  Hf  Hf27  1  0.50728663  0.49581411  0.86477622  1
  Hf  Hf28  1  0.80408733  -0.00260333  -0.00449287  1
  Hf  Hf29  1  0.50495756  0.71931088  0.38124568  1
  Hf  Hf30  1  0.50191419  0.50096245  0.61741449  1
  Hf  Hf31  1  0.00352269  0.59125191  0.75809873  1
  Hf  Hf32  1  0.42327950  0.19044650  0.25666636  1
  Hf  Hf33  1  0.89860550  0.90588901  0.36527052  1
  Hf  Hf34  1  0.10070720  0.90157016  0.13200359  1
  Hf  Hf35  1  0.08804029  0.70514425  0.13091935  1
  Hf  Hf36  1  -0.01352222  0.39135683  0.23726339  1
  Hf  Hf37  1  0.59092888  0.00019626  0.74822459  1
  Hf  Hf38  1  0.69750039  0.09713373  0.13665806  1
  Hf  Hf39  1  0.49733813  0.88988670  0.87572384  1
  Zr  Zr40  1  -0.00578177  -0.00091180  0.50669130  1
  Zr  Zr41  1  0.68841050  0.71138391  0.13555365  1
  Zr  Zr42  1  0.10938522  0.29657630  0.13057262  1
  Zr  Zr43  1  0.30685582  0.29819331  0.13659271  1
  Zr  Zr44  1  0.70661351  0.50853565  0.87933660  1
  Zr  Zr45  1  0.60114504  0.39170964  0.00121569  1
  Zr  Zr46  1  -0.00531563  0.21263822  0.75192897  1
  Zr  Zr47  1  0.19485055  0.40214824  0.75145302  1
  Zr  Zr48  1  0.78634397  0.41953136  0.23730132  1
  Zr  Zr49  1  0.50504364  0.09656965  0.10786458  1
  Zr  Zr50  1  0.80330923  0.59886870  0.75182110  1
  Zr  Zr51  1  0.09201679  0.70846231  0.36650414  1
  Zr  Zr52  1  0.79531110  0.80990840  0.50261351  1
  Zr  Zr53  1  0.80241281  0.60512613  0.50179614  1
  Zr  Zr54  1  0.30919433  0.50796974  0.87045506  1
  Zr  Zr55  1  0.60562617  0.59563994  0.25851744  1
  Zr  Zr56  1  0.20174080  0.39509320  -0.00766167  1
  Zr  Zr57  1  0.72076110  0.30899396  0.38398287  1
  Zr  Zr58  1  0.50108949  0.49049036  0.38973380  1
  Zr  Zr59  1  0.10208488  0.70379416  0.62538645  1
  Zr  Zr60  1  0.39128804  0.77924624  -0.00059937  1
  Zr  Zr61  1  0.81457183  0.39866311  0.01043116  1
  Zr  Zr62  1  0.10545010  0.49787768  0.61854388  1
  Zr  Zr63  1  0.77499917  0.80132242  -0.00573689  1
  Zr  Zr64  1  0.31000185  0.30139725  0.37733806  1
  Zr  Zr65  1  0.38105630  -0.00189940  -0.01918373  1
  Zr  Zr66  1  0.40267755  -0.00907460  0.25431868  1
  Zr  Zr67  1  0.51841944  0.87987114  0.11276367  1
  Zr  Zr68  1  0.79757837  0.19591426  0.01112612  1
  Zr  Zr69  1  0.09779655  0.50030056  0.36824336  1
  Zr  Zr70  1  0.89944485  0.89225628  0.13738953  1
  Zr  Zr71  1  0.29504924  0.10137270  0.12099430  1
  Zr  Zr72  1  0.68462413  0.89617660  0.37004829  1
  Zr  Zr73  1  0.29484211  0.71613630  0.37365585  1
  Zr  Zr74  1  0.70084658  0.10624820  0.35963590  1
  Zr  Zr75  1  0.70968973  0.28928011  0.87439766  1
  Zr  Zr76  1  0.61966710  0.18570347  0.52081977  1
  Zr  Zr77  1  0.29919816  0.89818597  0.12407639  1
  Zr  Zr78  1  0.39835690  0.59429834  0.25997594  1
  Zr  Zr79  1  0.31256677  0.08526278  0.39816035  1
  Ta  Ta80  1  0.09449482  0.09946282  0.62580339  1
  Ta  Ta81  1  0.69832707  0.51302692  0.11448975  1
  Ta  Ta82  1  0.59765730  0.61814094  0.00205414  1
  Ta  Ta83  1  0.41236200  0.19715730  0.52324515  1
  Ta  Ta84  1  0.50803283  0.49983129  0.12715261  1
  Ta  Ta85  1  0.20277538  -0.00593769  0.26086938  1
  Ta  Ta86  1  0.89271933  0.90419484  0.86306947  1
  Ta  Ta87  1  -0.00198303  0.00986032  0.75039292  1
  Ta  Ta88  1  0.59808777  0.61390368  0.50588292  1
  Ta  Ta89  1  0.20618540  0.18757468  0.26217872  1
  Ta  Ta90  1  0.57763520  0.81517469  0.51823942  1
  Ta  Ta91  1  0.69376475  0.70436287  0.62476719  1
  Ta  Ta92  1  0.79308239  0.02035142  0.49888629  1
  Ta  Ta93  1  0.79644326  0.01098152  0.75716447  1
  Ta  Ta94  1  0.39781010  0.39404958  0.51131280  1
  Ta  Ta95  1  -0.00282426  0.60032991  0.50010759  1
  Ta  Ta96  1  0.89714998  0.70144858  0.37395587  1
  Ta  Ta97  1  0.82148023  0.38840936  0.75379730  1
  Ta  Ta98  1  0.90133309  0.52091504  0.11865472  1
  Ta  Ta99  1  0.20440999  0.40185706  0.49628003  1
  Ta  Ta100  1  0.90326363  0.11596709  0.36767101  1
  Ta  Ta101  1  0.40355150  0.19412764  0.73207876  1
  Ta  Ta102  1  0.29459281  0.30148932  0.63014388  1
  Ta  Ta103  1  0.58606501  0.79545556  0.73404115  1
  Ta  Ta104  1  0.58896912  -0.00066058  0.25263988  1
  Ta  Ta105  1  0.00315768  0.00746939  0.25653188  1
  Ta  Ta106  1  0.28209215  0.88827447  0.86274004  1
  Ta  Ta107  1  0.30179897  0.29058839  0.85496666  1
  Ta  Ta108  1  0.38583590  0.79128070  0.73932319  1
  Ta  Ta109  1  0.09657488  0.30669091  0.87665542  1
  Ta  Ta110  1  0.88529357  0.11192346  0.63207258  1
  Ta  Ta111  1  0.19597133  0.60061928  0.25195618  1
  Ta  Ta112  1  -0.02067523  0.60797680  0.24564137  1
  Ta  Ta113  1  0.39636512  0.60691726  0.50000106  1
  Ta  Ta114  1  0.60096230  0.60549200  0.73774976  1
  Ta  Ta115  1  0.30005382  0.50629267  0.61486470  1
  Ta  Ta116  1  0.10057550  0.50578238  0.13361469  1
  Ta  Ta117  1  0.90377889  0.49216520  0.62259712  1
  Ta  Ta118  1  0.38189112  0.81747502  0.51066436  1
  Ta  Ta119  1  0.19119142  0.81284479  -0.00385921  1
  Ti  Ti120  1  0.40173156  0.39710479  0.73477435  1
  Ti  Ti121  1  0.78714031  0.79960581  0.74974699  1
  Ti  Ti122  1  0.69405672  0.09743693  0.87845785  1
  Ti  Ti123  1  0.60648164  0.38931205  0.51611807  1
  Ti  Ti124  1  0.40532350  0.60245340  0.73254192  1
  Ti  Ti125  1  0.19998706  0.60324484  0.49029008  1
  Ti  Ti126  1  0.50377068  0.10108061  0.87856584  1
  Ti  Ti127  1  0.11195626  0.89277245  0.37217463  1
  Ti  Ti128  1  0.09714419  0.91202148  0.86250561  1
  Ti  Ti129  1  0.00842136  0.40776047  0.00872552  1
  Ti  Ti130  1  0.59543420  0.39034612  0.24759763  1
  Ti  Ti131  1  0.19733203  0.19124894  0.74837262  1
  Ti  Ti132  1  0.21129910  0.40587207  0.26158874  1
  Ti  Ti133  1  0.68913236  0.29872683  0.12501026  1
  Ti  Ti134  1  0.50581011  0.29386078  0.12584741  1
  Ti  Ti135  1  -0.00061493  0.59989050  -0.00456810  1
  Ti  Ti136  1  0.51139015  0.08386859  0.39494856  1
  Ti  Ti137  1  0.89419735  0.11028158  0.86952178  1
  Ti  Ti138  1  0.91566707  0.48901700  0.88230360  1
  Ti  Ti139  1  0.80720140  0.78451870  0.25129988  1
  Ti  Ti140  1  0.29526366  0.70284265  0.13806259  1
  Ti  Ti141  1  0.41241848  0.79887990  0.24634655  1
  Ti  Ti142  1  0.88578784  0.70474974  0.86995917  1
  Ti  Ti143  1  0.29190529  0.70626712  0.61384198  1
  Ti  Ti144  1  0.11491652  0.90745320  0.63218713  1
  Ti  Ti145  1  0.00568728  0.40039718  0.74921475  1
  Ti  Ti146  1  -0.00949158  0.20023271  0.50939792  1
  Ti  Ti147  1  0.70517965  0.90653182  0.14669504  1
  Ti  Ti148  1  0.61105721  -0.01064891  -0.00623880  1
  Ti  Ti149  1  0.80241094  0.61164115  -0.00425870  1
  Ti  Ti150  1  0.40784135  0.39956713  0.25548315  1
  Ti  Ti151  1  0.89459629  0.69836695  0.62802288  1
  Ti  Ti152  1  0.69454262  0.50182215  0.39240016  1
  Ti  Ti153  1  0.90694220  0.09549205  0.13411605  1
  Ti  Ti154  1  0.69321872  0.89206175  0.86432903  1
  Ti  Ti155  1  0.74237350  0.28916901  0.62114645  1
  Ti  Ti156  1  0.89475224  0.91173800  0.63503400  1
  Ti  Ti157  1  0.70100322  0.70102150  0.37315540  1
  Ti  Ti158  1  0.40651370  0.59590416  0.00893386  1
  Ti  Ti159  1  0.19801745  0.18222231  -0.02418729  1
  Mo  Mo160  1  0.19360420  -0.00402151  -0.01688716  1
  Mo  Mo161  1  0.48554383  0.90235498  0.63297318  1
  Mo  Mo162  1  0.10696696  0.29173819  0.62409262  1
  Mo  Mo163  1  0.91204793  0.30445613  0.62784793  1
  Mo  Mo164  1  0.90461969  0.30618963  0.12031932  1
  Mo  Mo165  1  0.71064043  0.09412846  0.62815739  1
  Mo  Mo166  1  0.18664334  0.00734538  0.75492716  1
  Mo  Mo167  1  0.59610313  0.80521242  0.25598658  1
  Mo  Mo168  1  0.41556784  -0.01165637  0.51068312  1
  Mo  Mo169  1  0.20386042  -0.02376834  0.49988006  1
  Mo  Mo170  1  0.49990469  0.08984227  0.62116518  1
  Mo  Mo171  1  0.19273066  0.80502361  0.50239793  1
  Mo  Mo172  1  0.80058852  0.19946723  0.75887602  1
  Mo  Mo173  1  0.48845276  0.69911389  0.61981280  1
  Mo  Mo174  1  0.30321578  0.70526187  0.87439144  1
  Mo  Mo175  1  0.29483016  0.10457430  0.86097065  1
  Mo  Mo176  1  0.59465537  0.79844496  -0.00936206  1
  Mo  Mo177  1  0.69135061  0.70679909  0.86086067  1
  Mo  Mo178  1  0.48748424  0.90341937  0.38103585  1
  Mo  Mo179  1  0.81971390  0.20065404  0.49756594  1
  Mo  Mo180  1  0.59559251  0.18689134  -0.00372563  1
  Mo  Mo181  1  0.80280279  0.39698480  0.50352786  1
  Mo  Mo182  1  0.49782499  0.30138590  0.62730237  1
  Mo  Mo183  1  0.79844757  0.60329292  0.25543731  1
  Mo  Mo184  1  0.19660357  0.80682459  0.74883024  1
  Mo  Mo185  1  0.09874642  0.10381016  0.86827712  1
  Mo  Mo186  1  0.60092262  0.20659637  0.24965936  1
  Mo  Mo187  1  0.00885736  0.19082083  0.24642209  1
  Mo  Mo188  1  0.49056625  0.68691667  0.12939216  1
  Mo  Mo189  1  0.29784519  0.50106481  0.39154794  1
  Mo  Mo190  1  -0.00147732  0.80197584  0.25523239  1
  Mo  Mo191  1  0.80386547  0.00373844  0.25054078  1
  Mo  Mo192  1  0.28681569  0.89234430  0.63646343  1
  Mo  Mo193  1  0.60176578  -0.00473542  0.50326528  1
  Mo  Mo194  1  0.09368174  0.49996938  0.88079751  1
  Mo  Mo195  1  0.89368572  0.69618707  0.12027940  1
  Mo  Mo196  1  0.20556297  0.80138161  0.24542592  1
  Mo  Mo197  1  0.90802248  0.31107438  0.87968271  1
  Mo  Mo198  1  0.29843350  0.89690051  0.37494362  1
  Mo  Mo199  1  0.90489826  0.29716827  0.37356859  1
