# generated using pymatgen
data_HfZrTaTiMo
_symmetry_space_group_name_H-M   'P 1'
_cell_length_a   15.20175427
_cell_length_b   15.21245980
_cell_length_c   16.82426445
_cell_angle_alpha   89.96295145
_cell_angle_beta   90.02802786
_cell_angle_gamma   90.09915916
_symmetry_Int_Tables_number   1
_chemical_formula_structural   HfZrTaTiMo
_chemical_formula_sum   'Hf40 Zr40 Ta40 Ti40 Mo40'
_cell_volume   3890.70627138
_cell_formula_units_Z   40
loop_
 _symmetry_equiv_pos_site_id
 _symmetry_equiv_pos_as_xyz
  1  'x, y, z'
loop_
 _atom_site_type_symbol
 _atom_site_label
 _atom_site_symmetry_multiplicity
 _atom_site_fract_x
 _atom_site_fract_y
 _atom_site_fract_z
 _atom_site_occupancy
  Hf  Hf0  1  0.30495681  0.68635510  0.10785087  1
  Hf  Hf1  1  0.70272155  0.12640117  0.38592684  1
  Hf  Hf2  1  0.60599708  0.22587347  0.24412925  1
  Hf  Hf3  1  0.69819683  0.09378309  0.12026303  1
  Hf  Hf4  1  0.41543064  0.59756110  0.25514831  1
  Hf  Hf5  1  0.09521522  0.31041656  0.36731257  1
  Hf  Hf6  1  0.30157375  0.10399314  0.87042942  1
  Hf  Hf7  1  0.41189225  0.19368833  0.25634739  1
  Hf  Hf8  1  0.79170232  -0.01677109  -0.00608195  1
  Hf  Hf9  1  0.08783811  0.90957958  0.38723798  1
  Hf  Hf10  1  0.61851040  0.78959681  -0.01628149  1
  Hf  Hf11  1  0.50915528  0.69585806  0.11416802  1
  Hf  Hf12  1  0.50403099  0.69610234  0.39165282  1
  Hf  Hf13  1  0.29011125  0.88825668  0.38885249  1
  Hf  Hf14  1  0.00396526  0.59881559  0.50054989  1
  Hf  Hf15  1  0.30057016  0.49421161  0.37386528  1
  Hf  Hf16  1  0.12104982  0.51365795  0.86972717  1
  Hf  Hf17  1  0.59615966  0.40316724  -0.01257701  1
  Hf  Hf18  1  -0.00151158  0.19389376  0.50747237  1
  Hf  Hf19  1  0.80982258  -0.00182536  0.74076196  1
  Hf  Hf20  1  -0.00261326  0.00776469  0.24501661  1
  Hf  Hf21  1  0.70482305  0.70009509  0.13481126  1
  Hf  Hf22  1  0.40077897  0.78955554  0.74508113  1
  Hf  Hf23  1  0.90452218  0.10546450  0.88680537  1
  Hf  Hf24  1  0.70639162  0.30112666  0.87506588  1
  Hf  Hf25  1  0.40126772  -0.00417175  0.52989235  1
  Hf  Hf26  1  0.10141586  0.30982900  0.11964399  1
  Hf  Hf27  1  0.28421439  0.30359063  0.88678688  1
  Hf  Hf28  1  0.60575234  0.59798738  0.75514367  1
  Hf  Hf29  1  0.11265284  0.70876882  0.61072251  1
  Hf  Hf30  1  0.10283082  0.50662205  0.14712934  1
  Hf  Hf31  1  0.09330652  0.10547349  0.11157873  1
  Hf  Hf32  1  0.47997456  0.29411727  0.87104674  1
  Hf  Hf33  1  0.20699680  0.21021130  0.50002864  1
  Hf  Hf34  1  0.88845813  0.70614566  0.86807396  1
  Hf  Hf35  1  0.90203663  0.49411394  0.12358525  1
  Hf  Hf36  1  0.69389789  0.50319063  0.12976861  1
  Hf  Hf37  1  0.70128387  0.90993350  0.38001799  1
  Hf  Hf38  1  0.49646738  0.10378605  0.11239690  1
  Hf  Hf39  1  0.60033239  0.01216858  0.51665793  1
  Zr  Zr40  1  0.50333126  0.48355765  0.38317010  1
  Zr  Zr41  1  0.59729383  -0.01146056  0.73792011  1
  Zr  Zr42  1  0.08706833  0.31542874  0.89100153  1
  Zr  Zr43  1  0.30260356  0.89817929  0.86951404  1
  Zr  Zr44  1  0.79606568  0.37969970  0.24406938  1
  Zr  Zr45  1  0.49026606  0.90607448  0.39330739  1
  Zr  Zr46  1  0.90636756  0.49831754  0.88434103  1
  Zr  Zr47  1  0.51172309  0.47868480  0.62483880  1
  Zr  Zr48  1  0.29160284  0.67521297  0.88255124  1
  Zr  Zr49  1  0.00013776  0.21205752  0.74582247  1
  Zr  Zr50  1  0.01821488  0.61077652  -0.00234660  1
  Zr  Zr51  1  0.20024471  0.19697680  0.25297007  1
  Zr  Zr52  1  0.30965070  0.09258035  0.37972032  1
  Zr  Zr53  1  0.09893446  0.50523657  0.35731919  1
  Zr  Zr54  1  0.80696947  0.59416548  0.49495611  1
  Zr  Zr55  1  0.59529485  0.19263284  -0.00959141  1
  Zr  Zr56  1  0.90134718  0.69636008  0.13480947  1
  Zr  Zr57  1  0.00417561  0.00822909  0.74448470  1
  Zr  Zr58  1  0.88397094  0.28952840  0.38696385  1
  Zr  Zr59  1  0.87994398  0.30318640  0.61951999  1
  Zr  Zr60  1  0.31317262  0.30125101  0.11042474  1
  Zr  Zr61  1  0.69126576  0.89700257  0.13301088  1
  Zr  Zr62  1  -0.00499133  0.41660153  0.73623914  1
  Zr  Zr63  1  0.10264753  0.71409593  0.13591585  1
  Zr  Zr64  1  0.09501588  0.90293650  0.87502310  1
  Zr  Zr65  1  0.49506559  0.49283135  0.12556407  1
  Zr  Zr66  1  0.61475334  0.59054261  0.51073135  1
  Zr  Zr67  1  0.10924326  0.11452271  0.88303221  1
  Zr  Zr68  1  0.49221538  0.08481810  0.86310099  1
  Zr  Zr69  1  0.38882265  -0.01136854  0.24099935  1
  Zr  Zr70  1  0.80744036  0.80414368  0.48951002  1
  Zr  Zr71  1  0.29291438  0.09840576  0.11067035  1
  Zr  Zr72  1  0.90033029  0.71259338  0.62552049  1
  Zr  Zr73  1  0.58724489  0.01909242  0.26472136  1
  Zr  Zr74  1  0.81172759  0.01339091  0.51265043  1
  Zr  Zr75  1  0.59396494  0.79934165  0.25994886  1
  Zr  Zr76  1  0.39103821  0.79364847  0.24617547  1
  Zr  Zr77  1  0.89726663  0.89598520  0.12675349  1
  Zr  Zr78  1  0.11284051  0.71229821  0.38018928  1
  Zr  Zr79  1  0.19787048  0.00783170  0.51424872  1
  Ta  Ta80  1  0.91314642  0.70235480  0.36673239  1
  Ta  Ta81  1  0.09191782  0.89692647  0.62110922  1
  Ta  Ta82  1  0.39703913  -0.01099476  0.72774221  1
  Ta  Ta83  1  0.19364852  0.40716486  0.50135531  1
  Ta  Ta84  1  -0.00576936  0.80718096  0.74918241  1
  Ta  Ta85  1  0.40174377  -0.00683815  -0.00341939  1
  Ta  Ta86  1  0.70798213  0.88774835  0.62840126  1
  Ta  Ta87  1  0.59169868  -0.01838984  -0.01731994  1
  Ta  Ta88  1  0.77725246  0.40356489  0.50039883  1
  Ta  Ta89  1  0.70281804  0.09074443  0.86720310  1
  Ta  Ta90  1  0.20564356  0.59277783  0.73313228  1
  Ta  Ta91  1  0.69635064  0.48997632  0.36299770  1
  Ta  Ta92  1  0.70657582  0.88335578  0.85866613  1
  Ta  Ta93  1  0.39765418  0.58965182  0.51520185  1
  Ta  Ta94  1  0.39532615  0.38149768  0.51063982  1
  Ta  Ta95  1  0.78749659  0.60970912  -0.00397301  1
  Ta  Ta96  1  0.60018635  0.20135145  0.75511416  1
  Ta  Ta97  1  0.01282229  0.61403932  0.74375635  1
  Ta  Ta98  1  0.21552136  0.61375799  0.25445466  1
  Ta  Ta99  1  -0.00696794  0.40871032  0.50930452  1
  Ta  Ta100  1  0.30674462  0.30447066  0.37549734  1
  Ta  Ta101  1  0.80290510  0.59885420  0.26212717  1
  Ta  Ta102  1  0.28984764  0.88923087  0.10701121  1
  Ta  Ta103  1  0.90415208  0.48992646  0.36417114  1
  Ta  Ta104  1  0.38095512  0.38686103  0.74196170  1
  Ta  Ta105  1  0.18740357  0.79090859  -0.00712773  1
  Ta  Ta106  1  0.59371525  0.59338524  -0.02061051  1
  Ta  Ta107  1  0.89479267  0.30878443  0.89381791  1
  Ta  Ta108  1  0.40015132  0.58479519  0.74162870  1
  Ta  Ta109  1  0.89462195  0.10384529  0.11474605  1
  Ta  Ta110  1  0.18864334  0.78648570  0.75336551  1
  Ta  Ta111  1  0.59248341  0.40233768  0.76707589  1
  Ta  Ta112  1  0.30704429  0.69558018  0.38811124  1
  Ta  Ta113  1  0.80193032  0.20474569  0.75705138  1
  Ta  Ta114  1  0.68282572  0.31535850  0.64053790  1
  Ta  Ta115  1  -0.01294339  0.20911536  0.24312462  1
  Ta  Ta116  1  0.40911548  0.80029118  -0.01166418  1
  Ta  Ta117  1  0.80253056  0.19063934  0.24074716  1
  Ta  Ta118  1  0.70866495  0.11958622  0.63174111  1
  Ta  Ta119  1  0.10520492  0.10940831  0.63108511  1
  Ti  Ti120  1  0.80682114  0.80602772  0.26722119  1
  Ti  Ti121  1  0.79679818  0.19781175  -0.00108559  1
  Ti  Ti122  1  0.60088110  0.80174352  0.51165800  1
  Ti  Ti123  1  0.19684851  -0.00705735  -0.00150892  1
  Ti  Ti124  1  0.29041974  0.48702801  0.62257519  1
  Ti  Ti125  1  0.50303873  0.69669510  0.62492107  1
  Ti  Ti126  1  0.90493369  0.09374947  0.37438924  1
  Ti  Ti127  1  0.19243542  -0.00510529  0.24372517  1
  Ti  Ti128  1  0.20686017  0.22221291  0.74284693  1
  Ti  Ti129  1  0.49624558  0.69242091  0.87186086  1
  Ti  Ti130  1  0.59990588  0.79376352  0.75017546  1
  Ti  Ti131  1  0.80089773  0.00355890  0.25518735  1
  Ti  Ti132  1  0.29681079  0.49607380  0.13693355  1
  Ti  Ti133  1  0.80991124  0.58998692  0.74281715  1
  Ti  Ti134  1  0.20264827  0.81197307  0.24667948  1
  Ti  Ti135  1  0.50178985  0.11492702  0.63808925  1
  Ti  Ti136  1  0.19982114  0.42595993  0.00441921  1
  Ti  Ti137  1  0.60140261  0.22099403  0.51276063  1
  Ti  Ti138  1  0.00412594  0.81117566  0.25359743  1
  Ti  Ti139  1  0.90218590  0.29971269  0.10361313  1
  Ti  Ti140  1  0.21081677  0.59928027  0.50577356  1
  Ti  Ti141  1  0.09717028  0.10531783  0.37327947  1
  Ti  Ti142  1  0.40991096  0.19471048  0.50338429  1
  Ti  Ti143  1  0.89509562  0.89887453  0.87450444  1
  Ti  Ti144  1  0.69935948  0.30341877  0.10866745  1
  Ti  Ti145  1  0.71304752  0.50094182  0.87299181  1
  Ti  Ti146  1  0.50843636  0.29385960  0.38247186  1
  Ti  Ti147  1  -0.00545901  -0.00173618  0.51431675  1
  Ti  Ti148  1  0.39492267  0.78811400  0.51950112  1
  Ti  Ti149  1  0.39772686  0.41940549  -0.00817205  1
  Ti  Ti150  1  0.70070861  0.69415066  0.37007468  1
  Ti  Ti151  1  0.40809587  0.38552861  0.24697887  1
  Ti  Ti152  1  -0.00702547  0.80540432  -0.00244397  1
  Ti  Ti153  1  0.49588854  0.89645617  0.11708331  1
  Ti  Ti154  1  0.70287795  0.69550579  0.63102728  1
  Ti  Ti155  1  0.20328468  -0.00392586  0.73880343  1
  Ti  Ti156  1  0.28593733  0.87660935  0.62760586  1
  Ti  Ti157  1  -0.00098680  -0.00501420  0.00450988  1
  Ti  Ti158  1  0.30135411  0.11540670  0.63722240  1
  Ti  Ti159  1  0.11024930  0.31436638  0.62343564  1
  Mo  Mo160  1  0.30797127  0.68804293  0.62509721  1
  Mo  Mo161  1  0.80411076  0.79298514  -0.00583997  1
  Mo  Mo162  1  0.59199476  0.40058042  0.24600905  1
  Mo  Mo163  1  -0.00092158  0.81037413  0.49577095  1
  Mo  Mo164  1  0.48893915  0.49927329  0.86354567  1
  Mo  Mo165  1  0.59800087  0.39307576  0.50456396  1
  Mo  Mo166  1  0.79285123  0.40378923  0.75308574  1
  Mo  Mo167  1  0.21550567  0.39973703  0.25048098  1
  Mo  Mo168  1  -0.00589036  0.39062144  0.24751620  1
  Mo  Mo169  1  0.39432092  0.19562828  0.74485964  1
  Mo  Mo170  1  0.78872422  0.20766828  0.51072037  1
  Mo  Mo171  1  0.90480759  0.90031658  0.62649498  1
  Mo  Mo172  1  0.79274896  0.79770297  0.74354213  1
  Mo  Mo173  1  0.50615041  0.11446169  0.39351830  1
  Mo  Mo174  1  0.30642667  0.49172465  0.86623936  1
  Mo  Mo175  1  0.90257203  0.10725863  0.62813787  1
  Mo  Mo176  1  -0.00755516  0.20197121  0.00636453  1
  Mo  Mo177  1  0.10211884  0.50518151  0.61960358  1
  Mo  Mo178  1  0.50490059  0.88576701  0.61961256  1
  Mo  Mo179  1  0.20789231  0.80128963  0.50489826  1
  Mo  Mo180  1  0.70138365  0.68852511  0.86220977  1
  Mo  Mo181  1  0.10486752  0.90370504  0.11715339  1
  Mo  Mo182  1  0.40749659  0.59331018  -0.00693784  1
  Mo  Mo183  1  0.49456892  0.28953214  0.63744123  1
  Mo  Mo184  1  0.09514082  0.70482399  0.86728437  1
  Mo  Mo185  1  0.90112866  0.90495127  0.36628168  1
  Mo  Mo186  1  0.71513116  0.49331545  0.63997169  1
  Mo  Mo187  1  0.19991227  0.20170284  -0.00056515  1
  Mo  Mo188  1  0.49984379  0.88698035  0.87010755  1
  Mo  Mo189  1  0.19748116  0.40146003  0.74232472  1
  Mo  Mo190  1  0.29870843  0.29803652  0.61798773  1
  Mo  Mo191  1  0.79418350  0.40429015  0.00679659  1
  Mo  Mo192  1  -0.00225636  0.60434273  0.25879892  1
  Mo  Mo193  1  0.60855128  0.59979041  0.25923430  1
  Mo  Mo194  1  0.00326416  0.40894540  0.00323672  1
  Mo  Mo195  1  0.20683368  0.59608464  0.00619967  1
  Mo  Mo196  1  0.69023791  0.30942184  0.37908039  1
  Mo  Mo197  1  0.39741662  0.20149162  -0.00268131  1
  Mo  Mo198  1  0.89939360  0.50481258  0.62435582  1
  Mo  Mo199  1  0.50473983  0.30402336  0.11474700  1
