# generated using pymatgen
data_HfZrTaTiMo
_symmetry_space_group_name_H-M   'P 1'
_cell_length_a   15.20823594
_cell_length_b   15.21429638
_cell_length_c   16.85449243
_cell_angle_alpha   90.00529508
_cell_angle_beta   90.04155611
_cell_angle_gamma   89.92538791
_symmetry_Int_Tables_number   1
_chemical_formula_structural   HfZrTaTiMo
_chemical_formula_sum   'Hf40 Zr40 Ta40 Ti40 Mo40'
_cell_volume   3899.83208399
_cell_formula_units_Z   40
loop_
 _symmetry_equiv_pos_site_id
 _symmetry_equiv_pos_as_xyz
  1  'x, y, z'
loop_
 _atom_site_type_symbol
 _atom_site_label
 _atom_site_symmetry_multiplicity
 _atom_site_fract_x
 _atom_site_fract_y
 _atom_site_fract_z
 _atom_site_occupancy
  Hf  Hf0  1  0.69412145  0.69193231  0.63049495  1
  Hf  Hf1  1  -0.00426481  0.01205301  0.48359932  1
  Hf  Hf2  1  0.40576555  0.20126951  0.25384619  1
  Hf  Hf3  1  0.10183822  0.90748128  0.61701754  1
  Hf  Hf4  1  0.78718366  0.58613495  0.49524510  1
  Hf  Hf5  1  0.70990710  0.69637592  0.12010171  1
  Hf  Hf6  1  0.21254170  0.20457575  0.00141549  1
  Hf  Hf7  1  0.70717994  0.47579579  0.87235338  1
  Hf  Hf8  1  0.79705133  0.79626227  0.50027669  1
  Hf  Hf9  1  0.59995847  0.00513631  -0.01535973  1
  Hf  Hf10  1  -0.00781118  0.80452298  0.74755109  1
  Hf  Hf11  1  0.39431921  0.57698715  -0.01181857  1
  Hf  Hf12  1  0.39879098  0.79752829  0.23372173  1
  Hf  Hf13  1  0.29420759  0.29928366  0.64291345  1
  Hf  Hf14  1  0.90940617  0.09606463  0.63030553  1
  Hf  Hf15  1  0.61403147  0.40660372  0.47985896  1
  Hf  Hf16  1  0.20101123  0.79012383  0.23501936  1
  Hf  Hf17  1  0.21064915  0.40161065  -0.01100834  1
  Hf  Hf18  1  0.20273534  -0.00595422  0.24489543  1
  Hf  Hf19  1  -0.00959465  0.41801025  -0.00467963  1
  Hf  Hf20  1  0.19365896  0.21587411  0.50077359  1
  Hf  Hf21  1  0.19943331  0.79989820  0.02088248  1
  Hf  Hf22  1  0.50195430  0.69123139  0.11329062  1
  Hf  Hf23  1  0.81927638  -0.01254268  -0.00619837  1
  Hf  Hf24  1  0.20263448  0.58365949  0.25392992  1
  Hf  Hf25  1  0.49700147  0.11070336  0.62944900  1
  Hf  Hf26  1  0.79461156  0.18628671  0.50066815  1
  Hf  Hf27  1  0.58164772  0.59550310  0.24471898  1
  Hf  Hf28  1  0.10088809  0.10863339  0.12321690  1
  Hf  Hf29  1  0.50864736  0.11087838  0.12167527  1
  Hf  Hf30  1  0.00594307  0.00349779  0.76038281  1
  Hf  Hf31  1  0.09201174  0.70471831  0.88050840  1
  Hf  Hf32  1  0.81087237  0.37949465  0.49044328  1
  Hf  Hf33  1  0.59451944  0.58667718  0.76031599  1
  Hf  Hf34  1  0.68011143  0.68209373  0.37735811  1
  Hf  Hf35  1  0.81116577  0.80012901  0.25065037  1
  Hf  Hf36  1  0.60524418  0.00430472  0.76216986  1
  Hf  Hf37  1  0.21225100  0.00736043  0.49440511  1
  Hf  Hf38  1  0.10329707  0.69434856  0.61908631  1
  Hf  Hf39  1  0.80108442  0.37117093  0.23539088  1
  Zr  Zr40  1  0.39669990  0.19109787  0.49017385  1
  Zr  Zr41  1  0.00473740  0.80171551  0.25130228  1
  Zr  Zr42  1  0.58539142  0.80024842  0.50056834  1
  Zr  Zr43  1  0.30645661  0.50351527  0.64256498  1
  Zr  Zr44  1  0.88144344  0.29296873  0.87853844  1
  Zr  Zr45  1  0.59781112  0.80488632  0.24542414  1
  Zr  Zr46  1  0.50703051  0.31331206  0.61362727  1
  Zr  Zr47  1  0.79988864  0.58511494  0.24814565  1
  Zr  Zr48  1  0.40935254  0.21907017  0.00361133  1
  Zr  Zr49  1  0.60445087  0.80874627  -0.00586056  1
  Zr  Zr50  1  0.72302258  0.11177088  0.87607786  1
  Zr  Zr51  1  0.40185465  0.01017495  0.76289771  1
  Zr  Zr52  1  0.60268477  0.59702789  -0.01277429  1
  Zr  Zr53  1  0.57065938  0.39482431  -0.00692837  1
  Zr  Zr54  1  0.10437890  0.12089714  0.36149743  1
  Zr  Zr55  1  0.90740051  0.49566006  0.62385797  1
  Zr  Zr56  1  -0.00251929  0.80170486  0.49603126  1
  Zr  Zr57  1  0.48871709  0.71137334  0.64474102  1
  Zr  Zr58  1  0.00383890  0.59857261  0.75896965  1
  Zr  Zr59  1  0.19154035  0.59332912  -0.00745102  1
  Zr  Zr60  1  0.10991935  0.89664002  0.37883553  1
  Zr  Zr61  1  -0.01362394  0.21110346  0.24153829  1
  Zr  Zr62  1  0.39274176  0.62713674  0.50513181  1
  Zr  Zr63  1  0.90648783  0.48888228  0.37726079  1
  Zr  Zr64  1  0.30660111  0.90596008  0.63079820  1
  Zr  Zr65  1  0.38113979  0.40297076  0.48878506  1
  Zr  Zr66  1  0.88727767  0.29551241  0.64212815  1
  Zr  Zr67  1  0.00437999  0.60880872  0.25515227  1
  Zr  Zr68  1  0.69923588  0.90782650  0.37246105  1
  Zr  Zr69  1  0.49286480  0.71168222  0.86695220  1
  Zr  Zr70  1  0.10955380  0.49078050  0.63048869  1
  Zr  Zr71  1  0.49765777  0.52664811  0.38435217  1
  Zr  Zr72  1  0.29343835  0.70283689  0.85770662  1
  Zr  Zr73  1  0.10386196  0.90780506  0.88841677  1
  Zr  Zr74  1  0.60797101  0.22240966  0.75538344  1
  Zr  Zr75  1  0.70191097  0.47257853  0.63581990  1
  Zr  Zr76  1  0.79744611  -0.00604094  0.50119793  1
  Zr  Zr77  1  0.39511244  0.80666272  0.01012809  1
  Zr  Zr78  1  0.68005672  0.48593501  0.12403200  1
  Zr  Zr79  1  -0.00039321  0.41315244  0.23490328  1
  Ta  Ta80  1  0.79983232  0.79395292  0.74693813  1
  Ta  Ta81  1  0.50488009  0.90908687  0.62834636  1
  Ta  Ta82  1  0.70325201  0.09613650  0.11914465  1
  Ta  Ta83  1  0.81362575  0.58432969  -0.00309194  1
  Ta  Ta84  1  0.40695892  -0.00440425  0.24876011  1
  Ta  Ta85  1  0.91442365  0.68960181  0.11393064  1
  Ta  Ta86  1  0.30521206  0.09397826  0.36232470  1
  Ta  Ta87  1  0.10503641  0.10847964  0.62674387  1
  Ta  Ta88  1  0.10422765  0.31000596  0.11546965  1
  Ta  Ta89  1  0.81177510  -0.00747423  0.75772963  1
  Ta  Ta90  1  0.71125091  0.69539213  0.86995249  1
  Ta  Ta91  1  -0.01252802  0.81236878  0.00596968  1
  Ta  Ta92  1  0.60052341  0.01168420  0.50610964  1
  Ta  Ta93  1  0.60013262  0.00742823  0.24706606  1
  Ta  Ta94  1  -0.01209012  -0.00414718  0.25700064  1
  Ta  Ta95  1  0.29336670  0.70506188  0.64781345  1
  Ta  Ta96  1  0.80642035  0.59219168  0.75538256  1
  Ta  Ta97  1  -0.00783163  0.39856528  0.76897885  1
  Ta  Ta98  1  0.70599091  0.90579308  0.12410358  1
  Ta  Ta99  1  0.08500879  0.91083861  0.11982110  1
  Ta  Ta100  1  0.50194749  0.29829253  0.37035642  1
  Ta  Ta101  1  0.30602174  0.10063843  0.13218200  1
  Ta  Ta102  1  0.89646185  0.69427402  0.62230522  1
  Ta  Ta103  1  0.39141218  0.41613468  0.26550689  1
  Ta  Ta104  1  0.79824716  0.00471816  0.24635123  1
  Ta  Ta105  1  0.11292286  0.68823483  0.38750627  1
  Ta  Ta106  1  0.81053364  0.19782611  0.01985357  1
  Ta  Ta107  1  0.28598624  0.29675141  0.36133700  1
  Ta  Ta108  1  0.30407117  0.49564237  0.85083877  1
  Ta  Ta109  1  0.71184211  0.88988355  0.86948417  1
  Ta  Ta110  1  0.09688672  0.10756552  0.89446360  1
  Ta  Ta111  1  0.31400391  0.88908714  0.37531959  1
  Ta  Ta112  1  0.08969465  0.29463075  0.63755638  1
  Ta  Ta113  1  0.61547142  0.20143060  0.25220501  1
  Ta  Ta114  1  0.50564839  0.31546510  0.14452563  1
  Ta  Ta115  1  0.30199815  0.66810316  0.12626649  1
  Ta  Ta116  1  0.22028372  0.78599672  0.49973924  1
  Ta  Ta117  1  0.01643734  0.38996722  0.49977024  1
  Ta  Ta118  1  0.30541350  0.90312818  0.87452473  1
  Ta  Ta119  1  0.39723593  0.00841235  -0.00653582  1
  Ti  Ti120  1  0.31497213  0.29943613  0.86036545  1
  Ti  Ti121  1  0.50735509  0.51084184  0.61418182  1
  Ti  Ti122  1  0.09407074  0.31530568  0.36879053  1
  Ti  Ti123  1  0.20938955  -0.00033582  0.00997643  1
  Ti  Ti124  1  0.40890498  -0.00319644  0.49643801  1
  Ti  Ti125  1  0.00013435  0.19672638  0.76282753  1
  Ti  Ti126  1  0.19460270  0.39546727  0.24763894  1
  Ti  Ti127  1  0.19313306  0.19710424  0.76115953  1
  Ti  Ti128  1  0.09387302  0.51744300  0.11672446  1
  Ti  Ti129  1  0.30518135  0.30881912  0.13696582  1
  Ti  Ti130  1  0.49731687  0.90105608  0.37536312  1
  Ti  Ti131  1  0.89562173  0.89686678  0.62560929  1
  Ti  Ti132  1  0.69786070  0.90307180  0.63378365  1
  Ti  Ti133  1  0.09439235  0.29757615  0.88444062  1
  Ti  Ti134  1  0.19771466  0.00983948  0.75658945  1
  Ti  Ti135  1  0.90087601  0.70238612  0.38090806  1
  Ti  Ti136  1  0.89488248  0.70150071  0.88133765  1
  Ti  Ti137  1  -0.00730935  0.20865706  0.49437712  1
  Ti  Ti138  1  0.19411362  0.81290837  0.74983045  1
  Ti  Ti139  1  0.31118329  0.69409751  0.36679447  1
  Ti  Ti140  1  0.80352068  0.79330676  -0.00004031  1
  Ti  Ti141  1  0.00212402  0.59397516  0.49442644  1
  Ti  Ti142  1  0.78831230  0.38922868  0.01649385  1
  Ti  Ti143  1  0.29610958  0.10659429  0.63421850  1
  Ti  Ti144  1  0.70432109  0.10345511  0.63751985  1
  Ti  Ti145  1  0.46367115  0.49519774  0.13027788  1
  Ti  Ti146  1  0.50988913  0.09509407  0.37380035  1
  Ti  Ti147  1  0.59872949  0.81106541  0.75860125  1
  Ti  Ti148  1  0.71576664  0.28208320  0.36571407  1
  Ti  Ti149  1  0.60451323  0.20103212  0.49135668  1
  Ti  Ti150  1  0.29589005  0.10440201  0.87575673  1
  Ti  Ti151  1  0.61228651  0.21083420  -0.00391925  1
  Ti  Ti152  1  0.18552994  0.39610927  0.76593542  1
  Ti  Ti153  1  0.88019805  0.10757835  0.36256394  1
  Ti  Ti154  1  0.90760491  0.08597727  0.12281783  1
  Ti  Ti155  1  0.60150353  0.39936860  0.26722098  1
  Ti  Ti156  1  0.49401596  0.12093341  0.87522076  1
  Ti  Ti157  1  0.50152961  0.91459860  0.12012962  1
  Ti  Ti158  1  0.20397587  0.58085236  0.49418905  1
  Ti  Ti159  1  0.42749285  0.40154789  0.75035166  1
  Mo  Mo160  1  0.80521234  0.18478847  0.74985017  1
  Mo  Mo161  1  0.10081179  0.70098001  0.11797910  1
  Mo  Mo162  1  0.40113336  0.81477210  0.75519908  1
  Mo  Mo163  1  0.19684356  0.60206359  0.75657736  1
  Mo  Mo164  1  0.69504521  0.28323188  0.61722158  1
  Mo  Mo165  1  0.59813028  0.60051459  0.50756378  1
  Mo  Mo166  1  0.89595009  0.50457744  0.87057527  1
  Mo  Mo167  1  0.48536749  0.72178782  0.37255666  1
  Mo  Mo168  1  0.49859286  0.30647803  0.86946889  1
  Mo  Mo169  1  0.39210886  0.60178588  0.24999153  1
  Mo  Mo170  1  0.49134002  0.49591133  0.86810778  1
  Mo  Mo171  1  0.70065205  0.48867986  0.36411514  1
  Mo  Mo172  1  0.39205251  0.20612334  0.75411289  1
  Mo  Mo173  1  0.60124749  0.39977698  0.75193345  1
  Mo  Mo174  1  0.70017207  0.29579621  0.88727971  1
  Mo  Mo175  1  0.79136787  0.38394276  0.75322786  1
  Mo  Mo176  1  0.10744679  0.49485155  0.38316687  1
  Mo  Mo177  1  0.00428316  0.00506802  0.00098331  1
  Mo  Mo178  1  0.90869443  0.28656327  0.37448858  1
  Mo  Mo179  1  0.20382569  0.20898946  0.23908050  1
  Mo  Mo180  1  0.90556501  0.29819989  0.10914204  1
  Mo  Mo181  1  0.19674755  0.39122632  0.50129265  1
  Mo  Mo182  1  0.69091151  0.10165533  0.37110476  1
  Mo  Mo183  1  0.91632732  0.09583598  0.88177398  1
  Mo  Mo184  1  0.50039033  0.91230428  0.87825509  1
  Mo  Mo185  1  0.80044192  0.18695371  0.23040165  1
  Mo  Mo186  1  0.30309294  0.91574600  0.12286313  1
  Mo  Mo187  1  -0.00369837  0.60841442  -0.00716321  1
  Mo  Mo188  1  0.00160233  0.20715381  0.00874048  1
  Mo  Mo189  1  0.89195885  0.50248440  0.11969688  1
  Mo  Mo190  1  0.68602837  0.28681036  0.12318676  1
  Mo  Mo191  1  0.89578248  0.89781151  0.12700409  1
  Mo  Mo192  1  0.28769611  0.48140860  0.12773072  1
  Mo  Mo193  1  0.89860943  0.88832010  0.87153335  1
  Mo  Mo194  1  0.40100224  0.59748401  0.74734552  1
  Mo  Mo195  1  0.38527205  0.39397164  -0.00094881  1
  Mo  Mo196  1  0.39357379  0.81488167  0.50171445  1
  Mo  Mo197  1  0.89801028  0.90516353  0.37067441  1
  Mo  Mo198  1  0.10070416  0.49388118  0.86865225  1
  Mo  Mo199  1  0.28869934  0.49873137  0.37937769  1
