# generated using pymatgen
data_HfZrTaTiMo
_symmetry_space_group_name_H-M   'P 1'
_cell_length_a   15.22135822
_cell_length_b   15.20286604
_cell_length_c   16.85499357
_cell_angle_alpha   90.02158396
_cell_angle_beta   90.00908288
_cell_angle_gamma   89.90966576
_symmetry_Int_Tables_number   1
_chemical_formula_structural   HfZrTaTiMo
_chemical_formula_sum   'Hf40 Zr40 Ta40 Ti40 Mo40'
_cell_volume   3900.37972948
_cell_formula_units_Z   40
loop_
 _symmetry_equiv_pos_site_id
 _symmetry_equiv_pos_as_xyz
  1  'x, y, z'
loop_
 _atom_site_type_symbol
 _atom_site_label
 _atom_site_symmetry_multiplicity
 _atom_site_fract_x
 _atom_site_fract_y
 _atom_site_fract_z
 _atom_site_occupancy
  Hf  Hf0  1  0.19668087  0.78822917  0.49807135  1
  Hf  Hf1  1  0.21308644  0.59986867  0.26153192  1
  Hf  Hf2  1  0.69540878  0.30400406  0.12068740  1
  Hf  Hf3  1  0.79290395  0.79628418  0.74013045  1
  Hf  Hf4  1  0.79800628  0.39962105  0.74462970  1
  Hf  Hf5  1  0.90170282  0.70562570  0.86231901  1
  Hf  Hf6  1  0.30201700  0.10105378  0.37026501  1
  Hf  Hf7  1  0.70239434  0.90357014  0.36482952  1
  Hf  Hf8  1  0.80981725  0.58215639  0.25382120  1
  Hf  Hf9  1  0.80638711  0.81093662  0.00108856  1
  Hf  Hf10  1  0.48829746  0.30206155  0.38437426  1
  Hf  Hf11  1  0.00897405  0.17315527  0.22034840  1
  Hf  Hf12  1  0.19957557  0.40134076  0.25616782  1
  Hf  Hf13  1  0.39249668  0.01352149  0.50880381  1
  Hf  Hf14  1  0.91217261  0.90154176  0.36181270  1
  Hf  Hf15  1  0.58719406  0.20189080  -0.00945499  1
  Hf  Hf16  1  -0.02140118  0.39791744  0.23860030  1
  Hf  Hf17  1  0.59690030  -0.00261285  -0.00476982  1
  Hf  Hf18  1  0.90738979  0.90198365  0.64065209  1
  Hf  Hf19  1  0.20816807  0.59834421  0.76089599  1
  Hf  Hf20  1  0.39926563  -0.00686090  0.00268669  1
  Hf  Hf21  1  0.50349167  0.48815455  0.87151278  1
  Hf  Hf22  1  0.59229603  0.80434080  0.75251648  1
  Hf  Hf23  1  0.40591485  -0.00196073  0.23643320  1
  Hf  Hf24  1  0.59583027  0.79793027  -0.00647701  1
  Hf  Hf25  1  0.59729081  0.59355719  0.25020709  1
  Hf  Hf26  1  0.80177630  0.00059149  0.50665632  1
  Hf  Hf27  1  0.60203355  0.39627375  0.50962158  1
  Hf  Hf28  1  0.39272656  0.20363907  0.23704827  1
  Hf  Hf29  1  0.69299092  0.31098943  0.87338530  1
  Hf  Hf30  1  0.10835879  0.10475077  0.63788953  1
  Hf  Hf31  1  0.69670056  0.09798501  0.11514352  1
  Hf  Hf32  1  0.20279382  0.00953165  0.76251702  1
  Hf  Hf33  1  0.60812600  -0.00113147  0.50124330  1
  Hf  Hf34  1  0.50591024  0.89920935  0.62584067  1
  Hf  Hf35  1  0.48584768  0.69044792  0.87071050  1
  Hf  Hf36  1  0.70417700  0.90213162  0.13236498  1
  Hf  Hf37  1  0.88068579  0.32859150  0.38487859  1
  Hf  Hf38  1  0.00382586  0.00331723  0.50420124  1
  Hf  Hf39  1  0.49975747  0.52423522  0.39794621  1
  Zr  Zr40  1  0.19423975  0.00956792  0.24199400  1
  Zr  Zr41  1  0.20257786  0.79675937  0.76445179  1
  Zr  Zr42  1  0.89984443  0.11472831  0.37499606  1
  Zr  Zr43  1  0.40167572  -0.00504130  0.75374703  1
  Zr  Zr44  1  0.59436880  0.79403981  0.25437967  1
  Zr  Zr45  1  0.91236597  0.69181454  0.37078042  1
  Zr  Zr46  1  0.27982576  0.10043729  0.10826810  1
  Zr  Zr47  1  0.20334481  0.79853580  -0.00943498  1
  Zr  Zr48  1  0.70133175  0.90648890  0.87172900  1
  Zr  Zr49  1  0.18819712  0.40352181  0.48837812  1
  Zr  Zr50  1  0.80418514  0.60394349  -0.00682062  1
  Zr  Zr51  1  0.79689888  0.79968947  0.51154331  1
  Zr  Zr52  1  0.49277692  0.89985045  0.37753518  1
  Zr  Zr53  1  0.09717022  0.10225285  0.88854355  1
  Zr  Zr54  1  0.80644560  0.39894131  -0.00585902  1
  Zr  Zr55  1  0.08823898  0.28591611  0.36363097  1
  Zr  Zr56  1  0.70686727  0.69597974  0.12715088  1
  Zr  Zr57  1  0.00277629  0.20619582  0.51023487  1
  Zr  Zr58  1  0.00242446  0.80147581  0.50442857  1
  Zr  Zr59  1  0.59730449  0.59293744  -0.00041863  1
  Zr  Zr60  1  0.40430484  0.57738782  0.72697661  1
  Zr  Zr61  1  0.19919717  -0.00895116  0.50424014  1
  Zr  Zr62  1  0.09126614  0.69854187  0.13280563  1
  Zr  Zr63  1  0.69685737  0.68510275  0.38664731  1
  Zr  Zr64  1  0.00460165  0.20443229  0.75548924  1
  Zr  Zr65  1  0.48972176  0.10932964  0.63272663  1
  Zr  Zr66  1  0.80601518  0.01609811  0.24805215  1
  Zr  Zr67  1  0.90733322  0.49325107  0.86443118  1
  Zr  Zr68  1  0.20445560  0.80734504  0.24504037  1
  Zr  Zr69  1  0.69075391  0.27626494  0.37702829  1
  Zr  Zr70  1  0.81016488  0.21925808  0.23409257  1
  Zr  Zr71  1  0.29859763  0.30093424  0.37530455  1
  Zr  Zr72  1  -0.00762730  0.20646701  0.01063151  1
  Zr  Zr73  1  -0.01042284  0.41432982  0.50983261  1
  Zr  Zr74  1  0.78853358  0.20056891  0.51638670  1
  Zr  Zr75  1  0.58714863  0.40666161  0.73494091  1
  Zr  Zr76  1  0.59706666  0.39957819  0.25874544  1
  Zr  Zr77  1  0.01689314  0.59635661  -0.01151804  1
  Zr  Zr78  1  0.00104644  0.80070924  -0.00431537  1
  Zr  Zr79  1  0.59160084  0.19824417  0.75804339  1
  Ta  Ta80  1  0.39928471  0.79104679  -0.00061049  1
  Ta  Ta81  1  0.11331903  0.31169916  0.63086883  1
  Ta  Ta82  1  0.79855223  0.19932383  0.75133161  1
  Ta  Ta83  1  0.89186763  0.09537891  0.87811607  1
  Ta  Ta84  1  0.90440444  0.91227408  0.86174724  1
  Ta  Ta85  1  0.48996379  0.69385639  0.12045220  1
  Ta  Ta86  1  0.30274267  0.69457792  0.11950180  1
  Ta  Ta87  1  0.91569634  0.90163108  0.13303552  1
  Ta  Ta88  1  0.39853623  0.20510061  0.00810350  1
  Ta  Ta89  1  0.58988266  0.78868052  0.50259288  1
  Ta  Ta90  1  0.59264033  0.39907304  0.00007939  1
  Ta  Ta91  1  0.60498415  0.60161587  0.73564003  1
  Ta  Ta92  1  0.39722797  0.39904668  0.00303175  1
  Ta  Ta93  1  0.72082492  0.48431627  0.39467771  1
  Ta  Ta94  1  0.29487883  0.31242847  0.12464984  1
  Ta  Ta95  1  0.02037863  0.60441215  0.50520125  1
  Ta  Ta96  1  0.39511557  0.79721070  0.51047614  1
  Ta  Ta97  1  0.11067140  0.50857516  0.63168666  1
  Ta  Ta98  1  0.59257287  0.18225902  0.24202626  1
  Ta  Ta99  1  0.49892781  0.89412623  0.12665904  1
  Ta  Ta100  1  0.90026624  0.10163686  0.63871831  1
  Ta  Ta101  1  0.10144304  0.09525831  0.37176305  1
  Ta  Ta102  1  0.20893761  0.19322311  0.50617811  1
  Ta  Ta103  1  0.10270213  0.89880408  0.63887342  1
  Ta  Ta104  1  0.10845099  0.49865829  0.12816301  1
  Ta  Ta105  1  0.39291305  0.78613381  0.74351563  1
  Ta  Ta106  1  0.30690401  0.11452541  0.88541920  1
  Ta  Ta107  1  0.19753611  0.40758907  0.00046836  1
  Ta  Ta108  1  0.30068798  0.89399567  0.37686962  1
  Ta  Ta109  1  0.81979453  0.58846071  0.51130041  1
  Ta  Ta110  1  0.79329594  0.00508721  0.74568526  1
  Ta  Ta111  1  0.49511670  0.30409917  0.12569851  1
  Ta  Ta112  1  0.39556905  0.79180875  0.24631230  1
  Ta  Ta113  1  0.38554457  0.41655049  0.51054709  1
  Ta  Ta114  1  0.79537491  0.59745087  0.74309379  1
  Ta  Ta115  1  0.30370382  0.50580330  0.12139748  1
  Ta  Ta116  1  0.90615207  0.51194056  0.12025810  1
  Ta  Ta117  1  0.47987545  0.30364405  0.62257653  1
  Ta  Ta118  1  0.70131143  0.49323516  0.12509562  1
  Ta  Ta119  1  0.50691321  0.10534413  0.37522702  1
  Ti  Ti120  1  0.58742587  0.19176885  0.50766538  1
  Ti  Ti121  1  0.10321113  0.70113853  0.63083358  1
  Ti  Ti122  1  0.81440960  0.79142509  0.24310025  1
  Ti  Ti123  1  0.79948962  0.19875019  0.00049933  1
  Ti  Ti124  1  0.19838288  0.21807451  -0.00865275  1
  Ti  Ti125  1  0.32195881  0.69437408  0.38456759  1
  Ti  Ti126  1  0.91101218  0.50402886  0.63748538  1
  Ti  Ti127  1  0.31102127  0.48958619  0.87464120  1
  Ti  Ti128  1  0.29496521  0.89877475  0.63085859  1
  Ti  Ti129  1  0.70348006  0.10103756  0.87585575  1
  Ti  Ti130  1  0.69189123  0.09052358  0.63812459  1
  Ti  Ti131  1  0.49519661  0.49863340  0.12250161  1
  Ti  Ti132  1  0.69225335  0.29171916  0.63121085  1
  Ti  Ti133  1  0.21349203  0.59972349  -0.01488296  1
  Ti  Ti134  1  0.90695947  0.29558293  0.87258744  1
  Ti  Ti135  1  0.49661961  0.09117654  0.86862347  1
  Ti  Ti136  1  0.00729101  0.39848341  0.00789949  1
  Ti  Ti137  1  0.39777740  0.41589268  0.25229891  1
  Ti  Ti138  1  0.69613974  0.68727998  0.86869348  1
  Ti  Ti139  1  0.70513589  0.50201017  0.61503747  1
  Ti  Ti140  1  0.29612626  0.29441728  0.62516022  1
  Ti  Ti141  1  0.01047732  0.60281397  0.75512103  1
  Ti  Ti142  1  0.11113423  0.48581184  0.86924208  1
  Ti  Ti143  1  0.69415913  0.69957742  0.61909475  1
  Ti  Ti144  1  0.10205657  0.90044326  0.36671155  1
  Ti  Ti145  1  0.46781972  0.29363799  0.86721576  1
  Ti  Ti146  1  0.10889212  0.29784299  0.12781971  1
  Ti  Ti147  1  0.91201929  0.69227611  0.63290520  1
  Ti  Ti148  1  0.31316479  0.89610790  0.87538301  1
  Ti  Ti149  1  0.01533962  0.39896886  0.74759474  1
  Ti  Ti150  1  0.29563989  0.68862229  0.61883537  1
  Ti  Ti151  1  0.10023486  0.70354917  0.36469586  1
  Ti  Ti152  1  0.11045326  0.92002906  0.11002713  1
  Ti  Ti153  1  0.01066889  0.80004262  0.75527445  1
  Ti  Ti154  1  0.09394239  0.90493982  0.87629915  1
  Ti  Ti155  1  0.40483862  0.60276956  0.25416065  1
  Ti  Ti156  1  0.08165380  0.50994006  0.36509057  1
  Ti  Ti157  1  0.21031056  0.22289938  0.76592180  1
  Ti  Ti158  1  0.90163382  0.30164133  0.63194108  1
  Ti  Ti159  1  0.21565697  0.58901909  0.48922148  1
  Mo  Mo160  1  0.68842233  0.09863329  0.37355343  1
  Mo  Mo161  1  0.49925538  0.10371739  0.12068575  1
  Mo  Mo162  1  0.49358677  0.70475197  0.38144392  1
  Mo  Mo163  1  0.29333669  0.30853868  0.88496224  1
  Mo  Mo164  1  0.49171552  0.89550411  0.87261719  1
  Mo  Mo165  1  0.78957580  0.40811186  0.24740751  1
  Mo  Mo166  1  0.49859753  0.70226438  0.62773498  1
  Mo  Mo167  1  0.69819530  0.90141799  0.62774934  1
  Mo  Mo168  1  0.39368685  0.59051235  0.00053690  1
  Mo  Mo169  1  0.79894213  0.39969888  0.52648342  1
  Mo  Mo170  1  -0.00820530  -0.00685673  -0.00196297  1
  Mo  Mo171  1  0.00556025  0.80493983  0.24552221  1
  Mo  Mo172  1  0.40047159  0.61076761  0.51804188  1
  Mo  Mo173  1  0.90257236  0.50638815  0.38282269  1
  Mo  Mo174  1  0.69366240  0.50579094  0.86183290  1
  Mo  Mo175  1  0.01014969  0.59468477  0.24601211  1
  Mo  Mo176  1  0.30702646  0.50567716  0.37573118  1
  Mo  Mo177  1  0.60364785  0.00260807  0.75873594  1
  Mo  Mo178  1  0.00956135  -0.00800411  0.24204696  1
  Mo  Mo179  1  0.60918278  0.60350713  0.51680641  1
  Mo  Mo180  1  0.10103992  0.09427910  0.09668637  1
  Mo  Mo181  1  0.20134409  -0.00385408  -0.01933984  1
  Mo  Mo182  1  0.80819262  0.00398754  -0.00130698  1
  Mo  Mo183  1  0.19727891  0.20508835  0.23930065  1
  Mo  Mo184  1  0.50131878  0.50252270  0.60815852  1
  Mo  Mo185  1  0.39618945  0.20878677  0.50269134  1
  Mo  Mo186  1  0.00067394  -0.00090431  0.75359932  1
  Mo  Mo187  1  0.89721468  0.30724708  0.11659168  1
  Mo  Mo188  1  0.30620784  0.88671878  0.11629977  1
  Mo  Mo189  1  0.59622142  0.00365192  0.24740528  1
  Mo  Mo190  1  0.38447396  0.20237632  0.75539092  1
  Mo  Mo191  1  0.30842739  0.68856577  0.87739795  1
  Mo  Mo192  1  0.10022487  0.69252145  0.87174591  1
  Mo  Mo193  1  0.28725008  0.48766191  0.62207913  1
  Mo  Mo194  1  0.89727102  0.08797565  0.10528668  1
  Mo  Mo195  1  0.90182292  0.70159845  0.13420987  1
  Mo  Mo196  1  0.20394457  0.40249911  0.75078302  1
  Mo  Mo197  1  0.38443352  0.38677959  0.74200608  1
  Mo  Mo198  1  0.09636297  0.31451091  0.87944784  1
  Mo  Mo199  1  0.29352240  0.11395466  0.63373916  1
