# generated using pymatgen
data_HfZrTaTiMo
_symmetry_space_group_name_H-M   'P 1'
_cell_length_a   15.21638104
_cell_length_b   15.22169647
_cell_length_c   16.83870853
_cell_angle_alpha   89.99216232
_cell_angle_beta   90.01800085
_cell_angle_gamma   89.94604413
_symmetry_Int_Tables_number   1
_chemical_formula_structural   HfZrTaTiMo
_chemical_formula_sum   'Hf40 Zr40 Ta40 Ti40 Mo40'
_cell_volume   3900.16512337
_cell_formula_units_Z   40
loop_
 _symmetry_equiv_pos_site_id
 _symmetry_equiv_pos_as_xyz
  1  'x, y, z'
loop_
 _atom_site_type_symbol
 _atom_site_label
 _atom_site_symmetry_multiplicity
 _atom_site_fract_x
 _atom_site_fract_y
 _atom_site_fract_z
 _atom_site_occupancy
  Hf  Hf0  1  0.20420703  0.00297333  0.24480150  1
  Hf  Hf1  1  0.00734554  0.40514345  0.24320732  1
  Hf  Hf2  1  0.10237640  0.90771658  0.63427869  1
  Hf  Hf3  1  0.10143553  0.90377479  0.38639461  1
  Hf  Hf4  1  0.61181999  0.59351124  0.48632374  1
  Hf  Hf5  1  0.79794817  0.00386989  0.50743490  1
  Hf  Hf6  1  0.19757128  0.60317762  0.24732798  1
  Hf  Hf7  1  0.50043394  0.11295191  0.10948167  1
  Hf  Hf8  1  0.09902118  0.68901313  0.63689310  1
  Hf  Hf9  1  0.10427560  0.30055520  0.63981692  1
  Hf  Hf10  1  0.39385530  0.78287611  0.26267460  1
  Hf  Hf11  1  0.60401004  0.21100376  0.74763163  1
  Hf  Hf12  1  0.89590322  0.30466720  0.36522523  1
  Hf  Hf13  1  0.20230631  0.21058520  0.50640087  1
  Hf  Hf14  1  0.10960870  0.89355263  0.86417783  1
  Hf  Hf15  1  0.00474054  0.79749323  0.24532598  1
  Hf  Hf16  1  0.09953524  0.30540749  0.11560745  1
  Hf  Hf17  1  0.60610526  -0.01246027  0.50634592  1
  Hf  Hf18  1  0.20788028  0.01103883  0.51569534  1
  Hf  Hf19  1  -0.01028420  0.80216810  0.74277897  1
  Hf  Hf20  1  0.60149358  0.58134810  0.75640217  1
  Hf  Hf21  1  0.29703925  0.90162977  0.38051772  1
  Hf  Hf22  1  0.89169143  0.70882148  0.13343697  1
  Hf  Hf23  1  0.30191097  0.09605117  0.10872796  1
  Hf  Hf24  1  0.48715093  0.67871223  0.88521771  1
  Hf  Hf25  1  0.81275082  0.01359269  0.74898549  1
  Hf  Hf26  1  0.09454340  0.70235222  0.38297026  1
  Hf  Hf27  1  0.60216993  0.77969629  0.25783524  1
  Hf  Hf28  1  0.00364178  -0.00034048  0.23072849  1
  Hf  Hf29  1  -0.02139548  0.59559974  0.49988779  1
  Hf  Hf30  1  0.69112087  0.31575497  0.62313289  1
  Hf  Hf31  1  0.59865032  0.78794858  0.00972798  1
  Hf  Hf32  1  0.10761554  0.30281686  0.36638653  1
  Hf  Hf33  1  0.50094248  0.88321829  0.87432359  1
  Hf  Hf34  1  0.31818789  0.30507741  0.10205826  1
  Hf  Hf35  1  -0.00507879  0.80141929  0.51413499  1
  Hf  Hf36  1  0.47931868  0.09647837  0.63035153  1
  Hf  Hf37  1  0.40398543  0.79275760  0.49315561  1
  Hf  Hf38  1  0.40100027  -0.01559963  -0.00809473  1
  Hf  Hf39  1  0.49301045  0.89220944  0.13128391  1
  Zr  Zr40  1  0.81196015  0.01408899  0.01492239  1
  Zr  Zr41  1  0.69576416  0.31552510  0.88554005  1
  Zr  Zr42  1  0.79617506  0.42708646  0.49108399  1
  Zr  Zr43  1  0.71053637  0.11227584  0.88077566  1
  Zr  Zr44  1  0.60628620  -0.00735108  0.74165118  1
  Zr  Zr45  1  0.80768579  0.81026965  -0.00458589  1
  Zr  Zr46  1  0.10047261  0.69307685  0.86336143  1
  Zr  Zr47  1  0.61325054  -0.00685692  0.01117814  1
  Zr  Zr48  1  0.89661127  0.30700190  0.62365924  1
  Zr  Zr49  1  0.68970671  0.29960665  0.37090258  1
  Zr  Zr50  1  0.10665863  0.10080220  0.10851975  1
  Zr  Zr51  1  0.50808816  0.88069411  0.62147283  1
  Zr  Zr52  1  0.09626931  0.49356800  0.64514995  1
  Zr  Zr53  1  0.40185768  0.38846318  0.25294925  1
  Zr  Zr54  1  0.90114877  0.50398344  0.13497031  1
  Zr  Zr55  1  0.79690975  0.59944346  0.00277402  1
  Zr  Zr56  1  0.59651449  0.19476905  0.50914214  1
  Zr  Zr57  1  0.09908433  0.10504294  0.37282016  1
  Zr  Zr58  1  0.59913809  0.00988073  0.24264423  1
  Zr  Zr59  1  -0.01584768  0.39911680  -0.00544424  1
  Zr  Zr60  1  0.50850205  0.10145247  0.88364325  1
  Zr  Zr61  1  0.40161340  0.19380962  0.24763810  1
  Zr  Zr62  1  0.71616649  0.87892931  0.14114038  1
  Zr  Zr63  1  0.09314015  0.09384728  0.87555861  1
  Zr  Zr64  1  0.78548379  0.40786983  0.75575590  1
  Zr  Zr65  1  0.69079655  0.70491503  0.62684955  1
  Zr  Zr66  1  0.19891544  0.43347830  0.00572116  1
  Zr  Zr67  1  0.00989499  0.40142296  0.49491710  1
  Zr  Zr68  1  0.69519113  0.70114163  0.87413493  1
  Zr  Zr69  1  0.19857716  0.58373124  0.50130712  1
  Zr  Zr70  1  0.47969894  0.68271285  0.12208461  1
  Zr  Zr71  1  0.89824733  0.10890267  0.37862363  1
  Zr  Zr72  1  0.90082674  0.90094815  0.37604398  1
  Zr  Zr73  1  0.79044557  0.79516163  0.50115866  1
  Zr  Zr74  1  0.40578807  0.58896478  0.49310802  1
  Zr  Zr75  1  0.80929899  0.01434292  0.23656597  1
  Zr  Zr76  1  0.30370597  0.48220832  0.63314800  1
  Zr  Zr77  1  0.39386362  0.20605637  0.76314140  1
  Zr  Zr78  1  0.50828946  0.10574557  0.37438651  1
  Zr  Zr79  1  0.49442120  0.48134414  0.12039618  1
  Ta  Ta80  1  -0.01225149  0.19901182  0.75785175  1
  Ta  Ta81  1  0.30712418  0.50921923  0.86955752  1
  Ta  Ta82  1  0.69888606  0.49529140  0.13922476  1
  Ta  Ta83  1  0.29863250  0.10561830  0.37362708  1
  Ta  Ta84  1  -0.00829304  0.19990521  0.23407191  1
  Ta  Ta85  1  0.40209347  0.00291996  0.49673815  1
  Ta  Ta86  1  -0.00856965  0.39614206  0.76707223  1
  Ta  Ta87  1  0.70599116  0.90553006  0.87316079  1
  Ta  Ta88  1  0.20001489  0.79952624  0.25021928  1
  Ta  Ta89  1  0.00133279  0.00830454  0.51353270  1
  Ta  Ta90  1  0.70075249  0.90123635  0.36397324  1
  Ta  Ta91  1  0.90640756  0.10966618  0.62609927  1
  Ta  Ta92  1  0.30260394  0.30846221  0.88850820  1
  Ta  Ta93  1  0.89556274  0.50647287  0.87383513  1
  Ta  Ta94  1  0.37047274  0.78661106  -0.00312878  1
  Ta  Ta95  1  0.20572300  0.79769647  0.51600407  1
  Ta  Ta96  1  0.40091809  0.78958100  0.74687074  1
  Ta  Ta97  1  0.50762439  0.48671129  0.62484105  1
  Ta  Ta98  1  0.00117342  -0.01157343  0.00515669  1
  Ta  Ta99  1  0.89032584  0.51626521  0.35099776  1
  Ta  Ta100  1  0.79429824  0.80989846  0.75177991  1
  Ta  Ta101  1  0.39196195  0.38890715  0.49063399  1
  Ta  Ta102  1  0.10493477  0.50481498  0.85980822  1
  Ta  Ta103  1  0.80950081  0.22975030  0.01384802  1
  Ta  Ta104  1  0.21400888  0.00715752  0.74680963  1
  Ta  Ta105  1  0.09936069  0.30161003  0.87495908  1
  Ta  Ta106  1  0.50203254  0.89837881  0.37242218  1
  Ta  Ta107  1  0.29825786  0.88713886  0.12709042  1
  Ta  Ta108  1  0.29290162  0.70031548  0.86345602  1
  Ta  Ta109  1  0.10082309  0.50168099  0.36771695  1
  Ta  Ta110  1  0.90893671  0.91162446  0.86966811  1
  Ta  Ta111  1  0.10796114  0.88465138  0.11506635  1
  Ta  Ta112  1  0.20357366  0.21140990  0.24064821  1
  Ta  Ta113  1  0.20600056  -0.02296872  -0.00769003  1
  Ta  Ta114  1  0.21035321  0.41039726  0.23343011  1
  Ta  Ta115  1  0.90372378  0.70407919  0.87173228  1
  Ta  Ta116  1  0.29698886  0.09517617  0.88353839  1
  Ta  Ta117  1  0.58720651  0.39976585  0.49427143  1
  Ta  Ta118  1  0.40254937  0.58997180  0.74618876  1
  Ta  Ta119  1  0.50318506  0.48590064  0.36794192  1
  Ti  Ti120  1  0.39608581  -0.00956420  0.76010882  1
  Ti  Ti121  1  0.59302883  0.58882200  0.25556972  1
  Ti  Ti122  1  0.80100219  0.60692630  0.75900749  1
  Ti  Ti123  1  0.70700663  0.10453806  0.36588513  1
  Ti  Ti124  1  0.90067520  0.11126718  0.87918640  1
  Ti  Ti125  1  0.89661094  0.50604652  0.63914299  1
  Ti  Ti126  1  0.59795551  0.78894584  0.47633613  1
  Ti  Ti127  1  0.39470689  0.19689707  0.49970742  1
  Ti  Ti128  1  0.00340236  0.79637694  -0.00188652  1
  Ti  Ti129  1  0.49966741  0.30113300  0.90014527  1
  Ti  Ti130  1  0.10400540  0.69043611  0.11732612  1
  Ti  Ti131  1  0.38963223  0.58733417  0.26258850  1
  Ti  Ti132  1  0.01295552  0.59514033  -0.00282823  1
  Ti  Ti133  1  0.29871233  0.30170344  0.37394455  1
  Ti  Ti134  1  0.80011501  0.20371923  0.50204050  1
  Ti  Ti135  1  0.30384144  0.29204621  0.63051774  1
  Ti  Ti136  1  0.20021721  0.20241671  -0.01090839  1
  Ti  Ti137  1  0.21436122  0.39391096  0.76317885  1
  Ti  Ti138  1  0.88891516  0.69235612  0.63239035  1
  Ti  Ti139  1  0.20126435  0.19917438  0.76006719  1
  Ti  Ti140  1  0.89443124  0.90823190  0.62937491  1
  Ti  Ti141  1  0.48856378  0.30629704  0.62768774  1
  Ti  Ti142  1  0.29178290  0.69031348  0.38299184  1
  Ti  Ti143  1  0.89568410  0.69966541  0.36279276  1
  Ti  Ti144  1  0.71402970  0.68295952  0.36863780  1
  Ti  Ti145  1  0.30463624  0.69295701  0.62661570  1
  Ti  Ti146  1  0.59995508  0.58593278  0.00432671  1
  Ti  Ti147  1  0.49910811  0.68383807  0.62455105  1
  Ti  Ti148  1  -0.00679240  0.20052704  -0.00051152  1
  Ti  Ti149  1  0.70197019  0.50950300  0.62285358  1
  Ti  Ti150  1  0.70976214  0.10882014  0.63086677  1
  Ti  Ti151  1  0.31374786  0.90691726  0.62525388  1
  Ti  Ti152  1  0.39788601  -0.00433605  0.25277661  1
  Ti  Ti153  1  0.70549909  0.12842756  0.12575928  1
  Ti  Ti154  1  0.00174928  0.20091319  0.50432205  1
  Ti  Ti155  1  0.21555196  0.80199786  0.73659882  1
  Ti  Ti156  1  0.50416540  0.48286375  0.88420030  1
  Ti  Ti157  1  0.59866278  0.79271936  0.75209518  1
  Ti  Ti158  1  0.09902655  0.10581692  0.63954588  1
  Ti  Ti159  1  0.59880045  0.22270131  0.23841036  1
  Mo  Mo160  1  0.69997145  0.49752461  0.35561991  1
  Mo  Mo161  1  0.91516937  0.89814484  0.12252113  1
  Mo  Mo162  1  0.80290187  0.60216908  0.49962243  1
  Mo  Mo163  1  0.10122007  0.51053624  0.12472148  1
  Mo  Mo164  1  0.30221146  0.89237785  0.86242991  1
  Mo  Mo165  1  0.40983963  0.39726204  0.76224933  1
  Mo  Mo166  1  0.28964341  0.70317468  0.12718570  1
  Mo  Mo167  1  0.30542077  0.51898768  0.12389408  1
  Mo  Mo168  1  0.70575646  0.90321887  0.63478863  1
  Mo  Mo169  1  0.20608753  0.61858861  -0.00081563  1
  Mo  Mo170  1  0.39712325  0.19700399  -0.01577653  1
  Mo  Mo171  1  -0.01335524  0.59443653  0.75403900  1
  Mo  Mo172  1  0.49962765  0.68922599  0.37067268  1
  Mo  Mo173  1  0.61026546  0.40470930  0.00521823  1
  Mo  Mo174  1  0.00296478  0.00662390  0.74473844  1
  Mo  Mo175  1  0.69486096  0.31539315  0.12218239  1
  Mo  Mo176  1  0.38198370  0.58909610  -0.00259618  1
  Mo  Mo177  1  0.79746689  0.41473450  -0.00163430  1
  Mo  Mo178  1  0.90770981  0.11216886  0.11504921  1
  Mo  Mo179  1  0.69320734  0.50744579  0.87996258  1
  Mo  Mo180  1  0.79947559  0.80132830  0.26051024  1
  Mo  Mo181  1  0.58129469  0.39814277  0.75137184  1
  Mo  Mo182  1  0.51143591  0.29501507  0.10494634  1
  Mo  Mo183  1  0.19259465  0.79500713  -0.00430458  1
  Mo  Mo184  1  0.68974390  0.68264004  0.13098076  1
  Mo  Mo185  1  0.79854288  0.21074846  0.23506829  1
  Mo  Mo186  1  0.20517744  0.39577992  0.49650849  1
  Mo  Mo187  1  0.79263509  0.40358711  0.25447075  1
  Mo  Mo188  1  0.80446952  0.20713300  0.74835787  1
  Mo  Mo189  1  0.60857596  0.20483054  0.00762007  1
  Mo  Mo190  1  0.29649981  0.10299369  0.63318028  1
  Mo  Mo191  1  0.89907484  0.29559137  0.87432709  1
  Mo  Mo192  1  0.59567299  0.39671127  0.25069601  1
  Mo  Mo193  1  0.28954387  0.48771612  0.37371985  1
  Mo  Mo194  1  0.00363654  0.60499942  0.25246834  1
  Mo  Mo195  1  0.21112970  0.60126723  0.74641441  1
  Mo  Mo196  1  0.49269068  0.29553778  0.38224684  1
  Mo  Mo197  1  0.40228646  0.40610000  -0.00992660  1
  Mo  Mo198  1  0.89043033  0.30422029  0.13539119  1
  Mo  Mo199  1  0.78656355  0.61284022  0.24187192  1
