# generated using pymatgen
data_HfZrTaTiMo
_symmetry_space_group_name_H-M   'P 1'
_cell_length_a   15.21147617
_cell_length_b   15.21915315
_cell_length_c   16.83712314
_cell_angle_alpha   90.01038247
_cell_angle_beta   90.03327244
_cell_angle_gamma   90.06384161
_symmetry_Int_Tables_number   1
_chemical_formula_structural   HfZrTaTiMo
_chemical_formula_sum   'Hf40 Zr40 Ta40 Ti40 Mo40'
_cell_volume   3897.88827641
_cell_formula_units_Z   40
loop_
 _symmetry_equiv_pos_site_id
 _symmetry_equiv_pos_as_xyz
  1  'x, y, z'
loop_
 _atom_site_type_symbol
 _atom_site_label
 _atom_site_symmetry_multiplicity
 _atom_site_fract_x
 _atom_site_fract_y
 _atom_site_fract_z
 _atom_site_occupancy
  Hf  Hf0  1  0.68679090  0.48979493  0.38830757  1
  Hf  Hf1  1  0.80466441  0.00174057  0.75610425  1
  Hf  Hf2  1  0.30094895  0.91655618  0.13033694  1
  Hf  Hf3  1  0.69506753  0.09040325  0.36632454  1
  Hf  Hf4  1  0.20695082  0.39436630  -0.01412315  1
  Hf  Hf5  1  0.60574020  0.59911094  0.73472753  1
  Hf  Hf6  1  0.91051795  0.08320532  0.37141390  1
  Hf  Hf7  1  0.79585126  0.58984352  0.25821321  1
  Hf  Hf8  1  0.20680701  0.20858140  0.24856252  1
  Hf  Hf9  1  0.80604271  0.79122859  0.25537071  1
  Hf  Hf10  1  0.28509075  0.48892238  0.12967126  1
  Hf  Hf11  1  0.90581796  0.29779894  0.60839185  1
  Hf  Hf12  1  0.50839474  0.49526825  0.86804324  1
  Hf  Hf13  1  0.69339764  0.29072367  0.87703362  1
  Hf  Hf14  1  0.19199106  0.59229919  0.00071216  1
  Hf  Hf15  1  0.29614477  0.70163637  0.87300798  1
  Hf  Hf16  1  0.90241736  0.29738702  0.11844743  1
  Hf  Hf17  1  0.79594350  0.19963396  0.74522013  1
  Hf  Hf18  1  0.20925995  0.00705334  0.50072728  1
  Hf  Hf19  1  -0.00279670  0.20313359  0.73898671  1
  Hf  Hf20  1  0.59817394  0.38613400  0.74358048  1
  Hf  Hf21  1  0.59485914  0.77329635  0.02054489  1
  Hf  Hf22  1  0.81008224  0.00063526  0.01214549  1
  Hf  Hf23  1  -0.00977371  0.59565459  0.25402409  1
  Hf  Hf24  1  0.01097887  0.40780697  -0.00338658  1
  Hf  Hf25  1  0.08710238  0.71269034  0.36576250  1
  Hf  Hf26  1  0.40066654  0.81340654  0.00119133  1
  Hf  Hf27  1  0.30406705  0.70141307  0.13223076  1
  Hf  Hf28  1  0.80138789  0.40431690  0.75337442  1
  Hf  Hf29  1  0.19303610  0.80424569  0.49331126  1
  Hf  Hf30  1  0.89383629  0.69685547  0.88712822  1
  Hf  Hf31  1  0.39762671  0.82712419  0.48279756  1
  Hf  Hf32  1  0.69098195  0.09184760  0.88159296  1
  Hf  Hf33  1  0.69944091  0.29766552  0.61174028  1
  Hf  Hf34  1  0.80365769  0.39638023  0.25797756  1
  Hf  Hf35  1  0.69792130  0.69648039  0.38314090  1
  Hf  Hf36  1  0.79007496  0.80356442  0.00302844  1
  Hf  Hf37  1  0.41412251  0.01431893  0.76215759  1
  Hf  Hf38  1  0.40905454  0.60125829  0.00981834  1
  Hf  Hf39  1  -0.00051010  0.00437025  0.74864575  1
  Zr  Zr40  1  0.39612443  0.39423828  -0.00897774  1
  Zr  Zr41  1  0.60367287  -0.02034835  0.00415536  1
  Zr  Zr42  1  0.10337041  0.90311088  0.87128929  1
  Zr  Zr43  1  0.57451861  0.19778342  0.25367412  1
  Zr  Zr44  1  0.09618690  0.69450061  0.87523517  1
  Zr  Zr45  1  0.61178553  0.81243772  0.48574605  1
  Zr  Zr46  1  0.20249501  0.82201902  0.25530644  1
  Zr  Zr47  1  0.10447029  0.29432750  0.86620238  1
  Zr  Zr48  1  0.21242497  0.00742609  -0.00603888  1
  Zr  Zr49  1  0.68838330  0.09351593  0.13328829  1
  Zr  Zr50  1  0.09521133  0.70447036  0.13339480  1
  Zr  Zr51  1  0.30529909  0.90764701  0.63655647  1
  Zr  Zr52  1  0.59888814  -0.00148497  0.49504370  1
  Zr  Zr53  1  -0.00103427  0.60922016  0.49572826  1
  Zr  Zr54  1  0.78093864  0.80435303  0.76482713  1
  Zr  Zr55  1  0.00218950  0.81121244  0.00549350  1
  Zr  Zr56  1  0.90560370  0.28549172  0.38133730  1
  Zr  Zr57  1  0.39871284  0.38620344  0.25132874  1
  Zr  Zr58  1  0.89647324  0.88204204  0.61970875  1
  Zr  Zr59  1  0.79973446  0.19752046  0.24625133  1
  Zr  Zr60  1  0.49681985  0.48262970  0.60951568  1
  Zr  Zr61  1  0.10251235  0.91070669  0.63248663  1
  Zr  Zr62  1  0.20489093  0.40449181  0.51476873  1
  Zr  Zr63  1  0.71500323  0.70659536  0.60879443  1
  Zr  Zr64  1  0.48545665  0.49680773  0.38944497  1
  Zr  Zr65  1  0.90711074  0.11581887  0.89065297  1
  Zr  Zr66  1  0.10414989  0.29053335  0.38561187  1
  Zr  Zr67  1  0.08746398  0.71108881  0.62722387  1
  Zr  Zr68  1  0.41232330  0.01755304  -0.01743402  1
  Zr  Zr69  1  0.80310596  0.59820741  0.74699594  1
  Zr  Zr70  1  0.79870201  0.40334629  -0.00925679  1
  Zr  Zr71  1  0.50921267  0.90306277  0.63366937  1
  Zr  Zr72  1  0.29615013  0.68875459  0.37378491  1
  Zr  Zr73  1  0.58843125  0.60917549  0.24564056  1
  Zr  Zr74  1  0.59597814  0.39794320  -0.00266130  1
  Zr  Zr75  1  0.29620779  0.12016426  0.38748689  1
  Zr  Zr76  1  0.41544120  0.80198788  0.26520455  1
  Zr  Zr77  1  0.49641273  0.69277098  0.87108020  1
  Zr  Zr78  1  0.49904135  0.69916719  0.60816778  1
  Zr  Zr79  1  0.40192719  0.01266676  0.26308297  1
  Ta  Ta80  1  0.59726368  0.19649427  0.50398536  1
  Ta  Ta81  1  0.51869051  0.89000675  0.86550211  1
  Ta  Ta82  1  0.69804060  0.49713722  0.12960287  1
  Ta  Ta83  1  0.49918829  0.49444349  0.12839839  1
  Ta  Ta84  1  0.91002212  0.89912881  0.13465164  1
  Ta  Ta85  1  0.10575364  0.10506225  0.87125465  1
  Ta  Ta86  1  0.78145308  0.59844727  0.00703820  1
  Ta  Ta87  1  0.90131726  0.49964032  0.12325095  1
  Ta  Ta88  1  0.40330710  0.79783321  0.75120479  1
  Ta  Ta89  1  0.01414356  0.01885860  0.02132017  1
  Ta  Ta90  1  0.89556107  0.09135231  0.60948895  1
  Ta  Ta91  1  0.29730948  0.12621690  0.85338000  1
  Ta  Ta92  1  0.70291849  0.49791916  0.60139521  1
  Ta  Ta93  1  0.69965718  0.09058031  0.62152880  1
  Ta  Ta94  1  0.88822701  0.69658832  0.12225644  1
  Ta  Ta95  1  0.58041958  0.18928637  0.00574134  1
  Ta  Ta96  1  0.31567948  0.11452782  0.12829257  1
  Ta  Ta97  1  0.09357446  0.49683879  0.63371831  1
  Ta  Ta98  1  0.29777943  0.70458089  0.62410736  1
  Ta  Ta99  1  0.49129384  0.29574098  0.39858324  1
  Ta  Ta100  1  0.30282185  0.31419371  0.38835731  1
  Ta  Ta101  1  0.19711320  0.59864931  0.50832641  1
  Ta  Ta102  1  0.39489785  0.59309211  0.24909985  1
  Ta  Ta103  1  0.20478202  0.80418856  0.00471934  1
  Ta  Ta104  1  0.10963624  0.49751712  0.37506548  1
  Ta  Ta105  1  -0.00614285  0.59822846  0.74540757  1
  Ta  Ta106  1  0.29478306  0.10732044  0.63759971  1
  Ta  Ta107  1  -0.01534841  0.79579224  0.75727582  1
  Ta  Ta108  1  0.00996777  0.39771225  0.24928423  1
  Ta  Ta109  1  0.29823739  0.50360803  0.63950324  1
  Ta  Ta110  1  0.68520467  0.68523227  0.87999941  1
  Ta  Ta111  1  0.00117333  0.40740437  0.49895351  1
  Ta  Ta112  1  0.19720656  0.60565742  0.74181665  1
  Ta  Ta113  1  0.68861367  0.30234087  0.12403427  1
  Ta  Ta114  1  0.81113213  0.59310182  0.48734719  1
  Ta  Ta115  1  0.09961123  0.92053558  0.37076314  1
  Ta  Ta116  1  0.48887813  0.27781862  0.86467780  1
  Ta  Ta117  1  0.00836000  0.19060080  0.23369614  1
  Ta  Ta118  1  0.10880910  0.31119754  0.12458456  1
  Ta  Ta119  1  0.30851362  0.30567147  0.63978288  1
  Ti  Ti120  1  0.79999132  -0.01531704  0.48923806  1
  Ti  Ti121  1  -0.00000185  -0.00758033  0.50091038  1
  Ti  Ti122  1  0.80711144  -0.00625192  0.24518517  1
  Ti  Ti123  1  0.68943700  0.29312415  0.38360001  1
  Ti  Ti124  1  0.90164050  0.50431892  0.87730631  1
  Ti  Ti125  1  0.30254934  0.90442350  0.86379396  1
  Ti  Ti126  1  0.50584091  0.90827515  0.13839554  1
  Ti  Ti127  1  0.19355495  0.19734541  0.00447192  1
  Ti  Ti128  1  0.79383399  0.19786043  0.01249236  1
  Ti  Ti129  1  0.79766982  0.18307134  0.49452411  1
  Ti  Ti130  1  0.30099814  0.29638581  0.12324249  1
  Ti  Ti131  1  0.19331054  0.58551639  0.24964420  1
  Ti  Ti132  1  0.61335342  -0.01134424  0.75438859  1
  Ti  Ti133  1  0.02085836  -0.00041715  0.23053257  1
  Ti  Ti134  1  0.09696259  0.10484153  0.38094279  1
  Ti  Ti135  1  0.91926512  0.88890377  0.36043441  1
  Ti  Ti136  1  0.89766158  0.50410443  0.61890891  1
  Ti  Ti137  1  -0.00649228  0.59758723  0.00837472  1
  Ti  Ti138  1  0.82659891  0.79396273  0.47987501  1
  Ti  Ti139  1  0.90546652  0.30142513  0.88139045  1
  Ti  Ti140  1  0.90186772  0.90880733  0.88328708  1
  Ti  Ti141  1  0.49986120  0.69449962  0.39051901  1
  Ti  Ti142  1  0.59075850  0.18317377  0.73747453  1
  Ti  Ti143  1  -0.00402858  0.40237691  0.74628817  1
  Ti  Ti144  1  0.38730290  0.20345444  -0.01074467  1
  Ti  Ti145  1  0.48973491  0.10287832  0.39213522  1
  Ti  Ti146  1  0.59849952  0.39628454  0.25156313  1
  Ti  Ti147  1  0.48982999  0.10225982  0.61433278  1
  Ti  Ti148  1  0.10281170  0.49816349  0.85603922  1
  Ti  Ti149  1  0.19963333  0.80352945  0.75063493  1
  Ti  Ti150  1  0.40049095  0.60129660  0.74055957  1
  Ti  Ti151  1  0.09754739  0.11101222  0.61739783  1
  Ti  Ti152  1  0.70308999  0.88893279  0.13963241  1
  Ti  Ti153  1  0.70464999  0.90254409  0.62404049  1
  Ti  Ti154  1  0.60607034  0.80764938  0.26020416  1
  Ti  Ti155  1  0.38174090  0.59281450  0.50260042  1
  Ti  Ti156  1  0.48995293  0.28511198  0.12146762  1
  Ti  Ti157  1  0.29917558  0.30967250  0.83868640  1
  Ti  Ti158  1  0.80662412  0.39678642  0.48751325  1
  Ti  Ti159  1  0.29963208  0.50009059  0.85119945  1
  Mo  Mo160  1  0.19463762  0.40190640  0.25503462  1
  Mo  Mo161  1  0.10924091  0.90761871  0.12315844  1
  Mo  Mo162  1  0.69935929  0.88931250  0.88167872  1
  Mo  Mo163  1  0.59796433  0.79664126  0.74873862  1
  Mo  Mo164  1  0.60407164  0.38983579  0.49732874  1
  Mo  Mo165  1  0.29568281  0.91298871  0.37545843  1
  Mo  Mo166  1  0.19269773  0.40682668  0.73979664  1
  Mo  Mo167  1  0.59932993  -0.01203718  0.25333639  1
  Mo  Mo168  1  -0.00056558  0.81334046  0.48995430  1
  Mo  Mo169  1  0.60117038  0.60078973  0.50463351  1
  Mo  Mo170  1  0.60026390  0.58844897  0.01381884  1
  Mo  Mo171  1  0.00924018  0.20293212  0.01466763  1
  Mo  Mo172  1  0.39947736  0.20791900  0.25633940  1
  Mo  Mo173  1  0.41057811  0.20750759  0.73568828  1
  Mo  Mo174  1  0.90091253  0.69698750  0.37008230  1
  Mo  Mo175  1  -0.00012734  0.18775399  0.50582444  1
  Mo  Mo176  1  0.89947782  0.69679104  0.62283465  1
  Mo  Mo177  1  -0.00087904  0.80734350  0.23938955  1
  Mo  Mo178  1  0.11880533  0.10782260  0.12516735  1
  Mo  Mo179  1  0.90805994  0.48890062  0.37933556  1
  Mo  Mo180  1  0.72141972  0.90576018  0.36451305  1
  Mo  Mo181  1  0.39236551  0.20295413  0.51797263  1
  Mo  Mo182  1  0.49871147  0.28920423  0.61472691  1
  Mo  Mo183  1  0.90526898  0.09895608  0.13023095  1
  Mo  Mo184  1  0.48925536  0.09798865  0.12370219  1
  Mo  Mo185  1  0.39187064  0.39886633  0.50469871  1
  Mo  Mo186  1  0.40076642  0.01044105  0.49922814  1
  Mo  Mo187  1  0.70321330  0.50573599  0.87291217  1
  Mo  Mo188  1  0.19617123  0.20655260  0.52318812  1
  Mo  Mo189  1  0.51152142  0.91281200  0.36751896  1
  Mo  Mo190  1  0.70176435  0.69524082  0.13456666  1
  Mo  Mo191  1  0.29128197  0.50158746  0.37335103  1
  Mo  Mo192  1  0.50651145  0.10280508  0.86902844  1
  Mo  Mo193  1  0.19537468  0.20146594  0.73407273  1
  Mo  Mo194  1  0.40410297  0.40585570  0.75199735  1
  Mo  Mo195  1  0.09172822  0.49615063  0.12706559  1
  Mo  Mo196  1  0.20285578  0.00808610  0.75995023  1
  Mo  Mo197  1  0.49562525  0.70008197  0.13536319  1
  Mo  Mo198  1  0.09775882  0.30159319  0.62191921  1
  Mo  Mo199  1  0.19470809  0.01879926  0.25415197  1
