# generated using pymatgen
data_HfZrTaTiMo
_symmetry_space_group_name_H-M   'P 1'
_cell_length_a   15.20921799
_cell_length_b   15.21393560
_cell_length_c   16.84844039
_cell_angle_alpha   89.91031710
_cell_angle_beta   89.99283950
_cell_angle_gamma   89.95013355
_symmetry_Int_Tables_number   1
_chemical_formula_structural   HfZrTaTiMo
_chemical_formula_sum   'Hf40 Zr40 Ta40 Ti40 Mo40'
_cell_volume   3898.58909947
_cell_formula_units_Z   40
loop_
 _symmetry_equiv_pos_site_id
 _symmetry_equiv_pos_as_xyz
  1  'x, y, z'
loop_
 _atom_site_type_symbol
 _atom_site_label
 _atom_site_symmetry_multiplicity
 _atom_site_fract_x
 _atom_site_fract_y
 _atom_site_fract_z
 _atom_site_occupancy
  Hf  Hf0  1  0.30207685  0.08958139  0.62180203  1
  Hf  Hf1  1  0.08703757  0.70418379  0.88366925  1
  Hf  Hf2  1  0.00136486  0.19597792  0.75182622  1
  Hf  Hf3  1  0.00381056  0.22357882  -0.01365194  1
  Hf  Hf4  1  0.08237784  0.92001415  0.87638080  1
  Hf  Hf5  1  0.39204579  0.82107449  -0.02192380  1
  Hf  Hf6  1  0.18571983  0.38398173  0.00294330  1
  Hf  Hf7  1  0.58484452  0.38910627  0.74229782  1
  Hf  Hf8  1  0.40644421  0.83414672  0.77221291  1
  Hf  Hf9  1  0.70981814  0.08735503  0.63412173  1
  Hf  Hf10  1  0.09569510  0.11626746  0.38131081  1
  Hf  Hf11  1  -0.01494818  0.60093828  0.25830374  1
  Hf  Hf12  1  -0.00202418  0.61007681  0.74467135  1
  Hf  Hf13  1  0.50992047  0.09419231  0.37352711  1
  Hf  Hf14  1  0.32952241  0.09069557  0.86852081  1
  Hf  Hf15  1  0.69626566  0.69067700  0.87346242  1
  Hf  Hf16  1  0.90453852  0.10809983  0.12646701  1
  Hf  Hf17  1  0.88952533  0.49043137  0.38337938  1
  Hf  Hf18  1  0.39471606  0.60524435  0.25790389  1
  Hf  Hf19  1  0.61211288  0.40552871  0.23530614  1
  Hf  Hf20  1  0.00481182  0.40438971  0.50626614  1
  Hf  Hf21  1  -0.00186978  0.80442100  0.25143446  1
  Hf  Hf22  1  0.11827818  0.11506357  0.88112070  1
  Hf  Hf23  1  0.10947479  0.31265060  0.63684581  1
  Hf  Hf24  1  0.10488084  0.12238342  0.11831230  1
  Hf  Hf25  1  0.80070174  0.18869650  -0.01467265  1
  Hf  Hf26  1  0.57690552  0.20521168  0.02156569  1
  Hf  Hf27  1  0.29960818  0.70550170  0.11535967  1
  Hf  Hf28  1  0.70854879  0.30055081  0.62633289  1
  Hf  Hf29  1  0.57895269  -0.00793471  0.74380771  1
  Hf  Hf30  1  0.10367498  0.70563477  0.60680942  1
  Hf  Hf31  1  0.69065903  0.08663550  0.86813820  1
  Hf  Hf32  1  0.21519184  -0.00120676  -0.00254340  1
  Hf  Hf33  1  0.21487607  0.19870202  0.74422613  1
  Hf  Hf34  1  0.10262655  0.90760880  0.60936350  1
  Hf  Hf35  1  0.77903319  0.79966966  0.50011825  1
  Hf  Hf36  1  0.79786509  0.00223742  0.24150857  1
  Hf  Hf37  1  0.19280765  0.80363198  -0.00346873  1
  Hf  Hf38  1  0.80368193  0.59528161  0.75095492  1
  Hf  Hf39  1  0.51106706  0.50464348  0.37346506  1
  Zr  Zr40  1  0.82445668  -0.01760063  0.00170158  1
  Zr  Zr41  1  0.88867969  0.90547873  0.61758401  1
  Zr  Zr42  1  0.18880361  0.59228417  0.26652960  1
  Zr  Zr43  1  0.59633436  0.81081641  -0.01052765  1
  Zr  Zr44  1  0.79868225  0.78576582  0.24963499  1
  Zr  Zr45  1  0.49006050  0.72052635  0.63287640  1
  Zr  Zr46  1  0.61940154  0.19259425  0.23653752  1
  Zr  Zr47  1  0.39233449  -0.01048467  0.26369076  1
  Zr  Zr48  1  0.69818188  0.67374185  0.11263992  1
  Zr  Zr49  1  0.28705354  0.50023942  0.11867040  1
  Zr  Zr50  1  0.51294128  0.29882672  0.37218983  1
  Zr  Zr51  1  0.78485500  0.58336597  0.50285138  1
  Zr  Zr52  1  0.81491588  0.39521257  -0.00951457  1
  Zr  Zr53  1  0.42455682  0.01266626  0.00639257  1
  Zr  Zr54  1  0.20642876  0.80556001  0.25458039  1
  Zr  Zr55  1  0.30053780  0.30537437  0.37125512  1
  Zr  Zr56  1  0.20327090  0.57731069  0.48240113  1
  Zr  Zr57  1  0.31720498  0.30369379  0.62285474  1
  Zr  Zr58  1  0.62038353  0.00783625  0.02463305  1
  Zr  Zr59  1  0.30109728  0.08849461  0.13185979  1
  Zr  Zr60  1  0.69534112  0.90254527  0.36862375  1
  Zr  Zr61  1  -0.00949846  0.81224865  0.74700971  1
  Zr  Zr62  1  0.49707008  0.70341268  0.10854804  1
  Zr  Zr63  1  0.71505429  0.30781363  0.38463445  1
  Zr  Zr64  1  0.81203377  0.19500683  0.50898516  1
  Zr  Zr65  1  0.10401778  0.50771696  0.87314917  1
  Zr  Zr66  1  0.20330741  0.79677264  0.75547511  1
  Zr  Zr67  1  0.81258756  0.39321298  0.24560277  1
  Zr  Zr68  1  0.09561566  0.91645230  0.12453652  1
  Zr  Zr69  1  0.30448438  0.49865376  0.87833670  1
  Zr  Zr70  1  0.49874043  0.87681618  0.38767774  1
  Zr  Zr71  1  0.39574896  0.40930349  0.49324730  1
  Zr  Zr72  1  0.31026911  0.88722114  0.60974713  1
  Zr  Zr73  1  0.09233358  0.68785481  0.11482427  1
  Zr  Zr74  1  0.49356202  0.67890753  0.87689663  1
  Zr  Zr75  1  0.50297110  0.50670930  0.12069102  1
  Zr  Zr76  1  0.30269159  0.29310447  0.87682980  1
  Zr  Zr77  1  0.67869561  0.29610213  0.87803519  1
  Zr  Zr78  1  -0.00886246  0.01412252  0.49650813  1
  Zr  Zr79  1  0.48939077  0.50470215  0.62513250  1
  Ta  Ta80  1  0.09390831  0.31846242  0.85313907  1
  Ta  Ta81  1  0.91489832  0.29126075  0.38042586  1
  Ta  Ta82  1  0.70167542  0.10289501  0.37818742  1
  Ta  Ta83  1  0.61410089  0.41075360  0.50803223  1
  Ta  Ta84  1  0.07858295  0.48897962  0.11688868  1
  Ta  Ta85  1  -0.00521938  0.59885591  0.50090725  1
  Ta  Ta86  1  0.60295352  -0.00734979  0.50905629  1
  Ta  Ta87  1  0.67959054  0.69281253  0.37482229  1
  Ta  Ta88  1  0.69270518  0.69675405  0.63556544  1
  Ta  Ta89  1  0.20281240  0.20101672  0.25823336  1
  Ta  Ta90  1  0.80171392  0.19965714  0.76277439  1
  Ta  Ta91  1  0.40195249  0.19278643  0.49317470  1
  Ta  Ta92  1  0.80373436  0.78733739  -0.00869104  1
  Ta  Ta93  1  0.09934931  0.89781344  0.38857252  1
  Ta  Ta94  1  0.20278488  0.20678151  0.50174102  1
  Ta  Ta95  1  0.70033678  0.49774123  0.63801768  1
  Ta  Ta96  1  0.90180360  0.90004546  0.38048010  1
  Ta  Ta97  1  0.72414361  0.29075015  0.11924891  1
  Ta  Ta98  1  0.19582783  0.00306017  0.26989403  1
  Ta  Ta99  1  0.08896995  0.70558078  0.39038921  1
  Ta  Ta100  1  0.89124569  0.51084139  0.12334382  1
  Ta  Ta101  1  0.00514468  0.20858999  0.51434041  1
  Ta  Ta102  1  0.59258532  0.79399167  0.24181352  1
  Ta  Ta103  1  0.29503907  0.29140704  0.12814491  1
  Ta  Ta104  1  -0.02126646  0.59919729  -0.00745944  1
  Ta  Ta105  1  0.40585379  0.19949502  0.24416811  1
  Ta  Ta106  1  0.00104547  0.00589112  0.25997944  1
  Ta  Ta107  1  0.41225928  0.37769185  0.00999598  1
  Ta  Ta108  1  0.59703964  0.19527962  0.73882095  1
  Ta  Ta109  1  0.49758402  0.09956845  0.61311174  1
  Ta  Ta110  1  0.28837214  0.49995608  0.63121515  1
  Ta  Ta111  1  0.59220802  0.61117913  0.50606994  1
  Ta  Ta112  1  0.00393956  0.21254419  0.25204466  1
  Ta  Ta113  1  0.69230341  0.49295132  0.86511865  1
  Ta  Ta114  1  0.79611865  0.79491066  0.75189439  1
  Ta  Ta115  1  -0.01810516  0.81640466  0.00114107  1
  Ta  Ta116  1  0.92721659  0.31242901  0.12415633  1
  Ta  Ta117  1  0.89382655  0.70013341  0.61230561  1
  Ta  Ta118  1  0.10120248  0.50447735  0.63301889  1
  Ta  Ta119  1  0.89208313  0.70253214  0.38915220  1
  Ti  Ti120  1  0.59801367  0.80019971  0.76258778  1
  Ti  Ti121  1  0.39779155  0.40027055  0.24456189  1
  Ti  Ti122  1  0.89347057  0.70397664  0.11910231  1
  Ti  Ti123  1  0.10424529  0.31371783  0.38273364  1
  Ti  Ti124  1  0.79427948  0.58729519  -0.01391273  1
  Ti  Ti125  1  0.29731377  0.69123411  0.61292483  1
  Ti  Ti126  1  0.90107005  0.30719056  0.64199932  1
  Ti  Ti127  1  0.10366239  0.10064716  0.62276008  1
  Ti  Ti128  1  0.20351956  0.60298301  0.74652819  1
  Ti  Ti129  1  0.89179137  0.10640797  0.36727057  1
  Ti  Ti130  1  0.60915715  0.40461017  0.01519948  1
  Ti  Ti131  1  0.39546869  0.59021744  -0.00305785  1
  Ti  Ti132  1  0.39002934  0.60432716  0.75141292  1
  Ti  Ti133  1  0.89662770  0.49239870  0.62908628  1
  Ti  Ti134  1  0.81511518  -0.00984768  0.75770770  1
  Ti  Ti135  1  0.60198552  0.19782819  0.50780831  1
  Ti  Ti136  1  0.91727295  0.08147462  0.87057856  1
  Ti  Ti137  1  0.39895521  0.79792786  0.25276695  1
  Ti  Ti138  1  0.59029283  0.59507983  0.74950555  1
  Ti  Ti139  1  0.30361873  0.71289879  0.38536349  1
  Ti  Ti140  1  0.71187382  0.88294854  0.12582515  1
  Ti  Ti141  1  0.20382248  -0.00653514  0.75082729  1
  Ti  Ti142  1  0.79358579  0.00301122  0.49476521  1
  Ti  Ti143  1  0.78607676  0.58848681  0.25881020  1
  Ti  Ti144  1  0.70378272  0.89710899  0.87146038  1
  Ti  Ti145  1  0.39979413  0.60673006  0.48924721  1
  Ti  Ti146  1  0.90558587  0.10040726  0.63733251  1
  Ti  Ti147  1  0.19528100  0.39891278  0.24790325  1
  Ti  Ti148  1  0.39612482  0.39926841  0.75177014  1
  Ti  Ti149  1  0.68473945  0.88746796  0.63128246  1
  Ti  Ti150  1  0.20859715  0.00739248  0.48373671  1
  Ti  Ti151  1  0.01047053  0.40647548  0.25835933  1
  Ti  Ti152  1  0.60078208  -0.00655995  0.23286190  1
  Ti  Ti153  1  0.60012442  0.60384202  0.24929084  1
  Ti  Ti154  1  0.42094198  0.20332737  0.74289299  1
  Ti  Ti155  1  0.50324547  0.47819061  0.88408541  1
  Ti  Ti156  1  0.90524045  0.48554276  0.86175258  1
  Ti  Ti157  1  0.48601659  0.89819749  0.13135837  1
  Ti  Ti158  1  0.40025113  -0.00264611  0.48747897  1
  Ti  Ti159  1  0.28887283  0.69224211  0.88335379  1
  Mo  Mo160  1  0.49680358  0.90751292  0.61043439  1
  Mo  Mo161  1  0.50801349  0.29248664  0.60972438  1
  Mo  Mo162  1  0.49745775  0.30437652  0.13866315  1
  Mo  Mo163  1  0.39414065  0.20186431  0.01642343  1
  Mo  Mo164  1  0.89886146  0.29895763  0.85785250  1
  Mo  Mo165  1  0.60129588  0.58070087  -0.01311610  1
  Mo  Mo166  1  0.81638746  0.20048249  0.25189772  1
  Mo  Mo167  1  0.20059715  0.79616879  0.49125249  1
  Mo  Mo168  1  0.89407077  0.69577599  0.87733053  1
  Mo  Mo169  1  0.21086468  0.20421723  -0.00330520  1
  Mo  Mo170  1  0.29185706  0.89896963  0.39015389  1
  Mo  Mo171  1  0.09201925  0.49441115  0.37235422  1
  Mo  Mo172  1  0.00149070  0.00967264  0.00039149  1
  Mo  Mo173  1  0.71129590  0.49617933  0.11865559  1
  Mo  Mo174  1  0.30169408  0.49767051  0.36286983  1
  Mo  Mo175  1  -0.00515209  0.40920287  -0.00628050  1
  Mo  Mo176  1  0.30186727  0.89410856  0.13131838  1
  Mo  Mo177  1  0.50195514  0.09630371  0.14717434  1
  Mo  Mo178  1  0.49887344  0.69662080  0.37315194  1
  Mo  Mo179  1  0.39617124  0.01754157  0.73987121  1
  Mo  Mo180  1  0.80520378  0.39480997  0.50961556  1
  Mo  Mo181  1  0.30024150  0.10540880  0.37801282  1
  Mo  Mo182  1  0.50835206  0.93968207  0.87856611  1
  Mo  Mo183  1  0.90290105  0.89340912  0.13037274  1
  Mo  Mo184  1  0.10527277  0.30585920  0.13386071  1
  Mo  Mo185  1  0.69259324  0.50175808  0.37696293  1
  Mo  Mo186  1  0.51166520  0.12265083  0.87309307  1
  Mo  Mo187  1  0.39929177  0.78769806  0.49824685  1
  Mo  Mo188  1  -0.00579711  0.41032105  0.74064295  1
  Mo  Mo189  1  0.79665706  0.39432321  0.75775846  1
  Mo  Mo190  1  0.71218775  0.10161307  0.12513086  1
  Mo  Mo191  1  0.20640656  0.41006192  0.75166294  1
  Mo  Mo192  1  -0.01021580  0.79979437  0.49752649  1
  Mo  Mo193  1  0.19742617  0.39696719  0.50113258  1
  Mo  Mo194  1  0.49168936  0.29548383  0.87584623  1
  Mo  Mo195  1  0.00745209  0.00842120  0.74060097  1
  Mo  Mo196  1  0.19136299  0.59891946  0.00584749  1
  Mo  Mo197  1  0.60000919  0.79296499  0.50823967  1
  Mo  Mo198  1  0.29315231  0.90691967  0.87141425  1
  Mo  Mo199  1  0.89399659  0.89428766  0.86728323  1
