# generated using pymatgen
data_HfZrTaTiMo
_symmetry_space_group_name_H-M   'P 1'
_cell_length_a   15.15699240
_cell_length_b   15.15326309
_cell_length_c   16.84411022
_cell_angle_alpha   89.99736209
_cell_angle_beta   89.94522698
_cell_angle_gamma   90.02021459
_symmetry_Int_Tables_number   1
_chemical_formula_structural   HfZrTaTiMo
_chemical_formula_sum   'Hf40 Zr40 Ta40 Ti40 Mo40'
_cell_volume   3868.71774281
_cell_formula_units_Z   40
loop_
 _symmetry_equiv_pos_site_id
 _symmetry_equiv_pos_as_xyz
  1  'x, y, z'
loop_
 _atom_site_type_symbol
 _atom_site_label
 _atom_site_symmetry_multiplicity
 _atom_site_fract_x
 _atom_site_fract_y
 _atom_site_fract_z
 _atom_site_occupancy
  Hf  Hf0  1  0.18154980  0.81871649  0.47408634  1
  Hf  Hf1  1  0.18603917  0.80698050  0.01480564  1
  Hf  Hf2  1  0.39422320  0.79313986  -0.00442495  1
  Hf  Hf3  1  0.19253177  0.40157997  0.75560105  1
  Hf  Hf4  1  0.30122245  0.51200060  0.62255436  1
  Hf  Hf5  1  0.82071656  0.19514613  0.25561297  1
  Hf  Hf6  1  0.31006125  0.30139631  0.88360847  1
  Hf  Hf7  1  0.17533749  0.41294417  0.25610093  1
  Hf  Hf8  1  0.31556040  0.11638619  0.36650199  1
  Hf  Hf9  1  0.80117266  -0.00643728  0.75169002  1
  Hf  Hf10  1  0.61201671  0.58377330  0.75281852  1
  Hf  Hf11  1  0.79779316  0.59715991  0.01733977  1
  Hf  Hf12  1  0.30080936  0.69950677  0.13561307  1
  Hf  Hf13  1  0.66088234  0.69256733  0.36331666  1
  Hf  Hf14  1  0.80587853  0.19588597  0.74353984  1
  Hf  Hf15  1  0.59539252  -0.00074624  0.75390331  1
  Hf  Hf16  1  0.79030464  0.00881219  0.00306447  1
  Hf  Hf17  1  0.77860651  0.80267690  0.48514236  1
  Hf  Hf18  1  0.71295722  0.29532659  0.38704142  1
  Hf  Hf19  1  0.21370193  0.20312229  0.75056678  1
  Hf  Hf20  1  0.29403274  0.50041624  0.12740677  1
  Hf  Hf21  1  0.09001494  0.51290245  0.62568733  1
  Hf  Hf22  1  0.70016465  0.88684956  0.87441649  1
  Hf  Hf23  1  0.88045519  0.50887462  0.87770834  1
  Hf  Hf24  1  0.30707170  0.52460556  0.36202778  1
  Hf  Hf25  1  0.67112279  0.69523398  0.13435376  1
  Hf  Hf26  1  0.40601580  0.59119561  0.75619582  1
  Hf  Hf27  1  0.68561689  0.90837670  0.12363036  1
  Hf  Hf28  1  0.42428711  0.21072641  0.23766983  1
  Hf  Hf29  1  0.00393238  0.01530612  0.74367739  1
  Hf  Hf30  1  0.31283176  0.09474753  0.88065486  1
  Hf  Hf31  1  0.30750607  0.31219282  0.35624386  1
  Hf  Hf32  1  0.38329741  0.79515191  0.76043737  1
  Hf  Hf33  1  -0.01245871  0.79821179  0.02128040  1
  Hf  Hf34  1  0.39741594  0.38682546  0.74214590  1
  Hf  Hf35  1  0.91279501  0.31337563  0.87686077  1
  Hf  Hf36  1  0.70960117  0.09169202  0.61828454  1
  Hf  Hf37  1  0.21559235  0.21402979  0.49916202  1
  Hf  Hf38  1  0.30587022  0.50816229  0.89120577  1
  Hf  Hf39  1  0.29859595  0.90587464  0.13309503  1
  Zr  Zr40  1  0.40248988  0.40453080  0.50213572  1
  Zr  Zr41  1  0.89141939  0.46968532  0.38191442  1
  Zr  Zr42  1  0.01795953  0.20999544  0.75250866  1
  Zr  Zr43  1  0.02121309  0.19809555  0.24927330  1
  Zr  Zr44  1  0.53480414  0.07838241  0.13071093  1
  Zr  Zr45  1  0.89049444  0.91766491  0.37625830  1
  Zr  Zr46  1  0.29769456  0.91891820  0.37644944  1
  Zr  Zr47  1  0.21344674  0.20869117  0.00499543  1
  Zr  Zr48  1  0.89158117  0.70273777  0.88176036  1
  Zr  Zr49  1  0.29513727  0.91055719  0.60958212  1
  Zr  Zr50  1  0.78728984  0.41446168  0.73857682  1
  Zr  Zr51  1  0.51338517  0.88981362  0.38353336  1
  Zr  Zr52  1  0.70401637  0.30539886  0.87034571  1
  Zr  Zr53  1  -0.00459979  0.80825072  0.74351374  1
  Zr  Zr54  1  0.31988624  0.11699138  0.61911635  1
  Zr  Zr55  1  0.63265745  0.18988735  0.00201708  1
  Zr  Zr56  1  0.09160910  0.71138856  0.62168313  1
  Zr  Zr57  1  0.42067633  -0.00824837  0.24754441  1
  Zr  Zr58  1  0.89783426  0.10703627  0.88503068  1
  Zr  Zr59  1  0.90379457  0.89783735  0.88046215  1
  Zr  Zr60  1  0.42060625  0.19670168  0.01812478  1
  Zr  Zr61  1  0.08464397  0.50482174  0.87878131  1
  Zr  Zr62  1  0.88789086  0.70297168  0.14594654  1
  Zr  Zr63  1  0.49462979  0.89410946  0.61870759  1
  Zr  Zr64  1  0.89579097  0.90742973  0.60961775  1
  Zr  Zr65  1  0.19352580  0.41396863  0.48768702  1
  Zr  Zr66  1  0.39040273  0.77886604  0.48600868  1
  Zr  Zr67  1  0.19928953  0.61870971  0.48897051  1
  Zr  Zr68  1  -0.00862874  0.38526026  0.50970506  1
  Zr  Zr69  1  0.20140817  0.62091870  0.75922259  1
  Zr  Zr70  1  0.10743361  0.10414585  0.11876800  1
  Zr  Zr71  1  0.77937196  0.59038074  0.48422990  1
  Zr  Zr72  1  0.58993173  0.78778819  0.75686836  1
  Zr  Zr73  1  0.77784761  0.58268228  0.25732659  1
  Zr  Zr74  1  0.08682473  0.68725236  0.35034202  1
  Zr  Zr75  1  0.28478571  0.89608794  0.87766826  1
  Zr  Zr76  1  0.53414574  0.10247221  0.36394523  1
  Zr  Zr77  1  -0.01077450  0.79421348  0.48226129  1
  Zr  Zr78  1  0.09665434  0.71565158  0.87750638  1
  Zr  Zr79  1  -0.00603957  0.55737782  0.24010843  1
  Ta  Ta80  1  0.19191558  0.01445809  0.25221484  1
  Ta  Ta81  1  0.41924297  0.41371309  0.24152227  1
  Ta  Ta82  1  -0.00623795  0.40837956  0.73981917  1
  Ta  Ta83  1  0.40929769  -0.00876308  0.00718155  1
  Ta  Ta84  1  0.50803403  0.48402349  0.88369704  1
  Ta  Ta85  1  0.79506438  0.39178540  0.01005784  1
  Ta  Ta86  1  0.30810770  0.10304107  0.13607729  1
  Ta  Ta87  1  0.61802452  -0.01410619  0.50395846  1
  Ta  Ta88  1  0.50352830  0.51109864  0.11850568  1
  Ta  Ta89  1  0.50622568  0.29479089  0.87862041  1
  Ta  Ta90  1  0.57749566  0.58899906  0.50591339  1
  Ta  Ta91  1  0.49104154  0.68566856  0.88391778  1
  Ta  Ta92  1  0.00611801  -0.00255772  0.00595588  1
  Ta  Ta93  1  0.20096777  0.00217574  0.74714674  1
  Ta  Ta94  1  0.69912953  0.88433383  0.62832473  1
  Ta  Ta95  1  0.10923151  0.10057027  0.88424311  1
  Ta  Ta96  1  0.40612458  0.39744690  0.01397457  1
  Ta  Ta97  1  0.41959134  0.02516952  0.49590485  1
  Ta  Ta98  1  0.60376458  0.39750209  0.51019182  1
  Ta  Ta99  1  0.10424741  0.91283176  0.61813503  1
  Ta  Ta100  1  0.40248249  -0.00030569  0.75193499  1
  Ta  Ta101  1  0.51363406  0.30758018  0.37401142  1
  Ta  Ta102  1  0.29342101  0.71238373  0.62485610  1
  Ta  Ta103  1  0.49315742  0.27965021  0.61612708  1
  Ta  Ta104  1  0.01161525  0.21127753  -0.00393542  1
  Ta  Ta105  1  0.58860088  0.39104154  0.73673395  1
  Ta  Ta106  1  0.88532775  0.69624442  0.61635710  1
  Ta  Ta107  1  0.09711108  0.69409757  0.14306902  1
  Ta  Ta108  1  0.90257089  0.29055722  0.11620735  1
  Ta  Ta109  1  0.77813085  0.81338328  0.25667792  1
  Ta  Ta110  1  0.19023072  0.60619396  0.00637939  1
  Ta  Ta111  1  0.18984321  0.81228253  0.25657603  1
  Ta  Ta112  1  0.61036990  0.39888594  0.25006180  1
  Ta  Ta113  1  0.80500386  0.38808360  0.24025053  1
  Ta  Ta114  1  0.82247425  0.19898680  0.50855067  1
  Ta  Ta115  1  0.88508689  0.50727799  0.61699405  1
  Ta  Ta116  1  0.58955477  0.79647521  -0.00632785  1
  Ta  Ta117  1  0.60148747  0.19719462  0.74584151  1
  Ta  Ta118  1  0.48652435  0.68322700  0.62644802  1
  Ta  Ta119  1  -0.00261434  0.41350183  0.01234853  1
  Ti  Ti120  1  -0.00560268  0.00533642  0.25052179  1
  Ti  Ti121  1  -0.02154396  0.60396358  0.74499980  1
  Ti  Ti122  1  0.41505376  0.61175780  0.24514997  1
  Ti  Ti123  1  0.69548923  0.68639182  0.62290895  1
  Ti  Ti124  1  0.60385159  0.39762369  0.00299906  1
  Ti  Ti125  1  0.19439859  0.39993904  0.00059206  1
  Ti  Ti126  1  0.88476176  0.69580787  0.35843771  1
  Ti  Ti127  1  0.11511553  0.10133369  0.38292595  1
  Ti  Ti128  1  0.52326605  0.30869457  0.12632979  1
  Ti  Ti129  1  0.39583763  0.79699880  0.25843776  1
  Ti  Ti130  1  0.79279962  0.78162699  0.74533653  1
  Ti  Ti131  1  0.10839553  0.10422787  0.61338219  1
  Ti  Ti132  1  0.59234870  0.59705045  -0.00337468  1
  Ti  Ti133  1  0.59281690  0.78279354  0.50681072  1
  Ti  Ti134  1  0.70060281  0.29719972  0.61861635  1
  Ti  Ti135  1  0.20420193  0.00161606  0.00676938  1
  Ti  Ti136  1  0.90654925  0.09610127  0.11457382  1
  Ti  Ti137  1  0.80142862  0.00282228  0.24174726  1
  Ti  Ti138  1  0.01304800  0.00511062  0.49709874  1
  Ti  Ti139  1  0.70037019  0.68140174  0.88119010  1
  Ti  Ti140  1  0.59216174  -0.01219209  -0.01915606  1
  Ti  Ti141  1  0.41715493  0.19223403  0.75289020  1
  Ti  Ti142  1  0.29977449  0.30361658  0.13895231  1
  Ti  Ti143  1  0.91944552  0.11113338  0.38902333  1
  Ti  Ti144  1  0.11044516  0.30263192  0.62269118  1
  Ti  Ti145  1  0.08547487  0.30053928  0.37584725  1
  Ti  Ti146  1  -0.00817239  0.59521742  0.48853439  1
  Ti  Ti147  1  0.72539173  0.08458649  0.38673777  1
  Ti  Ti148  1  0.78845500  0.80142060  0.01279016  1
  Ti  Ti149  1  0.57658488  0.80240972  0.24467736  1
  Ti  Ti150  1  0.90517159  0.29414126  0.62982209  1
  Ti  Ti151  1  0.08776749  0.90484419  0.13870483  1
  Ti  Ti152  1  0.50804618  0.09954335  0.87841760  1
  Ti  Ti153  1  0.69356444  0.48884325  0.12525304  1
  Ti  Ti154  1  0.10434132  0.31060402  0.12689382  1
  Ti  Ti155  1  0.62988527  0.20019985  0.24262405  1
  Ti  Ti156  1  0.09663936  0.91139005  0.87446459  1
  Ti  Ti157  1  0.59803753  0.18833185  0.50382898  1
  Ti  Ti158  1  0.50913175  0.50402055  0.37238620  1
  Ti  Ti159  1  -0.01566259  0.81470518  0.25090983  1
  Mo  Mo160  1  0.09316285  0.49339348  0.37977419  1
  Mo  Mo161  1  0.48352787  0.68513483  0.37361994  1
  Mo  Mo162  1  0.30068419  0.30454963  0.62651161  1
  Mo  Mo163  1  0.10216149  0.30713450  0.88230465  1
  Mo  Mo164  1  0.69605866  0.10067264  0.86688264  1
  Mo  Mo165  1  -0.01313147  0.37918252  0.24263279  1
  Mo  Mo166  1  0.08829417  0.91782582  0.35747122  1
  Mo  Mo167  1  0.68093518  0.47744732  0.37788452  1
  Mo  Mo168  1  0.21218761  0.20739064  0.24566529  1
  Mo  Mo169  1  0.88871661  0.48924451  0.12124200  1
  Mo  Mo170  1  0.41873058  0.21143518  0.48683274  1
  Mo  Mo171  1  0.19970243  0.60446492  0.24452338  1
  Mo  Mo172  1  0.70793895  0.29951281  0.12758537  1
  Mo  Mo173  1  0.72611693  0.10575236  0.13331040  1
  Mo  Mo174  1  0.68995255  0.49773588  0.88625167  1
  Mo  Mo175  1  0.49476271  0.70218775  0.11763534  1
  Mo  Mo176  1  0.50034195  0.88174959  0.12267045  1
  Mo  Mo177  1  0.80455996  0.00311179  0.50211616  1
  Mo  Mo178  1  0.51097706  0.09609358  0.62270084  1
  Mo  Mo179  1  0.58249272  0.58197808  0.24546155  1
  Mo  Mo180  1  0.19947828  0.01689977  0.49337262  1
  Mo  Mo181  1  0.90220058  0.28565452  0.38099031  1
  Mo  Mo182  1  0.62672226  -0.00988678  0.25539815  1
  Mo  Mo183  1  0.29122228  0.69463883  0.88469107  1
  Mo  Mo184  1  0.49052103  0.90295337  0.87454747  1
  Mo  Mo185  1  0.39625442  0.59960308  0.49917130  1
  Mo  Mo186  1  0.69368018  0.90110666  0.36979264  1
  Mo  Mo187  1  0.29464813  0.70666878  0.35068143  1
  Mo  Mo188  1  0.69398459  0.49754398  0.61917149  1
  Mo  Mo189  1  0.79745093  0.60855443  0.74525338  1
  Mo  Mo190  1  0.01714834  0.19414820  0.50554519  1
  Mo  Mo191  1  0.81473741  0.20276402  -0.00107273  1
  Mo  Mo192  1  0.79362121  0.38906573  0.51899628  1
  Mo  Mo193  1  0.91652489  0.10380168  0.61611575  1
  Mo  Mo194  1  0.50071207  0.49314215  0.62693434  1
  Mo  Mo195  1  0.00107268  0.60268226  0.01970694  1
  Mo  Mo196  1  0.09896201  0.49988018  0.11393904  1
  Mo  Mo197  1  0.19315326  0.81786313  0.74262815  1
  Mo  Mo198  1  0.89454794  0.91010501  0.13359540  1
  Mo  Mo199  1  0.40038018  0.59363875  0.00135838  1
