# generated using pymatgen
data_HfZrTaTiMo
_symmetry_space_group_name_H-M   'P 1'
_cell_length_a   15.20671947
_cell_length_b   15.22078150
_cell_length_c   16.85318192
_cell_angle_alpha   90.00500567
_cell_angle_beta   90.02104050
_cell_angle_gamma   89.98948346
_symmetry_Int_Tables_number   1
_chemical_formula_structural   HfZrTaTiMo
_chemical_formula_sum   'Hf40 Zr40 Ta40 Ti40 Mo40'
_cell_volume   3900.80603921
_cell_formula_units_Z   40
loop_
 _symmetry_equiv_pos_site_id
 _symmetry_equiv_pos_as_xyz
  1  'x, y, z'
loop_
 _atom_site_type_symbol
 _atom_site_label
 _atom_site_symmetry_multiplicity
 _atom_site_fract_x
 _atom_site_fract_y
 _atom_site_fract_z
 _atom_site_occupancy
  Hf  Hf0  1  0.30505364  0.68767287  0.88874697  1
  Hf  Hf1  1  0.19898324  0.00402594  0.26952445  1
  Hf  Hf2  1  0.69428790  0.70384316  0.63083828  1
  Hf  Hf3  1  0.50122390  0.70796519  0.11070013  1
  Hf  Hf4  1  0.59337886  0.59752643  0.25672779  1
  Hf  Hf5  1  0.00060055  -0.01133613  0.00091929  1
  Hf  Hf6  1  0.60051181  0.21311896  0.00908700  1
  Hf  Hf7  1  0.59658731  0.02352990  0.75307320  1
  Hf  Hf8  1  0.01055640  0.79893832  0.50439544  1
  Hf  Hf9  1  0.01205874  0.19279378  0.74037979  1
  Hf  Hf10  1  0.27502730  0.68691714  0.37836588  1
  Hf  Hf11  1  0.89437683  0.08876281  0.62994142  1
  Hf  Hf12  1  0.20158702  0.78988338  0.75739084  1
  Hf  Hf13  1  0.30626621  0.89624520  0.13343320  1
  Hf  Hf14  1  0.60258310  0.40699859  0.49594931  1
  Hf  Hf15  1  0.10031593  0.86930174  0.36444671  1
  Hf  Hf16  1  0.80374277  0.61783501  0.24614844  1
  Hf  Hf17  1  0.49781346  0.10902302  0.88475699  1
  Hf  Hf18  1  0.80234601  0.19328405  -0.00163147  1
  Hf  Hf19  1  0.20056669  0.58374484  0.75433670  1
  Hf  Hf20  1  0.89966134  0.49518509  0.37448878  1
  Hf  Hf21  1  0.40939608  0.00307899  0.47008921  1
  Hf  Hf22  1  0.10066092  0.89318090  0.63069699  1
  Hf  Hf23  1  0.78048277  0.18631279  0.75930919  1
  Hf  Hf24  1  0.80145059  0.40531409  -0.01625687  1
  Hf  Hf25  1  0.39902490  0.60352155  0.74252301  1
  Hf  Hf26  1  0.20434706  0.56393943  -0.00924376  1
  Hf  Hf27  1  0.20777315  0.20265136  0.72498748  1
  Hf  Hf28  1  0.01592093  0.20044449  -0.01061649  1
  Hf  Hf29  1  0.38859507  0.20497218  0.26638473  1
  Hf  Hf30  1  0.59618574  0.21546382  0.24961552  1
  Hf  Hf31  1  0.19518596  0.36652143  -0.00885443  1
  Hf  Hf32  1  0.21096900  0.56886433  0.23738271  1
  Hf  Hf33  1  0.00737933  0.60366702  0.50445649  1
  Hf  Hf34  1  0.80359495  0.80096872  0.50751864  1
  Hf  Hf35  1  0.68697418  0.29842840  0.62571765  1
  Hf  Hf36  1  0.38697184  0.60277872  0.51685862  1
  Hf  Hf37  1  0.70165927  0.91332329  0.63113464  1
  Hf  Hf38  1  0.19736511  0.77288639  0.23065700  1
  Hf  Hf39  1  0.70609191  0.49702653  0.63460724  1
  Zr  Zr40  1  0.80713989  0.20014793  0.24489199  1
  Zr  Zr41  1  0.59479336  0.60729691  0.50212008  1
  Zr  Zr42  1  0.10554953  0.46475674  0.12313393  1
  Zr  Zr43  1  0.90197098  0.07662282  0.86307855  1
  Zr  Zr44  1  0.10470658  0.29695057  0.40132019  1
  Zr  Zr45  1  0.31591720  0.09036293  0.60989187  1
  Zr  Zr46  1  0.80429936  0.59616874  0.76076511  1
  Zr  Zr47  1  0.27713049  0.10307634  0.88414266  1
  Zr  Zr48  1  0.70221920  0.71117976  0.87963049  1
  Zr  Zr49  1  0.69703672  0.50586856  0.11591536  1
  Zr  Zr50  1  0.69552717  0.70081550  0.37893000  1
  Zr  Zr51  1  0.70039961  0.10556013  0.38313518  1
  Zr  Zr52  1  0.48977382  0.10596391  0.12370310  1
  Zr  Zr53  1  0.28220603  0.10343245  0.11964541  1
  Zr  Zr54  1  0.08646709  0.69147388  0.88561499  1
  Zr  Zr55  1  0.90700462  0.30317782  0.86265816  1
  Zr  Zr56  1  0.60326895  0.00822463  0.00552889  1
  Zr  Zr57  1  0.50601060  0.69973466  0.88551458  1
  Zr  Zr58  1  0.08746206  0.09789163  0.13253053  1
  Zr  Zr59  1  0.40006761  0.00394238  0.26690162  1
  Zr  Zr60  1  0.69969030  0.31407347  0.12717672  1
  Zr  Zr61  1  0.58918719  0.81481324  0.49828763  1
  Zr  Zr62  1  0.70504088  0.70391405  0.10845764  1
  Zr  Zr63  1  0.19631729  0.80984995  0.00548485  1
  Zr  Zr64  1  0.40497286  0.19229379  0.74091755  1
  Zr  Zr65  1  0.49612040  0.92076607  0.62318597  1
  Zr  Zr66  1  0.30469756  0.89031851  0.62814535  1
  Zr  Zr67  1  0.38802722  0.21790918  0.00319918  1
  Zr  Zr68  1  0.70268001  0.90020174  0.13029698  1
  Zr  Zr69  1  0.90265624  0.71023236  0.37636437  1
  Zr  Zr70  1  0.88967634  0.30672790  0.63732739  1
  Zr  Zr71  1  0.01712985  0.38428913  0.26330853  1
  Zr  Zr72  1  0.92186661  0.30032473  0.12200469  1
  Zr  Zr73  1  0.60400120  0.01146270  0.24714813  1
  Zr  Zr74  1  0.01398114  0.59926256  0.25665494  1
  Zr  Zr75  1  -0.00435131  0.40026457  0.51433139  1
  Zr  Zr76  1  0.90460347  0.50877781  0.12244927  1
  Zr  Zr77  1  0.70952412  0.92519858  0.86747061  1
  Zr  Zr78  1  0.49326176  0.51117089  0.12346809  1
  Zr  Zr79  1  0.20371390  -0.02138188  0.48201976  1
  Ta  Ta80  1  0.12121542  0.50427847  0.39095812  1
  Ta  Ta81  1  0.50051839  0.30882977  0.38254846  1
  Ta  Ta82  1  0.49049788  0.31597339  0.87177337  1
  Ta  Ta83  1  0.21165518  0.41072531  0.52570129  1
  Ta  Ta84  1  0.69457391  0.10319279  0.60807429  1
  Ta  Ta85  1  -0.01021638  0.79218257  0.23039844  1
  Ta  Ta86  1  0.70909377  0.89867918  0.36549455  1
  Ta  Ta87  1  -0.01196130  0.79048083  0.00829070  1
  Ta  Ta88  1  0.38527523  0.41544195  -0.00335511  1
  Ta  Ta89  1  0.39448279  0.39677679  0.73652060  1
  Ta  Ta90  1  0.59073551  0.81188066  0.75451245  1
  Ta  Ta91  1  0.68699398  0.50571840  0.87845492  1
  Ta  Ta92  1  0.09059741  0.67823663  0.10683940  1
  Ta  Ta93  1  0.58497741  0.40822492  -0.00818796  1
  Ta  Ta94  1  0.39783812  0.41103500  0.25891508  1
  Ta  Ta95  1  0.81123869  0.81543300  -0.00833291  1
  Ta  Ta96  1  -0.00592436  -0.00606345  0.49231895  1
  Ta  Ta97  1  0.30347986  0.30703601  0.39823652  1
  Ta  Ta98  1  0.59590081  0.79678730  0.25107224  1
  Ta  Ta99  1  0.80291590  0.80126914  0.74850317  1
  Ta  Ta100  1  0.90459392  0.89915564  0.63726222  1
  Ta  Ta101  1  0.58922795  0.21448816  0.74916989  1
  Ta  Ta102  1  0.10049525  0.08856007  0.60980849  1
  Ta  Ta103  1  0.89640830  0.28937503  0.38128169  1
  Ta  Ta104  1  0.81330313  0.00713069  0.24813280  1
  Ta  Ta105  1  0.80301814  0.20350990  0.49992073  1
  Ta  Ta106  1  0.00137152  0.59743822  0.74857874  1
  Ta  Ta107  1  0.28759094  0.31232559  0.13739484  1
  Ta  Ta108  1  0.19523721  0.00527698  0.74773747  1
  Ta  Ta109  1  0.19086326  0.20774102  0.26651257  1
  Ta  Ta110  1  0.80620942  0.59184624  0.50998779  1
  Ta  Ta111  1  0.82491672  0.61112275  -0.01743770  1
  Ta  Ta112  1  0.30745622  0.49412552  0.38709335  1
  Ta  Ta113  1  0.90709041  0.69823617  0.63239477  1
  Ta  Ta114  1  0.47817770  0.70838391  0.37258964  1
  Ta  Ta115  1  0.80499170  -0.00275016  0.49419982  1
  Ta  Ta116  1  0.48797866  0.32174898  0.13345909  1
  Ta  Ta117  1  0.39310377  -0.00930005  -0.00425708  1
  Ta  Ta118  1  0.50284476  0.49747494  0.62934616  1
  Ta  Ta119  1  0.09802668  0.91047450  0.86871968  1
  Ti  Ti120  1  0.40274627  0.80872741  -0.00531228  1
  Ti  Ti121  1  0.31118177  0.87117406  0.35920711  1
  Ti  Ti122  1  0.20480073  0.19969491  0.51492626  1
  Ti  Ti123  1  0.00655008  0.40786519  0.74528234  1
  Ti  Ti124  1  0.29571602  0.90161992  0.87822200  1
  Ti  Ti125  1  0.80156052  0.40076664  0.50049401  1
  Ti  Ti126  1  0.39677566  -0.00558426  0.76576306  1
  Ti  Ti127  1  0.89859485  0.90240706  0.36536824  1
  Ti  Ti128  1  0.19998572  0.39229299  0.72850967  1
  Ti  Ti129  1  0.49186766  0.29965168  0.60752869  1
  Ti  Ti130  1  0.68498749  0.30188226  0.87427161  1
  Ti  Ti131  1  0.91306944  0.88481484  0.85619302  1
  Ti  Ti132  1  0.30110046  0.30298700  0.86298208  1
  Ti  Ti133  1  0.40317569  0.80457820  0.76102339  1
  Ti  Ti134  1  0.80273534  0.00668335  0.01246755  1
  Ti  Ti135  1  0.48781741  0.50629163  0.87431769  1
  Ti  Ti136  1  0.39517049  0.61129071  0.24976722  1
  Ti  Ti137  1  -0.00283344  0.18576241  0.26305578  1
  Ti  Ti138  1  0.09266855  0.09911595  0.39037339  1
  Ti  Ti139  1  0.79451536  0.40192235  0.76439241  1
  Ti  Ti140  1  0.11181836  0.28726068  0.85918802  1
  Ti  Ti141  1  0.38652810  0.80001358  0.50015187  1
  Ti  Ti142  1  0.79659728  0.40381648  0.25372682  1
  Ti  Ti143  1  0.89940638  0.90077863  0.13097926  1
  Ti  Ti144  1  0.59447120  0.60609612  0.74975008  1
  Ti  Ti145  1  0.59104978  0.40668897  0.75648406  1
  Ti  Ti146  1  0.09961503  0.89824797  0.13183665  1
  Ti  Ti147  1  0.70240876  0.49979184  0.37393598  1
  Ti  Ti148  1  0.59882756  0.81930235  -0.00823530  1
  Ti  Ti149  1  0.00429558  0.41440064  -0.02311781  1
  Ti  Ti150  1  -0.00572102  0.19397843  0.51130508  1
  Ti  Ti151  1  -0.00333020  -0.00172424  0.25762971  1
  Ti  Ti152  1  0.51566724  0.11341309  0.59555017  1
  Ti  Ti153  1  0.49046358  0.71626486  0.62972710  1
  Ti  Ti154  1  0.09717786  0.50549167  0.62597543  1
  Ti  Ti155  1  0.51105114  0.89792383  0.36486522  1
  Ti  Ti156  1  0.30814452  0.68070790  0.10642777  1
  Ti  Ti157  1  0.70287995  0.30983103  0.37421811  1
  Ti  Ti158  1  0.49680264  0.89952366  0.13112330  1
  Ti  Ti159  1  0.49425552  0.50625687  0.37881850  1
  Mo  Mo160  1  0.00228310  0.79157878  0.74755640  1
  Mo  Mo161  1  0.79864160  -0.00389269  0.74412330  1
  Mo  Mo162  1  0.90692287  0.09695097  0.38352452  1
  Mo  Mo163  1  0.69532811  0.11354797  0.87882301  1
  Mo  Mo164  1  0.19472940  0.19332011  -0.00025375  1
  Mo  Mo165  1  0.89824926  0.09051513  0.12370077  1
  Mo  Mo166  1  0.09944450  0.47625389  0.85957489  1
  Mo  Mo167  1  0.49093224  0.90433248  0.87421408  1
  Mo  Mo168  1  0.90653980  0.50360869  0.86806551  1
  Mo  Mo169  1  0.09995808  0.69678392  0.63661659  1
  Mo  Mo170  1  0.29771603  0.70584383  0.62911244  1
  Mo  Mo171  1  0.30897778  0.48905742  0.12586674  1
  Mo  Mo172  1  0.40826957  0.40791897  0.50747801  1
  Mo  Mo173  1  0.39922539  0.59798719  -0.00437103  1
  Mo  Mo174  1  0.21349708  0.38656377  0.26829369  1
  Mo  Mo175  1  0.40511190  0.78851944  0.24602591  1
  Mo  Mo176  1  0.19424228  -0.01116208  0.00153874  1
  Mo  Mo177  1  0.80108473  0.81077874  0.24931300  1
  Mo  Mo178  1  0.20291563  0.77673984  0.50779730  1
  Mo  Mo179  1  0.28476292  0.11631334  0.38579900  1
  Mo  Mo180  1  0.30315696  0.49968750  0.63163024  1
  Mo  Mo181  1  0.00844763  -0.00557360  0.74601381  1
  Mo  Mo182  1  0.00290267  0.59093090  -0.00599239  1
  Mo  Mo183  1  0.40351508  0.20392833  0.48674934  1
  Mo  Mo184  1  0.30899569  0.30154813  0.60868291  1
  Mo  Mo185  1  0.10067833  0.09623933  0.86787720  1
  Mo  Mo186  1  0.60475980  0.20925510  0.49176838  1
  Mo  Mo187  1  0.60623835  0.59745498  -0.00858550  1
  Mo  Mo188  1  0.19464404  0.60314144  0.51662469  1
  Mo  Mo189  1  0.10056846  0.29502394  0.61634371  1
  Mo  Mo190  1  0.10923502  0.27936089  0.13427161  1
  Mo  Mo191  1  0.30683705  0.47704687  0.86204246  1
  Mo  Mo192  1  0.89960281  0.70494445  0.11935114  1
  Mo  Mo193  1  0.50179164  0.11496600  0.38349041  1
  Mo  Mo194  1  0.89753200  0.50386986  0.63024743  1
  Mo  Mo195  1  0.71202663  0.10392174  0.12993060  1
  Mo  Mo196  1  0.59827776  0.40624566  0.26768270  1
  Mo  Mo197  1  0.90344833  0.70884120  0.86871511  1
  Mo  Mo198  1  0.09804969  0.69013742  0.36810059  1
  Mo  Mo199  1  0.60976489  0.00125730  0.48671321  1
