# generated using pymatgen
data_HfZrTaTiMo
_symmetry_space_group_name_H-M   'P 1'
_cell_length_a   15.21833210
_cell_length_b   15.21104382
_cell_length_c   16.81185583
_cell_angle_alpha   90.05536644
_cell_angle_beta   90.00676163
_cell_angle_gamma   89.81128832
_symmetry_Int_Tables_number   1
_chemical_formula_structural   HfZrTaTiMo
_chemical_formula_sum   'Hf40 Zr40 Ta40 Ti40 Mo40'
_cell_volume   3891.69835323
_cell_formula_units_Z   40
loop_
 _symmetry_equiv_pos_site_id
 _symmetry_equiv_pos_as_xyz
  1  'x, y, z'
loop_
 _atom_site_type_symbol
 _atom_site_label
 _atom_site_symmetry_multiplicity
 _atom_site_fract_x
 _atom_site_fract_y
 _atom_site_fract_z
 _atom_site_occupancy
  Hf  Hf0  1  0.50241442  0.29208144  0.87096099  1
  Hf  Hf1  1  0.30004805  0.30158632  0.63790038  1
  Hf  Hf2  1  0.30177495  0.30896658  0.36347064  1
  Hf  Hf3  1  0.29158892  0.88991007  0.87655034  1
  Hf  Hf4  1  -0.00018423  0.20967205  0.75622535  1
  Hf  Hf5  1  0.39924907  0.19600488  0.23039740  1
  Hf  Hf6  1  0.38906811  0.77591920  0.74259579  1
  Hf  Hf7  1  0.30438402  0.09898252  0.85755264  1
  Hf  Hf8  1  0.90792330  0.48632595  0.38090919  1
  Hf  Hf9  1  0.68690901  0.89390347  0.38658187  1
  Hf  Hf10  1  0.19117680  0.80557198  0.26993347  1
  Hf  Hf11  1  0.79541165  0.59542631  0.75815380  1
  Hf  Hf12  1  0.00162916  0.81703599  0.48406781  1
  Hf  Hf13  1  0.81364144  0.38753283  -0.00214656  1
  Hf  Hf14  1  0.89749953  0.70645779  0.86600469  1
  Hf  Hf15  1  0.88653224  0.90584710  0.36331537  1
  Hf  Hf16  1  0.70511046  0.29831118  0.62223521  1
  Hf  Hf17  1  0.51133810  0.08618083  0.86289922  1
  Hf  Hf18  1  0.90911482  0.50115676  0.87866301  1
  Hf  Hf19  1  0.18736788  0.40177944  0.75985330  1
  Hf  Hf20  1  0.69193354  0.70338826  0.62804233  1
  Hf  Hf21  1  0.38793661  0.19009106  0.01209485  1
  Hf  Hf22  1  0.51037211  0.09376944  0.62576796  1
  Hf  Hf23  1  0.09601698  0.29654848  0.38745896  1
  Hf  Hf24  1  0.90193920  0.69554051  0.13678082  1
  Hf  Hf25  1  0.10455480  0.50305374  0.61216532  1
  Hf  Hf26  1  0.49764992  0.09567774  0.39173620  1
  Hf  Hf27  1  0.19766668  0.60235407  0.25858371  1
  Hf  Hf28  1  0.48487406  0.69331839  0.88578202  1
  Hf  Hf29  1  0.80318220  0.59221972  0.25490153  1
  Hf  Hf30  1  0.60979182  0.39062679  0.00317211  1
  Hf  Hf31  1  0.70607313  0.71189345  0.12002474  1
  Hf  Hf32  1  0.29311918  0.29773830  0.87048123  1
  Hf  Hf33  1  0.58675499  0.59874475  0.75887252  1
  Hf  Hf34  1  0.27188130  0.31620664  0.12809207  1
  Hf  Hf35  1  0.50251787  0.88931957  0.87411510  1
  Hf  Hf36  1  0.00381631  0.01414394  0.25193081  1
  Hf  Hf37  1  0.01889562  0.39064761  -0.00063286  1
  Hf  Hf38  1  0.70392892  0.92598470  0.89054464  1
  Hf  Hf39  1  0.79681445  0.79481971  0.50124406  1
  Zr  Zr40  1  0.89230005  0.89833462  0.13920515  1
  Zr  Zr41  1  0.40165541  0.59188587  0.49298824  1
  Zr  Zr42  1  0.69372119  0.91793207  0.11118348  1
  Zr  Zr43  1  0.40404872  -0.02300081  0.73246351  1
  Zr  Zr44  1  0.82280215  0.38613765  0.24212034  1
  Zr  Zr45  1  0.27933261  0.90284535  0.12986674  1
  Zr  Zr46  1  0.69223277  0.71572028  0.88021207  1
  Zr  Zr47  1  0.90374355  0.49360730  0.62009590  1
  Zr  Zr48  1  0.09720327  0.10377500  0.87260747  1
  Zr  Zr49  1  -0.00062967  0.61584055  0.49453874  1
  Zr  Zr50  1  0.59767507  0.00047146  0.25461893  1
  Zr  Zr51  1  0.21507578  0.60883436  0.75287312  1
  Zr  Zr52  1  0.41436165  0.37034680  0.50616868  1
  Zr  Zr53  1  0.18523013  0.19639057  0.24634434  1
  Zr  Zr54  1  0.09779523  0.29917564  0.61368772  1
  Zr  Zr55  1  0.51235952  0.48965345  0.62438966  1
  Zr  Zr56  1  0.50551958  0.48992743  0.37067861  1
  Zr  Zr57  1  0.70922292  0.49402345  0.62184185  1
  Zr  Zr58  1  0.20330047  0.01320089  0.00408164  1
  Zr  Zr59  1  0.39070286  -0.00594630  0.51765023  1
  Zr  Zr60  1  0.10396554  0.49482621  0.37758874  1
  Zr  Zr61  1  0.39600225  0.79288184  0.24335082  1
  Zr  Zr62  1  0.10734056  0.71099159  0.62407272  1
  Zr  Zr63  1  0.09167515  0.71845403  0.87158425  1
  Zr  Zr64  1  0.00120804  -0.00251786  0.01060534  1
  Zr  Zr65  1  0.39592548  -0.00319525  0.24547356  1
  Zr  Zr66  1  0.79367444  0.19800173  0.25673123  1
  Zr  Zr67  1  0.50236526  0.70185985  0.37088223  1
  Zr  Zr68  1  0.29828004  0.10669412  0.38138851  1
  Zr  Zr69  1  0.59736896  0.59573232  0.23946346  1
  Zr  Zr70  1  0.90963727  0.90012031  0.87529737  1
  Zr  Zr71  1  0.71842643  0.50238703  0.11310205  1
  Zr  Zr72  1  0.18032163  0.00166638  0.49447878  1
  Zr  Zr73  1  0.50605420  0.29519642  0.36249861  1
  Zr  Zr74  1  0.40337644  0.39723232  0.01259432  1
  Zr  Zr75  1  0.62006310  0.38902967  0.23402858  1
  Zr  Zr76  1  0.59243426  0.21094983  0.50935353  1
  Zr  Zr77  1  0.40966158  -0.01056346  0.00828282  1
  Zr  Zr78  1  0.30533191  0.50515952  0.62567279  1
  Zr  Zr79  1  0.90263072  0.71043481  0.63975594  1
  Ta  Ta80  1  0.01071819  0.59492872  0.75135203  1
  Ta  Ta81  1  0.40548711  0.40891042  0.22756503  1
  Ta  Ta82  1  0.78502255  0.82850897  0.74485106  1
  Ta  Ta83  1  0.60572956  0.18993897  0.25060507  1
  Ta  Ta84  1  0.31006781  0.50573371  0.88249417  1
  Ta  Ta85  1  0.60264479  0.19105989  -0.00676128  1
  Ta  Ta86  1  0.18062214  0.22001288  0.00226090  1
  Ta  Ta87  1  0.79976093  0.60075016  0.49003520  1
  Ta  Ta88  1  -0.01218905  0.21147529  0.24707018  1
  Ta  Ta89  1  0.12328288  0.49860862  0.12022576  1
  Ta  Ta90  1  0.11347244  0.51179445  0.88723979  1
  Ta  Ta91  1  0.70172716  0.09487249  0.39418035  1
  Ta  Ta92  1  0.18941972  -0.00559107  0.74464075  1
  Ta  Ta93  1  0.28765534  0.10199941  0.63511082  1
  Ta  Ta94  1  0.20674049  0.61264393  0.47902801  1
  Ta  Ta95  1  -0.00475454  -0.00375734  0.74866141  1
  Ta  Ta96  1  0.89993728  0.29968105  0.61453592  1
  Ta  Ta97  1  0.49695481  0.89611606  0.39155147  1
  Ta  Ta98  1  -0.01808001  0.02060670  0.49066617  1
  Ta  Ta99  1  0.19801964  0.80072859  0.47838079  1
  Ta  Ta100  1  0.81637896  0.18665832  0.49771236  1
  Ta  Ta101  1  0.00859501  0.60579603  0.00580374  1
  Ta  Ta102  1  0.40777453  0.40954137  0.75765764  1
  Ta  Ta103  1  0.59706251  0.59827046  0.00429796  1
  Ta  Ta104  1  0.39794615  0.59450426  0.01958718  1
  Ta  Ta105  1  0.08292911  0.90592661  0.62199336  1
  Ta  Ta106  1  0.39211404  0.79282132  0.50310907  1
  Ta  Ta107  1  0.40877978  0.20056417  0.73869298  1
  Ta  Ta108  1  0.38825711  0.79248328  0.01542596  1
  Ta  Ta109  1  0.29078311  0.69300840  0.89490010  1
  Ta  Ta110  1  0.51161630  0.09034086  0.11997849  1
  Ta  Ta111  1  0.79395479  0.19937412  -0.01575516  1
  Ta  Ta112  1  0.88589727  0.91817732  0.62254931  1
  Ta  Ta113  1  0.18061494  0.80546528  0.00679423  1
  Ta  Ta114  1  0.60960407  0.60272465  0.49459634  1
  Ta  Ta115  1  0.79919838  0.19783648  0.75705393  1
  Ta  Ta116  1  0.70403575  0.49002927  0.38301011  1
  Ta  Ta117  1  0.60028057  0.80561895  0.24235096  1
  Ta  Ta118  1  0.62328491  -0.01256782  0.73609516  1
  Ta  Ta119  1  0.71803280  0.08728196  0.61357783  1
  Ti  Ti120  1  0.39712546  0.59653169  0.23302324  1
  Ti  Ti121  1  0.79044521  0.00811874  0.25254968  1
  Ti  Ti122  1  0.70679265  0.29975336  0.39026581  1
  Ti  Ti123  1  -0.01282814  0.20364544  -0.00533745  1
  Ti  Ti124  1  0.70053676  0.10810791  0.11715207  1
  Ti  Ti125  1  0.02199064  0.40031646  0.23852059  1
  Ti  Ti126  1  0.80625859  0.38699267  0.76476541  1
  Ti  Ti127  1  0.58937804  0.80556845  0.74169267  1
  Ti  Ti128  1  0.70201927  0.70006862  0.36839688  1
  Ti  Ti129  1  0.80799227  0.80772544  -0.00046005  1
  Ti  Ti130  1  0.29611744  0.69742026  0.61435484  1
  Ti  Ti131  1  0.58588141  0.80868800  0.00980534  1
  Ti  Ti132  1  0.09542037  0.10180000  0.63008281  1
  Ti  Ti133  1  0.30540974  0.90101907  0.37823970  1
  Ti  Ti134  1  -0.00112966  0.80082367  0.01236801  1
  Ti  Ti135  1  0.09490443  0.70274588  0.13391467  1
  Ti  Ti136  1  0.90571938  0.10611699  0.63043756  1
  Ti  Ti137  1  0.49530800  0.69197767  0.61964054  1
  Ti  Ti138  1  0.49999018  0.69992089  0.12205995  1
  Ti  Ti139  1  0.80711958  0.60653988  -0.00504947  1
  Ti  Ti140  1  0.88712038  0.09405240  0.87489365  1
  Ti  Ti141  1  -0.00362786  0.40244485  0.75750089  1
  Ti  Ti142  1  0.51586681  0.28960485  0.12427632  1
  Ti  Ti143  1  0.20921395  0.20111797  0.50223828  1
  Ti  Ti144  1  0.90031537  0.69783091  0.35915748  1
  Ti  Ti145  1  0.28232216  0.69240082  0.11842864  1
  Ti  Ti146  1  0.21329636  0.40683585  0.49609480  1
  Ti  Ti147  1  0.19145447  0.00357930  0.25823113  1
  Ti  Ti148  1  0.90624239  0.29256988  0.39406185  1
  Ti  Ti149  1  0.89008332  0.11011870  0.11906645  1
  Ti  Ti150  1  0.50015332  0.49843678  0.88326428  1
  Ti  Ti151  1  0.18736573  0.81001063  0.75058161  1
  Ti  Ti152  1  0.09819843  0.10981354  0.12157428  1
  Ti  Ti153  1  0.61304854  0.19453164  0.74766309  1
  Ti  Ti154  1  0.70042702  0.49996296  0.88464602  1
  Ti  Ti155  1  0.61073960  0.39473654  0.76275924  1
  Ti  Ti156  1  0.00319920  0.80071060  0.25921315  1
  Ti  Ti157  1  0.92327808  0.49786885  0.12282513  1
  Ti  Ti158  1  0.31019096  0.50072092  0.36444767  1
  Ti  Ti159  1  0.28018890  0.88861468  0.62007798  1
  Mo  Mo160  1  0.29443005  0.10695857  0.12430977  1
  Mo  Mo161  1  0.00185161  0.59381356  0.24163158  1
  Mo  Mo162  1  0.78947730  0.79885195  0.25654254  1
  Mo  Mo163  1  0.50895077  0.30004680  0.64986931  1
  Mo  Mo164  1  -0.00363947  0.80988950  0.74049415  1
  Mo  Mo165  1  0.69770848  0.10772772  0.86864910  1
  Mo  Mo166  1  0.90306415  0.29355117  0.87023115  1
  Mo  Mo167  1  0.20480627  0.40790444  -0.01064620  1
  Mo  Mo168  1  0.80052225  0.39045913  0.49504163  1
  Mo  Mo169  1  0.60010760  0.00813488  -0.00070716  1
  Mo  Mo170  1  0.30018525  0.50817235  0.12868026  1
  Mo  Mo171  1  0.00157122  0.39655548  0.50305567  1
  Mo  Mo172  1  0.90520029  0.29060838  0.12039122  1
  Mo  Mo173  1  0.09155741  0.89489361  0.13549947  1
  Mo  Mo174  1  0.39252216  0.19734342  0.52390046  1
  Mo  Mo175  1  0.20549037  0.40366615  0.25480306  1
  Mo  Mo176  1  0.49985138  0.89065977  0.12306497  1
  Mo  Mo177  1  0.80640922  0.01919837  0.00378237  1
  Mo  Mo178  1  0.89617087  0.10834301  0.36929480  1
  Mo  Mo179  1  0.19705434  0.60909513  0.00510948  1
  Mo  Mo180  1  0.80313569  0.00993116  0.74604082  1
  Mo  Mo181  1  0.70454033  0.28004727  0.11668663  1
  Mo  Mo182  1  0.60226922  -0.00776539  0.50860580  1
  Mo  Mo183  1  0.30393853  0.69918144  0.37491871  1
  Mo  Mo184  1  0.40142525  0.59738328  0.75631006  1
  Mo  Mo185  1  0.09492557  0.91155597  0.37409362  1
  Mo  Mo186  1  0.69951065  0.30337880  0.86607013  1
  Mo  Mo187  1  0.10179688  0.90346210  0.86974134  1
  Mo  Mo188  1  0.09003688  0.10903197  0.37547441  1
  Mo  Mo189  1  0.60885121  0.40356132  0.49754625  1
  Mo  Mo190  1  0.80314514  -0.00369596  0.49567777  1
  Mo  Mo191  1  0.50611777  0.50094198  0.12152194  1
  Mo  Mo192  1  0.58949690  0.78974815  0.50419140  1
  Mo  Mo193  1  0.00756828  0.19191870  0.50605423  1
  Mo  Mo194  1  0.50438399  0.87922431  0.61445179  1
  Mo  Mo195  1  0.08551175  0.30211275  0.12570503  1
  Mo  Mo196  1  0.20042322  0.19312777  0.74745948  1
  Mo  Mo197  1  0.09068358  0.70205971  0.36881655  1
  Mo  Mo198  1  0.69316411  0.90078052  0.61321159  1
  Mo  Mo199  1  0.09776151  0.30618314  0.87277085  1
