# generated using pymatgen
data_HfZrTaTiMo
_symmetry_space_group_name_H-M   'P 1'
_cell_length_a   15.20744872
_cell_length_b   15.20441406
_cell_length_c   16.84079137
_cell_angle_alpha   90.03027138
_cell_angle_beta   89.98341847
_cell_angle_gamma   90.06721378
_symmetry_Int_Tables_number   1
_chemical_formula_structural   HfZrTaTiMo
_chemical_formula_sum   'Hf40 Zr40 Ta40 Ti40 Mo40'
_cell_volume   3893.93023966
_cell_formula_units_Z   40
loop_
 _symmetry_equiv_pos_site_id
 _symmetry_equiv_pos_as_xyz
  1  'x, y, z'
loop_
 _atom_site_type_symbol
 _atom_site_label
 _atom_site_symmetry_multiplicity
 _atom_site_fract_x
 _atom_site_fract_y
 _atom_site_fract_z
 _atom_site_occupancy
  Hf  Hf0  1  0.60896807  0.80294367  0.00596634  1
  Hf  Hf1  1  0.41038674  0.01370231  0.23790817  1
  Hf  Hf2  1  0.20411579  0.01065201  0.49907539  1
  Hf  Hf3  1  -0.00555421  -0.00018738  0.22677372  1
  Hf  Hf4  1  0.51041597  0.50425885  0.60740668  1
  Hf  Hf5  1  0.09960785  0.51788863  0.87644635  1
  Hf  Hf6  1  0.90323511  0.29052190  0.11185348  1
  Hf  Hf7  1  0.79012452  0.38768540  0.24615824  1
  Hf  Hf8  1  0.49052733  0.29346125  0.39346836  1
  Hf  Hf9  1  0.28487492  0.90050497  0.12520127  1
  Hf  Hf10  1  0.57721330  0.37817961  0.00362118  1
  Hf  Hf11  1  0.00632195  0.39892335  0.23952808  1
  Hf  Hf12  1  0.00217883  0.61757022  0.00946657  1
  Hf  Hf13  1  -0.00328753  0.79570324  0.74698673  1
  Hf  Hf14  1  0.70948620  0.90146927  0.38036705  1
  Hf  Hf15  1  -0.00143867  0.01390568  0.76200465  1
  Hf  Hf16  1  0.09744791  0.10599392  0.37282449  1
  Hf  Hf17  1  0.39670761  0.59443933  0.73731940  1
  Hf  Hf18  1  0.10211549  0.31532874  0.88814474  1
  Hf  Hf19  1  0.80877772  0.57323877  0.74510102  1
  Hf  Hf20  1  0.39382018  0.80198672  -0.00219923  1
  Hf  Hf21  1  0.09710962  0.70565789  0.38825708  1
  Hf  Hf22  1  0.69222145  0.27351545  0.12318291  1
  Hf  Hf23  1  0.30205063  0.68776291  0.12611041  1
  Hf  Hf24  1  0.11571048  0.30016120  0.11844185  1
  Hf  Hf25  1  0.18542406  0.40458781  0.74002069  1
  Hf  Hf26  1  0.50135645  0.71207634  0.62258658  1
  Hf  Hf27  1  -0.00381843  0.21960998  0.76727653  1
  Hf  Hf28  1  0.90149311  0.10032435  0.37420679  1
  Hf  Hf29  1  0.89452182  0.70900564  0.38532207  1
  Hf  Hf30  1  0.88936618  0.69410755  0.61321007  1
  Hf  Hf31  1  0.00526314  0.58152498  0.73063046  1
  Hf  Hf32  1  0.90532063  0.49235718  0.36523686  1
  Hf  Hf33  1  0.29068572  0.30725909  0.38220571  1
  Hf  Hf34  1  0.29054131  0.70003081  0.86520572  1
  Hf  Hf35  1  0.31885719  0.32225333  0.13646812  1
  Hf  Hf36  1  0.30335922  0.11813659  0.36565684  1
  Hf  Hf37  1  0.60773455  0.60418002  0.75219196  1
  Hf  Hf38  1  0.39967149  0.01702337  0.00941798  1
  Hf  Hf39  1  0.49135507  0.70417855  0.38225393  1
  Zr  Zr40  1  0.19086156  0.00009614  0.25013803  1
  Zr  Zr41  1  0.31188423  0.90682394  0.37208654  1
  Zr  Zr42  1  0.50223571  0.70447484  0.87128310  1
  Zr  Zr43  1  0.50176032  0.30474783  0.61815856  1
  Zr  Zr44  1  0.71793511  0.69026212  0.88062661  1
  Zr  Zr45  1  0.49448900  0.48191946  0.86477253  1
  Zr  Zr46  1  0.80198905  0.00310298  0.74170254  1
  Zr  Zr47  1  0.69294015  0.88655659  0.63546067  1
  Zr  Zr48  1  0.39142684  0.58272437  0.26876113  1
  Zr  Zr49  1  0.70260700  0.67765826  0.12176094  1
  Zr  Zr50  1  0.00773314  0.81446628  0.25475872  1
  Zr  Zr51  1  0.80122006  0.00475171  0.51837419  1
  Zr  Zr52  1  0.40318674  0.80100229  0.24647150  1
  Zr  Zr53  1  0.10128034  0.11243711  0.63181953  1
  Zr  Zr54  1  0.10693267  0.72832742  0.12919973  1
  Zr  Zr55  1  0.60346819  -0.01129122  0.25148116  1
  Zr  Zr56  1  -0.00714206  0.58387970  0.50828493  1
  Zr  Zr57  1  0.58844071  0.39178052  0.26343790  1
  Zr  Zr58  1  0.10538864  0.10389928  0.10655914  1
  Zr  Zr59  1  0.60384058  0.79024155  0.24601425  1
  Zr  Zr60  1  0.60235032  0.58113947  -0.00200709  1
  Zr  Zr61  1  0.80148669  0.20598875  0.75707800  1
  Zr  Zr62  1  0.09884720  0.71264605  0.61414058  1
  Zr  Zr63  1  0.68619966  0.88708357  0.85941811  1
  Zr  Zr64  1  0.61964674  0.39608452  0.74363760  1
  Zr  Zr65  1  0.30009106  0.90684338  0.63169537  1
  Zr  Zr66  1  0.60713486  0.19253627  0.51495932  1
  Zr  Zr67  1  0.48301367  0.48827344  0.12895564  1
  Zr  Zr68  1  0.80220317  0.01288034  0.22841801  1
  Zr  Zr69  1  0.69526395  0.09004510  0.87882722  1
  Zr  Zr70  1  0.80896332  0.80868579  0.23385913  1
  Zr  Zr71  1  0.88700240  0.89372486  0.87966237  1
  Zr  Zr72  1  0.40883656  0.21714712  0.00043550  1
  Zr  Zr73  1  0.69361376  0.68618162  0.60806127  1
  Zr  Zr74  1  0.11864906  0.51405104  0.12916740  1
  Zr  Zr75  1  0.79294137  0.59886053  0.25761603  1
  Zr  Zr76  1  0.78398992  0.40683924  0.01474890  1
  Zr  Zr77  1  0.11041571  0.49522106  0.37965101  1
  Zr  Zr78  1  0.10251532  0.89437320  0.87237308  1
  Zr  Zr79  1  0.70533377  0.11161307  0.37584815  1
  Ta  Ta80  1  0.20482577  0.60886287  -0.00603610  1
  Ta  Ta81  1  0.69629327  0.69685280  0.38723389  1
  Ta  Ta82  1  0.29625549  0.49691478  0.86150249  1
  Ta  Ta83  1  0.30797916  0.10424137  0.86939344  1
  Ta  Ta84  1  0.39624469  0.80801289  0.49922434  1
  Ta  Ta85  1  0.59306409  0.18927087  0.25287750  1
  Ta  Ta86  1  0.22259177  0.41340887  -0.00219840  1
  Ta  Ta87  1  0.90459368  0.49083076  0.88164377  1
  Ta  Ta88  1  0.51019069  0.90874403  0.11450932  1
  Ta  Ta89  1  0.49718066  0.09325303  0.38398863  1
  Ta  Ta90  1  0.89598425  0.50966484  0.13270063  1
  Ta  Ta91  1  0.49890506  0.28548341  0.85293075  1
  Ta  Ta92  1  0.09575706  0.29658291  0.36730031  1
  Ta  Ta93  1  0.00015464  0.61153588  0.24774218  1
  Ta  Ta94  1  0.30199365  0.70666699  0.62206123  1
  Ta  Ta95  1  0.19999159  0.60147234  0.72923544  1
  Ta  Ta96  1  -0.00479283  0.19661770  0.23983688  1
  Ta  Ta97  1  0.38983290  0.58248737  -0.00640271  1
  Ta  Ta98  1  0.91662897  0.68827599  0.87155155  1
  Ta  Ta99  1  0.00258892  0.41311938  0.01142819  1
  Ta  Ta100  1  0.69257867  0.29252496  0.88249826  1
  Ta  Ta101  1  0.21682391  0.41361032  0.25498798  1
  Ta  Ta102  1  0.48942785  0.91363132  0.87172623  1
  Ta  Ta103  1  0.39683226  0.60408070  0.50230532  1
  Ta  Ta104  1  0.59163446  0.81205986  0.49206945  1
  Ta  Ta105  1  0.59604514  0.58504239  0.26883181  1
  Ta  Ta106  1  0.10406261  0.10868568  0.88659650  1
  Ta  Ta107  1  0.21758617  0.20513923  -0.00810967  1
  Ta  Ta108  1  0.10090182  0.91145004  0.63197767  1
  Ta  Ta109  1  0.58589758  0.00745446  0.73684975  1
  Ta  Ta110  1  0.80732081  0.39128279  0.48779451  1
  Ta  Ta111  1  0.20839386  0.00674294  0.76101045  1
  Ta  Ta112  1  -0.00232319  -0.00568030  -0.00241816  1
  Ta  Ta113  1  0.39595942  0.18695409  0.73060123  1
  Ta  Ta114  1  0.40920775  0.00240233  0.50560817  1
  Ta  Ta115  1  0.20415280  0.59983301  0.51069511  1
  Ta  Ta116  1  0.80879489  0.20717160  0.50718726  1
  Ta  Ta117  1  0.30839759  0.30543552  0.86188561  1
  Ta  Ta118  1  0.38315024  0.19126190  0.52145657  1
  Ta  Ta119  1  0.20152278  0.80986351  0.49391708  1
  Ti  Ti120  1  0.39773456  0.81022110  0.75696443  1
  Ti  Ti121  1  0.49919449  0.10175969  0.86533569  1
  Ti  Ti122  1  0.88983405  0.10621141  0.09591721  1
  Ti  Ti123  1  0.49829563  0.69147351  0.12299820  1
  Ti  Ti124  1  0.72268860  0.30431537  0.62568870  1
  Ti  Ti125  1  0.20171237  0.20377697  0.75279466  1
  Ti  Ti126  1  0.89665943  0.28724528  0.36338750  1
  Ti  Ti127  1  0.30076724  0.12726638  0.14102654  1
  Ti  Ti128  1  0.29644249  0.48769220  0.61188546  1
  Ti  Ti129  1  0.59285123  0.18030453  -0.00259656  1
  Ti  Ti130  1  0.00104997  0.82172126  0.50086268  1
  Ti  Ti131  1  0.20181610  0.61036514  0.26695297  1
  Ti  Ti132  1  0.70834011  0.48500233  0.87446503  1
  Ti  Ti133  1  0.20259275  0.80152240  0.27155403  1
  Ti  Ti134  1  0.59855783  -0.00078625  0.51337743  1
  Ti  Ti135  1  0.19137022  0.80083965  -0.01106899  1
  Ti  Ti136  1  0.79121516  0.58169479  0.48768374  1
  Ti  Ti137  1  0.19895117  0.80138583  0.74974140  1
  Ti  Ti138  1  0.19120484  0.21559263  0.51081099  1
  Ti  Ti139  1  0.71176483  0.49095441  0.61435032  1
  Ti  Ti140  1  -0.00266942  0.20553812  0.49963942  1
  Ti  Ti141  1  0.90937138  0.91012999  0.37998862  1
  Ti  Ti142  1  0.60299491  0.19309775  0.73351545  1
  Ti  Ti143  1  0.39206515  0.39112017  0.73105733  1
  Ti  Ti144  1  0.49435189  0.90037441  0.63397227  1
  Ti  Ti145  1  0.82090770  0.78879768  0.01484659  1
  Ti  Ti146  1  0.08276580  0.31283493  0.62757373  1
  Ti  Ti147  1  0.61587911  0.40320187  0.48588425  1
  Ti  Ti148  1  0.90612266  0.90043322  0.62824584  1
  Ti  Ti149  1  0.79903555  0.80687751  0.50348504  1
  Ti  Ti150  1  0.81053747  0.59415754  0.00422304  1
  Ti  Ti151  1  0.00290524  0.00701514  0.50836658  1
  Ti  Ti152  1  0.89345253  0.29931608  0.90035510  1
  Ti  Ti153  1  0.30906173  0.49264404  0.40192462  1
  Ti  Ti154  1  0.79731289  0.78031766  0.74561529  1
  Ti  Ti155  1  -0.00070233  0.38751061  0.49772558  1
  Ti  Ti156  1  0.78619210  -0.01425479  0.00590452  1
  Ti  Ti157  1  0.20767899  -0.00091803  -0.01288648  1
  Ti  Ti158  1  0.68230272  0.08085614  0.11111350  1
  Ti  Ti159  1  0.90348798  0.11564087  0.62656997  1
  Mo  Mo160  1  0.90669613  0.69542095  0.12803481  1
  Mo  Mo161  1  0.80438271  0.19491403  0.24148389  1
  Mo  Mo162  1  0.70147061  0.10576884  0.62941422  1
  Mo  Mo163  1  0.81366918  0.38820947  0.76163063  1
  Mo  Mo164  1  0.09183966  0.91052860  0.38626677  1
  Mo  Mo165  1  0.49906719  0.49600355  0.39971275  1
  Mo  Mo166  1  0.29130503  0.69650235  0.39170898  1
  Mo  Mo167  1  0.29190276  0.10097632  0.63013563  1
  Mo  Mo168  1  0.49905142  0.28623998  0.13712338  1
  Mo  Mo169  1  0.79111082  0.19164691  -0.00778092  1
  Mo  Mo170  1  0.28484202  0.29526416  0.63045749  1
  Mo  Mo171  1  0.90149361  0.10416608  0.89854750  1
  Mo  Mo172  1  0.29779866  0.50943267  0.12785628  1
  Mo  Mo173  1  0.39719327  0.00164367  0.75463889  1
  Mo  Mo174  1  0.10576760  0.90816997  0.10668442  1
  Mo  Mo175  1  0.49650609  0.09056395  0.62310764  1
  Mo  Mo176  1  0.70799040  0.29162099  0.37600839  1
  Mo  Mo177  1  0.00341937  0.20363543  -0.01183208  1
  Mo  Mo178  1  0.18934408  0.39633611  0.51065586  1
  Mo  Mo179  1  0.50632800  0.90935251  0.38361931  1
  Mo  Mo180  1  0.00037839  0.80223416  -0.00614096  1
  Mo  Mo181  1  0.58929050  0.80120722  0.75242595  1
  Mo  Mo182  1  0.40100656  0.40492098  0.26961402  1
  Mo  Mo183  1  0.39185656  0.39501792  0.51394661  1
  Mo  Mo184  1  0.30248361  0.90462302  0.87439567  1
  Mo  Mo185  1  0.70185052  0.89476295  0.11362087  1
  Mo  Mo186  1  0.89234703  0.47265622  0.61670900  1
  Mo  Mo187  1  -0.01516904  0.40158541  0.75608000  1
  Mo  Mo188  1  0.50660938  0.11109774  0.12650112  1
  Mo  Mo189  1  0.60007902  0.59807387  0.48535885  1
  Mo  Mo190  1  0.69340904  0.49305170  0.13162920  1
  Mo  Mo191  1  0.40788582  0.21127094  0.25554971  1
  Mo  Mo192  1  0.90508465  0.30021127  0.62210583  1
  Mo  Mo193  1  0.10005826  0.49337276  0.61377950  1
  Mo  Mo194  1  0.58861431  -0.00514312  -0.00523595  1
  Mo  Mo195  1  0.90830008  0.89745718  0.10363318  1
  Mo  Mo196  1  0.19346194  0.21512924  0.24980415  1
  Mo  Mo197  1  0.10080669  0.69658002  0.86418298  1
  Mo  Mo198  1  0.70059700  0.49375389  0.37941477  1
  Mo  Mo199  1  0.39589780  0.39724210  -0.01109701  1
