# generated using pymatgen
data_HfZrTaTiMo
_symmetry_space_group_name_H-M   'P 1'
_cell_length_a   15.18865029
_cell_length_b   15.17433054
_cell_length_c   16.79050993
_cell_angle_alpha   89.90905879
_cell_angle_beta   90.03316009
_cell_angle_gamma   89.92439700
_symmetry_Int_Tables_number   1
_chemical_formula_structural   HfZrTaTiMo
_chemical_formula_sum   'Hf40 Zr40 Ta40 Ti40 Mo40'
_cell_volume   3869.82753501
_cell_formula_units_Z   40
loop_
 _symmetry_equiv_pos_site_id
 _symmetry_equiv_pos_as_xyz
  1  'x, y, z'
loop_
 _atom_site_type_symbol
 _atom_site_label
 _atom_site_symmetry_multiplicity
 _atom_site_fract_x
 _atom_site_fract_y
 _atom_site_fract_z
 _atom_site_occupancy
  Hf  Hf0  1  0.68803062  0.89542103  0.63886905  1
  Hf  Hf1  1  0.59190065  0.40969633  0.23288116  1
  Hf  Hf2  1  0.89999138  0.29534730  0.11382646  1
  Hf  Hf3  1  0.69122112  0.51582461  0.36874871  1
  Hf  Hf4  1  0.58025598  0.00842931  0.76679513  1
  Hf  Hf5  1  0.00401648  0.01159055  0.24980701  1
  Hf  Hf6  1  0.81712545  0.80303026  0.76159607  1
  Hf  Hf7  1  0.80365196  -0.00251271  0.25458288  1
  Hf  Hf8  1  0.50163411  0.70070254  0.64359250  1
  Hf  Hf9  1  0.80478937  0.40422404  0.24331268  1
  Hf  Hf10  1  0.29967658  0.90628513  0.86927305  1
  Hf  Hf11  1  0.09199452  0.49669938  0.38006706  1
  Hf  Hf12  1  0.78511065  0.41238085  0.76139354  1
  Hf  Hf13  1  0.18700377  0.41058651  0.73990455  1
  Hf  Hf14  1  0.60619967  0.58398033  0.76552564  1
  Hf  Hf15  1  0.29795938  0.30665671  0.86709250  1
  Hf  Hf16  1  0.50253175  0.28165955  0.63705561  1
  Hf  Hf17  1  -0.00897789  0.60684680  0.49541139  1
  Hf  Hf18  1  0.59887387  0.60166658  0.50686081  1
  Hf  Hf19  1  0.82209596  0.59942446  0.76317109  1
  Hf  Hf20  1  0.59413724  -0.01981636  0.25517721  1
  Hf  Hf21  1  0.19480013  0.40097404  0.24136460  1
  Hf  Hf22  1  0.41212266  0.79718268  0.49375052  1
  Hf  Hf23  1  0.28590872  0.10965012  0.37234006  1
  Hf  Hf24  1  0.79081671  0.61520478  0.23945615  1
  Hf  Hf25  1  0.60853584  0.79930738  0.50328182  1
  Hf  Hf26  1  0.81677909  0.79826995  0.50989320  1
  Hf  Hf27  1  0.40116198  0.78347281  -0.01709277  1
  Hf  Hf28  1  0.78027048  0.20210667  0.76635325  1
  Hf  Hf29  1  0.00046877  0.80226536  0.25944803  1
  Hf  Hf30  1  0.58604546  0.19589534  -0.00916158  1
  Hf  Hf31  1  0.58990011  0.19825718  0.48698784  1
  Hf  Hf32  1  0.10352544  0.90520850  0.38932642  1
  Hf  Hf33  1  0.29571625  0.48174892  0.37389471  1
  Hf  Hf34  1  0.28878182  0.29699341  0.12137289  1
  Hf  Hf35  1  0.19834755  0.00237576  -0.00108302  1
  Hf  Hf36  1  0.40397402  0.40617427  0.74876509  1
  Hf  Hf37  1  0.08426198  0.10422530  0.38877675  1
  Hf  Hf38  1  0.69718715  0.08903231  0.12445288  1
  Hf  Hf39  1  0.67715652  0.10855535  0.62907008  1
  Zr  Zr40  1  0.10644882  0.69744554  0.62645500  1
  Zr  Zr41  1  0.29847118  0.29195486  0.63656909  1
  Zr  Zr42  1  0.79079678  -0.00191740  0.50978306  1
  Zr  Zr43  1  0.19850641  0.81269930  0.74573555  1
  Zr  Zr44  1  0.70553812  0.69708989  0.64340910  1
  Zr  Zr45  1  0.89695192  0.31148319  0.88211877  1
  Zr  Zr46  1  -0.00932557  0.19116047  0.74412450  1
  Zr  Zr47  1  0.21023342  0.59603930  0.49656423  1
  Zr  Zr48  1  0.80693452  0.00251285  0.73694328  1
  Zr  Zr49  1  0.09831314  0.50607165  0.87844486  1
  Zr  Zr50  1  0.30669009  0.90830070  0.37569761  1
  Zr  Zr51  1  0.48906423  0.50564189  0.36955547  1
  Zr  Zr52  1  0.89786834  0.07386360  0.87697240  1
  Zr  Zr53  1  0.20554245  0.61196008  0.00266978  1
  Zr  Zr54  1  0.40592186  0.00302762  -0.00023090  1
  Zr  Zr55  1  0.80420396  0.19368595  0.49416895  1
  Zr  Zr56  1  0.19661435  0.19290865  -0.01344340  1
  Zr  Zr57  1  0.80031200  0.40780646  0.49578595  1
  Zr  Zr58  1  0.68847022  0.31043113  0.62651246  1
  Zr  Zr59  1  0.70031691  0.30364129  0.36573963  1
  Zr  Zr60  1  0.11909729  0.30371892  0.38814747  1
  Zr  Zr61  1  0.09036965  0.30325849  0.10933670  1
  Zr  Zr62  1  0.00363650  -0.01438844  0.00857452  1
  Zr  Zr63  1  0.51571616  0.89603564  0.11039891  1
  Zr  Zr64  1  0.08653366  0.71002818  0.86344160  1
  Zr  Zr65  1  0.50641190  0.70156308  0.13009318  1
  Zr  Zr66  1  0.89154531  0.30531714  0.63002042  1
  Zr  Zr67  1  0.52820788  0.70284517  0.35381096  1
  Zr  Zr68  1  0.40256140  0.39994480  0.00750194  1
  Zr  Zr69  1  0.78830250  0.19233062  -0.01433902  1
  Zr  Zr70  1  0.69778022  0.29136932  0.12757364  1
  Zr  Zr71  1  0.30112318  0.89098512  0.12534538  1
  Zr  Zr72  1  0.08985584  0.30722394  0.87992582  1
  Zr  Zr73  1  0.38847690  0.39371105  0.50756715  1
  Zr  Zr74  1  0.82230183  0.80793070  -0.01414918  1
  Zr  Zr75  1  0.19256061  0.19361292  0.74808956  1
  Zr  Zr76  1  0.48664525  0.09413076  0.36970703  1
  Zr  Zr77  1  0.59696971  0.59626529  -0.00455771  1
  Zr  Zr78  1  0.00116398  0.59829247  0.24520865  1
  Zr  Zr79  1  0.39521881  0.19624117  0.00606348  1
  Ta  Ta80  1  0.90298860  0.90938013  0.38188361  1
  Ta  Ta81  1  -0.01435857  0.00229203  0.51882440  1
  Ta  Ta82  1  0.58935689  -0.00768877  0.49498808  1
  Ta  Ta83  1  0.69975937  0.08969082  0.37198793  1
  Ta  Ta84  1  0.59713394  0.19531420  0.25406221  1
  Ta  Ta85  1  -0.00249760  0.39785137  0.24789269  1
  Ta  Ta86  1  0.80489048  0.60268957  0.00042980  1
  Ta  Ta87  1  0.30159591  0.70039115  0.13543772  1
  Ta  Ta88  1  0.50627732  0.49439979  0.62879228  1
  Ta  Ta89  1  0.39739766  0.59233655  0.00124940  1
  Ta  Ta90  1  0.39539923  0.39895257  0.23121681  1
  Ta  Ta91  1  -0.00137927  0.18800595  -0.00768461  1
  Ta  Ta92  1  0.40003692  0.00182021  0.51091294  1
  Ta  Ta93  1  0.70325761  0.88044203  0.37237801  1
  Ta  Ta94  1  0.21288768  0.79566984  0.49719341  1
  Ta  Ta95  1  0.20636703  0.80048455  0.25900164  1
  Ta  Ta96  1  0.31053077  0.70358111  0.63392044  1
  Ta  Ta97  1  0.39606933  0.20354298  0.24074070  1
  Ta  Ta98  1  0.70412946  0.70131819  0.88201053  1
  Ta  Ta99  1  0.28648981  0.09432181  0.13821407  1
  Ta  Ta100  1  0.48444765  0.30381482  0.36541096  1
  Ta  Ta101  1  0.30252726  0.51591711  0.63315205  1
  Ta  Ta102  1  0.20272471  0.60162672  0.24791438  1
  Ta  Ta103  1  0.70351029  0.71097593  0.10870004  1
  Ta  Ta104  1  -0.01351575  0.41760879  0.74028250  1
  Ta  Ta105  1  0.31267350  0.69260706  0.36206590  1
  Ta  Ta106  1  0.41417816  0.80740137  0.25550347  1
  Ta  Ta107  1  0.91707332  0.29982340  0.37647728  1
  Ta  Ta108  1  0.58986545  0.40141307  0.49583224  1
  Ta  Ta109  1  0.71030179  0.89405339  0.11648447  1
  Ta  Ta110  1  0.19149507  0.80483079  -0.00629140  1
  Ta  Ta111  1  0.79907770  0.60381518  0.50177119  1
  Ta  Ta112  1  0.90240457  0.89867161  0.12987858  1
  Ta  Ta113  1  -0.00115478  0.20170640  0.51581112  1
  Ta  Ta114  1  0.78750918  0.41179764  0.00298885  1
  Ta  Ta115  1  0.89482041  0.50125786  0.37121220  1
  Ta  Ta116  1  0.39458143  -0.00075828  0.24287164  1
  Ta  Ta117  1  0.01032264  -0.01924965  0.72911824  1
  Ta  Ta118  1  0.50522430  0.48352847  0.87777256  1
  Ta  Ta119  1  -0.00188722  0.61544897  0.01051805  1
  Ti  Ti120  1  0.10861999  0.70184965  0.37717174  1
  Ti  Ti121  1  0.20383866  0.00732935  0.51359232  1
  Ti  Ti122  1  0.30903244  0.10096141  0.85938183  1
  Ti  Ti123  1  0.71362088  0.91303339  0.87714118  1
  Ti  Ti124  1  0.09950307  0.10246538  0.61934509  1
  Ti  Ti125  1  0.59756063  0.80113728  0.77949224  1
  Ti  Ti126  1  -0.00021327  0.40089780  0.51216083  1
  Ti  Ti127  1  0.90237127  0.50110479  0.11793047  1
  Ti  Ti128  1  0.93843477  0.88298247  0.87155403  1
  Ti  Ti129  1  0.10811859  0.90073806  0.13716750  1
  Ti  Ti130  1  0.49902642  0.10112212  0.13249074  1
  Ti  Ti131  1  0.89130837  0.70660168  0.37222439  1
  Ti  Ti132  1  0.18847861  0.19726824  0.24993603  1
  Ti  Ti133  1  0.39404139  0.19354890  0.50164989  1
  Ti  Ti134  1  0.09665000  0.88858206  0.60344630  1
  Ti  Ti135  1  0.09920989  0.50449056  0.11854220  1
  Ti  Ti136  1  0.90279175  0.71181793  0.12590481  1
  Ti  Ti137  1  0.49034430  0.28464003  0.85971571  1
  Ti  Ti138  1  0.10578430  0.71130894  0.13039909  1
  Ti  Ti139  1  0.70318533  0.50075115  0.62408202  1
  Ti  Ti140  1  -0.00416170  0.20613347  0.25069839  1
  Ti  Ti141  1  0.91425886  0.69703112  0.62997242  1
  Ti  Ti142  1  0.60935230  -0.00201392  -0.01819469  1
  Ti  Ti143  1  0.90843270  0.50693244  0.88964025  1
  Ti  Ti144  1  0.30477230  0.51655809  0.86453714  1
  Ti  Ti145  1  0.40164329  0.59115731  0.23682198  1
  Ti  Ti146  1  0.49378485  0.90358601  0.63543648  1
  Ti  Ti147  1  0.59397031  0.40045264  0.01905438  1
  Ti  Ti148  1  0.30445164  0.89776156  0.62225448  1
  Ti  Ti149  1  0.09091208  0.50497473  0.62203554  1
  Ti  Ti150  1  0.80937292  0.19374900  0.25942704  1
  Ti  Ti151  1  0.09888043  0.08086030  0.86395353  1
  Ti  Ti152  1  0.20303477  0.20881894  0.51309992  1
  Ti  Ti153  1  0.20426903  0.00368145  0.73222911  1
  Ti  Ti154  1  0.67430973  0.31927713  0.87934402  1
  Ti  Ti155  1  0.09562672  0.10464110  0.12662573  1
  Ti  Ti156  1  0.40664639  0.80033337  0.76589632  1
  Ti  Ti157  1  0.89665219  0.09918096  0.11828455  1
  Ti  Ti158  1  0.40420443  0.60219281  0.50230494  1
  Ti  Ti159  1  0.20391225  0.41372427  0.00033330  1
  Mo  Mo160  1  0.60578687  0.60005839  0.22974744  1
  Mo  Mo161  1  0.70411437  0.49769899  0.88929708  1
  Mo  Mo162  1  0.50496144  0.89276239  0.88150274  1
  Mo  Mo163  1  0.29327236  0.50851250  0.12626227  1
  Mo  Mo164  1  0.09450237  0.30642190  0.61942420  1
  Mo  Mo165  1  0.40559762  0.17421323  0.75000409  1
  Mo  Mo166  1  0.50016201  0.29086170  0.13338044  1
  Mo  Mo167  1  0.38945524  -0.01140574  0.74058226  1
  Mo  Mo168  1  0.59689397  0.39659752  0.75536085  1
  Mo  Mo169  1  0.00606987  0.59307201  0.74544345  1
  Mo  Mo170  1  0.80743471  0.80587817  0.24693017  1
  Mo  Mo171  1  0.00621054  0.79923221  0.48490298  1
  Mo  Mo172  1  0.49491698  0.50204477  0.12177164  1
  Mo  Mo173  1  0.89596286  0.51001235  0.62199720  1
  Mo  Mo174  1  0.60776533  0.80379239  -0.02293495  1
  Mo  Mo175  1  0.29720866  0.69529588  0.86384374  1
  Mo  Mo176  1  0.19249640  0.40071409  0.52395618  1
  Mo  Mo177  1  -0.00102172  0.79961475  0.73981446  1
  Mo  Mo178  1  0.59437371  0.19995477  0.76782733  1
  Mo  Mo179  1  0.79927605  -0.00302387  0.00635575  1
  Mo  Mo180  1  0.89905025  0.10551808  0.37664990  1
  Mo  Mo181  1  0.89766215  0.09994780  0.63158087  1
  Mo  Mo182  1  0.50558435  0.89962822  0.37482144  1
  Mo  Mo183  1  0.90846165  0.69377982  0.88065070  1
  Mo  Mo184  1  0.01760941  0.79680764  0.01363479  1
  Mo  Mo185  1  0.48727356  0.09412804  0.87676295  1
  Mo  Mo186  1  0.69325118  0.10011596  0.87722521  1
  Mo  Mo187  1  0.62727178  0.79340371  0.24408497  1
  Mo  Mo188  1  0.70380648  0.50848888  0.11900794  1
  Mo  Mo189  1  0.30685768  0.29116142  0.36857044  1
  Mo  Mo190  1  0.29777592  0.09194654  0.62027286  1
  Mo  Mo191  1  0.49325509  0.68712727  0.86749271  1
  Mo  Mo192  1  0.49270499  0.09190124  0.62077552  1
  Mo  Mo193  1  0.10490587  0.91003207  0.86845030  1
  Mo  Mo194  1  0.71654690  0.69846123  0.37744192  1
  Mo  Mo195  1  0.90761775  0.88851685  0.62128030  1
  Mo  Mo196  1  0.19510633  0.00300999  0.24873737  1
  Mo  Mo197  1  0.20882488  0.60169145  0.74758421  1
  Mo  Mo198  1  -0.00847036  0.41483194  0.00729334  1
  Mo  Mo199  1  0.40358436  0.60319602  0.75672645  1
