# generated using pymatgen
data_HfZrTaTiMo
_symmetry_space_group_name_H-M   'P 1'
_cell_length_a   15.20777569
_cell_length_b   15.20690752
_cell_length_c   16.87795173
_cell_angle_alpha   89.94379617
_cell_angle_beta   89.96632700
_cell_angle_gamma   90.01339893
_symmetry_Int_Tables_number   1
_chemical_formula_structural   HfZrTaTiMo
_chemical_formula_sum   'Hf40 Zr40 Ta40 Ti40 Mo40'
_cell_volume   3903.24711803
_cell_formula_units_Z   40
loop_
 _symmetry_equiv_pos_site_id
 _symmetry_equiv_pos_as_xyz
  1  'x, y, z'
loop_
 _atom_site_type_symbol
 _atom_site_label
 _atom_site_symmetry_multiplicity
 _atom_site_fract_x
 _atom_site_fract_y
 _atom_site_fract_z
 _atom_site_occupancy
  Hf  Hf0  1  0.78950300  0.80867018  0.73736718  1
  Hf  Hf1  1  0.69853859  0.90999414  0.86251506  1
  Hf  Hf2  1  0.20139967  0.38952943  -0.00184941  1
  Hf  Hf3  1  0.01545042  0.39789486  0.24827259  1
  Hf  Hf4  1  0.90805420  0.28894173  0.36260446  1
  Hf  Hf5  1  0.40105614  0.21087538  -0.00891535  1
  Hf  Hf6  1  -0.00879309  0.78656844  0.23560524  1
  Hf  Hf7  1  0.59851439  -0.00941353  0.00560657  1
  Hf  Hf8  1  0.31636494  0.29165774  0.12856047  1
  Hf  Hf9  1  0.48409929  0.11486145  0.11790435  1
  Hf  Hf10  1  0.68561744  0.70189348  0.87165080  1
  Hf  Hf11  1  0.38598855  0.02696168  0.24860420  1
  Hf  Hf12  1  0.40834242  0.59791103  0.73553919  1
  Hf  Hf13  1  0.80301335  0.60159361  0.50561712  1
  Hf  Hf14  1  0.29534726  0.90574808  0.87704325  1
  Hf  Hf15  1  0.78943516  -0.00643074  0.51399708  1
  Hf  Hf16  1  0.00629590  0.59313879  0.51433407  1
  Hf  Hf17  1  0.90218513  0.50380703  0.12086352  1
  Hf  Hf18  1  0.19614298  0.79792542  0.01171018  1
  Hf  Hf19  1  0.39710078  0.61533354  0.49750018  1
  Hf  Hf20  1  0.39044400  0.38981070  0.27182119  1
  Hf  Hf21  1  0.80068949  0.20672790  0.50524380  1
  Hf  Hf22  1  0.51607793  0.51532589  0.60661181  1
  Hf  Hf23  1  0.81311010  0.60196458  -0.00922983  1
  Hf  Hf24  1  0.59679289  0.20000943  0.25645676  1
  Hf  Hf25  1  0.89407785  0.30036065  0.86812285  1
  Hf  Hf26  1  0.01517780  0.59838000  0.24633750  1
  Hf  Hf27  1  0.80850553  0.20183928  0.00114073  1
  Hf  Hf28  1  0.19651068  0.79949859  0.50301399  1
  Hf  Hf29  1  0.59386717  0.00464580  0.51578993  1
  Hf  Hf30  1  0.80151071  0.40355084  0.25776010  1
  Hf  Hf31  1  0.60275693  0.40173181  0.26670064  1
  Hf  Hf32  1  0.80976397  0.61937134  0.25367296  1
  Hf  Hf33  1  0.30487930  0.50344411  0.87368846  1
  Hf  Hf34  1  0.30017785  0.69768417  0.88230563  1
  Hf  Hf35  1  0.09962418  0.87416344  0.36462725  1
  Hf  Hf36  1  0.09543929  0.88627040  0.86985755  1
  Hf  Hf37  1  0.90216892  0.70542370  0.85682332  1
  Hf  Hf38  1  0.10750552  0.08975252  0.37606681  1
  Hf  Hf39  1  0.09012161  0.28804916  0.63251912  1
  Zr  Zr40  1  0.49240712  0.31664451  0.61612694  1
  Zr  Zr41  1  0.49870780  0.09910616  0.87067884  1
  Zr  Zr42  1  0.89600249  0.09143032  0.37294236  1
  Zr  Zr43  1  0.28977656  0.09805167  0.88717973  1
  Zr  Zr44  1  0.69050153  0.49884345  0.12409497  1
  Zr  Zr45  1  0.61878530  0.40660968  0.48968870  1
  Zr  Zr46  1  0.50349801  0.72197860  0.36548533  1
  Zr  Zr47  1  0.00980289  -0.01716605  0.50411685  1
  Zr  Zr48  1  0.30340141  0.68849498  0.13689905  1
  Zr  Zr49  1  0.58378217  -0.00355870  0.24773352  1
  Zr  Zr50  1  0.39883161  0.80202196  0.75080762  1
  Zr  Zr51  1  0.89024286  0.88301283  0.38062811  1
  Zr  Zr52  1  0.90610691  0.10517219  0.62090449  1
  Zr  Zr53  1  0.22617083  0.19223694  0.25564769  1
  Zr  Zr54  1  -0.00085567  0.39872150  0.00133767  1
  Zr  Zr55  1  0.01372398  0.18754216  0.00368559  1
  Zr  Zr56  1  0.41067601  0.42162308  0.00532198  1
  Zr  Zr57  1  0.19795647  0.18370571  0.75588558  1
  Zr  Zr58  1  0.20427805  0.59891336  0.73605940  1
  Zr  Zr59  1  0.27715808  0.69986706  0.35584953  1
  Zr  Zr60  1  0.48260162  0.51557094  0.14930720  1
  Zr  Zr61  1  0.70444423  0.11371417  0.87106155  1
  Zr  Zr62  1  0.60265052  -0.00421861  0.72598596  1
  Zr  Zr63  1  0.58019482  0.60402619  0.00417496  1
  Zr  Zr64  1  0.51210680  0.31823606  0.86592103  1
  Zr  Zr65  1  0.50636080  0.72073362  0.14343931  1
  Zr  Zr66  1  0.21188913  0.38905783  0.74873346  1
  Zr  Zr67  1  0.60022617  0.20713862  0.73270367  1
  Zr  Zr68  1  0.30251200  0.90411148  0.12614838  1
  Zr  Zr69  1  0.09937603  0.68109012  0.87059475  1
  Zr  Zr70  1  0.20262487  0.37881495  0.49994028  1
  Zr  Zr71  1  -0.00260175  0.39403042  0.49322659  1
  Zr  Zr72  1  0.71180018  0.71712430  0.11768283  1
  Zr  Zr73  1  0.20377438  0.59206503  0.51305200  1
  Zr  Zr74  1  0.42086846  0.80202965  0.00256035  1
  Zr  Zr75  1  0.90495358  0.09006387  0.13424530  1
  Zr  Zr76  1  0.50314490  0.51717545  0.37730661  1
  Zr  Zr77  1  -0.00807676  0.77861319  0.01162149  1
  Zr  Zr78  1  0.79707996  0.81765836  -0.01503154  1
  Zr  Zr79  1  0.70088247  0.10124124  0.12355327  1
  Ta  Ta80  1  0.01167455  0.19701051  0.49636536  1
  Ta  Ta81  1  0.10452895  0.08820928  0.62523192  1
  Ta  Ta82  1  0.49004759  0.10510315  0.39038490  1
  Ta  Ta83  1  0.69173325  0.89810278  0.38617745  1
  Ta  Ta84  1  0.29743702  0.90666495  0.36776843  1
  Ta  Ta85  1  0.71756158  0.32013378  0.62459443  1
  Ta  Ta86  1  0.39145043  0.21296438  0.74373178  1
  Ta  Ta87  1  0.69598165  0.49163660  0.87422527  1
  Ta  Ta88  1  0.80040904  0.20893548  0.73949250  1
  Ta  Ta89  1  0.11592996  0.50685121  0.37420685  1
  Ta  Ta90  1  0.39097475  0.40607609  0.48272680  1
  Ta  Ta91  1  0.89460178  0.69176393  0.63381861  1
  Ta  Ta92  1  0.19087141  -0.00664570  0.24633510  1
  Ta  Ta93  1  0.89449723  0.47584624  0.63768862  1
  Ta  Ta94  1  0.38798559  0.00824448  0.73828357  1
  Ta  Ta95  1  0.60953213  0.22435281  -0.00089750  1
  Ta  Ta96  1  0.61270523  0.61403165  0.25859053  1
  Ta  Ta97  1  0.51571210  0.31279888  0.12645910  1
  Ta  Ta98  1  -0.00267364  0.58748133  0.73744251  1
  Ta  Ta99  1  0.31694767  0.47975584  0.62479487  1
  Ta  Ta100  1  0.11611094  0.29418037  0.13084281  1
  Ta  Ta101  1  0.90235804  0.49975798  0.86333654  1
  Ta  Ta102  1  0.50550618  0.51328372  0.86808790  1
  Ta  Ta103  1  -0.00668662  0.19043316  0.75857437  1
  Ta  Ta104  1  0.78789729  0.39381150  -0.00336557  1
  Ta  Ta105  1  0.08996282  0.08091050  0.87686965  1
  Ta  Ta106  1  0.90152152  0.29635921  0.13520558  1
  Ta  Ta107  1  0.87820513  0.89121867  0.13120676  1
  Ta  Ta108  1  0.39074928  0.00098611  0.50640465  1
  Ta  Ta109  1  0.48875130  0.88875868  0.62266275  1
  Ta  Ta110  1  0.09158941  0.90439723  0.12740535  1
  Ta  Ta111  1  0.79189350  0.59379264  0.74714594  1
  Ta  Ta112  1  0.37769057  0.20432032  0.50351844  1
  Ta  Ta113  1  0.78396964  -0.01551453  0.25505480  1
  Ta  Ta114  1  0.50436339  0.89751310  0.86455888  1
  Ta  Ta115  1  0.28064733  0.49207553  0.14339685  1
  Ta  Ta116  1  0.00063060  -0.00519820  0.74624919  1
  Ta  Ta117  1  0.30465045  0.71952762  0.62507310  1
  Ta  Ta118  1  0.50116334  0.29169204  0.39336626  1
  Ta  Ta119  1  0.60128277  0.80203378  0.50741954  1
  Ti  Ti120  1  0.59968462  0.61392548  0.74425993  1
  Ti  Ti121  1  0.91148141  0.69736643  0.38566303  1
  Ti  Ti122  1  0.19061640  0.58827606  0.01050286  1
  Ti  Ti123  1  0.11201178  0.29141232  0.36994235  1
  Ti  Ti124  1  0.09975832  0.70268341  0.63543016  1
  Ti  Ti125  1  0.81052745  0.40232125  0.49031186  1
  Ti  Ti126  1  0.39882559  -0.00242312  0.00337265  1
  Ti  Ti127  1  0.71034807  0.51646800  0.37732863  1
  Ti  Ti128  1  0.28862073  0.10078562  0.62504222  1
  Ti  Ti129  1  0.60448116  0.19922782  0.51348090  1
  Ti  Ti130  1  -0.00796307  -0.01584135  -0.00027185  1
  Ti  Ti131  1  0.11780403  0.89525779  0.63823219  1
  Ti  Ti132  1  0.70675804  0.30392751  0.13063261  1
  Ti  Ti133  1  0.01629234  0.18957437  0.24326805  1
  Ti  Ti134  1  0.79847504  0.19244880  0.25088070  1
  Ti  Ti135  1  0.70405783  0.29078244  0.37810269  1
  Ti  Ti136  1  0.71149011  0.71275410  0.38660467  1
  Ti  Ti137  1  -0.00650163  -0.00828259  0.25029238  1
  Ti  Ti138  1  0.49451669  0.91187416  0.38213737  1
  Ti  Ti139  1  -0.00322350  0.78689656  0.51220538  1
  Ti  Ti140  1  0.40012196  0.81973968  0.25155766  1
  Ti  Ti141  1  0.30501155  0.30275227  0.87410186  1
  Ti  Ti142  1  0.90177553  0.89232960  0.62259208  1
  Ti  Ti143  1  0.20743882  -0.00243576  0.50022815  1
  Ti  Ti144  1  0.00141335  0.79960297  0.74058232  1
  Ti  Ti145  1  0.69099482  0.09642576  0.37910552  1
  Ti  Ti146  1  0.80848390  0.00489035  -0.00737721  1
  Ti  Ti147  1  0.68760559  0.70339531  0.62142388  1
  Ti  Ti148  1  0.80643597  0.01077226  0.73980506  1
  Ti  Ti149  1  0.49643126  0.70111283  0.87528661  1
  Ti  Ti150  1  0.60773175  0.41785579  0.74210307  1
  Ti  Ti151  1  0.48451325  0.10794892  0.62089824  1
  Ti  Ti152  1  0.39429872  0.81165062  0.49629546  1
  Ti  Ti153  1  0.62416805  0.81460488  0.25212531  1
  Ti  Ti154  1  0.09881545  0.48453866  0.63374110  1
  Ti  Ti155  1  0.91034572  0.50444673  0.37373354  1
  Ti  Ti156  1  0.26957347  0.09968476  0.09886558  1
  Ti  Ti157  1  0.10113765  0.29149189  0.87130501  1
  Ti  Ti158  1  0.70661384  0.50981609  0.62326622  1
  Ti  Ti159  1  0.09516526  0.48981295  0.86739426  1
  Mo  Mo160  1  0.42036375  0.20475938  0.26209143  1
  Mo  Mo161  1  0.00276352  0.39480572  0.75806373  1
  Mo  Mo162  1  0.90397563  0.30070735  0.63020590  1
  Mo  Mo163  1  0.79383765  0.40441164  0.75288124  1
  Mo  Mo164  1  0.38588587  0.59839136  0.00332147  1
  Mo  Mo165  1  0.70018330  0.89734064  0.62308389  1
  Mo  Mo166  1  0.19218935  0.20507564  -0.00500872  1
  Mo  Mo167  1  0.19309165  0.59451112  0.24700511  1
  Mo  Mo168  1  0.61177337  0.61548570  0.49205974  1
  Mo  Mo169  1  0.90010520  0.69677442  0.12008674  1
  Mo  Mo170  1  0.29816482  0.91031788  0.62338133  1
  Mo  Mo171  1  0.79613805  0.80006568  0.25758856  1
  Mo  Mo172  1  0.80041408  0.79550828  0.51831610  1
  Mo  Mo173  1  0.19005456  0.80072933  0.23507433  1
  Mo  Mo174  1  0.19614020  0.39270717  0.25920591  1
  Mo  Mo175  1  0.00663867  0.58640778  -0.00629112  1
  Mo  Mo176  1  0.19768632  0.79944896  0.74432118  1
  Mo  Mo177  1  0.17511094  0.00038778  0.00395799  1
  Mo  Mo178  1  0.59286544  0.79460329  0.74028403  1
  Mo  Mo179  1  0.10516947  0.49280800  0.12204785  1
  Mo  Mo180  1  0.89993389  0.09120993  0.86723178  1
  Mo  Mo181  1  0.29555555  0.49992782  0.36585485  1
  Mo  Mo182  1  0.90534674  0.91736343  0.86274547  1
  Mo  Mo183  1  0.69736625  0.11285957  0.62654540  1
  Mo  Mo184  1  0.49993146  0.70656112  0.61431654  1
  Mo  Mo185  1  0.30216016  0.29160897  0.62573049  1
  Mo  Mo186  1  0.10602874  0.68778096  0.12084563  1
  Mo  Mo187  1  0.69850979  0.90549285  0.12393859  1
  Mo  Mo188  1  0.70208348  0.30942600  0.86844946  1
  Mo  Mo189  1  0.30097491  0.28724641  0.38022313  1
  Mo  Mo190  1  0.59742157  0.80963143  -0.00851374  1
  Mo  Mo191  1  0.39812796  0.60202525  0.26314555  1
  Mo  Mo192  1  0.19835390  -0.00873878  0.74762455  1
  Mo  Mo193  1  0.19231791  0.18498386  0.50280920  1
  Mo  Mo194  1  0.60519366  0.40344768  0.00248056  1
  Mo  Mo195  1  0.50154248  0.91020187  0.13040105  1
  Mo  Mo196  1  0.41230686  0.40476876  0.74878888  1
  Mo  Mo197  1  0.08592055  0.69552179  0.38287464  1
  Mo  Mo198  1  0.30231650  0.09051720  0.38407436  1
  Mo  Mo199  1  0.09912820  0.09239367  0.13270681  1
