# generated using pymatgen
data_HfZrTaTiMo
_symmetry_space_group_name_H-M   'P 1'
_cell_length_a   15.20123881
_cell_length_b   15.21405974
_cell_length_c   16.84722659
_cell_angle_alpha   90.01607268
_cell_angle_beta   89.99687649
_cell_angle_gamma   90.03335023
_symmetry_Int_Tables_number   1
_chemical_formula_structural   HfZrTaTiMo
_chemical_formula_sum   'Hf40 Zr40 Ta40 Ti40 Mo40'
_cell_volume   3896.30032488
_cell_formula_units_Z   40
loop_
 _symmetry_equiv_pos_site_id
 _symmetry_equiv_pos_as_xyz
  1  'x, y, z'
loop_
 _atom_site_type_symbol
 _atom_site_label
 _atom_site_symmetry_multiplicity
 _atom_site_fract_x
 _atom_site_fract_y
 _atom_site_fract_z
 _atom_site_occupancy
  Hf  Hf0  1  0.19107462  0.20639758  -0.01166212  1
  Hf  Hf1  1  0.09938216  0.09805388  0.85946308  1
  Hf  Hf2  1  0.41414119  0.60308339  0.24627312  1
  Hf  Hf3  1  0.60979467  0.00423720  0.74732494  1
  Hf  Hf4  1  0.70587473  0.88860829  0.87943865  1
  Hf  Hf5  1  -0.01325193  -0.01410804  0.75722683  1
  Hf  Hf6  1  0.88032875  0.08274880  0.63072490  1
  Hf  Hf7  1  0.01813445  -0.01369661  0.23948658  1
  Hf  Hf8  1  0.09693220  0.28547510  0.37233830  1
  Hf  Hf9  1  0.70172198  0.09806747  0.88220366  1
  Hf  Hf10  1  0.49721539  0.50168378  0.40446286  1
  Hf  Hf11  1  -0.00898380  0.18079551  -0.00027889  1
  Hf  Hf12  1  0.89183546  0.49322240  0.12673368  1
  Hf  Hf13  1  0.59674125  -0.00776187  0.00704171  1
  Hf  Hf14  1  0.38826981  0.19077567  -0.02045954  1
  Hf  Hf15  1  0.49712585  0.31058681  0.11713688  1
  Hf  Hf16  1  0.11133664  0.89163726  0.88336798  1
  Hf  Hf17  1  0.81071792  -0.00164794  0.01248374  1
  Hf  Hf18  1  0.07893797  0.31066274  0.85859464  1
  Hf  Hf19  1  0.80575399  0.79096943  0.25268293  1
  Hf  Hf20  1  0.40616846  0.19093048  0.26174227  1
  Hf  Hf21  1  -0.00355033  0.39218560  0.50638856  1
  Hf  Hf22  1  0.70249586  0.71053497  0.61377914  1
  Hf  Hf23  1  0.48347845  0.08031477  0.86824271  1
  Hf  Hf24  1  0.01615145  0.78979557  0.23889496  1
  Hf  Hf25  1  0.29076614  0.29577135  0.38155922  1
  Hf  Hf26  1  0.18980514  -0.01564714  0.52202944  1
  Hf  Hf27  1  0.68798816  0.29084085  0.62827176  1
  Hf  Hf28  1  0.78877336  0.18993895  0.50560138  1
  Hf  Hf29  1  0.80275717  0.40032142  0.51289046  1
  Hf  Hf30  1  0.10162066  0.50051238  0.37347635  1
  Hf  Hf31  1  0.29386857  0.30810096  0.85802594  1
  Hf  Hf32  1  0.59539293  0.41463036  -0.00580681  1
  Hf  Hf33  1  0.50669420  0.29327247  0.39484432  1
  Hf  Hf34  1  -0.00228184  0.60854908  0.49134339  1
  Hf  Hf35  1  0.19508949  0.40621587  0.00122266  1
  Hf  Hf36  1  0.89220469  0.28704871  0.36791479  1
  Hf  Hf37  1  0.59478753  0.80962733  0.74283543  1
  Hf  Hf38  1  0.69661540  0.11127256  0.35947980  1
  Hf  Hf39  1  0.68503654  0.89537854  0.35968059  1
  Zr  Zr40  1  0.39921559  0.18486200  0.50848986  1
  Zr  Zr41  1  0.59287225  0.42605834  0.24411611  1
  Zr  Zr42  1  0.80691510  -0.00713895  0.48269059  1
  Zr  Zr43  1  0.82046059  0.40283961  0.73082930  1
  Zr  Zr44  1  0.10140077  0.70997938  0.63410177  1
  Zr  Zr45  1  0.69591517  0.31397749  0.38144830  1
  Zr  Zr46  1  0.09470375  0.28937173  0.13537607  1
  Zr  Zr47  1  0.51250868  0.70451106  0.88126573  1
  Zr  Zr48  1  0.19593476  0.42519797  0.74205771  1
  Zr  Zr49  1  0.10130423  0.08112326  0.38086266  1
  Zr  Zr50  1  0.68446921  0.51692451  0.38942923  1
  Zr  Zr51  1  0.81314168  0.79516534  0.47778156  1
  Zr  Zr52  1  0.08976614  0.09297068  0.63776224  1
  Zr  Zr53  1  0.29934798  0.50781942  0.38224892  1
  Zr  Zr54  1  0.60304989  0.60807660  0.73974989  1
  Zr  Zr55  1  0.40031305  0.59726341  0.74902721  1
  Zr  Zr56  1  0.39983215  0.39908055  0.25683980  1
  Zr  Zr57  1  0.30866201  0.49834145  0.11615095  1
  Zr  Zr58  1  0.52007714  0.70743151  0.38295621  1
  Zr  Zr59  1  0.10279839  0.68943571  0.87278927  1
  Zr  Zr60  1  0.30304665  0.71539215  0.11068978  1
  Zr  Zr61  1  0.61353553  0.78680976  0.02389015  1
  Zr  Zr62  1  0.19725719  0.39961158  0.51179371  1
  Zr  Zr63  1  0.48249811  0.90917617  0.37744448  1
  Zr  Zr64  1  0.70465727  0.11250548  0.12709000  1
  Zr  Zr65  1  -0.00831046  0.38620791  0.00774520  1
  Zr  Zr66  1  0.29808056  0.28395849  0.12651204  1
  Zr  Zr67  1  -0.00802897  0.39723927  0.24911165  1
  Zr  Zr68  1  0.89477280  0.69173156  0.62979951  1
  Zr  Zr69  1  0.30345552  0.08401824  0.38910716  1
  Zr  Zr70  1  -0.00699005  0.57941627  0.75087754  1
  Zr  Zr71  1  0.70489086  0.52304244  0.86661467  1
  Zr  Zr72  1  0.20221957  0.61443294  0.24370924  1
  Zr  Zr73  1  0.59645290  0.02022251  0.50306072  1
  Zr  Zr74  1  0.32483820  0.91278539  0.85251217  1
  Zr  Zr75  1  0.48713116  0.10526355  0.11696888  1
  Zr  Zr76  1  0.70743916  0.31663830  0.86737717  1
  Zr  Zr77  1  0.79552297  0.59531987  0.25712356  1
  Zr  Zr78  1  0.30242809  0.71139725  0.87764946  1
  Zr  Zr79  1  0.22647620  0.01149857  -0.01451367  1
  Ta  Ta80  1  0.09560718  0.51054735  0.12934584  1
  Ta  Ta81  1  0.70237065  0.51171671  0.61772647  1
  Ta  Ta82  1  0.69675040  0.30795149  0.11691237  1
  Ta  Ta83  1  0.88758123  0.69120290  0.87724788  1
  Ta  Ta84  1  0.40594866  0.40109485  0.74282342  1
  Ta  Ta85  1  0.88259586  0.28269258  0.13355158  1
  Ta  Ta86  1  0.20271218  0.61242140  0.50082713  1
  Ta  Ta87  1  0.78827604  0.18596458  0.74988595  1
  Ta  Ta88  1  0.71901621  0.91287811  0.62697235  1
  Ta  Ta89  1  -0.00229616  0.60300794  0.25788112  1
  Ta  Ta90  1  0.50030606  0.50255638  0.61048277  1
  Ta  Ta91  1  0.91377266  0.88909333  0.62121922  1
  Ta  Ta92  1  0.59335005  0.21121909  -0.01778874  1
  Ta  Ta93  1  0.60195592  0.21685376  0.24530182  1
  Ta  Ta94  1  0.80740942  -0.00429921  0.24545475  1
  Ta  Ta95  1  0.79329024  0.60480408  0.00430890  1
  Ta  Ta96  1  0.38556793  -0.00201149  0.24830792  1
  Ta  Ta97  1  0.29797300  0.51196194  0.88163683  1
  Ta  Ta98  1  0.90216925  0.48432766  0.87897045  1
  Ta  Ta99  1  0.19742534  0.39974290  0.24686024  1
  Ta  Ta100  1  0.49670486  0.89538704  0.13644691  1
  Ta  Ta101  1  0.11578914  0.08244802  0.12027242  1
  Ta  Ta102  1  0.50333035  0.10761582  0.63908673  1
  Ta  Ta103  1  0.30839033  0.71335699  0.37682025  1
  Ta  Ta104  1  0.89441677  0.49337159  0.37480382  1
  Ta  Ta105  1  0.29638334  0.09681373  0.64892174  1
  Ta  Ta106  1  -0.00839965  0.18604387  0.50578141  1
  Ta  Ta107  1  0.90431688  0.09503120  0.36361419  1
  Ta  Ta108  1  0.11257313  0.71298101  0.37639627  1
  Ta  Ta109  1  0.09143862  0.29644735  0.63718636  1
  Ta  Ta110  1  -0.00451404  0.79617578  0.76115710  1
  Ta  Ta111  1  0.29781210  0.70258416  0.63783686  1
  Ta  Ta112  1  0.80002578  0.20886451  -0.00502840  1
  Ta  Ta113  1  0.00354493  0.78588511  0.00393478  1
  Ta  Ta114  1  0.59100906  0.00668770  0.24232306  1
  Ta  Ta115  1  0.29536356  0.29370062  0.63809650  1
  Ta  Ta116  1  0.59209624  0.40680555  0.73987452  1
  Ta  Ta117  1  0.58939731  0.21036464  0.76574813  1
  Ta  Ta118  1  0.30113820  0.91697858  0.11992504  1
  Ta  Ta119  1  -0.02468827  0.20815785  0.74828857  1
  Ti  Ti120  1  0.41047865  0.82075319  -0.00090518  1
  Ti  Ti121  1  0.89378436  0.09456116  0.87344598  1
  Ti  Ti122  1  0.80226088  0.60436190  0.48661615  1
  Ti  Ti123  1  0.92619523  0.89908862  0.36803255  1
  Ti  Ti124  1  0.09281787  0.50849603  0.62066833  1
  Ti  Ti125  1  0.20727462  0.79839517  0.50701726  1
  Ti  Ti126  1  0.39579821  -0.00976724  0.52874984  1
  Ti  Ti127  1  0.69128686  0.51061704  0.11836349  1
  Ti  Ti128  1  0.80637961  0.79455934  0.01120838  1
  Ti  Ti129  1  0.41978293  0.59772110  0.00247764  1
  Ti  Ti130  1  0.29921575  0.50893569  0.62094269  1
  Ti  Ti131  1  -0.00027800  0.18517071  0.24571562  1
  Ti  Ti132  1  0.01701825  0.81436992  0.49461054  1
  Ti  Ti133  1  0.90829790  0.09303976  0.13071661  1
  Ti  Ti134  1  0.19138873  0.61058207  0.00827674  1
  Ti  Ti135  1  0.39382746  0.61624286  0.50686501  1
  Ti  Ti136  1  0.49622033  0.49637078  0.87092793  1
  Ti  Ti137  1  0.10130296  0.50132643  0.87743380  1
  Ti  Ti138  1  0.80440818  0.80246932  0.75439922  1
  Ti  Ti139  1  0.19247264  0.19643431  0.51518145  1
  Ti  Ti140  1  0.90612749  0.89444797  0.89110473  1
  Ti  Ti141  1  0.49533133  0.70832906  0.61792252  1
  Ti  Ti142  1  0.11147690  0.88898241  0.10063965  1
  Ti  Ti143  1  0.49554613  0.29938864  0.62111208  1
  Ti  Ti144  1  0.60442926  0.63125362  0.23086202  1
  Ti  Ti145  1  0.28591771  0.89504190  0.37799076  1
  Ti  Ti146  1  0.79873071  0.40166137  0.00093928  1
  Ti  Ti147  1  0.39200131  0.39498097  0.51452222  1
  Ti  Ti148  1  0.39963262  0.39779573  -0.01284612  1
  Ti  Ti149  1  0.20345025  0.17655558  0.25106737  1
  Ti  Ti150  1  0.29658464  0.89106886  0.64901701  1
  Ti  Ti151  1  0.20834515  0.81639146  0.24498201  1
  Ti  Ti152  1  0.40515951  0.79882035  0.24697961  1
  Ti  Ti153  1  0.39395407  0.80640463  0.51159868  1
  Ti  Ti154  1  0.90839366  0.68918528  0.12103541  1
  Ti  Ti155  1  0.90789327  0.89389538  0.12078543  1
  Ti  Ti156  1  0.40057212  0.20248181  0.75521514  1
  Ti  Ti157  1  0.78566379  0.39285750  0.24672159  1
  Ti  Ti158  1  -0.00471933  0.59040899  -0.00061985  1
  Ti  Ti159  1  0.60020427  0.81621856  0.50848871  1
  Mo  Mo160  1  0.20860664  0.80329614  0.00025178  1
  Mo  Mo161  1  0.49679214  0.70255866  0.12112838  1
  Mo  Mo162  1  0.59531331  0.40121357  0.52212242  1
  Mo  Mo163  1  0.71238229  0.70725682  0.87648557  1
  Mo  Mo164  1  0.69326998  0.09964588  0.63596497  1
  Mo  Mo165  1  0.50679505  0.09796866  0.36308013  1
  Mo  Mo166  1  0.90208419  0.28376743  0.61905296  1
  Mo  Mo167  1  0.59952585  0.80428775  0.23575726  1
  Mo  Mo168  1  0.50065094  0.51028783  0.11629549  1
  Mo  Mo169  1  0.19160757  0.20619030  0.74637987  1
  Mo  Mo170  1  0.50733793  0.89491901  0.87712086  1
  Mo  Mo171  1  0.41158993  -0.00605437  0.72850905  1
  Mo  Mo172  1  0.09694278  0.89247103  0.63518604  1
  Mo  Mo173  1  0.91486911  0.69471508  0.37049806  1
  Mo  Mo174  1  0.20423437  -0.01102350  0.24561218  1
  Mo  Mo175  1  0.49698945  0.30692156  0.86821567  1
  Mo  Mo176  1  0.28970607  0.10738595  0.83895589  1
  Mo  Mo177  1  0.60277935  0.59922412  0.00730513  1
  Mo  Mo178  1  0.89076825  0.29140611  0.87397885  1
  Mo  Mo179  1  0.89867110  0.50312468  0.61061515  1
  Mo  Mo180  1  0.69867694  0.70813867  0.38159592  1
  Mo  Mo181  1  0.80194835  0.60949376  0.74894299  1
  Mo  Mo182  1  0.59451289  0.19814155  0.50683818  1
  Mo  Mo183  1  0.19558546  -0.00597058  0.74366015  1
  Mo  Mo184  1  0.71639101  0.69847216  0.12675161  1
  Mo  Mo185  1  0.20367237  0.59988920  0.75127990  1
  Mo  Mo186  1  0.40882363  0.79705969  0.73743019  1
  Mo  Mo187  1  -0.00608270  -0.00721432  0.49847658  1
  Mo  Mo188  1  0.11320743  0.88982489  0.37577712  1
  Mo  Mo189  1  -0.00385533  0.39993485  0.73798334  1
  Mo  Mo190  1  0.59919230  0.61527407  0.51618727  1
  Mo  Mo191  1  0.70792612  0.90293719  0.14379577  1
  Mo  Mo192  1  0.80164585  0.19803810  0.24538207  1
  Mo  Mo193  1  0.29605390  0.10404027  0.12617019  1
  Mo  Mo194  1  0.50387908  0.89884843  0.61601893  1
  Mo  Mo195  1  0.00375122  -0.00949829  0.00605064  1
  Mo  Mo196  1  0.09676887  0.69644585  0.11465285  1
  Mo  Mo197  1  0.41204705  -0.00612778  0.00634134  1
  Mo  Mo198  1  0.19789042  0.79914356  0.75000845  1
  Mo  Mo199  1  0.80350275  -0.01510432  0.75892686  1
