# generated using pymatgen
data_HfZrTaTiMo
_symmetry_space_group_name_H-M   'P 1'
_cell_length_a   15.20508590
_cell_length_b   15.22804410
_cell_length_c   16.84528843
_cell_angle_alpha   89.97966978
_cell_angle_beta   90.02716429
_cell_angle_gamma   89.97696919
_symmetry_Int_Tables_number   1
_chemical_formula_structural   HfZrTaTiMo
_chemical_formula_sum   'Hf40 Zr40 Ta40 Ti40 Mo40'
_cell_volume   3900.41972318
_cell_formula_units_Z   40
loop_
 _symmetry_equiv_pos_site_id
 _symmetry_equiv_pos_as_xyz
  1  'x, y, z'
loop_
 _atom_site_type_symbol
 _atom_site_label
 _atom_site_symmetry_multiplicity
 _atom_site_fract_x
 _atom_site_fract_y
 _atom_site_fract_z
 _atom_site_occupancy
  Hf  Hf0  1  0.01733327  0.59796543  0.50356318  1
  Hf  Hf1  1  0.60329438  0.38804859  0.50565223  1
  Hf  Hf2  1  0.79758630  0.40646250  0.49798346  1
  Hf  Hf3  1  0.41027128  0.40805260  0.50414191  1
  Hf  Hf4  1  -0.00282936  0.01367322  0.23487871  1
  Hf  Hf5  1  0.20674039  -0.00205720  0.00373039  1
  Hf  Hf6  1  0.39213693  0.81060803  0.49610283  1
  Hf  Hf7  1  0.50315623  0.27898006  0.37474603  1
  Hf  Hf8  1  0.79130879  0.80707978  0.25218808  1
  Hf  Hf9  1  0.01478882  0.40270470  0.25453298  1
  Hf  Hf10  1  0.00991425  0.81339399  0.50379022  1
  Hf  Hf11  1  0.80156531  0.20775050  0.77143965  1
  Hf  Hf12  1  0.79233443  0.01595749  0.23633064  1
  Hf  Hf13  1  0.29982390  0.30191254  0.61656979  1
  Hf  Hf14  1  0.89284023  0.92202215  0.37414118  1
  Hf  Hf15  1  0.41160633  0.80232391  -0.00848530  1
  Hf  Hf16  1  -0.00673961  0.00765375  0.51602724  1
  Hf  Hf17  1  0.39457626  0.39505694  0.25938054  1
  Hf  Hf18  1  0.70277040  0.29025540  0.36229597  1
  Hf  Hf19  1  -0.02643256  0.59804510  -0.01049791  1
  Hf  Hf20  1  0.48698752  0.29916325  0.11401045  1
  Hf  Hf21  1  0.29914257  0.10745502  0.11532447  1
  Hf  Hf22  1  0.58606907  0.20058444  0.77062712  1
  Hf  Hf23  1  0.08724644  0.70986457  0.86624622  1
  Hf  Hf24  1  0.00716698  0.00533645  0.01108875  1
  Hf  Hf25  1  0.70487491  0.10379270  0.09504201  1
  Hf  Hf26  1  0.10525530  0.90950068  0.86998949  1
  Hf  Hf27  1  0.62113237  -0.00394186  0.50397992  1
  Hf  Hf28  1  0.89549806  0.30879281  0.62993151  1
  Hf  Hf29  1  0.19714180  0.42492686  0.49602532  1
  Hf  Hf30  1  0.71593644  0.67800465  0.86569328  1
  Hf  Hf31  1  0.69886009  0.52917949  0.13528823  1
  Hf  Hf32  1  0.20429249  0.40143084  0.26611693  1
  Hf  Hf33  1  0.51210111  0.49550436  0.87585959  1
  Hf  Hf34  1  0.90352869  0.51340133  0.35956982  1
  Hf  Hf35  1  0.59446728  0.39865526  0.24090286  1
  Hf  Hf36  1  0.49316718  0.08909597  0.10187272  1
  Hf  Hf37  1  0.68840799  0.29512410  0.64350374  1
  Hf  Hf38  1  0.30230422  0.69869106  0.86708621  1
  Hf  Hf39  1  0.59520637  0.81086350  0.26424254  1
  Zr  Zr40  1  0.89983956  0.29592472  0.36719705  1
  Zr  Zr41  1  0.69667383  0.50689561  0.36137148  1
  Zr  Zr42  1  0.81529913  -0.00130517  0.76753842  1
  Zr  Zr43  1  0.10520938  0.69880926  0.36385814  1
  Zr  Zr44  1  0.49015606  0.68947649  0.37998599  1
  Zr  Zr45  1  0.29484605  0.70364623  0.62473852  1
  Zr  Zr46  1  0.69522651  0.09169680  0.36902624  1
  Zr  Zr47  1  0.11079117  0.89455875  0.13494709  1
  Zr  Zr48  1  0.29477391  0.28609802  0.39800634  1
  Zr  Zr49  1  0.59794432  0.21916935  -0.00893722  1
  Zr  Zr50  1  0.28643714  0.10419959  0.87327026  1
  Zr  Zr51  1  0.20527539  0.79446527  0.00012611  1
  Zr  Zr52  1  0.49449521  0.69654411  0.62238822  1
  Zr  Zr53  1  0.47964946  0.09790705  0.89189885  1
  Zr  Zr54  1  0.89682287  0.30047325  0.12733627  1
  Zr  Zr55  1  0.00013517  0.19000149  0.74822344  1
  Zr  Zr56  1  0.40160994  0.17949915  0.25079438  1
  Zr  Zr57  1  0.19281887  0.59656105  -0.00213378  1
  Zr  Zr58  1  0.09401646  0.49464637  0.86106576  1
  Zr  Zr59  1  0.31646279  0.08795041  0.39443965  1
  Zr  Zr60  1  0.09816361  0.10310995  0.38725487  1
  Zr  Zr61  1  0.89775944  0.70498436  0.37779753  1
  Zr  Zr62  1  0.90465181  0.70399952  0.62095586  1
  Zr  Zr63  1  0.59680473  0.58519993  0.51192631  1
  Zr  Zr64  1  -0.00241616  0.40374434  0.49630113  1
  Zr  Zr65  1  0.71222902  0.88812468  0.87992514  1
  Zr  Zr66  1  0.59799279  0.80483492  0.48941187  1
  Zr  Zr67  1  -0.00560705  0.80266470  0.24035719  1
  Zr  Zr68  1  0.50661089  0.69812124  0.13378859  1
  Zr  Zr69  1  0.20721967  0.00895018  0.25227667  1
  Zr  Zr70  1  0.69711601  0.89634952  0.10766393  1
  Zr  Zr71  1  0.70154685  0.70632418  0.63330754  1
  Zr  Zr72  1  0.79428045  0.82272613  0.49959930  1
  Zr  Zr73  1  0.31709126  0.89483085  0.13694560  1
  Zr  Zr74  1  0.20595932  0.39066829  -0.00727900  1
  Zr  Zr75  1  0.52055459  0.90641078  0.64277402  1
  Zr  Zr76  1  -0.00468800  0.39434214  -0.00880626  1
  Zr  Zr77  1  0.79195441  0.19295412  0.50793751  1
  Zr  Zr78  1  0.30743432  0.49110432  0.86392730  1
  Zr  Zr79  1  0.20092837  -0.02016479  0.50811469  1
  Ta  Ta80  1  0.19978682  0.59159701  0.24531072  1
  Ta  Ta81  1  0.29963189  0.29674997  0.86070921  1
  Ta  Ta82  1  0.87954858  0.69717336  0.12542676  1
  Ta  Ta83  1  0.91570067  0.88654075  0.88703978  1
  Ta  Ta84  1  0.40226130  0.00645983  0.74582076  1
  Ta  Ta85  1  0.10298239  0.29266681  0.12557369  1
  Ta  Ta86  1  0.58670211  0.18810169  0.51044013  1
  Ta  Ta87  1  0.60375623  0.58154169  0.74068437  1
  Ta  Ta88  1  0.90191953  0.51009268  0.13630943  1
  Ta  Ta89  1  0.40335566  0.79981446  0.75357507  1
  Ta  Ta90  1  0.09316514  0.49916544  0.64173534  1
  Ta  Ta91  1  0.30423439  0.49571133  0.12080368  1
  Ta  Ta92  1  0.30409977  0.10063865  0.61490020  1
  Ta  Ta93  1  0.29350706  0.88339764  0.36334837  1
  Ta  Ta94  1  0.19204970  0.20468299  0.25151561  1
  Ta  Ta95  1  0.60964773  0.19314009  0.22998072  1
  Ta  Ta96  1  0.61103869  0.77471090  -0.00685787  1
  Ta  Ta97  1  -0.00009969  0.79445610  0.01243362  1
  Ta  Ta98  1  0.09071348  0.68466959  0.13066654  1
  Ta  Ta99  1  0.19796763  0.81061146  0.74570979  1
  Ta  Ta100  1  0.39303240  0.59231596  0.24926495  1
  Ta  Ta101  1  0.89805775  0.11202101  0.37603449  1
  Ta  Ta102  1  0.30194303  0.50649892  0.63240256  1
  Ta  Ta103  1  0.40558120  0.59729478  0.00020363  1
  Ta  Ta104  1  0.69897688  0.09697167  0.88871836  1
  Ta  Ta105  1  0.79890995  0.42404602  -0.00110449  1
  Ta  Ta106  1  0.40699220  0.59588884  0.74751270  1
  Ta  Ta107  1  0.19774939  0.19676890  0.73207650  1
  Ta  Ta108  1  0.80368930  0.59661402  0.50769439  1
  Ta  Ta109  1  0.50580782  0.89562307  0.86261606  1
  Ta  Ta110  1  0.29348116  0.30275404  0.12569301  1
  Ta  Ta111  1  0.80964972  0.22011141  -0.02164171  1
  Ta  Ta112  1  0.10428430  0.28998667  0.86207012  1
  Ta  Ta113  1  0.88893245  0.09731591  0.63037428  1
  Ta  Ta114  1  0.49399698  0.50313001  0.12412733  1
  Ta  Ta115  1  0.69762789  0.32816602  0.87245978  1
  Ta  Ta116  1  -0.01958111  0.60226976  0.75443264  1
  Ta  Ta117  1  0.69299764  0.09214744  0.64651949  1
  Ta  Ta118  1  0.19639842  0.60094868  0.74808712  1
  Ta  Ta119  1  0.30839739  0.90670494  0.86329396  1
  Ti  Ti120  1  0.50214994  0.89678734  0.12318399  1
  Ti  Ti121  1  0.10052565  0.70054134  0.63721299  1
  Ti  Ti122  1  0.10158826  0.49291083  0.12240659  1
  Ti  Ti123  1  0.72065096  0.90830120  0.64669930  1
  Ti  Ti124  1  0.50334612  0.10541490  0.63737226  1
  Ti  Ti125  1  0.90795954  0.09448899  0.88589346  1
  Ti  Ti126  1  0.00976802  -0.01520639  0.73002097  1
  Ti  Ti127  1  0.71285422  0.49121068  0.63589292  1
  Ti  Ti128  1  0.39586708  0.79267021  0.25871330  1
  Ti  Ti129  1  0.49653391  0.50091537  0.37227734  1
  Ti  Ti130  1  0.29832036  0.69278348  0.12851489  1
  Ti  Ti131  1  0.19696414  0.39304309  0.74139118  1
  Ti  Ti132  1  0.39292734  0.20285886  0.74360433  1
  Ti  Ti133  1  0.70026357  0.69402320  0.37557312  1
  Ti  Ti134  1  0.10199426  0.89792842  0.36233469  1
  Ti  Ti135  1  0.59075230  -0.01929619  -0.01239049  1
  Ti  Ti136  1  0.19594896  0.78973839  0.50201310  1
  Ti  Ti137  1  0.20049633  0.00572507  0.73325521  1
  Ti  Ti138  1  0.88886706  0.90288352  0.10826250  1
  Ti  Ti139  1  0.58618595  0.00772180  0.24374144  1
  Ti  Ti140  1  0.29341559  0.68421123  0.38079386  1
  Ti  Ti141  1  -0.00189249  0.19893881  0.24588981  1
  Ti  Ti142  1  0.42309169  0.00614991  0.51183659  1
  Ti  Ti143  1  0.30982017  0.90188257  0.63289773  1
  Ti  Ti144  1  0.89725575  0.11126815  0.10923343  1
  Ti  Ti145  1  0.00515968  0.20308928  -0.00734340  1
  Ti  Ti146  1  0.41640068  0.39559590  0.73619293  1
  Ti  Ti147  1  0.49190055  0.92341084  0.37194258  1
  Ti  Ti148  1  0.48317634  0.30950146  0.88373527  1
  Ti  Ti149  1  0.60678536  0.79485088  0.75691171  1
  Ti  Ti150  1  0.80036539  0.39934389  0.24302696  1
  Ti  Ti151  1  0.82832499  0.79159446  0.75423794  1
  Ti  Ti152  1  0.70571895  0.30568180  0.11934550  1
  Ti  Ti153  1  0.18912666  0.20085149  -0.00205361  1
  Ti  Ti154  1  0.60295973  0.41869629  0.00944773  1
  Ti  Ti155  1  0.09508517  0.29606334  0.61679008  1
  Ti  Ti156  1  0.09953344  0.09870047  0.86740685  1
  Ti  Ti157  1  0.09638325  0.28951497  0.39106546  1
  Ti  Ti158  1  0.50802420  0.69231711  0.86808484  1
  Ti  Ti159  1  -0.01798726  0.40045102  0.75689762  1
  Mo  Mo160  1  0.79856723  0.41124321  0.75448963  1
  Mo  Mo161  1  0.78463658  0.60978462  0.00465445  1
  Mo  Mo162  1  0.00264481  0.59663311  0.23763034  1
  Mo  Mo163  1  0.09739290  0.11696974  0.12470106  1
  Mo  Mo164  1  0.69574070  0.50046025  0.87494777  1
  Mo  Mo165  1  0.89894633  0.70415784  0.87478956  1
  Mo  Mo166  1  0.50233422  0.49220244  0.63261669  1
  Mo  Mo167  1  0.90414060  0.30711784  0.87559241  1
  Mo  Mo168  1  0.80977439  0.00551240  -0.01324225  1
  Mo  Mo169  1  -0.00443020  0.20068496  0.51182854  1
  Mo  Mo170  1  0.38446550  0.59066130  0.50137317  1
  Mo  Mo171  1  0.11041750  0.89115266  0.62923090  1
  Mo  Mo172  1  0.49728878  0.29074559  0.62829997  1
  Mo  Mo173  1  0.79942305  0.61186245  0.25118148  1
  Mo  Mo174  1  0.59617704  0.39664925  0.74854608  1
  Mo  Mo175  1  0.30696362  0.51270223  0.37889954  1
  Mo  Mo176  1  0.80337027  0.59222420  0.73799793  1
  Mo  Mo177  1  0.80049459  0.20027963  0.23621590  1
  Mo  Mo178  1  0.40846784  0.19553225  0.51371160  1
  Mo  Mo179  1  0.19998093  0.60369014  0.51205110  1
  Mo  Mo180  1  0.69519923  0.70960738  0.12939756  1
  Mo  Mo181  1  0.00430716  0.80519171  0.74622399  1
  Mo  Mo182  1  0.10200477  0.10204260  0.62231300  1
  Mo  Mo183  1  0.90030798  0.90223771  0.63226258  1
  Mo  Mo184  1  0.69661502  0.90286705  0.36774835  1
  Mo  Mo185  1  0.90224171  0.50253902  0.62692597  1
  Mo  Mo186  1  0.50777881  0.09680847  0.37733077  1
  Mo  Mo187  1  0.41093798  -0.01310838  0.25040594  1
  Mo  Mo188  1  0.60478537  0.00312303  0.76769937  1
  Mo  Mo189  1  0.79943648  0.00650701  0.51145903  1
  Mo  Mo190  1  0.10795477  0.50752052  0.37196919  1
  Mo  Mo191  1  0.59046701  0.60395389  0.25879366  1
  Mo  Mo192  1  0.18955478  0.19849022  0.51970671  1
  Mo  Mo193  1  0.40186887  0.40212450  -0.00037860  1
  Mo  Mo194  1  0.81174619  0.78985373  -0.00118095  1
  Mo  Mo195  1  0.59334825  0.60157973  -0.00044875  1
  Mo  Mo196  1  0.37667207  0.22011980  -0.00451977  1
  Mo  Mo197  1  0.20987230  0.78353446  0.24946214  1
  Mo  Mo198  1  0.87426479  0.50365356  0.86897397  1
  Mo  Mo199  1  0.39943165  -0.01378277  -0.00816806  1
