# generated using pymatgen
data_HfZrTaTiMo
_symmetry_space_group_name_H-M   'P 1'
_cell_length_a   15.19559199
_cell_length_b   15.18547187
_cell_length_c   16.83424297
_cell_angle_alpha   89.99782578
_cell_angle_beta   90.02555374
_cell_angle_gamma   89.95724467
_symmetry_Int_Tables_number   1
_chemical_formula_structural   HfZrTaTiMo
_chemical_formula_sum   'Hf40 Zr40 Ta40 Ti40 Mo40'
_cell_volume   3884.53771558
_cell_formula_units_Z   40
loop_
 _symmetry_equiv_pos_site_id
 _symmetry_equiv_pos_as_xyz
  1  'x, y, z'
loop_
 _atom_site_type_symbol
 _atom_site_label
 _atom_site_symmetry_multiplicity
 _atom_site_fract_x
 _atom_site_fract_y
 _atom_site_fract_z
 _atom_site_occupancy
  Hf  Hf0  1  0.30033550  0.31263503  0.12937504  1
  Hf  Hf1  1  0.18334202  0.41302356  0.76064373  1
  Hf  Hf2  1  0.70871191  0.48945592  0.88182426  1
  Hf  Hf3  1  0.88938415  0.29232784  0.87557449  1
  Hf  Hf4  1  0.48805980  0.28368376  0.62052064  1
  Hf  Hf5  1  0.28905833  0.71180331  0.85278000  1
  Hf  Hf6  1  0.00562541  0.39168271  0.24037379  1
  Hf  Hf7  1  0.79253960  0.80651366  0.01270499  1
  Hf  Hf8  1  0.10946981  0.70550313  0.37886203  1
  Hf  Hf9  1  -0.01143857  -0.00313757  -0.01927249  1
  Hf  Hf10  1  0.30008428  0.10516450  0.13810399  1
  Hf  Hf11  1  0.59455434  0.19285592  0.48049988  1
  Hf  Hf12  1  0.39222053  0.43519302  0.25596343  1
  Hf  Hf13  1  0.39647299  0.20420169  0.47905202  1
  Hf  Hf14  1  0.81899789  0.60799986  0.75703168  1
  Hf  Hf15  1  0.49516522  0.70319007  0.64243961  1
  Hf  Hf16  1  0.29701431  0.71199502  0.13350040  1
  Hf  Hf17  1  0.61009663  0.00589027  0.75552204  1
  Hf  Hf18  1  0.90153772  0.29570554  0.62455657  1
  Hf  Hf19  1  -0.00798875  0.80709269  0.50091598  1
  Hf  Hf20  1  0.50770658  0.50265039  0.62687768  1
  Hf  Hf21  1  0.59534294  -0.00359087  0.00752968  1
  Hf  Hf22  1  0.30537355  0.51977129  0.64029404  1
  Hf  Hf23  1  0.79576755  0.38397607  0.01633239  1
  Hf  Hf24  1  0.58554840  0.79683450  0.01013563  1
  Hf  Hf25  1  0.90064351  0.28733710  0.37626876  1
  Hf  Hf26  1  0.69534061  0.50579275  0.37162552  1
  Hf  Hf27  1  0.28756033  0.31984941  0.36078581  1
  Hf  Hf28  1  0.59230985  0.78259636  0.22789280  1
  Hf  Hf29  1  0.10536479  0.10566359  0.86854682  1
  Hf  Hf30  1  0.30577209  0.51528053  0.10742071  1
  Hf  Hf31  1  0.78466467  0.18800396  0.74595079  1
  Hf  Hf32  1  0.58639862  -0.01146850  0.48135916  1
  Hf  Hf33  1  0.71824166  0.08146755  0.36859274  1
  Hf  Hf34  1  -0.00471118  -0.01206438  0.75667052  1
  Hf  Hf35  1  0.68496125  0.28623958  0.88161108  1
  Hf  Hf36  1  0.70224370  0.70230661  0.87663295  1
  Hf  Hf37  1  0.90274573  0.08259416  0.61892165  1
  Hf  Hf38  1  0.29915930  0.29859468  0.87861159  1
  Hf  Hf39  1  0.79043828  0.61015923  0.23589875  1
  Zr  Zr40  1  0.61148791  0.38775704  0.74620335  1
  Zr  Zr41  1  0.71505570  0.07848814  0.12933726  1
  Zr  Zr42  1  0.78994008  0.82705217  0.24380563  1
  Zr  Zr43  1  0.31033130  0.09816417  0.86804163  1
  Zr  Zr44  1  0.10187322  0.08848841  0.11787124  1
  Zr  Zr45  1  -0.00054826  0.20329815  0.74718552  1
  Zr  Zr46  1  0.81142646  0.60216621  0.00573532  1
  Zr  Zr47  1  0.70156414  0.30474253  0.36556742  1
  Zr  Zr48  1  0.30949355  0.51846039  0.87782987  1
  Zr  Zr49  1  0.20136573  0.19447715  0.49988913  1
  Zr  Zr50  1  0.00487127  0.59971011  0.49208232  1
  Zr  Zr51  1  0.09688356  0.28803878  0.36966041  1
  Zr  Zr52  1  0.41016744  0.39898369  0.76194307  1
  Zr  Zr53  1  0.90853796  0.50677721  0.62997866  1
  Zr  Zr54  1  0.40707724  0.19523994  0.00717421  1
  Zr  Zr55  1  0.30667850  0.70937016  0.37486032  1
  Zr  Zr56  1  0.00648867  0.40366263  0.01720469  1
  Zr  Zr57  1  0.79833750  0.40399145  0.50443047  1
  Zr  Zr58  1  0.60402646  0.20628313  0.02243672  1
  Zr  Zr59  1  0.59711298  0.18744107  0.25203604  1
  Zr  Zr60  1  0.69827683  0.70584128  0.37431447  1
  Zr  Zr61  1  0.71053211  0.70106375  0.63502216  1
  Zr  Zr62  1  0.38671800  0.41434241  0.49240163  1
  Zr  Zr63  1  0.50643482  0.49442244  0.11725188  1
  Zr  Zr64  1  0.01871341  0.59531690  0.25442028  1
  Zr  Zr65  1  0.01084953  0.38799348  0.50000147  1
  Zr  Zr66  1  0.90041288  0.49982868  0.36784484  1
  Zr  Zr67  1  0.91225037  0.71239848  0.13862943  1
  Zr  Zr68  1  0.81055053  0.20049158  0.24700361  1
  Zr  Zr69  1  0.59430610  0.39976609  0.49862950  1
  Zr  Zr70  1  0.60372778  0.80126830  0.51067387  1
  Zr  Zr71  1  0.92885511  0.49923384  0.87322965  1
  Zr  Zr72  1  0.09315574  0.88760342  0.12816945  1
  Zr  Zr73  1  0.10298113  0.88505580  0.86625362  1
  Zr  Zr74  1  0.20831348  -0.00889555  -0.00564076  1
  Zr  Zr75  1  0.68852516  0.08700347  0.61373312  1
  Zr  Zr76  1  0.59522564  -0.02864391  0.25638271  1
  Zr  Zr77  1  0.38121763  0.00533569  0.49570374  1
  Zr  Zr78  1  0.48957269  0.69826664  0.86192755  1
  Zr  Zr79  1  0.38215329  0.80471656  -0.00416799  1
  Ta  Ta80  1  0.11375387  0.48743942  0.61597745  1
  Ta  Ta81  1  0.11408209  0.08905581  0.63162351  1
  Ta  Ta82  1  0.12973528  0.49031746  0.37918300  1
  Ta  Ta83  1  0.10500546  0.29239044  0.12734586  1
  Ta  Ta84  1  0.00686365  0.17463651  0.24875719  1
  Ta  Ta85  1  0.41179027  0.01773203  0.74407751  1
  Ta  Ta86  1  0.09105239  0.90055278  0.62608748  1
  Ta  Ta87  1  0.20264971  0.20863246  0.74433890  1
  Ta  Ta88  1  0.80330445  0.19018254  0.49831161  1
  Ta  Ta89  1  0.80519033  0.61131727  0.50212457  1
  Ta  Ta90  1  0.49325085  0.90704899  0.86557852  1
  Ta  Ta91  1  0.50012939  0.70237820  0.37707768  1
  Ta  Ta92  1  0.49511849  0.30908013  0.35274547  1
  Ta  Ta93  1  0.60418449  0.59129118  0.75887624  1
  Ta  Ta94  1  0.29902739  0.91043673  0.13812155  1
  Ta  Ta95  1  0.42169432  0.39923650  -0.01231164  1
  Ta  Ta96  1  0.09252609  0.31115251  0.87903918  1
  Ta  Ta97  1  0.80103344  -0.02219747  0.49723251  1
  Ta  Ta98  1  0.31065790  0.11447097  0.63265920  1
  Ta  Ta99  1  0.90839088  0.09709752  0.11856479  1
  Ta  Ta100  1  0.49280191  0.30046394  0.14937607  1
  Ta  Ta101  1  0.58670652  0.59300343  0.24640024  1
  Ta  Ta102  1  0.88606959  0.88548881  0.63105795  1
  Ta  Ta103  1  0.69770933  0.29193564  0.61741426  1
  Ta  Ta104  1  0.89614625  0.91612974  0.12207087  1
  Ta  Ta105  1  -0.00344208  0.20116284  -0.00518587  1
  Ta  Ta106  1  0.92239727  0.08033992  0.38499521  1
  Ta  Ta107  1  0.69266562  0.90061902  0.88109597  1
  Ta  Ta108  1  0.09054972  0.68461497  0.86875979  1
  Ta  Ta109  1  0.49939594  0.91233500  0.63242298  1
  Ta  Ta110  1  0.18608853  0.80442914  0.73630909  1
  Ta  Ta111  1  0.10358484  0.69311925  0.61951674  1
  Ta  Ta112  1  0.90222928  0.71380546  0.36248531  1
  Ta  Ta113  1  0.40516656  -0.00480032  0.00379650  1
  Ta  Ta114  1  0.19547892  0.20806514  0.00072725  1
  Ta  Ta115  1  0.30012263  0.71617474  0.63276366  1
  Ta  Ta116  1  0.28603576  0.31480814  0.62749445  1
  Ta  Ta117  1  0.39955284  0.81153595  0.50741827  1
  Ta  Ta118  1  0.10817521  0.69111592  0.13053419  1
  Ta  Ta119  1  -0.00426767  0.78838994  -0.00486225  1
  Ti  Ti120  1  0.88803725  0.88752060  0.87477823  1
  Ti  Ti121  1  0.71668600  0.09538422  0.89266170  1
  Ti  Ti122  1  0.58957326  0.58956566  -0.01041602  1
  Ti  Ti123  1  0.18933659  0.79568204  -0.00073821  1
  Ti  Ti124  1  0.90293095  0.28719501  0.12584907  1
  Ti  Ti125  1  0.70719830  0.49985679  0.62886411  1
  Ti  Ti126  1  0.21515353  0.59848263  0.50188439  1
  Ti  Ti127  1  0.60616734  0.60231011  0.50480688  1
  Ti  Ti128  1  0.79896737  -0.00669607  0.75764731  1
  Ti  Ti129  1  0.20283440  0.81752308  0.50823990  1
  Ti  Ti130  1  0.29125393  0.91825536  0.63494173  1
  Ti  Ti131  1  0.48734830  0.08544291  0.14510019  1
  Ti  Ti132  1  0.19809461  0.40633545  -0.00315530  1
  Ti  Ti133  1  0.30301645  0.90571131  0.85255785  1
  Ti  Ti134  1  0.02371138  0.58653577  0.74365131  1
  Ti  Ti135  1  0.49592654  0.51495160  0.37838448  1
  Ti  Ti136  1  0.21836272  0.58853720  0.25207559  1
  Ti  Ti137  1  0.79756124  0.80487684  0.75487079  1
  Ti  Ti138  1  0.79948089  0.79603535  0.49802055  1
  Ti  Ti139  1  0.00797628  0.18401786  0.50849885  1
  Ti  Ti140  1  0.18519328  0.00402900  0.26044749  1
  Ti  Ti141  1  0.01230475  0.60148275  0.00830860  1
  Ti  Ti142  1  0.60373360  0.81023941  0.74864102  1
  Ti  Ti143  1  0.19763284  0.60859469  -0.00240326  1
  Ti  Ti144  1  0.51030243  0.11021138  0.87994810  1
  Ti  Ti145  1  0.80723642  0.39648141  0.74578273  1
  Ti  Ti146  1  0.19775535  0.20102585  0.25240412  1
  Ti  Ti147  1  0.40750013  0.61582497  0.50551797  1
  Ti  Ti148  1  0.79890353  0.40840794  0.23924147  1
  Ti  Ti149  1  0.68670240  0.31255876  0.14145579  1
  Ti  Ti150  1  0.48471306  0.68553529  0.11502788  1
  Ti  Ti151  1  0.19175889  0.80669247  0.25513350  1
  Ti  Ti152  1  0.69450460  0.50320147  0.12039746  1
  Ti  Ti153  1  0.90754091  0.50405195  0.12998323  1
  Ti  Ti154  1  -0.01317944  0.77754939  0.74373988  1
  Ti  Ti155  1  0.08265384  0.91421005  0.37931290  1
  Ti  Ti156  1  0.28992408  0.91064630  0.37223821  1
  Ti  Ti157  1  0.57898189  0.19286329  0.74565571  1
  Ti  Ti158  1  0.47584761  0.08906200  0.35431942  1
  Ti  Ti159  1  0.40387282  0.81202172  0.25085508  1
  Mo  Mo160  1  0.51570275  0.49751899  0.87781577  1
  Mo  Mo161  1  0.28531771  0.10233518  0.36057482  1
  Mo  Mo162  1  0.40613354  0.60669401  0.74623785  1
  Mo  Mo163  1  0.60225430  0.39499676  0.00445141  1
  Mo  Mo164  1  0.19293466  -0.00717209  0.50271185  1
  Mo  Mo165  1  0.48289646  0.89779319  0.12460633  1
  Mo  Mo166  1  0.81455758  0.00541422  0.25355225  1
  Mo  Mo167  1  0.69706495  0.89140692  0.37725910  1
  Mo  Mo168  1  0.68269096  0.68356803  0.11278962  1
  Mo  Mo169  1  0.10473529  0.29346279  0.62576416  1
  Mo  Mo170  1  0.10449822  0.09141684  0.37671118  1
  Mo  Mo171  1  0.20415953  0.40420850  0.50513860  1
  Mo  Mo172  1  0.38408289  -0.00605759  0.25911831  1
  Mo  Mo173  1  0.00431174  -0.00329113  0.51113494  1
  Mo  Mo174  1  0.90775974  0.70765141  0.87751275  1
  Mo  Mo175  1  0.89424047  0.09625131  0.87065359  1
  Mo  Mo176  1  0.00528752  0.80706201  0.26143707  1
  Mo  Mo177  1  0.90856310  0.70207608  0.62397273  1
  Mo  Mo178  1  0.80136888  -0.00379336  -0.00961166  1
  Mo  Mo179  1  0.00171610  0.39838722  0.74662044  1
  Mo  Mo180  1  0.39644454  0.82036088  0.74047848  1
  Mo  Mo181  1  0.60004884  0.40752592  0.25370083  1
  Mo  Mo182  1  0.89121122  0.90086836  0.37957140  1
  Mo  Mo183  1  0.11458456  0.50117604  0.12354913  1
  Mo  Mo184  1  0.19525054  0.61098727  0.74158291  1
  Mo  Mo185  1  0.39990197  0.60645014  -0.00697190  1
  Mo  Mo186  1  0.20233627  0.00382379  0.74367955  1
  Mo  Mo187  1  0.50199877  0.29137639  0.87682363  1
  Mo  Mo188  1  0.70511860  0.90100196  0.63158945  1
  Mo  Mo189  1  0.48168430  0.88178388  0.37551076  1
  Mo  Mo190  1  0.19284270  0.41345212  0.23904010  1
  Mo  Mo191  1  -0.00500802  -0.01071723  0.25073276  1
  Mo  Mo192  1  0.40954692  0.62229124  0.24902878  1
  Mo  Mo193  1  0.30488873  0.52144246  0.38040255  1
  Mo  Mo194  1  0.69608186  0.89718855  0.11813208  1
  Mo  Mo195  1  0.81167716  0.19180890  0.00729438  1
  Mo  Mo196  1  0.10807265  0.50470122  0.88302654  1
  Mo  Mo197  1  0.49512304  0.09848320  0.61797293  1
  Mo  Mo198  1  0.40039274  0.20554162  0.75013009  1
  Mo  Mo199  1  0.39235921  0.20354571  0.25775386  1
