# generated using pymatgen
data_HfZrTaTiMo
_symmetry_space_group_name_H-M   'P 1'
_cell_length_a   15.22008779
_cell_length_b   15.21675883
_cell_length_c   16.81977877
_cell_angle_alpha   90.06803652
_cell_angle_beta   89.99737124
_cell_angle_gamma   89.97335988
_symmetry_Int_Tables_number   1
_chemical_formula_structural   HfZrTaTiMo
_chemical_formula_sum   'Hf40 Zr40 Ta40 Ti40 Mo40'
_cell_volume   3895.46441039
_cell_formula_units_Z   40
loop_
 _symmetry_equiv_pos_site_id
 _symmetry_equiv_pos_as_xyz
  1  'x, y, z'
loop_
 _atom_site_type_symbol
 _atom_site_label
 _atom_site_symmetry_multiplicity
 _atom_site_fract_x
 _atom_site_fract_y
 _atom_site_fract_z
 _atom_site_occupancy
  Hf  Hf0  1  0.79481651  0.79482387  0.00437571  1
  Hf  Hf1  1  0.70646686  0.10799821  0.39272462  1
  Hf  Hf2  1  0.69604618  0.70184355  0.38391614  1
  Hf  Hf3  1  0.67996593  0.09705935  0.13150535  1
  Hf  Hf4  1  0.90208917  0.09538929  0.38094167  1
  Hf  Hf5  1  0.49951796  0.68682793  0.38954231  1
  Hf  Hf6  1  0.39542879  0.79466099  0.74323881  1
  Hf  Hf7  1  0.31242488  0.30117640  0.35806472  1
  Hf  Hf8  1  0.79320335  0.60362362  0.75014946  1
  Hf  Hf9  1  0.89449802  0.70249815  0.62995675  1
  Hf  Hf10  1  0.10143053  0.30566675  0.88118125  1
  Hf  Hf11  1  0.78999125  0.20362594  0.25265811  1
  Hf  Hf12  1  0.59453676  0.39812328  0.24884215  1
  Hf  Hf13  1  0.29531477  0.30547814  0.62578107  1
  Hf  Hf14  1  0.10499104  0.10469011  0.12279009  1
  Hf  Hf15  1  0.20186326  0.60498783  0.51194632  1
  Hf  Hf16  1  0.10658911  0.50169435  0.88010689  1
  Hf  Hf17  1  0.59986664  0.22006622  0.49728600  1
  Hf  Hf18  1  0.80092197  -0.00068438  0.00725206  1
  Hf  Hf19  1  0.09557279  0.30363167  0.36306229  1
  Hf  Hf20  1  0.30891600  0.09812568  0.13725866  1
  Hf  Hf21  1  0.60653596  0.80879732  0.72975466  1
  Hf  Hf22  1  0.40078035  -0.01531456  0.26277842  1
  Hf  Hf23  1  0.59399790  0.39067886  0.01489816  1
  Hf  Hf24  1  0.49349309  0.69030983  0.61293694  1
  Hf  Hf25  1  0.70846952  0.89846488  0.85948916  1
  Hf  Hf26  1  0.69500155  0.50708523  0.36825734  1
  Hf  Hf27  1  0.39800563  0.80978035  -0.01547418  1
  Hf  Hf28  1  0.91868532  0.89191504  0.36817796  1
  Hf  Hf29  1  0.91306763  0.88806299  0.13308058  1
  Hf  Hf30  1  0.08596272  0.70497313  0.11702451  1
  Hf  Hf31  1  0.70789755  0.91028714  0.39391403  1
  Hf  Hf32  1  0.10044203  0.09908300  0.62438592  1
  Hf  Hf33  1  0.79750711  0.39163526  0.74945431  1
  Hf  Hf34  1  0.00888849  0.60148437  0.74323765  1
  Hf  Hf35  1  0.70065164  0.49460194  0.88246284  1
  Hf  Hf36  1  0.69374304  0.09503690  0.86523068  1
  Hf  Hf37  1  0.28494375  0.70669644  0.87502063  1
  Hf  Hf38  1  0.22587294  -0.00397400  -0.01358698  1
  Hf  Hf39  1  0.58587335  0.60658887  0.75827389  1
  Zr  Zr40  1  0.20142273  0.19569986  0.75145249  1
  Zr  Zr41  1  0.07836669  0.70301209  0.88936591  1
  Zr  Zr42  1  0.28848241  0.29684290  0.14426426  1
  Zr  Zr43  1  0.49217253  0.27154523  0.15105166  1
  Zr  Zr44  1  0.89069189  0.48868845  0.61967196  1
  Zr  Zr45  1  0.51849398  0.89653021  0.13260688  1
  Zr  Zr46  1  0.89336049  0.30540980  0.88299854  1
  Zr  Zr47  1  0.49221815  0.49074801  0.86893283  1
  Zr  Zr48  1  0.80371202  0.40811378  0.01832206  1
  Zr  Zr49  1  0.81235931  0.80512753  0.50819036  1
  Zr  Zr50  1  0.49783766  0.89405497  0.39290068  1
  Zr  Zr51  1  0.42676569  0.01175950  0.00541446  1
  Zr  Zr52  1  0.20496724  0.80355686  0.25014144  1
  Zr  Zr53  1  0.19418257  0.20670220  0.49268893  1
  Zr  Zr54  1  0.09854573  0.71921465  0.37099603  1
  Zr  Zr55  1  0.00186551  0.39736811  0.49627021  1
  Zr  Zr56  1  0.90544503  0.10176961  0.12953346  1
  Zr  Zr57  1  0.02251863  0.81189052  0.51964400  1
  Zr  Zr58  1  0.60870834  0.20396811  0.73342736  1
  Zr  Zr59  1  -0.00183300  0.60447200  0.50405633  1
  Zr  Zr60  1  0.10307360  0.51048086  0.36671555  1
  Zr  Zr61  1  0.38904776  0.20207462  -0.00597832  1
  Zr  Zr62  1  0.40217018  0.40376397  0.01597175  1
  Zr  Zr63  1  0.90542981  0.88328964  0.86870589  1
  Zr  Zr64  1  0.80725070  0.40495296  0.23819510  1
  Zr  Zr65  1  0.58930755  0.60558264  -0.00805160  1
  Zr  Zr66  1  0.78805038  0.80356300  0.25055323  1
  Zr  Zr67  1  -0.00620225  0.20144510  0.75554347  1
  Zr  Zr68  1  0.00780428  -0.00190067  -0.01291166  1
  Zr  Zr69  1  0.40241679  0.39534612  0.49377780  1
  Zr  Zr70  1  0.90626886  0.51781831  0.88761753  1
  Zr  Zr71  1  0.88492676  0.67737252  0.12848497  1
  Zr  Zr72  1  0.29689452  0.50176381  0.87970462  1
  Zr  Zr73  1  0.30464943  0.30330003  0.86584284  1
  Zr  Zr74  1  0.69787657  0.52604968  0.13382558  1
  Zr  Zr75  1  0.29325157  0.08738115  0.38900990  1
  Zr  Zr76  1  0.58390222  0.18406356  -0.00445723  1
  Zr  Zr77  1  0.48432665  0.69327246  0.12996932  1
  Zr  Zr78  1  0.50263928  0.92205374  0.85753127  1
  Zr  Zr79  1  0.11103264  0.90166395  0.11475623  1
  Ta  Ta80  1  0.00182985  0.40032591  0.74625148  1
  Ta  Ta81  1  0.69509400  0.29557186  0.87935145  1
  Ta  Ta82  1  0.89251276  0.09728258  0.87244217  1
  Ta  Ta83  1  0.00785144  -0.00025795  0.75565179  1
  Ta  Ta84  1  0.19879571  0.39814296  0.01809998  1
  Ta  Ta85  1  -0.00218028  0.20078554  -0.00544076  1
  Ta  Ta86  1  0.60115214  0.80418937  0.51688137  1
  Ta  Ta87  1  0.19639701  0.79573390  0.72636270  1
  Ta  Ta88  1  0.61031403  -0.00112218  0.26315279  1
  Ta  Ta89  1  0.50009037  0.10487477  0.37721130  1
  Ta  Ta90  1  0.09251117  0.30356690  0.62450747  1
  Ta  Ta91  1  0.80049833  0.19551368  0.74139356  1
  Ta  Ta92  1  0.50394242  0.31041859  0.62607896  1
  Ta  Ta93  1  0.30222237  0.69606009  0.38525084  1
  Ta  Ta94  1  0.09163084  0.29740602  0.13152680  1
  Ta  Ta95  1  0.10772769  0.49178191  0.62589459  1
  Ta  Ta96  1  0.21556526  0.60059154  0.73360491  1
  Ta  Ta97  1  0.32296755  0.08634539  0.85723477  1
  Ta  Ta98  1  0.19943254  -0.00349585  0.25839527  1
  Ta  Ta99  1  0.80411381  -0.00426931  0.73127968  1
  Ta  Ta100  1  0.31066024  0.89502064  0.12524123  1
  Ta  Ta101  1  0.59478415  0.80055205  -0.01252282  1
  Ta  Ta102  1  0.79375265  0.19819600  0.00192810  1
  Ta  Ta103  1  0.29816505  0.09302226  0.61421010  1
  Ta  Ta104  1  0.88566831  0.30162161  0.38099383  1
  Ta  Ta105  1  0.90476263  0.09897028  0.61626529  1
  Ta  Ta106  1  0.40776177  -0.00230453  0.71974281  1
  Ta  Ta107  1  0.28915124  0.88629810  0.40093249  1
  Ta  Ta108  1  0.71391375  0.10642109  0.60657718  1
  Ta  Ta109  1  0.21267811  -0.01143578  0.74706115  1
  Ta  Ta110  1  0.40949388  0.19213719  0.73220331  1
  Ta  Ta111  1  0.49648082  0.49755997  0.62841688  1
  Ta  Ta112  1  0.80113910  0.00074974  0.24740189  1
  Ta  Ta113  1  0.40536648  0.19742081  0.50561843  1
  Ta  Ta114  1  0.30305081  0.51333579  0.13160727  1
  Ta  Ta115  1  0.89361941  0.50018121  0.37484739  1
  Ta  Ta116  1  0.89670140  0.69076849  0.36809771  1
  Ta  Ta117  1  0.00272409  0.80548810  0.73778881  1
  Ta  Ta118  1  0.68045099  0.71653024  0.12948040  1
  Ta  Ta119  1  0.11950732  0.88987971  0.87076236  1
  Ti  Ti120  1  0.59897035  0.41321549  0.49158027  1
  Ti  Ti121  1  0.19708102  0.41206839  0.24366644  1
  Ti  Ti122  1  0.68683708  0.50120707  0.61890629  1
  Ti  Ti123  1  0.60210898  0.39903975  0.74732335  1
  Ti  Ti124  1  0.70427123  0.70430777  0.87124041  1
  Ti  Ti125  1  0.00761501  0.40245689  0.01323069  1
  Ti  Ti126  1  0.00023848  0.19941581  0.49335009  1
  Ti  Ti127  1  0.19673426  0.20020260  -0.00384656  1
  Ti  Ti128  1  0.39437209  0.79022046  0.25906255  1
  Ti  Ti129  1  0.89799972  0.29217774  0.61488436  1
  Ti  Ti130  1  0.20497852  0.40698164  0.49608839  1
  Ti  Ti131  1  0.50189284  0.28949662  0.86079388  1
  Ti  Ti132  1  0.19467141  0.59703233  0.01007659  1
  Ti  Ti133  1  0.01359439  -0.00151843  0.25573479  1
  Ti  Ti134  1  0.10819894  0.09642571  0.87333190  1
  Ti  Ti135  1  0.39566946  0.58466342  0.50024495  1
  Ti  Ti136  1  -0.00775114  0.59750540  0.24988088  1
  Ti  Ti137  1  0.00775313  -0.00022332  0.49969813  1
  Ti  Ti138  1  0.49343485  0.49393540  0.36634545  1
  Ti  Ti139  1  0.40217326  -0.00750409  0.51420818  1
  Ti  Ti140  1  -0.00595156  0.19913826  0.25596620  1
  Ti  Ti141  1  0.29965206  0.50490884  0.36470419  1
  Ti  Ti142  1  0.19689946  0.40551529  0.74463835  1
  Ti  Ti143  1  0.90520870  0.29521573  0.12083764  1
  Ti  Ti144  1  0.39603168  0.60585108  -0.00116223  1
  Ti  Ti145  1  0.29027971  0.70949578  0.11351234  1
  Ti  Ti146  1  -0.00430077  0.40136587  0.24435975  1
  Ti  Ti147  1  0.09485907  0.50370268  0.12792885  1
  Ti  Ti148  1  0.39718003  0.40763293  0.74236187  1
  Ti  Ti149  1  0.69797663  0.69329985  0.61802823  1
  Ti  Ti150  1  0.61195966  -0.01296726  -0.00081683  1
  Ti  Ti151  1  0.79239863  0.59162515  0.50138743  1
  Ti  Ti152  1  0.69724591  0.29182005  0.12538403  1
  Ti  Ti153  1  0.40142972  0.59598783  0.25293514  1
  Ti  Ti154  1  0.59773172  0.00603325  0.51530554  1
  Ti  Ti155  1  0.59080005  0.79896887  0.26196375  1
  Ti  Ti156  1  0.71033039  0.31279896  0.61174607  1
  Ti  Ti157  1  0.20455666  0.60792274  0.24370429  1
  Ti  Ti158  1  0.18976641  0.18800932  0.26088308  1
  Ti  Ti159  1  0.60134725  0.00895359  0.71704797  1
  Mo  Mo160  1  0.59190597  0.61086952  0.25271169  1
  Mo  Mo161  1  0.30418361  0.69465648  0.61587948  1
  Mo  Mo162  1  0.91122402  0.49931138  0.12263732  1
  Mo  Mo163  1  0.00071019  0.79682593  0.25405058  1
  Mo  Mo164  1  0.49043541  0.50012529  0.13787069  1
  Mo  Mo165  1  -0.00614724  0.59119363  0.00852284  1
  Mo  Mo166  1  0.78771186  0.60957300  -0.00455815  1
  Mo  Mo167  1  0.39379764  0.41017007  0.24701765  1
  Mo  Mo168  1  0.39665537  0.18791487  0.26619958  1
  Mo  Mo169  1  0.29988339  0.89717902  0.60900206  1
  Mo  Mo170  1  0.60209107  0.19760287  0.27427761  1
  Mo  Mo171  1  0.90995079  0.91136321  0.63448649  1
  Mo  Mo172  1  0.50325246  0.10255537  0.85476232  1
  Mo  Mo173  1  0.50497771  0.29823986  0.36637346  1
  Mo  Mo174  1  0.70300529  0.31214289  0.38185654  1
  Mo  Mo175  1  0.60001395  0.59092430  0.50674127  1
  Mo  Mo176  1  0.39364878  0.78945771  0.50566348  1
  Mo  Mo177  1  0.88640385  0.70427154  0.87017078  1
  Mo  Mo178  1  0.20437058  0.80056807  0.00175273  1
  Mo  Mo179  1  0.80976534  0.20871659  0.50425263  1
  Mo  Mo180  1  -0.00483949  0.79776831  -0.00248691  1
  Mo  Mo181  1  0.10007328  0.69519429  0.63189814  1
  Mo  Mo182  1  0.18950705  -0.00924260  0.50656382  1
  Mo  Mo183  1  0.39538352  0.59771458  0.74675063  1
  Mo  Mo184  1  0.81434801  0.00052346  0.51173214  1
  Mo  Mo185  1  0.50094304  0.90054853  0.61412140  1
  Mo  Mo186  1  0.50200966  0.10694056  0.60828782  1
  Mo  Mo187  1  0.20417115  0.79815213  0.51889385  1
  Mo  Mo188  1  0.10873813  0.91593882  0.37898812  1
  Mo  Mo189  1  0.09183258  0.09701509  0.37277242  1
  Mo  Mo190  1  0.49925186  0.09085737  0.15724537  1
  Mo  Mo191  1  0.30073765  0.90091586  0.86048435  1
  Mo  Mo192  1  0.70158478  0.90045624  0.12755129  1
  Mo  Mo193  1  0.10471283  0.91054127  0.63599707  1
  Mo  Mo194  1  0.30581525  0.49597110  0.62567861  1
  Mo  Mo195  1  0.79804146  0.79835274  0.73709485  1
  Mo  Mo196  1  0.79797322  0.60277602  0.25964205  1
  Mo  Mo197  1  0.78830378  0.40099432  0.49572504  1
  Mo  Mo198  1  0.70822568  0.90593904  0.61420784  1
  Mo  Mo199  1  0.49812777  0.70542540  0.87224634  1
