# generated using pymatgen
data_HfZrTaTiMo
_symmetry_space_group_name_H-M   'P 1'
_cell_length_a   15.20255328
_cell_length_b   15.22096594
_cell_length_c   16.85835168
_cell_angle_alpha   89.95464271
_cell_angle_beta   90.01957442
_cell_angle_gamma   90.17294094
_symmetry_Int_Tables_number   1
_chemical_formula_structural   HfZrTaTiMo
_chemical_formula_sum   'Hf40 Zr40 Ta40 Ti40 Mo40'
_cell_volume   3900.96198458
_cell_formula_units_Z   40
loop_
 _symmetry_equiv_pos_site_id
 _symmetry_equiv_pos_as_xyz
  1  'x, y, z'
loop_
 _atom_site_type_symbol
 _atom_site_label
 _atom_site_symmetry_multiplicity
 _atom_site_fract_x
 _atom_site_fract_y
 _atom_site_fract_z
 _atom_site_occupancy
  Hf  Hf0  1  0.89010979  0.90347825  0.11504815  1
  Hf  Hf1  1  0.78567632  -0.00929617  0.25481377  1
  Hf  Hf2  1  0.00065886  0.79795314  0.75818241  1
  Hf  Hf3  1  0.18793889  0.38293571  -0.01556363  1
  Hf  Hf4  1  0.81138523  0.20332270  0.25162381  1
  Hf  Hf5  1  0.87649243  0.89414565  0.63412115  1
  Hf  Hf6  1  0.20043497  0.00594791  0.25606998  1
  Hf  Hf7  1  0.70242373  0.72198775  0.64803183  1
  Hf  Hf8  1  0.48606262  0.09606062  0.37851071  1
  Hf  Hf9  1  0.89202425  0.49638378  0.11965023  1
  Hf  Hf10  1  0.30400220  0.70624064  0.13808320  1
  Hf  Hf11  1  0.00313182  0.01437915  -0.01752423  1
  Hf  Hf12  1  0.01214982  0.39204437  0.26779779  1
  Hf  Hf13  1  0.29039433  0.11052882  0.63884472  1
  Hf  Hf14  1  0.19961702  0.40102052  0.50754548  1
  Hf  Hf15  1  0.09881122  0.90187026  0.12002364  1
  Hf  Hf16  1  0.89505739  0.29091094  0.62937093  1
  Hf  Hf17  1  0.80391627  0.40319670  0.25867918  1
  Hf  Hf18  1  -0.00469833  0.58848765  0.25788175  1
  Hf  Hf19  1  0.21048876  0.17965684  -0.02234212  1
  Hf  Hf20  1  0.89876766  0.69930672  0.11345406  1
  Hf  Hf21  1  0.50238332  0.31210272  0.12221479  1
  Hf  Hf22  1  0.09363870  0.90209529  0.61921617  1
  Hf  Hf23  1  0.29373336  0.49656382  0.37311737  1
  Hf  Hf24  1  -0.01595164  0.78519602  0.49596587  1
  Hf  Hf25  1  0.19761310  0.79859355  0.25437660  1
  Hf  Hf26  1  0.62136520  0.81357727  0.50172728  1
  Hf  Hf27  1  0.31174530  0.69108073  0.37256059  1
  Hf  Hf28  1  0.19743129  0.59394621  0.00574350  1
  Hf  Hf29  1  0.09949865  0.89949199  0.38180613  1
  Hf  Hf30  1  0.39396867  0.79787149  0.74141818  1
  Hf  Hf31  1  0.69115494  0.70527608  0.86136963  1
  Hf  Hf32  1  0.90506230  0.09817597  0.11817017  1
  Hf  Hf33  1  -0.01017715  0.79179535  0.25588820  1
  Hf  Hf34  1  0.10459400  0.29094621  0.64390844  1
  Hf  Hf35  1  0.39881566  0.19399005  0.24606332  1
  Hf  Hf36  1  0.49722650  0.11901882  0.87844680  1
  Hf  Hf37  1  0.89962287  0.49859034  0.60796513  1
  Hf  Hf38  1  0.60841129  0.21374109  0.23899420  1
  Hf  Hf39  1  0.62245047  0.80541077  0.24516253  1
  Zr  Zr40  1  0.21063835  0.80147165  0.50370079  1
  Zr  Zr41  1  0.30410774  0.48499117  0.12821411  1
  Zr  Zr42  1  0.49952816  0.10692903  0.62802191  1
  Zr  Zr43  1  0.19838577  0.78749319  0.74093156  1
  Zr  Zr44  1  0.70034810  0.51932636  0.39039568  1
  Zr  Zr45  1  0.80677277  0.58228459  0.76084707  1
  Zr  Zr46  1  0.30233444  0.09344872  0.11987368  1
  Zr  Zr47  1  -0.00023270  0.37959851  0.49141933  1
  Zr  Zr48  1  0.30523681  0.88850157  0.88284786  1
  Zr  Zr49  1  0.50123537  0.30121597  0.37761896  1
  Zr  Zr50  1  0.58521452  0.57952957  0.75206401  1
  Zr  Zr51  1  -0.00933503  0.40960702  0.75196062  1
  Zr  Zr52  1  0.78374639  -0.00918121  0.49413997  1
  Zr  Zr53  1  0.10512816  0.67510629  0.38711946  1
  Zr  Zr54  1  0.79063831  0.59151593  -0.01336609  1
  Zr  Zr55  1  0.90066018  0.10179776  0.63483552  1
  Zr  Zr56  1  0.31644044  0.29920988  0.86913028  1
  Zr  Zr57  1  0.41357871  0.82059363  0.25545375  1
  Zr  Zr58  1  0.00026524  0.79527838  -0.00717081  1
  Zr  Zr59  1  0.49775290  0.50297094  0.37666935  1
  Zr  Zr60  1  0.51488154  0.90195367  0.64089617  1
  Zr  Zr61  1  0.69766597  0.09467427  0.11912148  1
  Zr  Zr62  1  0.47870234  0.69743021  0.86941961  1
  Zr  Zr63  1  -0.00406154  -0.00291762  0.76090090  1
  Zr  Zr64  1  0.70582953  0.31029060  0.39134320  1
  Zr  Zr65  1  0.09038377  0.47307685  0.11740201  1
  Zr  Zr66  1  0.90452477  0.69200124  0.63337596  1
  Zr  Zr67  1  0.52198920  0.70085143  0.37195530  1
  Zr  Zr68  1  0.41317751  0.79831344  0.50135368  1
  Zr  Zr69  1  0.69163736  0.10428436  0.37613984  1
  Zr  Zr70  1  0.79453119  0.61745888  0.25554770  1
  Zr  Zr71  1  0.69920319  0.50208566  0.61236781  1
  Zr  Zr72  1  -0.01226657  0.00688471  0.49056504  1
  Zr  Zr73  1  0.00455202  0.19617686  0.25950039  1
  Zr  Zr74  1  0.58578288  0.79100603  0.00442711  1
  Zr  Zr75  1  0.59159992  0.58238394  0.00151368  1
  Zr  Zr76  1  0.80238713  0.20336903  0.00521466  1
  Zr  Zr77  1  0.39123556  0.00182333  0.50773310  1
  Zr  Zr78  1  0.10118509  0.10819907  0.11904777  1
  Zr  Zr79  1  0.40239655  0.61302584  0.01471555  1
  Ta  Ta80  1  0.30681096  0.30963186  0.63773353  1
  Ta  Ta81  1  0.01188168  0.22314301  -0.02014468  1
  Ta  Ta82  1  0.87220591  0.87839140  0.37244704  1
  Ta  Ta83  1  0.57626633  0.00006987  0.24587338  1
  Ta  Ta84  1  0.20108999  0.21509996  0.24877933  1
  Ta  Ta85  1  0.77696906  0.38318131  0.74664506  1
  Ta  Ta86  1  0.20179632  -0.00487375  0.75582247  1
  Ta  Ta87  1  0.70097348  0.69906173  0.11835463  1
  Ta  Ta88  1  0.10711725  0.89820398  0.88184160  1
  Ta  Ta89  1  0.89095284  0.11067582  0.86874495  1
  Ta  Ta90  1  0.69456127  0.90494217  0.87514358  1
  Ta  Ta91  1  0.59674278  0.00247417  -0.00676077  1
  Ta  Ta92  1  0.30303932  0.29903008  0.37750567  1
  Ta  Ta93  1  0.20725984  0.79119895  0.00459460  1
  Ta  Ta94  1  0.10945580  0.69470737  0.87973952  1
  Ta  Ta95  1  0.89300973  0.30340412  0.86427234  1
  Ta  Ta96  1  0.41241372  0.21311338  0.74720013  1
  Ta  Ta97  1  0.39627591  0.40212782  0.50698339  1
  Ta  Ta98  1  0.09818505  0.68942646  0.12632059  1
  Ta  Ta99  1  0.30707744  0.51006793  0.87578897  1
  Ta  Ta100  1  0.90127233  0.69722634  0.87302155  1
  Ta  Ta101  1  0.01360888  0.60103800  0.75826308  1
  Ta  Ta102  1  0.29964630  0.90485835  0.11350981  1
  Ta  Ta103  1  -0.01139671  -0.00508859  0.26292981  1
  Ta  Ta104  1  0.28890306  0.11097695  0.37923622  1
  Ta  Ta105  1  0.70227363  0.10217952  0.62343143  1
  Ta  Ta106  1  0.29458143  0.29276477  0.11285141  1
  Ta  Ta107  1  0.49216359  0.91000874  0.11423193  1
  Ta  Ta108  1  0.09947087  0.49671291  0.87403100  1
  Ta  Ta109  1  0.61516948  0.21197088  0.74491347  1
  Ta  Ta110  1  0.69860666  0.29124444  0.87664910  1
  Ta  Ta111  1  0.92120570  0.30624833  0.11848902  1
  Ta  Ta112  1  0.41209700  0.41440879  0.74731644  1
  Ta  Ta113  1  0.50235855  0.90479934  0.87281249  1
  Ta  Ta114  1  0.29961398  0.51119777  0.62393346  1
  Ta  Ta115  1  0.19381831  0.58201020  0.24489418  1
  Ta  Ta116  1  0.50632450  0.30895146  0.62227128  1
  Ta  Ta117  1  0.49474142  0.10241306  0.11048814  1
  Ta  Ta118  1  0.49820835  0.69278818  0.62820571  1
  Ta  Ta119  1  0.09856159  0.10179837  0.63628529  1
  Ti  Ti120  1  0.59839269  0.59605164  0.23684660  1
  Ti  Ti121  1  0.59653104  0.19819072  0.50456185  1
  Ti  Ti122  1  0.82581750  0.19767813  0.48694648  1
  Ti  Ti123  1  0.19572723  0.00992059  0.50206628  1
  Ti  Ti124  1  0.51414707  0.31594982  0.87438884  1
  Ti  Ti125  1  0.29676396  0.90557109  0.62761735  1
  Ti  Ti126  1  0.39080813  0.01097345  -0.01344642  1
  Ti  Ti127  1  0.79214483  0.80055299  -0.01115059  1
  Ti  Ti128  1  0.60854090  0.39583648  0.00393017  1
  Ti  Ti129  1  0.68639084  0.47673454  0.86969128  1
  Ti  Ti130  1  0.69285565  0.48647339  0.12966381  1
  Ti  Ti131  1  0.20112336  0.59810357  0.75091758  1
  Ti  Ti132  1  0.39139328  0.20911167  0.50785590  1
  Ti  Ti133  1  0.60202367  0.61737443  0.50796990  1
  Ti  Ti134  1  0.59909185  0.20794915  0.00596747  1
  Ti  Ti135  1  0.59227147  0.00193397  0.50016788  1
  Ti  Ti136  1  0.31039543  0.91427763  0.37700930  1
  Ti  Ti137  1  0.80221669  0.39610746  -0.00540386  1
  Ti  Ti138  1  0.69915150  0.10194282  0.88024903  1
  Ti  Ti139  1  0.20729612  0.40750419  0.75531934  1
  Ti  Ti140  1  0.78716778  0.00349344  0.75715660  1
  Ti  Ti141  1  0.88867813  0.90374201  0.87835142  1
  Ti  Ti142  1  0.11694464  0.29583814  0.37981443  1
  Ti  Ti143  1  0.90279192  0.50457558  0.39834537  1
  Ti  Ti144  1  -0.00385191  0.58685681  -0.01356535  1
  Ti  Ti145  1  0.11033094  0.68218737  0.61143489  1
  Ti  Ti146  1  0.59622432  0.40267941  0.50466421  1
  Ti  Ti147  1  0.10132139  0.50165398  0.62675630  1
  Ti  Ti148  1  0.38530375  0.60183674  0.74648651  1
  Ti  Ti149  1  0.70480242  0.29507904  0.60705154  1
  Ti  Ti150  1  0.40267820  0.39630958  0.24846764  1
  Ti  Ti151  1  0.41078119  0.40568242  -0.00307272  1
  Ti  Ti152  1  0.39735523  0.00650191  0.75729969  1
  Ti  Ti153  1  0.40897932  0.59822435  0.23958191  1
  Ti  Ti154  1  0.10457014  0.10750086  0.85533472  1
  Ti  Ti155  1  0.49367625  0.50360861  0.61390327  1
  Ti  Ti156  1  0.09774120  0.10516058  0.38010027  1
  Ti  Ti157  1  0.60015024  0.01131812  0.75820267  1
  Ti  Ti158  1  0.19558019  0.20183813  0.50650777  1
  Ti  Ti159  1  0.69765207  0.90138890  0.10834110  1
  Mo  Mo160  1  0.89573223  0.69076148  0.38168867  1
  Mo  Mo161  1  0.80205289  0.80915708  0.77168427  1
  Mo  Mo162  1  0.30421231  0.69270013  0.61798187  1
  Mo  Mo163  1  -0.00136700  0.20163816  0.76469855  1
  Mo  Mo164  1  0.49041879  0.48641050  0.87676104  1
  Mo  Mo165  1  0.50613883  0.90956315  0.37678313  1
  Mo  Mo166  1  0.01575833  0.19195554  0.49825375  1
  Mo  Mo167  1  0.68350925  0.90302049  0.37024238  1
  Mo  Mo168  1  0.30643270  0.09603180  0.85802651  1
  Mo  Mo169  1  0.80412817  0.62037383  0.49899647  1
  Mo  Mo170  1  -0.01115691  0.39832240  -0.01789313  1
  Mo  Mo171  1  0.72329085  0.71912717  0.38251770  1
  Mo  Mo172  1  0.50424994  0.49704318  0.13730584  1
  Mo  Mo173  1  0.20704641  0.19935886  0.75809161  1
  Mo  Mo174  1  0.80316194  0.80389548  0.23764234  1
  Mo  Mo175  1  0.59589626  0.39109090  0.74127200  1
  Mo  Mo176  1  0.90305701  0.29337467  0.38149000  1
  Mo  Mo177  1  0.79660090  0.79958784  0.50649361  1
  Mo  Mo178  1  0.01246404  0.58696403  0.49961174  1
  Mo  Mo179  1  0.90171115  0.09097254  0.37210590  1
  Mo  Mo180  1  0.79176474  0.19458628  0.75213174  1
  Mo  Mo181  1  0.69776286  0.91700795  0.64277346  1
  Mo  Mo182  1  0.59436107  0.80889997  0.75946789  1
  Mo  Mo183  1  0.79419624  -0.00461623  -0.01402963  1
  Mo  Mo184  1  0.71629080  0.31414427  0.12394242  1
  Mo  Mo185  1  0.10194445  0.29985937  0.85201533  1
  Mo  Mo186  1  0.39873958  0.80815133  0.00862455  1
  Mo  Mo187  1  0.20940308  0.38797099  0.25109892  1
  Mo  Mo188  1  0.40763504  0.20847272  0.00078257  1
  Mo  Mo189  1  0.89276744  0.49513289  0.87488175  1
  Mo  Mo190  1  0.29010099  0.69190982  0.87789691  1
  Mo  Mo191  1  0.60271490  0.40887339  0.24549250  1
  Mo  Mo192  1  0.10414362  0.29353038  0.11777726  1
  Mo  Mo193  1  0.20930421  0.59430144  0.50865870  1
  Mo  Mo194  1  0.79888699  0.39838335  0.49819074  1
  Mo  Mo195  1  0.19775918  -0.00810456  -0.01318696  1
  Mo  Mo196  1  0.39595794  0.00249897  0.24897835  1
  Mo  Mo197  1  0.10740194  0.48975441  0.37527188  1
  Mo  Mo198  1  0.50704073  0.70314159  0.13898289  1
  Mo  Mo199  1  0.40599785  0.59736679  0.50584823  1
