# generated using pymatgen
data_HfZrTaTiMo
_symmetry_space_group_name_H-M   'P 1'
_cell_length_a   15.21960545
_cell_length_b   15.21176893
_cell_length_c   16.85520465
_cell_angle_alpha   90.00375407
_cell_angle_beta   90.01183968
_cell_angle_gamma   89.84537808
_symmetry_Int_Tables_number   1
_chemical_formula_structural   HfZrTaTiMo
_chemical_formula_sum   'Hf40 Zr40 Ta40 Ti40 Mo40'
_cell_volume   3902.25415835
_cell_formula_units_Z   40
loop_
 _symmetry_equiv_pos_site_id
 _symmetry_equiv_pos_as_xyz
  1  'x, y, z'
loop_
 _atom_site_type_symbol
 _atom_site_label
 _atom_site_symmetry_multiplicity
 _atom_site_fract_x
 _atom_site_fract_y
 _atom_site_fract_z
 _atom_site_occupancy
  Hf  Hf0  1  0.38048748  0.01484397  0.00626403  1
  Hf  Hf1  1  0.82415008  0.59543016  0.50954387  1
  Hf  Hf2  1  0.17577975  0.20885681  0.74322371  1
  Hf  Hf3  1  0.49645956  0.30541739  0.88524316  1
  Hf  Hf4  1  0.10863772  0.49741310  0.87675936  1
  Hf  Hf5  1  0.28902230  0.30819934  0.37366718  1
  Hf  Hf6  1  0.11134649  0.50026036  0.36881128  1
  Hf  Hf7  1  0.70351206  0.49434186  0.12644822  1
  Hf  Hf8  1  0.58117854  -0.01412385  -0.00845037  1
  Hf  Hf9  1  0.80908656  0.79158346  0.25039956  1
  Hf  Hf10  1  0.89736737  0.89195462  0.62087971  1
  Hf  Hf11  1  0.81066824  0.59330144  -0.00103642  1
  Hf  Hf12  1  0.70391546  0.49461763  0.36537321  1
  Hf  Hf13  1  0.49800255  0.30265759  0.37315619  1
  Hf  Hf14  1  0.49162439  0.50777900  0.10833428  1
  Hf  Hf15  1  0.59883577  0.39359804  0.75957064  1
  Hf  Hf16  1  0.22784729  0.60704216  0.24613685  1
  Hf  Hf17  1  0.69973647  0.90037068  0.37370979  1
  Hf  Hf18  1  0.78197896  0.00204145  0.76649989  1
  Hf  Hf19  1  0.30658962  0.69839528  0.88321923  1
  Hf  Hf20  1  0.11306978  0.48262657  0.14404061  1
  Hf  Hf21  1  0.10594507  0.69625350  0.89415051  1
  Hf  Hf22  1  0.40844078  0.81921689  0.00601511  1
  Hf  Hf23  1  0.78989031  0.19310273  0.49448578  1
  Hf  Hf24  1  0.69170788  0.91101772  0.62675210  1
  Hf  Hf25  1  0.09941949  0.09448187  0.38098917  1
  Hf  Hf26  1  0.80972168  0.80392307  0.75719462  1
  Hf  Hf27  1  0.00613817  0.39846486  0.00653689  1
  Hf  Hf28  1  0.19363019  0.78137681  0.49018856  1
  Hf  Hf29  1  0.48904433  0.69805999  0.37687737  1
  Hf  Hf30  1  0.91536153  0.08888481  0.88016504  1
  Hf  Hf31  1  0.28632124  0.31513019  0.12913370  1
  Hf  Hf32  1  0.69629179  0.29117981  0.36098010  1
  Hf  Hf33  1  0.50105538  0.49888964  0.62290163  1
  Hf  Hf34  1  0.79623557  0.00330120  0.49803526  1
  Hf  Hf35  1  0.70922940  0.09156704  0.12872212  1
  Hf  Hf36  1  0.20608648  0.40997894  0.74161883  1
  Hf  Hf37  1  0.79990121  0.38430062  -0.00802231  1
  Hf  Hf38  1  0.70739110  0.69190429  0.37932891  1
  Hf  Hf39  1  0.51175073  0.70647827  0.10808824  1
  Zr  Zr40  1  0.69326927  0.89366364  0.12232156  1
  Zr  Zr41  1  0.01193022  0.62653740  0.25532770  1
  Zr  Zr42  1  0.39109211  0.42199131  0.24494162  1
  Zr  Zr43  1  0.29155647  0.90693939  0.37334006  1
  Zr  Zr44  1  0.10219209  0.08642733  0.12324257  1
  Zr  Zr45  1  0.29951402  0.10106393  0.86473120  1
  Zr  Zr46  1  0.38643286  0.19773673  0.23791956  1
  Zr  Zr47  1  0.20646795  0.18841588  0.50330475  1
  Zr  Zr48  1  0.70715011  0.49160825  0.62879633  1
  Zr  Zr49  1  0.50584776  0.49796463  0.38465482  1
  Zr  Zr50  1  0.70799087  0.70229032  0.63094763  1
  Zr  Zr51  1  0.49438381  0.10221950  0.36313382  1
  Zr  Zr52  1  0.29340597  0.30363912  0.87374759  1
  Zr  Zr53  1  0.01040784  0.39327490  0.74733417  1
  Zr  Zr54  1  0.30954489  0.30166919  0.62688537  1
  Zr  Zr55  1  0.90543276  0.29566634  0.62886723  1
  Zr  Zr56  1  0.80277139  0.80956088  -0.01285261  1
  Zr  Zr57  1  0.80183076  0.20269563  0.76988258  1
  Zr  Zr58  1  0.90908614  0.49712690  0.35870608  1
  Zr  Zr59  1  0.51392684  0.28824678  0.62386424  1
  Zr  Zr60  1  0.28890944  0.89305270  0.62241253  1
  Zr  Zr61  1  0.81219585  0.39022045  0.49313435  1
  Zr  Zr62  1  0.09195224  0.52491711  0.61952900  1
  Zr  Zr63  1  0.08318463  0.90451517  0.88858293  1
  Zr  Zr64  1  0.70672118  0.68943493  0.86447296  1
  Zr  Zr65  1  0.27880403  0.91122813  0.12992105  1
  Zr  Zr66  1  0.59043773  0.00961780  0.49756126  1
  Zr  Zr67  1  0.07464864  0.30380360  0.38998479  1
  Zr  Zr68  1  0.90400341  0.49899196  0.14340235  1
  Zr  Zr69  1  0.91092337  0.50666034  0.87698827  1
  Zr  Zr70  1  0.60897198  0.19343417  -0.00428457  1
  Zr  Zr71  1  0.51202512  0.70696744  0.88518267  1
  Zr  Zr72  1  0.80281395  0.40059411  0.76136427  1
  Zr  Zr73  1  0.59639659  0.59653832  0.24661957  1
  Zr  Zr74  1  0.59291121  0.80073584  0.24914821  1
  Zr  Zr75  1  0.18423195  -0.00468776  0.75021842  1
  Zr  Zr76  1  0.30392853  0.09374007  0.63847395  1
  Zr  Zr77  1  0.49149400  0.89940219  0.37563434  1
  Zr  Zr78  1  0.39835563  0.61601889  0.51487377  1
  Zr  Zr79  1  0.91628594  0.70944767  0.11310511  1
  Ta  Ta80  1  0.92049755  0.70451743  0.88277467  1
  Ta  Ta81  1  -0.01110112  -0.00685678  0.74420291  1
  Ta  Ta82  1  0.40181373  0.20773027  0.01601321  1
  Ta  Ta83  1  0.30622383  0.51688878  0.38688510  1
  Ta  Ta84  1  0.60677476  0.19174854  0.77295377  1
  Ta  Ta85  1  0.29812877  0.89922031  0.87143986  1
  Ta  Ta86  1  0.30763876  0.50427245  0.87740902  1
  Ta  Ta87  1  0.00800280  0.79026978  0.74852550  1
  Ta  Ta88  1  0.90661287  0.28734827  0.12735148  1
  Ta  Ta89  1  0.39916921  0.79790648  0.74695461  1
  Ta  Ta90  1  0.18742792  0.80085890  0.25078581  1
  Ta  Ta91  1  0.19986941  0.41059130  0.50572909  1
  Ta  Ta92  1  0.59543804  0.79462436  0.50978851  1
  Ta  Ta93  1  0.20558538  0.19227989  0.00695990  1
  Ta  Ta94  1  0.38007039  0.01210445  0.49743053  1
  Ta  Ta95  1  0.88988231  0.09598222  0.63243991  1
  Ta  Ta96  1  0.70804862  0.29171398  0.12890282  1
  Ta  Ta97  1  0.81339083  0.19085629  0.24968114  1
  Ta  Ta98  1  0.59414398  0.38912713  0.23307043  1
  Ta  Ta99  1  0.38656619  0.78997254  0.23833333  1
  Ta  Ta100  1  0.49787071  0.50981487  0.88599859  1
  Ta  Ta101  1  0.17719467  0.21321974  0.24877333  1
  Ta  Ta102  1  0.79118640  0.00247231  -0.01558275  1
  Ta  Ta103  1  0.09231339  0.89308346  0.61443096  1
  Ta  Ta104  1  0.83070707  0.60189565  0.74021206  1
  Ta  Ta105  1  0.48916043  0.90677671  0.62453437  1
  Ta  Ta106  1  0.60798729  0.60354127  0.50821948  1
  Ta  Ta107  1  0.41673333  0.19468348  0.75621661  1
  Ta  Ta108  1  0.80940302  0.79401996  0.49661994  1
  Ta  Ta109  1  0.90149786  0.90182545  0.37704021  1
  Ta  Ta110  1  0.70884718  0.69049964  0.11848963  1
  Ta  Ta111  1  0.68848450  0.10957808  0.63450010  1
  Ta  Ta112  1  0.08302785  0.09596879  0.61648290  1
  Ta  Ta113  1  0.69046186  0.49979725  0.87874418  1
  Ta  Ta114  1  0.90019700  0.09505275  0.11699992  1
  Ta  Ta115  1  0.58877334  0.80822121  0.74238641  1
  Ta  Ta116  1  0.40034854  0.60087315  0.74651978  1
  Ta  Ta117  1  0.50005590  0.09508717  0.12793026  1
  Ta  Ta118  1  0.39825999  0.39915986  0.50154293  1
  Ta  Ta119  1  0.01494598  0.62853545  0.48458277  1
  Ti  Ti120  1  0.19660093  0.79620621  0.75327700  1
  Ti  Ti121  1  0.20258687  0.81256701  0.00311572  1
  Ti  Ti122  1  0.40346898  0.40658017  0.75264718  1
  Ti  Ti123  1  0.09299966  0.90053382  0.37987011  1
  Ti  Ti124  1  0.70076408  0.09423275  0.35537326  1
  Ti  Ti125  1  0.09387680  0.30470121  0.60468190  1
  Ti  Ti126  1  0.89535082  0.91201651  0.12311538  1
  Ti  Ti127  1  0.29846280  0.50554655  0.62005648  1
  Ti  Ti128  1  0.80703942  0.38644419  0.25051920  1
  Ti  Ti129  1  0.39743498  -0.00335099  0.23864030  1
  Ti  Ti130  1  0.59678357  -0.00166012  0.24412620  1
  Ti  Ti131  1  0.39087005  0.40576694  0.00408371  1
  Ti  Ti132  1  0.40386768  0.19695493  0.49607678  1
  Ti  Ti133  1  0.00866880  0.19910159  0.00381262  1
  Ti  Ti134  1  0.20276425  0.01378231  0.25726042  1
  Ti  Ti135  1  0.59548592  0.60274796  0.74457962  1
  Ti  Ti136  1  0.59653759  0.20020778  0.23447733  1
  Ti  Ti137  1  0.30866805  0.69318612  0.11100731  1
  Ti  Ti138  1  0.40031017  0.80551300  0.50684533  1
  Ti  Ti139  1  0.67736345  0.89042594  0.87301601  1
  Ti  Ti140  1  0.28838790  0.69626472  0.63134458  1
  Ti  Ti141  1  0.19737176  0.39034297  -0.00207589  1
  Ti  Ti142  1  0.70368089  0.29239997  0.62890257  1
  Ti  Ti143  1  0.20745939  0.58430244  0.00935022  1
  Ti  Ti144  1  0.60657730  0.39483143  0.50187983  1
  Ti  Ti145  1  -0.00913009  0.00263694  0.25061696  1
  Ti  Ti146  1  0.10027215  0.10673678  0.88236194  1
  Ti  Ti147  1  0.89980824  0.09985321  0.37050801  1
  Ti  Ti148  1  0.00224231  0.81374624  0.25458249  1
  Ti  Ti149  1  -0.00499276  -0.00191212  0.50092594  1
  Ti  Ti150  1  -0.01897807  0.19830449  0.50120396  1
  Ti  Ti151  1  0.57619024  0.00659673  0.76582010  1
  Ti  Ti152  1  0.80653173  0.19598533  -0.01039202  1
  Ti  Ti153  1  0.49945104  0.09635949  0.62955652  1
  Ti  Ti154  1  0.59907353  0.19857051  0.49595541  1
  Ti  Ti155  1  0.60023141  0.39554685  0.00579810  1
  Ti  Ti156  1  0.92679720  0.29139054  0.87390201  1
  Ti  Ti157  1  0.08246844  0.89455337  0.11501294  1
  Ti  Ti158  1  0.11150464  0.70112574  0.11038887  1
  Ti  Ti159  1  0.19902045  0.60843057  0.75278288  1
  Mo  Mo160  1  0.70063652  0.30464839  0.88531158  1
  Mo  Mo161  1  0.49108157  0.10257308  0.87821529  1
  Mo  Mo162  1  -0.00640908  0.42054672  0.50522702  1
  Mo  Mo163  1  0.49911450  0.70891136  0.63227040  1
  Mo  Mo164  1  0.90200477  0.71068591  0.37388253  1
  Mo  Mo165  1  0.30437088  0.70778990  0.36939183  1
  Mo  Mo166  1  0.80986600  -0.00273757  0.25307348  1
  Mo  Mo167  1  0.01062449  0.60941222  0.75289180  1
  Mo  Mo168  1  0.10780592  0.71152252  0.36486536  1
  Mo  Mo169  1  0.89628604  0.89493213  0.87117970  1
  Mo  Mo170  1  0.69622907  0.09316701  0.88219827  1
  Mo  Mo171  1  0.19235733  0.00230170  -0.00680019  1
  Mo  Mo172  1  0.01700192  0.59720893  0.01153645  1
  Mo  Mo173  1  0.61180670  0.59267478  -0.00020025  1
  Mo  Mo174  1  0.40374982  -0.01008747  0.75128029  1
  Mo  Mo175  1  0.29495655  0.10307640  0.37299171  1
  Mo  Mo176  1  0.89657679  0.28959508  0.37131659  1
  Mo  Mo177  1  0.80209282  0.59751950  0.24269738  1
  Mo  Mo178  1  -0.00396899  0.18707719  0.24943560  1
  Mo  Mo179  1  0.48385577  0.90165117  0.86608649  1
  Mo  Mo180  1  0.60614506  0.79969408  -0.00130007  1
  Mo  Mo181  1  0.19971083  0.39961234  0.26036054  1
  Mo  Mo182  1  0.91158851  0.50294285  0.61904051  1
  Mo  Mo183  1  0.00487690  0.36430217  0.24526089  1
  Mo  Mo184  1  0.49216742  0.90642038  0.13370989  1
  Mo  Mo185  1  0.18779966  -0.00432955  0.50299744  1
  Mo  Mo186  1  0.29436055  0.10819667  0.12867706  1
  Mo  Mo187  1  0.10915406  0.71261134  0.62865711  1
  Mo  Mo188  1  0.92554424  0.69692865  0.62491214  1
  Mo  Mo189  1  -0.01506005  -0.00259014  0.00713331  1
  Mo  Mo190  1  0.10050606  0.29000671  0.88250735  1
  Mo  Mo191  1  0.40526799  0.61320473  0.24500399  1
  Mo  Mo192  1  0.29918017  0.50596614  0.11385731  1
  Mo  Mo193  1  0.00401558  0.18250011  0.74736593  1
  Mo  Mo194  1  0.00448843  0.80292016  0.00574644  1
  Mo  Mo195  1  0.39730053  0.60180193  -0.00668394  1
  Mo  Mo196  1  0.09594086  0.29079892  0.12400870  1
  Mo  Mo197  1  0.50436329  0.30182202  0.11590624  1
  Mo  Mo198  1  -0.00443875  0.80488561  0.49181904  1
  Mo  Mo199  1  0.20524786  0.59951261  0.49553118  1
