# generated using pymatgen
data_HfZrTaTiMo
_symmetry_space_group_name_H-M   'P 1'
_cell_length_a   15.20788681
_cell_length_b   15.20693798
_cell_length_c   16.82546371
_cell_angle_alpha   90.01705374
_cell_angle_beta   90.03787858
_cell_angle_gamma   90.02936648
_symmetry_Int_Tables_number   1
_chemical_formula_structural   HfZrTaTiMo
_chemical_formula_sum   'Hf40 Zr40 Ta40 Ti40 Mo40'
_cell_volume   3891.14591707
_cell_formula_units_Z   40
loop_
 _symmetry_equiv_pos_site_id
 _symmetry_equiv_pos_as_xyz
  1  'x, y, z'
loop_
 _atom_site_type_symbol
 _atom_site_label
 _atom_site_symmetry_multiplicity
 _atom_site_fract_x
 _atom_site_fract_y
 _atom_site_fract_z
 _atom_site_occupancy
  Hf  Hf0  1  0.50018424  0.09750810  0.61400903  1
  Hf  Hf1  1  0.80462349  0.79471536  -0.02079483  1
  Hf  Hf2  1  0.29289033  0.89188195  0.64685519  1
  Hf  Hf3  1  0.29170488  0.69290835  0.12171477  1
  Hf  Hf4  1  0.49220709  0.71501181  0.36931911  1
  Hf  Hf5  1  0.78994225  0.39621068  0.51085717  1
  Hf  Hf6  1  0.20038571  0.81661371  -0.02579524  1
  Hf  Hf7  1  0.09108493  0.70268158  0.37817648  1
  Hf  Hf8  1  0.60943705  0.20090024  0.00364707  1
  Hf  Hf9  1  0.89998298  0.30975058  0.37528521  1
  Hf  Hf10  1  0.69813786  0.50014255  0.38001093  1
  Hf  Hf11  1  0.58715270  0.40538366  0.25770197  1
  Hf  Hf12  1  0.30278503  0.88184882  0.36739222  1
  Hf  Hf13  1  0.71257019  0.90455985  0.11865577  1
  Hf  Hf14  1  0.39663632  0.78764406  -0.02165515  1
  Hf  Hf15  1  0.90163779  0.70372977  0.64989297  1
  Hf  Hf16  1  0.71686168  0.10549312  0.86164149  1
  Hf  Hf17  1  0.78354363  0.59507918  -0.02213266  1
  Hf  Hf18  1  0.80630850  0.00158926  0.25366761  1
  Hf  Hf19  1  0.31350362  0.08388790  0.11790865  1
  Hf  Hf20  1  0.89906645  0.49599142  0.63670425  1
  Hf  Hf21  1  0.01174999  0.00057355  0.50467102  1
  Hf  Hf22  1  0.20447785  0.59894767  0.50636932  1
  Hf  Hf23  1  0.38755923  0.78416418  0.51112595  1
  Hf  Hf24  1  0.91640936  0.10707502  0.85937069  1
  Hf  Hf25  1  0.28580068  0.28678911  0.11549380  1
  Hf  Hf26  1  0.91070603  0.10277091  0.12226944  1
  Hf  Hf27  1  0.00972490  0.79679293  0.51846822  1
  Hf  Hf28  1  0.39133943  0.59691563  0.26396495  1
  Hf  Hf29  1  0.29415950  0.48978181  0.11214988  1
  Hf  Hf30  1  -0.00029771  0.80185793  -0.01026078  1
  Hf  Hf31  1  -0.00072237  0.60513036  0.23856871  1
  Hf  Hf32  1  0.70258083  0.50625466  0.13397836  1
  Hf  Hf33  1  0.29021438  0.28687289  0.38394727  1
  Hf  Hf34  1  0.18141208  0.39132456  0.24788513  1
  Hf  Hf35  1  0.11796307  0.10953897  0.12232774  1
  Hf  Hf36  1  0.70588089  0.30200276  0.13933630  1
  Hf  Hf37  1  0.02302440  0.00413609  -0.01221153  1
  Hf  Hf38  1  0.91219049  0.10341622  0.64591324  1
  Hf  Hf39  1  0.80704656  0.79541390  0.50351366  1
  Zr  Zr40  1  0.18798946  0.60100081  -0.01513772  1
  Zr  Zr41  1  0.57571285  0.61655204  0.74139614  1
  Zr  Zr42  1  0.00682531  0.00796677  0.25183798  1
  Zr  Zr43  1  0.50283684  0.91192188  0.12654200  1
  Zr  Zr44  1  0.91387675  0.89279030  0.37953695  1
  Zr  Zr45  1  0.81346388  -0.00414226  -0.00363069  1
  Zr  Zr46  1  0.41231854  0.20382919  -0.00349486  1
  Zr  Zr47  1  0.60323774  0.80831897  0.25231964  1
  Zr  Zr48  1  0.70162585  0.90321158  0.63046402  1
  Zr  Zr49  1  0.00292572  0.80551758  0.23429354  1
  Zr  Zr50  1  0.49468154  0.49034313  0.87980343  1
  Zr  Zr51  1  0.09790808  0.49722242  0.37991764  1
  Zr  Zr52  1  0.58998219  0.41359665  0.73722560  1
  Zr  Zr53  1  0.77672157  0.59336528  0.75723576  1
  Zr  Zr54  1  0.90368348  0.90683314  0.65037491  1
  Zr  Zr55  1  0.68986540  0.90945418  0.38000340  1
  Zr  Zr56  1  0.59986399  0.22028805  0.73906139  1
  Zr  Zr57  1  0.81124613  0.20311295  0.00507176  1
  Zr  Zr58  1  0.10916626  0.30408305  0.60881130  1
  Zr  Zr59  1  0.71499426  0.11000229  0.63074066  1
  Zr  Zr60  1  0.81000472  0.78932795  0.25308191  1
  Zr  Zr61  1  0.89926941  0.51828702  0.38520269  1
  Zr  Zr62  1  0.61195711  0.21706784  0.50488544  1
  Zr  Zr63  1  0.91476342  0.31029840  0.86009463  1
  Zr  Zr64  1  0.48965165  0.70430568  0.12949734  1
  Zr  Zr65  1  0.82240303  0.40474135  0.00647539  1
  Zr  Zr66  1  0.69291481  0.69883082  0.11720700  1
  Zr  Zr67  1  0.59807922  0.40637986  0.00446207  1
  Zr  Zr68  1  0.10890439  0.10067399  0.37990391  1
  Zr  Zr69  1  0.38633354  0.40925208  0.48739936  1
  Zr  Zr70  1  0.69943690  0.31494486  0.87248566  1
  Zr  Zr71  1  0.80932704  0.00924436  0.49392422  1
  Zr  Zr72  1  0.59975840  0.00241100  0.74941375  1
  Zr  Zr73  1  0.29152706  0.30144351  0.88828523  1
  Zr  Zr74  1  0.30692864  0.88660716  0.13139525  1
  Zr  Zr75  1  0.38655587  0.39730093  0.26202278  1
  Zr  Zr76  1  0.40127371  -0.01476700  0.50780333  1
  Zr  Zr77  1  0.29427146  0.08845694  0.87952441  1
  Zr  Zr78  1  0.59056552  0.80916470  0.50090463  1
  Zr  Zr79  1  0.50760067  0.10123852  0.87326707  1
  Ta  Ta80  1  0.81140353  0.20373061  0.25239430  1
  Ta  Ta81  1  0.18682052  0.39734022  0.74968321  1
  Ta  Ta82  1  -0.02025241  0.40512339  0.23738407  1
  Ta  Ta83  1  0.20114250  0.58989292  0.75934033  1
  Ta  Ta84  1  0.40648523  0.18877490  0.25226912  1
  Ta  Ta85  1  0.49816167  0.88394048  0.64280708  1
  Ta  Ta86  1  0.69736557  0.90252068  0.87212545  1
  Ta  Ta87  1  0.78972044  0.79457456  0.76784892  1
  Ta  Ta88  1  0.40299182  -0.01858389  -0.01583039  1
  Ta  Ta89  1  0.79689084  0.60566193  0.51382604  1
  Ta  Ta90  1  0.49531268  0.50541034  0.12175392  1
  Ta  Ta91  1  0.19692760  0.79651979  0.51222562  1
  Ta  Ta92  1  0.40508761  0.77523725  0.75913518  1
  Ta  Ta93  1  0.81268447  0.20323484  0.49527374  1
  Ta  Ta94  1  -0.01671061  0.59440697  -0.00911882  1
  Ta  Ta95  1  0.49898534  0.29286051  0.38147103  1
  Ta  Ta96  1  0.50545912  0.88674161  0.86182599  1
  Ta  Ta97  1  0.70878231  0.69358165  0.38127852  1
  Ta  Ta98  1  0.11346642  0.09329808  0.63099911  1
  Ta  Ta99  1  0.40295016  0.20255613  0.74861180  1
  Ta  Ta100  1  0.59812271  0.60229924  0.26038983  1
  Ta  Ta101  1  0.21595212  0.20492461  0.74249987  1
  Ta  Ta102  1  0.90255093  0.50102562  0.85688039  1
  Ta  Ta103  1  0.01866769  0.22642762  0.00112559  1
  Ta  Ta104  1  0.89521732  0.69455940  0.11236079  1
  Ta  Ta105  1  0.31337116  0.08708906  0.37724928  1
  Ta  Ta106  1  0.02601027  0.21539392  0.74429857  1
  Ta  Ta107  1  0.09346596  0.30024653  0.38979399  1
  Ta  Ta108  1  0.50685129  0.10157374  0.38978350  1
  Ta  Ta109  1  0.10839326  0.90422783  0.11974062  1
  Ta  Ta110  1  -0.00160314  0.40433756  0.51229551  1
  Ta  Ta111  1  0.47502036  0.51192242  0.61678932  1
  Ta  Ta112  1  0.01437419  0.59299513  0.74802337  1
  Ta  Ta113  1  0.70324947  0.11177464  0.37363840  1
  Ta  Ta114  1  0.21071287  -0.00654632  0.25170752  1
  Ta  Ta115  1  0.91247592  0.90056290  0.85408305  1
  Ta  Ta116  1  0.00935509  0.21398234  0.25004359  1
  Ta  Ta117  1  0.38628435  0.38898710  0.74501558  1
  Ta  Ta118  1  0.49125232  0.30465670  0.13026516  1
  Ta  Ta119  1  0.59666412  0.20033515  0.25283072  1
  Ti  Ti120  1  0.40037603  0.59317286  -0.00836164  1
  Ti  Ti121  1  0.19572027  0.59354966  0.24969488  1
  Ti  Ti122  1  0.49013190  0.30796841  0.61207494  1
  Ti  Ti123  1  0.30477320  0.09994855  0.62490057  1
  Ti  Ti124  1  0.20110554  0.79034446  0.76777347  1
  Ti  Ti125  1  0.39571837  0.59885926  0.48016276  1
  Ti  Ti126  1  0.20526357  0.19265850  0.25642222  1
  Ti  Ti127  1  0.29040614  0.48864959  0.88628910  1
  Ti  Ti128  1  0.60173247  -0.00076417  -0.00592646  1
  Ti  Ti129  1  0.09830077  0.70095871  0.11215970  1
  Ti  Ti130  1  0.30225936  0.68315757  0.63846210  1
  Ti  Ti131  1  0.28532715  0.48559424  0.62717160  1
  Ti  Ti132  1  0.68623302  0.70681148  0.62527986  1
  Ti  Ti133  1  0.58607795  0.41351158  0.49813772  1
  Ti  Ti134  1  0.68433116  0.50609753  0.61502512  1
  Ti  Ti135  1  0.78817823  0.39378959  0.73987056  1
  Ti  Ti136  1  0.80515876  0.59546276  0.25198472  1
  Ti  Ti137  1  0.59365552  0.80183978  -0.00365303  1
  Ti  Ti138  1  0.59557119  0.01757177  0.25162146  1
  Ti  Ti139  1  0.39679869  -0.00224451  0.75339915  1
  Ti  Ti140  1  0.20487159  -0.01379403  0.50701555  1
  Ti  Ti141  1  0.08829954  0.49602190  0.11326191  1
  Ti  Ti142  1  0.00246912  0.60601064  0.52395498  1
  Ti  Ti143  1  -0.00397251  0.19617625  0.50365665  1
  Ti  Ti144  1  0.08732261  0.69586649  0.86717008  1
  Ti  Ti145  1  0.20595759  0.18471795  0.50324817  1
  Ti  Ti146  1  0.19865604  0.78697245  0.24918698  1
  Ti  Ti147  1  0.49130465  0.91710613  0.36589524  1
  Ti  Ti148  1  0.66890900  0.70046103  0.87679865  1
  Ti  Ti149  1  0.30472024  0.29308748  0.61112666  1
  Ti  Ti150  1  0.11059061  0.89716017  0.37615080  1
  Ti  Ti151  1  0.89636557  0.29494182  0.63353307  1
  Ti  Ti152  1  0.38699268  0.58371502  0.75937925  1
  Ti  Ti153  1  0.11222206  0.11260682  0.86908892  1
  Ti  Ti154  1  0.58869467  0.60799297  0.50048078  1
  Ti  Ti155  1  0.70010473  0.10062381  0.13217485  1
  Ti  Ti156  1  0.09090957  0.47621963  0.87925446  1
  Ti  Ti157  1  0.50669799  0.10144152  0.12179019  1
  Ti  Ti158  1  0.10082982  0.89518328  0.65176504  1
  Ti  Ti159  1  0.70124207  0.30279133  0.36556063  1
  Mo  Mo160  1  0.70383065  0.31292496  0.62291662  1
  Mo  Mo161  1  0.19462381  0.39802847  0.49779244  1
  Mo  Mo162  1  0.40814480  0.00827740  0.25518477  1
  Mo  Mo163  1  0.48678599  0.69401905  0.61878349  1
  Mo  Mo164  1  0.28686632  0.50233786  0.37175378  1
  Mo  Mo165  1  0.59825677  0.00210964  0.49934068  1
  Mo  Mo166  1  0.89624040  0.51192033  0.12389780  1
  Mo  Mo167  1  0.90672959  0.30160737  0.13222441  1
  Mo  Mo168  1  0.01976863  0.00757619  0.75895743  1
  Mo  Mo169  1  0.20819534  -0.00657344  -0.00234132  1
  Mo  Mo170  1  0.10427596  0.50660448  0.62410050  1
  Mo  Mo171  1  0.29657811  0.68253470  0.86532657  1
  Mo  Mo172  1  0.81000004  0.21054667  0.74556022  1
  Mo  Mo173  1  0.91128771  0.89545896  0.11620302  1
  Mo  Mo174  1  0.69709672  0.49907885  0.87160684  1
  Mo  Mo175  1  0.00811204  0.79390301  0.76101378  1
  Mo  Mo176  1  0.10519292  0.29806987  0.86944080  1
  Mo  Mo177  1  0.59951983  0.79719075  0.74917248  1
  Mo  Mo178  1  0.20640513  0.00927713  0.74329273  1
  Mo  Mo179  1  0.79788848  0.40365278  0.25216569  1
  Mo  Mo180  1  0.89871276  0.69255598  0.38528435  1
  Mo  Mo181  1  0.09704802  0.30376803  0.13093058  1
  Mo  Mo182  1  0.19352856  0.18779649  -0.00067975  1
  Mo  Mo183  1  0.49501336  0.69186869  0.88135251  1
  Mo  Mo184  1  0.80542296  -0.00073088  0.76118696  1
  Mo  Mo185  1  0.30750739  0.89596339  0.85242576  1
  Mo  Mo186  1  0.39286136  0.80067461  0.25232969  1
  Mo  Mo187  1  0.28215537  0.69402082  0.37273671  1
  Mo  Mo188  1  0.90158691  0.11499256  0.37407341  1
  Mo  Mo189  1  0.48826351  0.29994511  0.86691690  1
  Mo  Mo190  1  0.39528719  0.40356962  0.00898971  1
  Mo  Mo191  1  0.58785231  0.60632788  -0.00049403  1
  Mo  Mo192  1  0.11426692  0.70306872  0.64132610  1
  Mo  Mo193  1  0.17880665  0.38859472  0.00306470  1
  Mo  Mo194  1  0.00450958  0.40437219  0.73709816  1
  Mo  Mo195  1  0.90303558  0.69446540  0.85870506  1
  Mo  Mo196  1  0.50364436  0.50660107  0.38150462  1
  Mo  Mo197  1  0.39750525  0.19694852  0.50019963  1
  Mo  Mo198  1  0.11012070  0.91380489  0.85668202  1
  Mo  Mo199  1  0.00438330  0.40923969  0.00332131  1
