# generated using pymatgen
data_HfZrTaTiMo
_symmetry_space_group_name_H-M   'P 1'
_cell_length_a   15.20630373
_cell_length_b   15.19877038
_cell_length_c   16.86236432
_cell_angle_alpha   90.05530346
_cell_angle_beta   89.96578051
_cell_angle_gamma   89.88009670
_symmetry_Int_Tables_number   1
_chemical_formula_structural   HfZrTaTiMo
_chemical_formula_sum   'Hf40 Zr40 Ta40 Ti40 Mo40'
_cell_volume   3897.17000667
_cell_formula_units_Z   40
loop_
 _symmetry_equiv_pos_site_id
 _symmetry_equiv_pos_as_xyz
  1  'x, y, z'
loop_
 _atom_site_type_symbol
 _atom_site_label
 _atom_site_symmetry_multiplicity
 _atom_site_fract_x
 _atom_site_fract_y
 _atom_site_fract_z
 _atom_site_occupancy
  Hf  Hf0  1  0.20213293  0.01652952  0.25798751  1
  Hf  Hf1  1  0.58917500  -0.00541452  0.76711332  1
  Hf  Hf2  1  0.80198098  0.19915437  0.00635399  1
  Hf  Hf3  1  0.20134724  0.59992341  0.00137495  1
  Hf  Hf4  1  0.90293264  0.29660190  0.62766103  1
  Hf  Hf5  1  0.30656378  0.50027471  0.62340349  1
  Hf  Hf6  1  0.69059459  0.30633487  0.36005858  1
  Hf  Hf7  1  0.11403977  0.70947261  0.38815588  1
  Hf  Hf8  1  0.61706897  0.59199619  0.22962434  1
  Hf  Hf9  1  0.30379604  0.71374258  0.87452833  1
  Hf  Hf10  1  0.59431124  0.80275829  0.22655547  1
  Hf  Hf11  1  0.10681514  0.28123367  0.37614996  1
  Hf  Hf12  1  0.39193199  0.79363693  0.24443984  1
  Hf  Hf13  1  0.58403768  0.58571385  0.01967785  1
  Hf  Hf14  1  -0.00925225  0.39493779  0.49064765  1
  Hf  Hf15  1  0.09085039  0.91107911  0.38302650  1
  Hf  Hf16  1  0.20655703  0.20080660  -0.00601737  1
  Hf  Hf17  1  0.68189797  0.89248325  0.37297629  1
  Hf  Hf18  1  0.78347079  0.60647045  -0.00449128  1
  Hf  Hf19  1  0.90040638  0.49780032  0.86792688  1
  Hf  Hf20  1  0.19295662  0.39438019  0.00185020  1
  Hf  Hf21  1  0.40376551  -0.00322128  0.25730861  1
  Hf  Hf22  1  0.50042678  0.09244036  0.12981022  1
  Hf  Hf23  1  0.10129984  0.50670317  0.86460526  1
  Hf  Hf24  1  0.29956372  0.48523658  0.13446621  1
  Hf  Hf25  1  0.50632228  0.09601094  0.38051296  1
  Hf  Hf26  1  0.31689316  0.49486787  0.37431653  1
  Hf  Hf27  1  0.29200516  0.89032327  0.38815031  1
  Hf  Hf28  1  0.89439772  0.29360955  0.35691403  1
  Hf  Hf29  1  0.79422910  -0.00272531  0.77033692  1
  Hf  Hf30  1  0.70925814  0.50123295  0.62872844  1
  Hf  Hf31  1  0.70257563  0.10208669  0.36348485  1
  Hf  Hf32  1  0.48377645  0.88431960  0.88862569  1
  Hf  Hf33  1  0.00512735  0.23673797  0.02007982  1
  Hf  Hf34  1  0.42195424  0.59675435  0.49705850  1
  Hf  Hf35  1  0.41408613  0.18635427  -0.01218406  1
  Hf  Hf36  1  0.60499258  0.20398802  0.51054939  1
  Hf  Hf37  1  -0.00451825  0.80278886  0.73733948  1
  Hf  Hf38  1  0.78512578  -0.00675427  0.49703923  1
  Hf  Hf39  1  0.49847199  0.31026174  0.37911922  1
  Zr  Zr40  1  0.09998261  0.50444639  0.61117736  1
  Zr  Zr41  1  0.12154499  0.91787690  0.87338010  1
  Zr  Zr42  1  0.61885760  0.60058442  0.50224361  1
  Zr  Zr43  1  0.09107425  0.70975950  0.87112173  1
  Zr  Zr44  1  0.30875865  0.89540120  0.60878006  1
  Zr  Zr45  1  -0.01415189  0.01670805  0.51007831  1
  Zr  Zr46  1  0.90131902  0.50255797  0.13292532  1
  Zr  Zr47  1  -0.00570027  0.79423943  0.24563723  1
  Zr  Zr48  1  0.59721941  0.20041722  0.74200503  1
  Zr  Zr49  1  0.30164631  0.92077328  0.11244728  1
  Zr  Zr50  1  -0.00053746  0.81339831  0.51386677  1
  Zr  Zr51  1  0.69932408  0.09691376  0.62978125  1
  Zr  Zr52  1  0.78765595  -0.00595758  0.24286543  1
  Zr  Zr53  1  0.00223257  0.02058744  0.00461040  1
  Zr  Zr54  1  0.08330964  0.11660261  0.86333924  1
  Zr  Zr55  1  0.10431469  0.31162136  0.86424226  1
  Zr  Zr56  1  0.89357655  0.89880785  0.11000128  1
  Zr  Zr57  1  0.19264304  0.80864135  0.01101498  1
  Zr  Zr58  1  0.81750230  0.39814191  0.00826009  1
  Zr  Zr59  1  0.58765453  0.78882097  0.75106474  1
  Zr  Zr60  1  0.38347872  0.20280299  0.26196777  1
  Zr  Zr61  1  0.79297432  0.78641527  0.24660217  1
  Zr  Zr62  1  0.58409956  0.80562938  0.51448739  1
  Zr  Zr63  1  0.50610839  0.29378748  0.87195334  1
  Zr  Zr64  1  0.91335118  0.90339707  0.87908431  1
  Zr  Zr65  1  0.41613481  0.59368553  0.24439104  1
  Zr  Zr66  1  0.90032359  0.50108528  0.62941347  1
  Zr  Zr67  1  0.11197860  0.49408732  0.38383202  1
  Zr  Zr68  1  0.20950970  0.81517552  0.74100489  1
  Zr  Zr69  1  0.51842476  0.69732725  0.36785188  1
  Zr  Zr70  1  0.00269892  -0.00737681  0.23960041  1
  Zr  Zr71  1  0.81196020  0.19906766  0.49740340  1
  Zr  Zr72  1  0.40675221  0.40179887  0.00081676  1
  Zr  Zr73  1  0.30896414  0.50188873  0.86724765  1
  Zr  Zr74  1  0.70378772  0.31063677  0.88005805  1
  Zr  Zr75  1  0.00083042  0.60133628  0.26344846  1
  Zr  Zr76  1  0.58929429  0.01844770  -0.01728012  1
  Zr  Zr77  1  0.19197887  0.80818860  0.23436951  1
  Zr  Zr78  1  0.89835866  0.69075522  0.61394367  1
  Zr  Zr79  1  0.09861790  0.49162420  0.13461965  1
  Ta  Ta80  1  0.49726352  0.68005701  0.88613697  1
  Ta  Ta81  1  0.61087849  0.39274321  0.02220343  1
  Ta  Ta82  1  -0.00557059  0.59917244  -0.00324879  1
  Ta  Ta83  1  0.30003404  0.11853485  0.12318232  1
  Ta  Ta84  1  0.49262585  0.29929711  0.62592169  1
  Ta  Ta85  1  0.11053938  0.10023666  0.12374110  1
  Ta  Ta86  1  0.87719056  0.90031759  0.63308560  1
  Ta  Ta87  1  0.29301232  0.08613132  0.86737256  1
  Ta  Ta88  1  0.22059777  0.61164957  0.49615551  1
  Ta  Ta89  1  0.38907602  -0.01706725  0.74781576  1
  Ta  Ta90  1  0.79574360  0.00755898  -0.01158758  1
  Ta  Ta91  1  0.20590428  0.40014544  0.73664566  1
  Ta  Ta92  1  0.20154563  0.60758733  0.74206523  1
  Ta  Ta93  1  0.80296070  0.20331929  0.75491355  1
  Ta  Ta94  1  0.60567376  0.78115456  0.00809457  1
  Ta  Ta95  1  0.18696298  0.00358140  0.51215741  1
  Ta  Ta96  1  0.90314216  0.69881029  0.39039633  1
  Ta  Ta97  1  0.29407091  0.30350850  0.39534651  1
  Ta  Ta98  1  0.70639577  0.70511306  0.63262182  1
  Ta  Ta99  1  0.11228222  0.70246231  0.61336136  1
  Ta  Ta100  1  0.09277033  0.12548283  0.62559199  1
  Ta  Ta101  1  0.50327300  0.50115878  0.63393622  1
  Ta  Ta102  1  0.78780633  0.39792697  0.49289587  1
  Ta  Ta103  1  0.69289808  0.90578365  0.10238711  1
  Ta  Ta104  1  0.29918309  0.10237526  0.61443766  1
  Ta  Ta105  1  0.88301011  0.71091738  0.87635561  1
  Ta  Ta106  1  0.39034295  0.18843531  0.74230439  1
  Ta  Ta107  1  0.89493474  0.09983258  0.63756623  1
  Ta  Ta108  1  0.60283486  0.39991234  0.74050909  1
  Ta  Ta109  1  0.88832277  0.89692583  0.37735940  1
  Ta  Ta110  1  0.40842917  0.61053640  0.74676015  1
  Ta  Ta111  1  0.21021016  0.60650700  0.25535005  1
  Ta  Ta112  1  0.91100231  0.09714050  0.36131451  1
  Ta  Ta113  1  0.89623926  0.11182618  0.13502082  1
  Ta  Ta114  1  0.69005686  0.89996769  0.63149688  1
  Ta  Ta115  1  0.00097383  0.00565730  0.73819116  1
  Ta  Ta116  1  0.91041315  0.29303158  0.86826192  1
  Ta  Ta117  1  0.49244036  0.08297472  0.62262622  1
  Ta  Ta118  1  0.70619351  0.87428625  0.88923174  1
  Ta  Ta119  1  0.79231837  0.61209206  0.76165407  1
  Ti  Ti120  1  -0.00083981  0.60670655  0.74864854  1
  Ti  Ti121  1  0.19875429  0.01227051  0.72962614  1
  Ti  Ti122  1  0.59986010  0.59591766  0.75010714  1
  Ti  Ti123  1  0.01021166  0.39946146  0.26347450  1
  Ti  Ti124  1  0.69054273  0.50214829  0.37175139  1
  Ti  Ti125  1  -0.00325337  0.79533397  0.00552297  1
  Ti  Ti126  1  0.49817986  0.29283078  0.12662482  1
  Ti  Ti127  1  0.40101889  0.78406334  0.01224381  1
  Ti  Ti128  1  0.40899388  0.39326345  0.24733072  1
  Ti  Ti129  1  0.49858023  0.90164122  0.10771001  1
  Ti  Ti130  1  0.81184113  0.58666700  0.48426766  1
  Ti  Ti131  1  0.31287160  0.69904207  0.62728331  1
  Ti  Ti132  1  0.13534493  0.29607869  0.15182770  1
  Ti  Ti133  1  0.30327564  0.29635298  0.86219873  1
  Ti  Ti134  1  0.50328353  0.49261053  0.86831530  1
  Ti  Ti135  1  0.09381558  0.69290231  0.12397800  1
  Ti  Ti136  1  0.68937401  0.50245965  0.87357863  1
  Ti  Ti137  1  0.79059751  0.41329908  0.25098658  1
  Ti  Ti138  1  0.59862878  0.40326628  0.51062274  1
  Ti  Ti139  1  0.59649803  0.19677708  0.24448986  1
  Ti  Ti140  1  0.30175363  0.69015375  0.12086208  1
  Ti  Ti141  1  0.90508661  0.30512262  0.15199009  1
  Ti  Ti142  1  0.40667770  0.39970160  0.50696233  1
  Ti  Ti143  1  0.69681446  0.10056560  0.12641738  1
  Ti  Ti144  1  0.39339913  0.78247970  0.49142495  1
  Ti  Ti145  1  0.40260992  0.39310942  0.74485768  1
  Ti  Ti146  1  0.28957787  0.29730168  0.61229747  1
  Ti  Ti147  1  0.49755077  0.89953078  0.37342669  1
  Ti  Ti148  1  0.41042417  -0.00619684  0.49762087  1
  Ti  Ti149  1  0.01516598  0.19071133  0.24437731  1
  Ti  Ti150  1  0.89289935  0.69512705  0.11726224  1
  Ti  Ti151  1  0.39914535  0.19830513  0.50539455  1
  Ti  Ti152  1  0.78648649  0.79097808  0.49636427  1
  Ti  Ti153  1  0.19791694  0.20756702  0.73941544  1
  Ti  Ti154  1  0.70724168  0.29703925  0.14280723  1
  Ti  Ti155  1  0.00633122  0.39572809  0.74020541  1
  Ti  Ti156  1  0.79685061  0.39915317  0.75277229  1
  Ti  Ti157  1  0.28276014  0.10614128  0.39981972  1
  Ti  Ti158  1  0.80475749  0.60072904  0.26363030  1
  Ti  Ti159  1  0.69151385  0.11739501  0.87904164  1
  Mo  Mo160  1  0.49358004  0.70037871  0.11779025  1
  Mo  Mo161  1  0.20085827  0.01782727  -0.00000423  1
  Mo  Mo162  1  0.09674490  0.90342039  0.11517367  1
  Mo  Mo163  1  0.59606097  0.39648453  0.23211440  1
  Mo  Mo164  1  0.21941937  0.39081388  0.25957524  1
  Mo  Mo165  1  0.49864690  0.48470651  0.12729952  1
  Mo  Mo166  1  0.00339735  0.60142901  0.48834642  1
  Mo  Mo167  1  0.51823881  0.48385226  0.37418217  1
  Mo  Mo168  1  0.39358953  0.59983102  0.00469140  1
  Mo  Mo169  1  0.39184619  0.00066428  -0.00536774  1
  Mo  Mo170  1  0.80124873  0.79855890  0.00117646  1
  Mo  Mo171  1  0.70085229  0.31018371  0.62776110  1
  Mo  Mo172  1  0.09635362  0.09966472  0.38256090  1
  Mo  Mo173  1  0.79277159  0.80014523  0.75047924  1
  Mo  Mo174  1  0.59376000  -0.00351813  0.23749938  1
  Mo  Mo175  1  0.80274695  0.19815124  0.24209179  1
  Mo  Mo176  1  0.10195510  0.30736420  0.62329393  1
  Mo  Mo177  1  0.20571866  0.19443922  0.25858418  1
  Mo  Mo178  1  0.49744814  0.69419488  0.62866335  1
  Mo  Mo179  1  0.70799413  0.70065577  0.12157786  1
  Mo  Mo180  1  0.30302469  0.69588849  0.37143534  1
  Mo  Mo181  1  0.40184283  0.79547626  0.75124462  1
  Mo  Mo182  1  0.30632659  0.90654067  0.88588048  1
  Mo  Mo183  1  0.88878112  0.11093879  0.87139614  1
  Mo  Mo184  1  0.71214002  0.69947837  0.37788059  1
  Mo  Mo185  1  0.68684685  0.69053531  0.87427530  1
  Mo  Mo186  1  0.09490234  0.91248120  0.62679559  1
  Mo  Mo187  1  0.30936159  0.29509404  0.12492737  1
  Mo  Mo188  1  0.20497482  0.79997662  0.51094212  1
  Mo  Mo189  1  -0.00348161  0.20462527  0.74691784  1
  Mo  Mo190  1  0.59158085  0.00061776  0.50322959  1
  Mo  Mo191  1  0.21024868  0.39922736  0.50664107  1
  Mo  Mo192  1  0.49798785  0.90000979  0.62696646  1
  Mo  Mo193  1  -0.00478372  0.19854815  0.49757099  1
  Mo  Mo194  1  0.61039734  0.21248369  0.02130477  1
  Mo  Mo195  1  0.00378919  0.41422689  -0.00463033  1
  Mo  Mo196  1  0.19681168  0.19914971  0.50928558  1
  Mo  Mo197  1  0.88964323  0.49286175  0.37073104  1
  Mo  Mo198  1  0.47950371  0.08881300  0.85402560  1
  Mo  Mo199  1  0.70912352  0.49192533  0.12959675  1
