# generated using pymatgen
data_HfZrTaTiMo
_symmetry_space_group_name_H-M   'P 1'
_cell_length_a   15.21481350
_cell_length_b   15.20697761
_cell_length_c   16.85787355
_cell_angle_alpha   89.97177635
_cell_angle_beta   90.03331325
_cell_angle_gamma   89.82461719
_symmetry_Int_Tables_number   1
_chemical_formula_structural   HfZrTaTiMo
_chemical_formula_sum   'Hf40 Zr40 Ta40 Ti40 Mo40'
_cell_volume   3900.40918393
_cell_formula_units_Z   40
loop_
 _symmetry_equiv_pos_site_id
 _symmetry_equiv_pos_as_xyz
  1  'x, y, z'
loop_
 _atom_site_type_symbol
 _atom_site_label
 _atom_site_symmetry_multiplicity
 _atom_site_fract_x
 _atom_site_fract_y
 _atom_site_fract_z
 _atom_site_occupancy
  Hf  Hf0  1  0.19322312  0.02148037  0.24052828  1
  Hf  Hf1  1  0.81859513  -0.01485345  0.24654906  1
  Hf  Hf2  1  0.08152400  0.91519824  0.11697615  1
  Hf  Hf3  1  0.20538452  0.41772218  0.74768286  1
  Hf  Hf4  1  0.09746322  0.71661196  0.37611842  1
  Hf  Hf5  1  0.11041401  0.71255455  0.88663356  1
  Hf  Hf6  1  0.09817847  0.92406062  0.37815258  1
  Hf  Hf7  1  0.80743932  0.40215035  0.24351319  1
  Hf  Hf8  1  0.08436880  0.31094862  0.85838015  1
  Hf  Hf9  1  0.28732100  0.89864967  0.87817174  1
  Hf  Hf10  1  0.10467244  0.50433482  0.12611677  1
  Hf  Hf11  1  0.60607228  0.18908671  0.73314012  1
  Hf  Hf12  1  0.70848550  0.29811002  0.37383578  1
  Hf  Hf13  1  0.29933224  0.69889303  0.12884114  1
  Hf  Hf14  1  0.19571525  -0.01554921  0.74046462  1
  Hf  Hf15  1  0.00362878  0.60136652  0.49041430  1
  Hf  Hf16  1  -0.01890374  0.81740960  0.25004188  1
  Hf  Hf17  1  0.80669377  0.80017839  0.76740085  1
  Hf  Hf18  1  0.89084364  0.09254178  0.89243346  1
  Hf  Hf19  1  -0.00757748  0.39328488  0.50626193  1
  Hf  Hf20  1  0.61072144  0.60166407  0.51420898  1
  Hf  Hf21  1  0.41897358  0.60668333  0.25315959  1
  Hf  Hf22  1  0.39153440  0.40276457  0.26145368  1
  Hf  Hf23  1  0.68974183  0.30016146  0.13508818  1
  Hf  Hf24  1  0.59043759  0.79296062  0.76570920  1
  Hf  Hf25  1  0.48608695  0.29689152  0.14140001  1
  Hf  Hf26  1  0.48617531  0.91099446  0.86754698  1
  Hf  Hf27  1  0.21165986  0.20813770  -0.01689083  1
  Hf  Hf28  1  0.02225586  0.18480471  0.23377305  1
  Hf  Hf29  1  0.69548978  0.10608717  0.88180120  1
  Hf  Hf30  1  0.30685640  0.48776854  0.12210154  1
  Hf  Hf31  1  0.60824093  0.60015968  -0.02006817  1
  Hf  Hf32  1  0.59349671  -0.00185312  0.00889690  1
  Hf  Hf33  1  0.79116989  0.78681195  -0.01953909  1
  Hf  Hf34  1  0.10408682  0.48535190  0.37667658  1
  Hf  Hf35  1  0.51056800  0.89802693  0.62139504  1
  Hf  Hf36  1  0.69755232  0.50573643  0.37021156  1
  Hf  Hf37  1  0.21057812  0.59427962  0.26266291  1
  Hf  Hf38  1  0.40044292  0.01386433  0.01765268  1
  Hf  Hf39  1  0.31980216  0.31026609  0.85596843  1
  Zr  Zr40  1  0.70602598  0.47599433  0.86708142  1
  Zr  Zr41  1  0.30972272  0.09884368  0.85750894  1
  Zr  Zr42  1  0.81670526  0.58327408  -0.01096127  1
  Zr  Zr43  1  0.60304115  -0.02282992  0.48072827  1
  Zr  Zr44  1  0.59338566  0.79339338  -0.01490703  1
  Zr  Zr45  1  0.71114903  0.07865217  0.61005780  1
  Zr  Zr46  1  0.09078670  0.10439088  0.64512752  1
  Zr  Zr47  1  0.38799442  0.19325106  0.50241053  1
  Zr  Zr48  1  0.20375258  0.80640999  0.50980044  1
  Zr  Zr49  1  0.88383449  0.90511874  0.61774592  1
  Zr  Zr50  1  0.59180131  0.78907351  0.24819985  1
  Zr  Zr51  1  0.49801035  0.30082009  0.38494523  1
  Zr  Zr52  1  0.60425156  0.59053845  0.74605269  1
  Zr  Zr53  1  0.00666546  0.20604018  0.00061370  1
  Zr  Zr54  1  0.20215669  0.40385067  -0.01415763  1
  Zr  Zr55  1  0.31617507  0.90889892  0.37637028  1
  Zr  Zr56  1  0.19870533  0.01403890  0.00736245  1
  Zr  Zr57  1  0.81666357  0.19411456  0.23841746  1
  Zr  Zr58  1  0.49368530  0.50494397  0.39719732  1
  Zr  Zr59  1  0.60443162  -0.00879282  0.25643156  1
  Zr  Zr60  1  0.69713222  0.50561632  0.12835003  1
  Zr  Zr61  1  0.50570652  0.71732800  0.39271381  1
  Zr  Zr62  1  -0.00194013  0.02112548  0.51278677  1
  Zr  Zr63  1  0.49200385  0.48464394  0.86526335  1
  Zr  Zr64  1  0.39408023  0.60449189  0.74379363  1
  Zr  Zr65  1  0.40282142  0.81119408  0.01334569  1
  Zr  Zr66  1  0.59064142  0.20623460  0.01010623  1
  Zr  Zr67  1  0.08158285  0.51787624  0.86714892  1
  Zr  Zr68  1  0.09886601  0.71181046  0.12080558  1
  Zr  Zr69  1  0.08874512  0.30786840  0.64514028  1
  Zr  Zr70  1  0.40817035  0.59950985  -0.00336720  1
  Zr  Zr71  1  0.48308555  0.08651687  0.37282542  1
  Zr  Zr72  1  0.91330445  0.69872269  0.62359086  1
  Zr  Zr73  1  0.30786843  0.70591150  0.87697932  1
  Zr  Zr74  1  -0.00500239  0.60348199  0.25901810  1
  Zr  Zr75  1  0.87774119  0.30772057  0.87351907  1
  Zr  Zr76  1  0.80608674  0.59091895  0.50301630  1
  Zr  Zr77  1  0.29672335  0.51007522  0.61206732  1
  Zr  Zr78  1  0.00160742  0.38848429  0.23963156  1
  Zr  Zr79  1  0.70544892  0.70938605  0.63687632  1
  Ta  Ta80  1  0.30952304  0.70304369  0.38186288  1
  Ta  Ta81  1  0.49920750  0.10618516  0.86732607  1
  Ta  Ta82  1  0.90764484  0.29463370  0.37545476  1
  Ta  Ta83  1  0.51054455  0.49468471  0.12113599  1
  Ta  Ta84  1  0.89804257  0.90415293  0.39216189  1
  Ta  Ta85  1  0.91423117  0.08291097  0.10944762  1
  Ta  Ta86  1  0.80072462  0.00908661  0.75502345  1
  Ta  Ta87  1  0.12377725  0.29594234  0.12037758  1
  Ta  Ta88  1  -0.01213075  -0.00898358  0.75558327  1
  Ta  Ta89  1  0.00985099  0.80392710  0.75454463  1
  Ta  Ta90  1  0.70392559  0.91244194  0.87606266  1
  Ta  Ta91  1  0.20404067  0.38526849  0.25407997  1
  Ta  Ta92  1  0.50867464  0.29387755  0.86589556  1
  Ta  Ta93  1  0.41465807  0.20880551  0.73095696  1
  Ta  Ta94  1  0.88433706  0.71528354  0.38167199  1
  Ta  Ta95  1  0.70054853  0.88886623  0.12216434  1
  Ta  Ta96  1  0.58943243  0.38346443  0.72894009  1
  Ta  Ta97  1  0.48754119  0.70011407  0.61085550  1
  Ta  Ta98  1  0.41421173  0.38802716  -0.00039518  1
  Ta  Ta99  1  0.09910700  0.28093448  0.37958081  1
  Ta  Ta100  1  0.72207112  0.09309030  0.37689302  1
  Ta  Ta101  1  0.30179090  0.10398923  0.63441441  1
  Ta  Ta102  1  0.60411680  0.19427968  0.26165331  1
  Ta  Ta103  1  0.09528588  0.09692310  0.86195455  1
  Ta  Ta104  1  0.92012240  0.68578390  0.87516585  1
  Ta  Ta105  1  0.70435164  0.69836242  0.12259871  1
  Ta  Ta106  1  0.20902390  0.00953356  0.51583806  1
  Ta  Ta107  1  0.20098494  0.79197287  0.73598811  1
  Ta  Ta108  1  0.79342971  0.61963659  0.25493005  1
  Ta  Ta109  1  0.92350875  0.10098943  0.37174399  1
  Ta  Ta110  1  0.89541509  0.70544508  0.11869585  1
  Ta  Ta111  1  0.70591353  0.08957110  0.12655991  1
  Ta  Ta112  1  0.09360956  0.90197171  0.88705447  1
  Ta  Ta113  1  0.08568552  0.51418826  0.63521400  1
  Ta  Ta114  1  0.82277152  0.19316502  0.49881195  1
  Ta  Ta115  1  0.18310656  0.20093104  0.51322860  1
  Ta  Ta116  1  0.82547853  0.57849614  0.75527354  1
  Ta  Ta117  1  -0.01082085  0.40945774  0.01043166  1
  Ta  Ta118  1  0.61218963  0.19204782  0.49060930  1
  Ta  Ta119  1  -0.02673411  0.19266881  0.75878622  1
  Ti  Ti120  1  0.71393978  0.48359164  0.63181275  1
  Ti  Ti121  1  0.40237772  0.20202581  -0.00185773  1
  Ti  Ti122  1  0.79820452  0.19903191  0.01843380  1
  Ti  Ti123  1  0.60837060  0.39522811  0.50662692  1
  Ti  Ti124  1  0.89704021  0.49559848  0.37073701  1
  Ti  Ti125  1  0.90640946  0.89801071  0.89071457  1
  Ti  Ti126  1  0.50978605  0.69497202  0.12494899  1
  Ti  Ti127  1  0.50325805  0.09698503  0.60799919  1
  Ti  Ti128  1  0.29473054  0.51000913  0.87151303  1
  Ti  Ti129  1  0.29066429  0.89473845  0.12890638  1
  Ti  Ti130  1  0.19284399  0.39705627  0.51024198  1
  Ti  Ti131  1  0.78152239  0.80556657  0.50399482  1
  Ti  Ti132  1  0.49913371  0.29864961  0.60404059  1
  Ti  Ti133  1  0.20671378  0.80698109  0.25685284  1
  Ti  Ti134  1  0.29838154  0.13004944  0.13150264  1
  Ti  Ti135  1  0.70407654  0.28791063  0.61483894  1
  Ti  Ti136  1  0.38473308  0.19988200  0.26274818  1
  Ti  Ti137  1  0.28895070  0.30459299  0.39090528  1
  Ti  Ti138  1  0.20220706  0.20331861  0.75320255  1
  Ti  Ti139  1  0.27683631  0.10721284  0.38043792  1
  Ti  Ti140  1  0.79398108  0.38897794  0.01230248  1
  Ti  Ti141  1  0.40251648  -0.01807957  0.23437177  1
  Ti  Ti142  1  0.68931585  0.29387348  0.87243060  1
  Ti  Ti143  1  0.49378436  0.49246931  0.61155030  1
  Ti  Ti144  1  0.39012533  0.80663847  0.73506007  1
  Ti  Ti145  1  0.59172686  0.40707343  0.25777592  1
  Ti  Ti146  1  0.50290569  0.10149630  0.14477541  1
  Ti  Ti147  1  0.08818943  0.89314512  0.61938950  1
  Ti  Ti148  1  0.10559419  0.69867311  0.62271069  1
  Ti  Ti149  1  0.30169555  0.49776921  0.39597705  1
  Ti  Ti150  1  0.70722972  0.87439923  0.36820052  1
  Ti  Ti151  1  0.90168613  0.51022608  0.12903794  1
  Ti  Ti152  1  0.89023925  0.89605253  0.09951533  1
  Ti  Ti153  1  0.19996851  0.60510818  0.49581577  1
  Ti  Ti154  1  0.80165144  0.39267937  0.50192684  1
  Ti  Ti155  1  0.88798982  0.29895715  0.63889800  1
  Ti  Ti156  1  0.19947901  0.60337934  0.00244829  1
  Ti  Ti157  1  0.60464323  -0.00430341  0.74761120  1
  Ti  Ti158  1  0.40732525  0.00510809  0.73450516  1
  Ti  Ti159  1  0.30110384  0.30437751  0.62664749  1
  Mo  Mo160  1  0.19935102  0.80531544  0.00877119  1
  Mo  Mo161  1  0.90076163  0.48956021  0.62597033  1
  Mo  Mo162  1  0.49885086  0.90099993  0.12870561  1
  Mo  Mo163  1  0.80018699  -0.00053845  0.48650285  1
  Mo  Mo164  1  0.90326144  0.29993679  0.11401229  1
  Mo  Mo165  1  0.10662880  0.10470244  0.38343153  1
  Mo  Mo166  1  0.30603885  0.30198860  0.12308057  1
  Mo  Mo167  1  0.60153256  0.59730017  0.24776117  1
  Mo  Mo168  1  -0.00583308  0.80266750  0.49573407  1
  Mo  Mo169  1  0.90686376  0.48594317  0.87404622  1
  Mo  Mo170  1  0.29667127  0.70515005  0.61788117  1
  Mo  Mo171  1  0.39270924  0.60775997  0.50193888  1
  Mo  Mo172  1  0.40748003  0.39470987  0.72726104  1
  Mo  Mo173  1  -0.00746238  0.79688038  -0.00184786  1
  Mo  Mo174  1  0.11043782  0.10709856  0.11669192  1
  Mo  Mo175  1  0.71111091  0.69320151  0.85734939  1
  Mo  Mo176  1  0.39108036  0.39635796  0.50698851  1
  Mo  Mo177  1  0.89328194  0.10945501  0.63473356  1
  Mo  Mo178  1  0.78324815  0.38886672  0.74067127  1
  Mo  Mo179  1  0.39078305  0.80086451  0.24334765  1
  Mo  Mo180  1  0.21111207  0.21156516  0.25605325  1
  Mo  Mo181  1  0.30562224  0.90459404  0.62534545  1
  Mo  Mo182  1  0.79816909  0.80074562  0.24414474  1
  Mo  Mo183  1  0.40149683  0.80928134  0.51001000  1
  Mo  Mo184  1  0.79061924  -0.00517655  0.00735210  1
  Mo  Mo185  1  -0.00443621  0.00463918  0.24873538  1
  Mo  Mo186  1  -0.00262235  0.00267696  -0.01072470  1
  Mo  Mo187  1  0.49313805  0.89676325  0.37529182  1
  Mo  Mo188  1  0.00482244  0.61408203  0.74583848  1
  Mo  Mo189  1  0.70155796  0.89559589  0.63528371  1
  Mo  Mo190  1  0.60754520  0.79585199  0.50340813  1
  Mo  Mo191  1  0.79059643  0.19517115  0.74881284  1
  Mo  Mo192  1  0.00148199  0.59855896  0.00908768  1
  Mo  Mo193  1  0.49611466  0.69941127  0.86732437  1
  Mo  Mo194  1  0.19545970  0.61215948  0.74470746  1
  Mo  Mo195  1  -0.00290291  0.21100006  0.50786761  1
  Mo  Mo196  1  -0.02303156  0.41386701  0.74381193  1
  Mo  Mo197  1  0.70429988  0.69926747  0.37895007  1
  Mo  Mo198  1  0.39317514  -0.00061315  0.51267156  1
  Mo  Mo199  1  0.59791085  0.39305162  0.00036735  1
