# generated using pymatgen
data_HfZrTaTiMo
_symmetry_space_group_name_H-M   'P 1'
_cell_length_a   15.21193036
_cell_length_b   15.21578317
_cell_length_c   16.85829990
_cell_angle_alpha   89.97138399
_cell_angle_beta   89.96298107
_cell_angle_gamma   89.98149513
_symmetry_Int_Tables_number   1
_chemical_formula_structural   HfZrTaTiMo
_chemical_formula_sum   'Hf40 Zr40 Ta40 Ti40 Mo40'
_cell_volume   3902.04476422
_cell_formula_units_Z   40
loop_
 _symmetry_equiv_pos_site_id
 _symmetry_equiv_pos_as_xyz
  1  'x, y, z'
loop_
 _atom_site_type_symbol
 _atom_site_label
 _atom_site_symmetry_multiplicity
 _atom_site_fract_x
 _atom_site_fract_y
 _atom_site_fract_z
 _atom_site_occupancy
  Hf  Hf0  1  0.79147419  0.58336948  -0.00414612  1
  Hf  Hf1  1  0.38340720  0.59111571  0.75126561  1
  Hf  Hf2  1  0.27815391  0.70411376  0.62863638  1
  Hf  Hf3  1  0.71426966  0.51836199  0.38943280  1
  Hf  Hf4  1  0.09836948  0.50660817  0.62483293  1
  Hf  Hf5  1  -0.00502022  -0.00018688  0.49306814  1
  Hf  Hf6  1  0.79001836  0.60935585  0.24120414  1
  Hf  Hf7  1  0.29444973  0.89177106  0.36139625  1
  Hf  Hf8  1  0.50517975  0.09881198  0.13675190  1
  Hf  Hf9  1  0.19578922  0.60530368  0.49306385  1
  Hf  Hf10  1  0.89672015  0.89480255  0.37702147  1
  Hf  Hf11  1  0.78500093  0.81459291  0.23925539  1
  Hf  Hf12  1  0.19398602  0.40072316  0.75587284  1
  Hf  Hf13  1  -0.00878968  0.80443502  0.23178889  1
  Hf  Hf14  1  0.19826009  0.20637680  0.01204156  1
  Hf  Hf15  1  0.19316746  0.00920764  0.23262922  1
  Hf  Hf16  1  0.72221631  0.48315524  0.85066460  1
  Hf  Hf17  1  0.60290169  0.61402704  0.51242141  1
  Hf  Hf18  1  0.30030297  0.89181488  0.11952356  1
  Hf  Hf19  1  0.18336980  0.60194283  0.76203032  1
  Hf  Hf20  1  -0.00367055  0.59499284  0.25052160  1
  Hf  Hf21  1  0.79709570  0.21909842  0.75993962  1
  Hf  Hf22  1  0.51824773  0.30518536  0.12503676  1
  Hf  Hf23  1  0.81463967  0.41047304  0.26404218  1
  Hf  Hf24  1  -0.02039752  0.59965425  0.49603610  1
  Hf  Hf25  1  0.47187922  0.69007046  0.37837604  1
  Hf  Hf26  1  0.40105790  -0.00899119  0.75350034  1
  Hf  Hf27  1  0.81991465  0.20755926  0.49350221  1
  Hf  Hf28  1  0.59248494  0.00172944  0.76100266  1
  Hf  Hf29  1  0.12077919  0.29342875  0.36839426  1
  Hf  Hf30  1  0.31003058  0.30278788  0.88403057  1
  Hf  Hf31  1  0.90062452  0.70009829  0.10583243  1
  Hf  Hf32  1  0.10391899  0.50464266  0.11479353  1
  Hf  Hf33  1  0.90245917  0.11140652  0.63465043  1
  Hf  Hf34  1  0.91150564  0.29024540  0.13472184  1
  Hf  Hf35  1  0.50328902  0.48826563  0.39280781  1
  Hf  Hf36  1  0.09673595  0.29769712  0.62527112  1
  Hf  Hf37  1  0.08727167  0.90419705  0.89226302  1
  Hf  Hf38  1  0.41955306  0.40753956  0.24762895  1
  Hf  Hf39  1  0.19717422  0.00137357  0.75212358  1
  Zr  Zr40  1  0.60081188  0.19668007  0.49241092  1
  Zr  Zr41  1  0.19414406  0.79947343  0.76134457  1
  Zr  Zr42  1  0.71284301  0.30318336  0.13939842  1
  Zr  Zr43  1  0.89743329  0.89936715  0.63160498  1
  Zr  Zr44  1  0.49457304  0.72156300  0.63197303  1
  Zr  Zr45  1  0.67994731  0.49602185  0.12693650  1
  Zr  Zr46  1  0.50750649  0.47460296  0.85710755  1
  Zr  Zr47  1  0.49223856  0.09765397  0.36657092  1
  Zr  Zr48  1  0.90208726  0.69359083  0.88193553  1
  Zr  Zr49  1  0.21631757  0.40637071  0.24596210  1
  Zr  Zr50  1  0.90225175  0.48708295  0.11863936  1
  Zr  Zr51  1  0.78638355  0.80310426  0.75579473  1
  Zr  Zr52  1  0.09811885  0.09836434  0.62895715  1
  Zr  Zr53  1  0.09644089  0.49257458  0.37228239  1
  Zr  Zr54  1  0.40968440  -0.01036324  0.48734601  1
  Zr  Zr55  1  0.58870116  0.79151662  -0.01930737  1
  Zr  Zr56  1  0.80353685  0.22479631  -0.01342218  1
  Zr  Zr57  1  0.38890625  0.58679126  0.52379508  1
  Zr  Zr58  1  0.61384878  -0.01342732  0.25757023  1
  Zr  Zr59  1  0.29298555  0.90185463  0.89855452  1
  Zr  Zr60  1  0.40189852  0.79717140  0.77181115  1
  Zr  Zr61  1  0.89717070  0.90347806  0.87851806  1
  Zr  Zr62  1  0.31714296  0.50684415  0.10802545  1
  Zr  Zr63  1  0.21584160  0.62003605  0.25390832  1
  Zr  Zr64  1  0.18507164  0.01228676  0.02557111  1
  Zr  Zr65  1  0.50421143  0.88314547  0.12959156  1
  Zr  Zr66  1  0.39227222  0.38176382  0.73272033  1
  Zr  Zr67  1  0.30439191  0.10242325  0.88420935  1
  Zr  Zr68  1  0.60211837  0.61202805  0.75537168  1
  Zr  Zr69  1  0.79315890  0.79984663  0.50529481  1
  Zr  Zr70  1  -0.00612177  0.39018320  0.50010616  1
  Zr  Zr71  1  0.70302319  0.11209187  0.12097076  1
  Zr  Zr72  1  0.08638430  0.72035347  0.37786613  1
  Zr  Zr73  1  0.67838842  0.72146276  0.36860375  1
  Zr  Zr74  1  0.09728036  0.89361800  0.62348532  1
  Zr  Zr75  1  0.81420312  0.00966685  0.24507252  1
  Zr  Zr76  1  0.67895400  0.70399803  0.11789237  1
  Zr  Zr77  1  0.40839022  0.18626084  0.74070047  1
  Zr  Zr78  1  0.51318389  0.48862857  0.63577452  1
  Zr  Zr79  1  0.78792768  0.01118188  0.75280064  1
  Ta  Ta80  1  0.71555965  0.50562363  0.63165807  1
  Ta  Ta81  1  0.89620675  0.69130366  0.63315136  1
  Ta  Ta82  1  0.21123624  0.19972906  0.23355945  1
  Ta  Ta83  1  0.29149925  0.69167315  0.89371596  1
  Ta  Ta84  1  0.60343677  0.20944931  0.27180632  1
  Ta  Ta85  1  0.70017244  0.90882443  0.10455358  1
  Ta  Ta86  1  0.20766813  0.19956053  0.49859063  1
  Ta  Ta87  1  0.38526965  0.79657383  0.49691645  1
  Ta  Ta88  1  0.71896576  0.30769113  0.61770878  1
  Ta  Ta89  1  0.41080617  0.19552563  0.00843776  1
  Ta  Ta90  1  0.00365148  -0.00294553  0.23980794  1
  Ta  Ta91  1  0.51669991  0.27471115  0.87378529  1
  Ta  Ta92  1  0.70050852  0.70994151  0.63130127  1
  Ta  Ta93  1  0.38788940  0.77254093  0.24278097  1
  Ta  Ta94  1  0.88132446  0.69085578  0.37504232  1
  Ta  Ta95  1  0.58387696  0.82404358  0.49970582  1
  Ta  Ta96  1  0.20572831  0.20551175  0.75210711  1
  Ta  Ta97  1  0.70791554  0.31000504  0.38430308  1
  Ta  Ta98  1  0.50700552  0.07978284  0.61405034  1
  Ta  Ta99  1  0.68302362  0.11472449  0.88954395  1
  Ta  Ta100  1  0.39659649  0.20013241  0.50526313  1
  Ta  Ta101  1  0.20402100  0.00298284  0.49389467  1
  Ta  Ta102  1  0.00684489  0.18722763  0.25543656  1
  Ta  Ta103  1  0.09863710  0.30636790  0.13038311  1
  Ta  Ta104  1  0.57311598  0.59584687  0.25156971  1
  Ta  Ta105  1  0.61271755  0.39917726  0.50731789  1
  Ta  Ta106  1  0.31100137  0.50282913  0.38001724  1
  Ta  Ta107  1  0.30644084  0.90098956  0.62021165  1
  Ta  Ta108  1  0.48311640  0.67428120  0.11913856  1
  Ta  Ta109  1  0.09821224  0.10285164  0.87340472  1
  Ta  Ta110  1  0.90502837  0.10136574  0.87311782  1
  Ta  Ta111  1  0.31173847  0.30218509  0.11723293  1
  Ta  Ta112  1  0.00413316  0.21080564  0.76528151  1
  Ta  Ta113  1  0.10507372  0.70485358  0.10223638  1
  Ta  Ta114  1  0.30123009  0.09584012  0.61828648  1
  Ta  Ta115  1  0.62185818  0.38808381  -0.01131665  1
  Ta  Ta116  1  0.09469246  0.70142269  0.90365753  1
  Ta  Ta117  1  -0.00467983  0.38899206  -0.01425990  1
  Ta  Ta118  1  0.71260092  0.09696144  0.38011324  1
  Ta  Ta119  1  0.91637272  0.30337276  0.36475919  1
  Ti  Ti120  1  0.67579986  0.90958517  0.62490497  1
  Ti  Ti121  1  0.69820080  0.10357493  0.61555502  1
  Ti  Ti122  1  -0.00610947  0.39831917  0.76260805  1
  Ti  Ti123  1  0.60614386  0.19229387  0.74157993  1
  Ti  Ti124  1  0.42221835  0.39631489  -0.00323798  1
  Ti  Ti125  1  0.39170159  -0.00172006  0.24572760  1
  Ti  Ti126  1  0.40170414  0.79102835  -0.00821563  1
  Ti  Ti127  1  0.08152816  0.70611883  0.61874297  1
  Ti  Ti128  1  0.79639422  0.80508008  -0.00174986  1
  Ti  Ti129  1  0.50280275  0.88164882  0.35547164  1
  Ti  Ti130  1  0.29532225  0.69552457  0.10181548  1
  Ti  Ti131  1  0.70286213  0.69578236  0.87387921  1
  Ti  Ti132  1  0.09727422  0.90673559  0.37162264  1
  Ti  Ti133  1  0.40023117  0.20667622  0.24844030  1
  Ti  Ti134  1  0.40236818  0.38594331  0.51720089  1
  Ti  Ti135  1  0.18753255  0.80820942  0.23610291  1
  Ti  Ti136  1  0.69243525  0.91452099  0.89240558  1
  Ti  Ti137  1  0.41275676  0.59428850  -0.01988152  1
  Ti  Ti138  1  0.32158958  0.30237860  0.37789238  1
  Ti  Ti139  1  0.21827081  0.39899915  0.50662727  1
  Ti  Ti140  1  0.89611351  0.48981218  0.62871042  1
  Ti  Ti141  1  0.60885342  0.40158087  0.26884873  1
  Ti  Ti142  1  0.19197605  0.80941886  0.49642262  1
  Ti  Ti143  1  -0.00941090  0.59497217  0.75587997  1
  Ti  Ti144  1  0.51388288  0.28519360  0.62286409  1
  Ti  Ti145  1  0.29432251  0.10795562  0.37063522  1
  Ti  Ti146  1  0.00671421  0.19923114  -0.00989552  1
  Ti  Ti147  1  0.80318233  0.01059511  -0.00162845  1
  Ti  Ti148  1  0.78957452  0.00108455  0.50058285  1
  Ti  Ti149  1  0.80571391  0.19984564  0.26876551  1
  Ti  Ti150  1  0.19592194  0.39721898  -0.00433658  1
  Ti  Ti151  1  0.90908976  0.09843714  0.11454742  1
  Ti  Ti152  1  0.00090026  0.79510506  0.75568733  1
  Ti  Ti153  1  0.41407536  0.00026600  0.00646522  1
  Ti  Ti154  1  0.59352759  0.81124520  0.76984413  1
  Ti  Ti155  1  0.29663535  0.49650167  0.88474596  1
  Ti  Ti156  1  0.01010184  0.19391946  0.48862668  1
  Ti  Ti157  1  0.59318193  0.58594512  -0.02032542  1
  Ti  Ti158  1  0.10474043  0.09608549  0.37102237  1
  Ti  Ti159  1  0.09141032  0.50279425  0.88760419  1
  Mo  Mo160  1  -0.00643453  0.80946706  0.01320744  1
  Mo  Mo161  1  0.58623794  0.78858159  0.24220984  1
  Mo  Mo162  1  0.01153386  0.39144393  0.25160853  1
  Mo  Mo163  1  0.81630199  0.40078099  0.73931141  1
  Mo  Mo164  1  0.50121480  0.30325249  0.38388364  1
  Mo  Mo165  1  0.80856611  0.60419920  0.74296188  1
  Mo  Mo166  1  0.00128851  0.59363367  -0.00032261  1
  Mo  Mo167  1  0.49885235  0.90625575  0.88930672  1
  Mo  Mo168  1  0.60909018  -0.00240594  0.49041861  1
  Mo  Mo169  1  0.39256240  0.58921585  0.24938971  1
  Mo  Mo170  1  0.29058075  0.70453389  0.37706802  1
  Mo  Mo171  1  0.59633720  0.20306499  0.00387615  1
  Mo  Mo172  1  0.49923794  0.09522997  0.88484777  1
  Mo  Mo173  1  0.50706337  0.49775328  0.11160630  1
  Mo  Mo174  1  0.69483842  0.90559976  0.37791730  1
  Mo  Mo175  1  0.61445705  0.37320566  0.73383803  1
  Mo  Mo176  1  0.31335647  0.10630778  0.12755349  1
  Mo  Mo177  1  0.29413045  0.28934771  0.61914278  1
  Mo  Mo178  1  0.20079261  0.80108602  0.00569155  1
  Mo  Mo179  1  0.49322508  0.69078969  0.87132057  1
  Mo  Mo180  1  0.59943429  0.00442790  0.00018057  1
  Mo  Mo181  1  -0.00224416  0.79695817  0.49747097  1
  Mo  Mo182  1  0.80444340  0.40131103  -0.00261761  1
  Mo  Mo183  1  0.08684838  0.11846082  0.12864822  1
  Mo  Mo184  1  0.79596414  0.60328046  0.51335939  1
  Mo  Mo185  1  0.91020835  0.50065311  0.87331496  1
  Mo  Mo186  1  0.90172633  0.31170161  0.87396997  1
  Mo  Mo187  1  0.10539138  0.29836526  0.87576967  1
  Mo  Mo188  1  0.89938984  0.50369355  0.37412471  1
  Mo  Mo189  1  0.69252733  0.30328915  0.86365978  1
  Mo  Mo190  1  0.89133794  0.90848533  0.10869712  1
  Mo  Mo191  1  -0.00023071  0.00839889  0.75898882  1
  Mo  Mo192  1  -0.00981954  0.01452887  0.00391779  1
  Mo  Mo193  1  0.08725223  0.90167648  0.11682941  1
  Mo  Mo194  1  0.49669120  0.90067632  0.62604681  1
  Mo  Mo195  1  0.20297634  0.59086371  -0.00937479  1
  Mo  Mo196  1  0.91069623  0.10128586  0.37457057  1
  Mo  Mo197  1  0.28839886  0.49351168  0.62281081  1
  Mo  Mo198  1  0.90792008  0.30163654  0.62911955  1
  Mo  Mo199  1  0.80765123  0.40681780  0.49786628  1
