# generated using pymatgen
data_HfZrTaTiMo
_symmetry_space_group_name_H-M   'P 1'
_cell_length_a   15.22397748
_cell_length_b   15.20774837
_cell_length_c   16.83062821
_cell_angle_alpha   89.97649428
_cell_angle_beta   89.97013712
_cell_angle_gamma   90.10020306
_symmetry_Int_Tables_number   1
_chemical_formula_structural   HfZrTaTiMo
_chemical_formula_sum   'Hf40 Zr40 Ta40 Ti40 Mo40'
_cell_volume   3896.66093468
_cell_formula_units_Z   40
loop_
 _symmetry_equiv_pos_site_id
 _symmetry_equiv_pos_as_xyz
  1  'x, y, z'
loop_
 _atom_site_type_symbol
 _atom_site_label
 _atom_site_symmetry_multiplicity
 _atom_site_fract_x
 _atom_site_fract_y
 _atom_site_fract_z
 _atom_site_occupancy
  Hf  Hf0  1  0.19817903  -0.00193097  0.49872352  1
  Hf  Hf1  1  0.19735701  0.80935462  -0.00206691  1
  Hf  Hf2  1  0.10604393  0.51517471  0.12749891  1
  Hf  Hf3  1  0.19687801  0.02096120  0.00647074  1
  Hf  Hf4  1  0.61625076  0.60386896  0.01876076  1
  Hf  Hf5  1  0.70000772  0.10115014  0.36349676  1
  Hf  Hf6  1  0.80221439  -0.01925326  0.00745784  1
  Hf  Hf7  1  0.70766503  0.70204722  0.86843345  1
  Hf  Hf8  1  0.50749162  0.30464583  0.37468678  1
  Hf  Hf9  1  0.69574015  0.90548087  0.86488294  1
  Hf  Hf10  1  0.61474057  0.59234827  0.49428004  1
  Hf  Hf11  1  0.10619914  0.10114844  0.63262611  1
  Hf  Hf12  1  0.48558324  0.50411689  0.36589524  1
  Hf  Hf13  1  0.49847102  0.87306099  0.88424391  1
  Hf  Hf14  1  0.29834425  0.90863652  0.13546100  1
  Hf  Hf15  1  0.21305348  0.60427492  0.76062872  1
  Hf  Hf16  1  0.48730617  0.30051179  0.62434522  1
  Hf  Hf17  1  0.30397123  0.90269929  0.36360616  1
  Hf  Hf18  1  0.90584545  0.68408199  0.38567452  1
  Hf  Hf19  1  0.50132451  0.08312969  0.87919655  1
  Hf  Hf20  1  0.08947148  0.51283897  0.37786658  1
  Hf  Hf21  1  0.41450118  0.61611841  0.01751379  1
  Hf  Hf22  1  -0.00341008  0.00711374  0.49768993  1
  Hf  Hf23  1  0.59426918  0.78532787  0.73659320  1
  Hf  Hf24  1  0.89402192  0.71536536  0.61360743  1
  Hf  Hf25  1  0.79736136  0.58445049  0.25062287  1
  Hf  Hf26  1  0.28362255  0.31266846  0.89761400  1
  Hf  Hf27  1  0.59294973  0.19374156  0.75313014  1
  Hf  Hf28  1  0.09030652  0.29855470  0.61670116  1
  Hf  Hf29  1  0.78531745  0.40207403  0.48886789  1
  Hf  Hf30  1  0.49933119  0.09067067  0.35965607  1
  Hf  Hf31  1  0.70306578  0.31591591  0.10474555  1
  Hf  Hf32  1  0.60753748  0.22484940  0.24494824  1
  Hf  Hf33  1  0.80797660  0.19687266  0.48783552  1
  Hf  Hf34  1  0.50135140  0.30588504  0.89857740  1
  Hf  Hf35  1  0.59800398  -0.00733104  0.51822264  1
  Hf  Hf36  1  0.19707078  0.22496997  0.24207623  1
  Hf  Hf37  1  0.81472847  0.61176992  0.01032532  1
  Hf  Hf38  1  0.09047198  0.09731777  0.14419909  1
  Hf  Hf39  1  0.38366468  0.18556726  0.00156115  1
  Zr  Zr40  1  -0.01067760  0.78719860  0.00672916  1
  Zr  Zr41  1  0.30817568  0.50303634  0.61675255  1
  Zr  Zr42  1  0.10882834  0.50226886  0.88101498  1
  Zr  Zr43  1  0.30961586  0.70110540  0.61634868  1
  Zr  Zr44  1  0.69198274  0.89708397  0.37980259  1
  Zr  Zr45  1  0.21448455  0.42328916  0.25216868  1
  Zr  Zr46  1  0.28993009  0.90611708  0.62778814  1
  Zr  Zr47  1  0.39829076  0.40655847  0.76340520  1
  Zr  Zr48  1  0.29424519  0.30265738  0.61595390  1
  Zr  Zr49  1  0.49784933  0.88656964  0.37280921  1
  Zr  Zr50  1  0.60218551  0.19488603  0.50367208  1
  Zr  Zr51  1  0.10188380  0.90093689  0.36133894  1
  Zr  Zr52  1  0.30425289  0.10314307  0.35912058  1
  Zr  Zr53  1  0.19276777  0.80251419  0.75909341  1
  Zr  Zr54  1  0.89513192  0.51575084  0.60898087  1
  Zr  Zr55  1  0.79523843  0.18833741  0.76648824  1
  Zr  Zr56  1  0.80044447  0.39848225  0.74927521  1
  Zr  Zr57  1  0.70536735  0.49540917  0.87999733  1
  Zr  Zr58  1  0.90709291  0.50707931  0.87973573  1
  Zr  Zr59  1  0.19850763  0.40347702  0.74891882  1
  Zr  Zr60  1  0.40007680  0.79912711  0.74495669  1
  Zr  Zr61  1  0.89339455  0.87470709  0.86668718  1
  Zr  Zr62  1  0.30591222  0.92478025  0.87447071  1
  Zr  Zr63  1  0.09903389  0.69467132  0.61833941  1
  Zr  Zr64  1  0.89619949  0.47851782  0.12353056  1
  Zr  Zr65  1  0.38665063  0.19464110  0.76943731  1
  Zr  Zr66  1  0.49515719  0.09684629  0.13541614  1
  Zr  Zr67  1  0.09104195  0.90934582  0.87041204  1
  Zr  Zr68  1  0.38262772  0.58799549  0.23147077  1
  Zr  Zr69  1  0.90481963  0.10690783  0.62909822  1
  Zr  Zr70  1  0.78783536  0.17917191  -0.01369305  1
  Zr  Zr71  1  0.31495041  0.10746959  0.62261778  1
  Zr  Zr72  1  0.09389647  0.09882317  0.35206510  1
  Zr  Zr73  1  -0.00789389  0.18479898  0.00042026  1
  Zr  Zr74  1  0.60612904  0.00531483  0.00676771  1
  Zr  Zr75  1  -0.00039203  0.40790840  0.74187140  1
  Zr  Zr76  1  0.89685843  0.88009624  0.13692390  1
  Zr  Zr77  1  0.40807768  0.78328444  0.23803732  1
  Zr  Zr78  1  0.19917998  0.19964828  0.48662978  1
  Zr  Zr79  1  0.69958725  0.29875522  0.62772068  1
  Ta  Ta80  1  0.42151927  0.60557054  0.76361224  1
  Ta  Ta81  1  0.32077937  0.71148254  0.88954581  1
  Ta  Ta82  1  0.78911235  -0.01244703  0.24619591  1
  Ta  Ta83  1  0.17888323  0.22043893  0.01874357  1
  Ta  Ta84  1  0.41846665  0.61162185  0.49382508  1
  Ta  Ta85  1  0.59254229  0.40324229  0.75676986  1
  Ta  Ta86  1  0.50543284  0.50693775  0.62768733  1
  Ta  Ta87  1  0.60637283  0.79844627  0.01544816  1
  Ta  Ta88  1  0.19978103  0.40609239  0.48851473  1
  Ta  Ta89  1  0.79403701  0.37391828  0.25997892  1
  Ta  Ta90  1  0.31323330  0.31922558  0.37733238  1
  Ta  Ta91  1  0.59235136  0.60410919  0.23543823  1
  Ta  Ta92  1  0.78843395  0.79181194  0.48923288  1
  Ta  Ta93  1  0.10651680  0.70412689  0.38969458  1
  Ta  Ta94  1  -0.00192967  0.81025318  0.49531197  1
  Ta  Ta95  1  0.71323265  0.88200820  0.62196932  1
  Ta  Ta96  1  0.39805667  0.21661829  0.24088312  1
  Ta  Ta97  1  0.10208896  0.10827464  0.87234498  1
  Ta  Ta98  1  -0.01772989  0.21702206  0.25255926  1
  Ta  Ta99  1  0.80464125  -0.00809998  0.50128147  1
  Ta  Ta100  1  0.80323752  0.78770373  0.26445899  1
  Ta  Ta101  1  0.50245972  0.29985554  0.10312321  1
  Ta  Ta102  1  0.89976327  0.89801258  0.36731300  1
  Ta  Ta103  1  -0.00213075  0.20447707  0.76125787  1
  Ta  Ta104  1  0.70381312  0.68120248  0.62913970  1
  Ta  Ta105  1  0.61144025  0.80273318  0.23860748  1
  Ta  Ta106  1  0.89457733  0.09058374  0.14017757  1
  Ta  Ta107  1  0.01313371  0.38729295  0.00875881  1
  Ta  Ta108  1  0.70198210  0.10388678  0.13705924  1
  Ta  Ta109  1  0.31094403  0.69871289  0.38031979  1
  Ta  Ta110  1  0.01009089  0.77808342  0.25605483  1
  Ta  Ta111  1  0.89811883  0.30374616  0.88499400  1
  Ta  Ta112  1  0.58176174  0.78356463  0.51363100  1
  Ta  Ta113  1  0.31374142  0.51164415  0.89756226  1
  Ta  Ta114  1  -0.00203274  0.20523500  0.48178973  1
  Ta  Ta115  1  0.58736856  0.40200292  0.50269548  1
  Ta  Ta116  1  0.29998827  0.31926783  0.11260021  1
  Ta  Ta117  1  -0.00092445  -0.00675186  0.00585200  1
  Ta  Ta118  1  0.60056513  -0.00600288  0.73009343  1
  Ta  Ta119  1  0.09727912  0.31072433  0.37096794  1
  Ti  Ti120  1  0.69407623  0.29816417  0.88920053  1
  Ti  Ti121  1  0.28535025  0.70229447  0.11680049  1
  Ti  Ti122  1  -0.01195999  0.61898460  0.75023599  1
  Ti  Ti123  1  0.20812757  0.01746421  0.75649933  1
  Ti  Ti124  1  0.29598293  0.10537679  0.14046418  1
  Ti  Ti125  1  0.20755257  0.60050211  0.49278145  1
  Ti  Ti126  1  0.70824571  0.09403422  0.62583914  1
  Ti  Ti127  1  0.20455449  0.80342579  0.49813898  1
  Ti  Ti128  1  -0.00187597  0.40367923  0.25153155  1
  Ti  Ti129  1  0.69708821  0.49855213  0.63371050  1
  Ti  Ti130  1  0.40671205  0.19711569  0.49331638  1
  Ti  Ti131  1  -0.00127667  -0.00323330  0.74488913  1
  Ti  Ti132  1  0.10077328  0.50386461  0.61218237  1
  Ti  Ti133  1  0.01057322  0.60128355  0.00080247  1
  Ti  Ti134  1  0.89563870  0.28616397  0.11825085  1
  Ti  Ti135  1  0.51242576  0.48639608  0.11856746  1
  Ti  Ti136  1  0.89689923  0.09455328  0.35519910  1
  Ti  Ti137  1  0.89718857  0.30148820  0.61947915  1
  Ti  Ti138  1  0.41092574  0.39789055  0.23442897  1
  Ti  Ti139  1  0.50913882  0.50872560  0.89020232  1
  Ti  Ti140  1  0.19479716  0.20744430  0.75834818  1
  Ti  Ti141  1  0.40583494  -0.00874884  0.50785316  1
  Ti  Ti142  1  0.50457296  0.89914894  0.13003502  1
  Ti  Ti143  1  0.39885245  -0.01070611  0.00816768  1
  Ti  Ti144  1  0.68660689  0.69284653  0.36838965  1
  Ti  Ti145  1  0.20042475  0.61122162  -0.00427088  1
  Ti  Ti146  1  0.89519472  0.49213806  0.37728907  1
  Ti  Ti147  1  0.08514981  0.70536044  0.87010744  1
  Ti  Ti148  1  0.18840236  0.61893636  0.25566963  1
  Ti  Ti149  1  0.20334527  0.79521665  0.24860626  1
  Ti  Ti150  1  0.08439951  0.89346876  0.62991157  1
  Ti  Ti151  1  0.09150884  0.30361129  0.87777480  1
  Ti  Ti152  1  0.68349467  0.48542515  0.36036868  1
  Ti  Ti153  1  0.90152454  0.08015495  0.86915944  1
  Ti  Ti154  1  0.92025912  0.68094988  0.14343262  1
  Ti  Ti155  1  0.80253548  -0.01477803  0.73830448  1
  Ti  Ti156  1  0.09734710  0.89564085  0.13877944  1
  Ti  Ti157  1  -0.00388576  0.39974040  0.49471299  1
  Ti  Ti158  1  0.41530329  -0.00086000  0.73878888  1
  Ti  Ti159  1  0.71872181  0.71046155  0.13322366  1
  Mo  Mo160  1  0.39625261  0.80015747  0.49861073  1
  Mo  Mo161  1  0.29697964  0.50896740  0.38351689  1
  Mo  Mo162  1  0.28882503  0.10982238  0.88319172  1
  Mo  Mo163  1  0.50869663  0.69748825  0.36919490  1
  Mo  Mo164  1  0.70326826  0.50136935  0.13393332  1
  Mo  Mo165  1  0.40129704  0.40603870  0.49710147  1
  Mo  Mo166  1  0.81219774  0.39439875  -0.00446198  1
  Mo  Mo167  1  0.69830497  0.08642755  0.86179636  1
  Mo  Mo168  1  -0.00387959  0.80322384  0.74042481  1
  Mo  Mo169  1  0.79064345  0.59783720  0.48499211  1
  Mo  Mo170  1  0.89935499  0.90391018  0.61882590  1
  Mo  Mo171  1  0.80057785  0.19841918  0.24673704  1
  Mo  Mo172  1  0.60090648  0.41175033  0.24045471  1
  Mo  Mo173  1  0.49888589  0.89479858  0.61908358  1
  Mo  Mo174  1  0.90224841  0.69404471  0.86968576  1
  Mo  Mo175  1  0.60036003  -0.00070142  0.24129374  1
  Mo  Mo176  1  0.60070006  0.58725812  0.75383140  1
  Mo  Mo177  1  0.79834321  0.60500167  0.74526649  1
  Mo  Mo178  1  0.69804909  0.30364898  0.37808952  1
  Mo  Mo179  1  -0.01084554  -0.00891765  0.24726817  1
  Mo  Mo180  1  0.08621425  0.31107051  0.13497385  1
  Mo  Mo181  1  0.19671346  0.41317743  0.00801965  1
  Mo  Mo182  1  0.10372476  0.70734249  0.12748264  1
  Mo  Mo183  1  0.00353140  0.59865970  0.50193041  1
  Mo  Mo184  1  0.50157234  0.09775415  0.62664360  1
  Mo  Mo185  1  0.20108053  -0.00009065  0.23849341  1
  Mo  Mo186  1  0.60540518  0.40590185  -0.00233266  1
  Mo  Mo187  1  0.50390661  0.68702273  0.62505111  1
  Mo  Mo188  1  0.80201397  0.79260503  0.73960104  1
  Mo  Mo189  1  0.59783695  0.19444114  -0.00150348  1
  Mo  Mo190  1  0.40346906  0.40912157  0.00539090  1
  Mo  Mo191  1  0.90454772  0.30327713  0.37472680  1
  Mo  Mo192  1  0.40231343  0.00152378  0.24341200  1
  Mo  Mo193  1  0.00275871  0.59434887  0.25561856  1
  Mo  Mo194  1  0.30193861  0.50613309  0.10615386  1
  Mo  Mo195  1  0.50673571  0.69400348  0.88434397  1
  Mo  Mo196  1  0.78728058  0.78883781  0.00543683  1
  Mo  Mo197  1  0.69972748  0.89914848  0.13391446  1
  Mo  Mo198  1  0.51075775  0.70541014  0.12842949  1
  Mo  Mo199  1  0.40275461  0.80637905  0.01614775  1
