# generated using pymatgen
data_HfZrTaTiMo
_symmetry_space_group_name_H-M   'P 1'
_cell_length_a   15.21576652
_cell_length_b   15.20488587
_cell_length_c   16.86009626
_cell_angle_alpha   89.97741586
_cell_angle_beta   90.01747700
_cell_angle_gamma   90.07324234
_symmetry_Int_Tables_number   1
_chemical_formula_structural   HfZrTaTiMo
_chemical_formula_sum   'Hf40 Zr40 Ta40 Ti40 Mo40'
_cell_volume   3900.64692636
_cell_formula_units_Z   40
loop_
 _symmetry_equiv_pos_site_id
 _symmetry_equiv_pos_as_xyz
  1  'x, y, z'
loop_
 _atom_site_type_symbol
 _atom_site_label
 _atom_site_symmetry_multiplicity
 _atom_site_fract_x
 _atom_site_fract_y
 _atom_site_fract_z
 _atom_site_occupancy
  Hf  Hf0  1  0.39479969  0.19285028  0.24125147  1
  Hf  Hf1  1  0.01311687  0.00961200  0.25015093  1
  Hf  Hf2  1  0.11833251  0.30962141  0.62459569  1
  Hf  Hf3  1  0.30424075  0.71877263  0.63400363  1
  Hf  Hf4  1  -0.01212312  0.60134727  0.72781496  1
  Hf  Hf5  1  0.79033889  0.60471871  0.00485849  1
  Hf  Hf6  1  0.51504328  0.67128202  0.38647378  1
  Hf  Hf7  1  0.79927908  0.39237614  0.24245490  1
  Hf  Hf8  1  0.60157996  0.18876321  0.74982662  1
  Hf  Hf9  1  0.01166050  0.00150827  0.52918099  1
  Hf  Hf10  1  0.61034673  0.79079986  -0.00614561  1
  Hf  Hf11  1  0.79734405  0.19824615  0.75490376  1
  Hf  Hf12  1  0.41595846  0.60393402  0.24283607  1
  Hf  Hf13  1  0.60129536  0.18868909  0.25084697  1
  Hf  Hf14  1  -0.01950991  0.60700671  0.50732797  1
  Hf  Hf15  1  0.00556575  -0.00100421  0.73000570  1
  Hf  Hf16  1  0.20957513  0.21130572  0.75947028  1
  Hf  Hf17  1  0.19889148  0.80898009  0.25922927  1
  Hf  Hf18  1  0.41148061  -0.00482972  0.25489097  1
  Hf  Hf19  1  0.38456528  0.39507003  -0.00212115  1
  Hf  Hf20  1  0.40446976  0.19332194  0.76682206  1
  Hf  Hf21  1  0.48557956  0.28478607  0.62393579  1
  Hf  Hf22  1  0.10560928  0.89696591  0.12063194  1
  Hf  Hf23  1  0.18533716  0.61450446  0.74944308  1
  Hf  Hf24  1  0.29942773  0.09955680  0.38883226  1
  Hf  Hf25  1  0.49845452  0.48973668  0.63712396  1
  Hf  Hf26  1  0.90305595  0.90429037  0.13181403  1
  Hf  Hf27  1  0.90274286  0.11100572  0.12217331  1
  Hf  Hf28  1  0.19743612  0.62011916  0.50058443  1
  Hf  Hf29  1  0.30338637  0.71089797  0.12000513  1
  Hf  Hf30  1  0.90030208  0.10312842  0.38003473  1
  Hf  Hf31  1  0.59277170  0.78033739  0.24881363  1
  Hf  Hf32  1  0.91641570  0.70047018  0.87496607  1
  Hf  Hf33  1  0.52141652  0.29548669  0.89313852  1
  Hf  Hf34  1  0.50136814  0.08358809  0.11498429  1
  Hf  Hf35  1  0.79526097  0.20063075  -0.00993590  1
  Hf  Hf36  1  0.38877766  0.38038885  0.49839988  1
  Hf  Hf37  1  0.28969878  0.48706992  0.63624429  1
  Hf  Hf38  1  0.11129071  0.10094409  0.11013830  1
  Hf  Hf39  1  0.00438312  0.80139128  -0.00313266  1
  Zr  Zr40  1  0.20827546  -0.00046657  -0.02216072  1
  Zr  Zr41  1  0.30711545  0.50694713  0.36785033  1
  Zr  Zr42  1  0.59725579  0.59890905  0.75205629  1
  Zr  Zr43  1  0.30420612  0.91500760  0.12082895  1
  Zr  Zr44  1  0.81180325  0.40091826  0.01680745  1
  Zr  Zr45  1  0.10534522  0.32643761  0.87867851  1
  Zr  Zr46  1  0.90590651  0.89687554  0.37526375  1
  Zr  Zr47  1  0.19310092  0.61372696  0.25761916  1
  Zr  Zr48  1  0.69258683  0.09059863  0.87874156  1
  Zr  Zr49  1  0.39669665  0.79471427  0.26691438  1
  Zr  Zr50  1  0.80349241  -0.00932117  -0.00311917  1
  Zr  Zr51  1  0.29994644  0.09622229  0.62943948  1
  Zr  Zr52  1  0.89745861  0.31254101  0.62175494  1
  Zr  Zr53  1  0.10881826  0.91668273  0.38309207  1
  Zr  Zr54  1  0.68441749  0.48874193  0.88783209  1
  Zr  Zr55  1  0.79616445  0.40824987  0.75093674  1
  Zr  Zr56  1  0.28270702  0.49703781  0.87097277  1
  Zr  Zr57  1  0.09256772  0.31801069  0.10957766  1
  Zr  Zr58  1  0.00411929  0.20179565  0.73898134  1
  Zr  Zr59  1  0.29355087  0.30195583  0.36234430  1
  Zr  Zr60  1  0.08940560  0.50509346  0.37843849  1
  Zr  Zr61  1  0.79222290  0.61505221  0.75429537  1
  Zr  Zr62  1  0.59400319  0.41226568  0.49270171  1
  Zr  Zr63  1  0.00425502  0.20579397  0.50399715  1
  Zr  Zr64  1  0.61755341  0.80920392  0.76826037  1
  Zr  Zr65  1  0.01111296  0.80252606  0.52351271  1
  Zr  Zr66  1  0.21046818  0.21078968  -0.01610372  1
  Zr  Zr67  1  0.20757538  0.78684161  -0.02627783  1
  Zr  Zr68  1  0.29006915  0.49448600  0.13193301  1
  Zr  Zr69  1  0.18795687  0.20005418  0.24681278  1
  Zr  Zr70  1  0.69236939  0.30026216  0.61705589  1
  Zr  Zr71  1  0.40400607  0.58895994  0.50889504  1
  Zr  Zr72  1  0.69752899  0.89612392  0.13755404  1
  Zr  Zr73  1  0.90557765  0.30638625  0.87285780  1
  Zr  Zr74  1  0.39791876  -0.01277675  0.50637456  1
  Zr  Zr75  1  0.78234098  0.60196032  0.49586257  1
  Zr  Zr76  1  0.69668734  0.90175764  0.36651336  1
  Zr  Zr77  1  0.50342079  0.68950727  0.88345581  1
  Zr  Zr78  1  0.50350440  0.30056725  0.11467752  1
  Zr  Zr79  1  -0.01088101  0.22042551  0.25606170  1
  Ta  Ta80  1  0.87483535  0.89300385  0.63309141  1
  Ta  Ta81  1  0.88560158  0.50631481  0.36437301  1
  Ta  Ta82  1  0.70543457  0.71996101  0.62391187  1
  Ta  Ta83  1  0.01187341  0.79342271  0.73019498  1
  Ta  Ta84  1  0.90654503  0.09137546  0.86807930  1
  Ta  Ta85  1  0.50193914  0.88338424  0.62538225  1
  Ta  Ta86  1  0.69859781  0.09549690  0.12273721  1
  Ta  Ta87  1  0.08140522  0.51734816  0.87759971  1
  Ta  Ta88  1  0.70143747  0.29844193  0.37355755  1
  Ta  Ta89  1  0.09576557  0.10014588  0.86990444  1
  Ta  Ta90  1  0.39564517  0.18517134  -0.00601347  1
  Ta  Ta91  1  0.40255839  0.79112977  0.49517560  1
  Ta  Ta92  1  -0.00809148  0.41500260  0.24076449  1
  Ta  Ta93  1  0.59579457  0.19358178  0.49336458  1
  Ta  Ta94  1  0.39001617  0.60435255  0.00013471  1
  Ta  Ta95  1  0.50417027  0.09233282  0.38005863  1
  Ta  Ta96  1  0.51203943  0.08306233  0.61974896  1
  Ta  Ta97  1  0.70023113  0.50559911  0.62389533  1
  Ta  Ta98  1  0.89554999  0.70401936  0.12380567  1
  Ta  Ta99  1  0.09295972  0.50328318  0.61370677  1
  Ta  Ta100  1  0.00261438  0.00092663  -0.01241234  1
  Ta  Ta101  1  0.09674184  0.89558629  0.85381685  1
  Ta  Ta102  1  0.00245210  0.79562124  0.25053429  1
  Ta  Ta103  1  0.68891075  0.90772844  0.62137419  1
  Ta  Ta104  1  0.49815581  0.88105499  0.12143846  1
  Ta  Ta105  1  0.79541216  0.20163004  0.49372490  1
  Ta  Ta106  1  0.80441355  0.79958234  0.49573295  1
  Ta  Ta107  1  0.69732001  0.28909954  0.12162953  1
  Ta  Ta108  1  0.49935285  0.08368763  0.88447951  1
  Ta  Ta109  1  0.79904530  0.00001871  0.50324619  1
  Ta  Ta110  1  0.80330681  0.79937317  -0.00501288  1
  Ta  Ta111  1  0.90237070  0.50302741  0.87995957  1
  Ta  Ta112  1  0.80815263  0.78598477  0.25285742  1
  Ta  Ta113  1  0.79948788  0.40455735  0.48713122  1
  Ta  Ta114  1  0.39552677  0.59924217  0.75362091  1
  Ta  Ta115  1  -0.01386650  0.60916606  0.24679191  1
  Ta  Ta116  1  0.19410877  0.40488386  0.49488364  1
  Ta  Ta117  1  0.50190179  0.29422824  0.37055284  1
  Ta  Ta118  1  0.67902996  0.50279017  0.35732075  1
  Ta  Ta119  1  0.31196705  0.89932536  0.85335535  1
  Ti  Ti120  1  0.59904286  -0.01614227  -0.00221116  1
  Ti  Ti121  1  0.40412545  0.80295698  -0.01376487  1
  Ti  Ti122  1  0.08948945  0.71399400  0.38052392  1
  Ti  Ti123  1  0.21307276  0.01244819  0.24702595  1
  Ti  Ti124  1  0.21152249  0.82607315  0.51402847  1
  Ti  Ti125  1  0.79905908  0.19922336  0.25120424  1
  Ti  Ti126  1  0.21501456  0.20742945  0.50934163  1
  Ti  Ti127  1  0.51116978  0.69623783  0.62265693  1
  Ti  Ti128  1  0.09822304  0.69820064  0.12601998  1
  Ti  Ti129  1  0.09026967  0.30722919  0.37943859  1
  Ti  Ti130  1  0.41271849  0.79296777  0.75897492  1
  Ti  Ti131  1  -0.00427535  0.59204412  0.01736615  1
  Ti  Ti132  1  0.68619509  0.68897983  0.12734601  1
  Ti  Ti133  1  0.50638542  0.89440918  0.37988373  1
  Ti  Ti134  1  0.70890694  0.69414887  0.36672832  1
  Ti  Ti135  1  0.79568983  0.00660547  0.25066136  1
  Ti  Ti136  1  0.50387903  0.50500475  0.11335416  1
  Ti  Ti137  1  0.41939651  0.40201949  0.24729241  1
  Ti  Ti138  1  0.49085136  0.49360944  0.88219578  1
  Ti  Ti139  1  0.89979614  0.89965229  0.85849506  1
  Ti  Ti140  1  0.70003580  0.09468782  0.61946553  1
  Ti  Ti141  1  0.39970910  -0.01019435  -0.00968968  1
  Ti  Ti142  1  -0.00482164  0.20570217  -0.00628425  1
  Ti  Ti143  1  0.41857448  -0.00612296  0.75013072  1
  Ti  Ti144  1  0.00469569  0.41259162  0.74148796  1
  Ti  Ti145  1  0.30058904  0.90355219  0.38229088  1
  Ti  Ti146  1  0.18546143  0.40323729  0.25016045  1
  Ti  Ti147  1  0.69825294  0.09686134  0.37566557  1
  Ti  Ti148  1  0.68506520  0.49078929  0.12924704  1
  Ti  Ti149  1  0.60352604  -0.00677253  0.49736634  1
  Ti  Ti150  1  0.29440340  0.29471085  0.12607056  1
  Ti  Ti151  1  0.78407936  -0.00702954  0.75176704  1
  Ti  Ti152  1  0.60659955  0.79186593  0.49687839  1
  Ti  Ti153  1  0.38829739  0.38772734  0.76281653  1
  Ti  Ti154  1  0.88727632  0.10056032  0.62358632  1
  Ti  Ti155  1  0.18895423  0.59518241  0.00035533  1
  Ti  Ti156  1  0.59798211  0.38958793  0.75403856  1
  Ti  Ti157  1  -0.01039414  0.40690513  0.49689417  1
  Ti  Ti158  1  0.79256020  0.59856295  0.24082817  1
  Ti  Ti159  1  0.10714636  0.10801738  0.38843742  1
  Mo  Mo160  1  0.29664139  0.71516280  0.39023224  1
  Mo  Mo161  1  0.59904110  -0.00434425  0.25324456  1
  Mo  Mo162  1  0.89899841  0.69784557  0.36837168  1
  Mo  Mo163  1  0.80962187  0.80646929  0.75483982  1
  Mo  Mo164  1  0.50362782  0.90356362  0.87835758  1
  Mo  Mo165  1  0.30773293  0.09252136  0.86513465  1
  Mo  Mo166  1  0.14096841  0.90224731  0.64734924  1
  Mo  Mo167  1  0.89560058  0.29726191  0.12095111  1
  Mo  Mo168  1  0.19897911  0.00610117  0.51078190  1
  Mo  Mo169  1  0.30576816  0.69570726  0.86938563  1
  Mo  Mo170  1  0.30597264  0.10314249  0.11958930  1
  Mo  Mo171  1  0.71300895  0.69689031  0.88543831  1
  Mo  Mo172  1  0.70004897  0.29834217  0.87703079  1
  Mo  Mo173  1  0.30520905  0.30068967  0.62787506  1
  Mo  Mo174  1  0.89630608  0.50950573  0.13503981  1
  Mo  Mo175  1  0.60268512  0.39734786  0.00743894  1
  Mo  Mo176  1  0.49655129  0.69760702  0.10890733  1
  Mo  Mo177  1  0.70933301  0.89693692  0.87815678  1
  Mo  Mo178  1  0.09428593  0.51456361  0.13208004  1
  Mo  Mo179  1  0.89441464  0.31279488  0.38050244  1
  Mo  Mo180  1  0.40904647  0.19290954  0.49501634  1
  Mo  Mo181  1  0.31640845  0.89876782  0.64651005  1
  Mo  Mo182  1  0.49820610  0.48371255  0.36901781  1
  Mo  Mo183  1  0.59744660  -0.00061116  0.74414911  1
  Mo  Mo184  1  0.20602252  0.80113960  0.76214418  1
  Mo  Mo185  1  0.10676203  0.70471933  0.61984970  1
  Mo  Mo186  1  0.60279700  0.18616951  0.00720631  1
  Mo  Mo187  1  0.20764597  0.00705384  0.76293334  1
  Mo  Mo188  1  0.19317624  0.41743701  0.00601276  1
  Mo  Mo189  1  0.59743129  0.39080259  0.24908652  1
  Mo  Mo190  1  0.60037538  0.58708285  0.23766241  1
  Mo  Mo191  1  0.09501957  0.69584354  0.87516601  1
  Mo  Mo192  1  0.19144441  0.41006005  0.74809722  1
  Mo  Mo193  1  0.31070274  0.30451532  0.87950694  1
  Mo  Mo194  1  0.88912885  0.70643949  0.62496797  1
  Mo  Mo195  1  0.60228978  0.60402906  0.50973968  1
  Mo  Mo196  1  0.00087552  0.41715597  0.00672105  1
  Mo  Mo197  1  0.10791657  0.10482092  0.62527224  1
  Mo  Mo198  1  0.59132407  0.59068764  0.00810601  1
  Mo  Mo199  1  0.89034954  0.49691352  0.61739130  1
