# generated using pymatgen
data_HfZrTaTiMo
_symmetry_space_group_name_H-M   'P 1'
_cell_length_a   15.21313167
_cell_length_b   15.21218548
_cell_length_c   16.86620692
_cell_angle_alpha   89.99743183
_cell_angle_beta   90.06356466
_cell_angle_gamma   90.05840531
_symmetry_Int_Tables_number   1
_chemical_formula_structural   HfZrTaTiMo
_chemical_formula_sum   'Hf40 Zr40 Ta40 Ti40 Mo40'
_cell_volume   3903.25717677
_cell_formula_units_Z   40
loop_
 _symmetry_equiv_pos_site_id
 _symmetry_equiv_pos_as_xyz
  1  'x, y, z'
loop_
 _atom_site_type_symbol
 _atom_site_label
 _atom_site_symmetry_multiplicity
 _atom_site_fract_x
 _atom_site_fract_y
 _atom_site_fract_z
 _atom_site_occupancy
  Hf  Hf0  1  0.21540628  0.61280450  0.01368820  1
  Hf  Hf1  1  0.57855963  -0.01516863  0.51027198  1
  Hf  Hf2  1  0.09345875  0.89602235  0.36948278  1
  Hf  Hf3  1  0.20346735  -0.01466870  -0.00369017  1
  Hf  Hf4  1  0.31026656  0.09844809  0.87286156  1
  Hf  Hf5  1  0.10173704  0.10767353  0.86707611  1
  Hf  Hf6  1  -0.01425345  0.01066519  0.74992920  1
  Hf  Hf7  1  0.68946438  0.29140498  0.86634366  1
  Hf  Hf8  1  0.88624370  0.50406769  0.10952715  1
  Hf  Hf9  1  0.10522955  0.30363577  0.62031898  1
  Hf  Hf10  1  0.39091752  0.19704058  0.26369507  1
  Hf  Hf11  1  0.19392069  0.60708360  0.50273433  1
  Hf  Hf12  1  0.78060000  0.00602589  0.50948192  1
  Hf  Hf13  1  0.29978611  0.51993073  0.37072754  1
  Hf  Hf14  1  0.38736047  0.80483680  0.75544072  1
  Hf  Hf15  1  0.50198401  0.09334203  0.37038277  1
  Hf  Hf16  1  0.10095817  0.88061294  0.13331119  1
  Hf  Hf17  1  0.60427595  0.37996191  0.50336494  1
  Hf  Hf18  1  0.31240220  0.90962265  0.61863062  1
  Hf  Hf19  1  0.50141407  0.11757024  0.61938557  1
  Hf  Hf20  1  -0.00943495  0.78620313  0.76303711  1
  Hf  Hf21  1  0.60397013  0.59742812  0.50771975  1
  Hf  Hf22  1  -0.01176063  0.20496708  0.24921532  1
  Hf  Hf23  1  0.59218473  0.20533692  0.00389556  1
  Hf  Hf24  1  0.40888368  0.00746306  0.00085496  1
  Hf  Hf25  1  0.89514925  0.89822298  0.38884668  1
  Hf  Hf26  1  0.11699333  0.89975582  0.85696684  1
  Hf  Hf27  1  0.39186575  0.40351612  0.74921301  1
  Hf  Hf28  1  0.50982187  0.71062421  0.37752201  1
  Hf  Hf29  1  -0.00964485  0.39746750  0.25304975  1
  Hf  Hf30  1  0.69720155  0.88984179  0.88423708  1
  Hf  Hf31  1  0.89641645  0.49586182  0.88793919  1
  Hf  Hf32  1  0.49360553  0.49194395  0.61817312  1
  Hf  Hf33  1  0.30926332  0.30486115  0.88386997  1
  Hf  Hf34  1  0.01114239  0.60206558  -0.00656658  1
  Hf  Hf35  1  0.69269948  0.49359341  0.86235144  1
  Hf  Hf36  1  0.88679452  0.10561903  0.38281353  1
  Hf  Hf37  1  0.89991560  0.69960271  0.38653229  1
  Hf  Hf38  1  0.18363445  0.39649685  0.00326845  1
  Hf  Hf39  1  0.89791841  0.29775484  0.88409040  1
  Zr  Zr40  1  -0.00238076  0.62511739  0.23867548  1
  Zr  Zr41  1  0.70952768  0.47602413  0.64059142  1
  Zr  Zr42  1  0.21451128  0.80177800  0.49201557  1
  Zr  Zr43  1  0.60140117  -0.00733092  0.23284610  1
  Zr  Zr44  1  0.02017023  0.21844149  0.00685786  1
  Zr  Zr45  1  0.21107553  0.77614886  0.25897348  1
  Zr  Zr46  1  0.10817129  0.10709597  0.13349250  1
  Zr  Zr47  1  0.21798960  0.00062785  0.26193448  1
  Zr  Zr48  1  0.19406400  0.40150879  0.48465053  1
  Zr  Zr49  1  -0.00878979  0.20597216  0.50187281  1
  Zr  Zr50  1  0.01700067  0.79961502  -0.01839597  1
  Zr  Zr51  1  -0.00907374  -0.00143195  0.24367366  1
  Zr  Zr52  1  0.49688214  0.91149647  0.87653107  1
  Zr  Zr53  1  0.89308377  0.89500838  0.62186343  1
  Zr  Zr54  1  0.40478836  0.62576099  0.24533933  1
  Zr  Zr55  1  0.19604088  0.41192473  0.74364292  1
  Zr  Zr56  1  0.10498538  0.89620527  0.63589214  1
  Zr  Zr57  1  0.01161387  0.59309527  0.75253394  1
  Zr  Zr58  1  0.89574748  0.70937670  0.10387190  1
  Zr  Zr59  1  0.81143084  0.60265714  0.75517150  1
  Zr  Zr60  1  0.49671568  0.69270067  0.87547288  1
  Zr  Zr61  1  0.70450691  0.69691546  0.63210276  1
  Zr  Zr62  1  0.80746766  0.79502644  0.24291038  1
  Zr  Zr63  1  0.32544606  0.30461328  0.60094195  1
  Zr  Zr64  1  0.89155710  0.91161906  0.88670638  1
  Zr  Zr65  1  0.28352280  0.29616539  0.13026486  1
  Zr  Zr66  1  0.80370784  0.18343162  0.75301357  1
  Zr  Zr67  1  0.30866416  0.09640388  0.12556722  1
  Zr  Zr68  1  0.69413208  0.88800575  0.37482886  1
  Zr  Zr69  1  0.79704800  0.00295403  0.23696429  1
  Zr  Zr70  1  0.10160046  0.49438589  0.13402543  1
  Zr  Zr71  1  0.58920760  0.79057581  0.00979777  1
  Zr  Zr72  1  0.10310499  0.09855317  0.62360802  1
  Zr  Zr73  1  0.30202312  0.10913090  0.60934664  1
  Zr  Zr74  1  0.79181403  0.39027752  0.24246718  1
  Zr  Zr75  1  0.51072494  0.50220433  0.37241972  1
  Zr  Zr76  1  0.39759171  0.40395354  0.25262355  1
  Zr  Zr77  1  0.39703472  0.41065839  0.01587124  1
  Zr  Zr78  1  0.08859120  0.50710187  0.36414690  1
  Zr  Zr79  1  -0.01438358  0.39755768  0.74136815  1
  Ta  Ta80  1  0.88721247  0.50110540  0.37966644  1
  Ta  Ta81  1  0.29920925  0.52071590  0.87852029  1
  Ta  Ta82  1  0.39650559  0.59968244  0.74259218  1
  Ta  Ta83  1  0.41180214  0.01276917  0.74790422  1
  Ta  Ta84  1  0.80090466  0.58788391  0.50403284  1
  Ta  Ta85  1  0.00853928  0.79403143  0.50496027  1
  Ta  Ta86  1  0.10612702  0.49699197  0.87889473  1
  Ta  Ta87  1  0.52288821  0.51098755  0.13971734  1
  Ta  Ta88  1  0.60459822  0.00841305  0.74780019  1
  Ta  Ta89  1  0.50169233  0.30301807  0.13969027  1
  Ta  Ta90  1  0.69465151  0.67211715  0.12181436  1
  Ta  Ta91  1  0.30419266  0.89013493  0.12562594  1
  Ta  Ta92  1  0.19986029  0.20438050  0.47751756  1
  Ta  Ta93  1  0.69053907  0.89476441  0.63440446  1
  Ta  Ta94  1  0.39943551  0.61480210  0.50155754  1
  Ta  Ta95  1  0.79094811  0.59297118  0.25115743  1
  Ta  Ta96  1  0.00171126  0.20392422  0.74424260  1
  Ta  Ta97  1  0.60311997  0.58669117  -0.00483153  1
  Ta  Ta98  1  0.78023700  0.39513145  0.00489214  1
  Ta  Ta99  1  0.69073424  0.27258853  0.63579057  1
  Ta  Ta100  1  0.00801774  0.00680501  0.00232673  1
  Ta  Ta101  1  0.50408732  0.11088350  0.13548993  1
  Ta  Ta102  1  0.09262637  0.09851804  0.37837993  1
  Ta  Ta103  1  0.90064638  0.90528788  0.10403655  1
  Ta  Ta104  1  0.21134848  0.20750147  0.74899540  1
  Ta  Ta105  1  0.59951817  0.78217846  0.23248156  1
  Ta  Ta106  1  -0.01089865  0.40717478  0.49977230  1
  Ta  Ta107  1  0.90324829  0.69802270  0.61397591  1
  Ta  Ta108  1  0.58880099  0.59469902  0.74846812  1
  Ta  Ta109  1  0.60589856  0.00401179  0.01691183  1
  Ta  Ta110  1  0.10017576  0.69894792  0.37580773  1
  Ta  Ta111  1  0.49176343  0.48996070  0.87313149  1
  Ta  Ta112  1  0.29781867  0.50686236  0.61103259  1
  Ta  Ta113  1  0.42385146  0.81283603  0.50594115  1
  Ta  Ta114  1  0.70439120  0.08924279  0.88894744  1
  Ta  Ta115  1  0.88936856  0.10848284  0.10474874  1
  Ta  Ta116  1  0.59036571  0.39954076  0.00239961  1
  Ta  Ta117  1  0.10205452  0.69728314  0.62963362  1
  Ta  Ta118  1  0.69439745  0.10189318  0.37058018  1
  Ta  Ta119  1  0.13638659  0.69428227  0.86568286  1
  Ti  Ti120  1  0.19567281  0.39090455  0.26579090  1
  Ti  Ti121  1  0.00071592  -0.00157614  0.50594037  1
  Ti  Ti122  1  0.89766424  0.10586616  0.89677016  1
  Ti  Ti123  1  0.00195086  0.59636536  0.50571522  1
  Ti  Ti124  1  0.32169072  0.90383009  0.38126695  1
  Ti  Ti125  1  0.41468004  0.21130230  0.74996289  1
  Ti  Ti126  1  0.41208471  0.60703973  0.01513633  1
  Ti  Ti127  1  0.69110380  0.29329744  0.12826100  1
  Ti  Ti128  1  0.59781455  0.79934645  0.75259717  1
  Ti  Ti129  1  0.50059649  0.70916667  0.62988350  1
  Ti  Ti130  1  0.90211609  0.49807749  0.61885376  1
  Ti  Ti131  1  0.50517484  0.29831403  0.37039341  1
  Ti  Ti132  1  0.19093878  0.20897161  0.27810801  1
  Ti  Ti133  1  0.50798929  0.11811193  0.87491499  1
  Ti  Ti134  1  0.61055094  0.18733454  0.49643208  1
  Ti  Ti135  1  0.49083985  0.89849190  0.12451689  1
  Ti  Ti136  1  0.79220267  -0.00542729  0.74702930  1
  Ti  Ti137  1  0.90066465  0.30388168  0.10966286  1
  Ti  Ti138  1  0.70252563  0.48926437  0.37560836  1
  Ti  Ti139  1  0.79652626  0.79738145  0.75918360  1
  Ti  Ti140  1  0.61442926  0.79546298  0.50894631  1
  Ti  Ti141  1  0.30033726  0.51155057  0.14186014  1
  Ti  Ti142  1  0.21285172  0.19428194  -0.00265544  1
  Ti  Ti143  1  0.87917806  0.30594756  0.61911715  1
  Ti  Ti144  1  0.30525599  0.70567248  0.62211760  1
  Ti  Ti145  1  0.58266746  0.37832848  0.74539264  1
  Ti  Ti146  1  0.88405566  0.30484992  0.38515927  1
  Ti  Ti147  1  0.79108455  0.19443062  0.24018717  1
  Ti  Ti148  1  0.70534354  0.68888799  0.37795453  1
  Ti  Ti149  1  0.37816983  0.79869572  -0.00641508  1
  Ti  Ti150  1  0.19786963  0.00074385  0.49077847  1
  Ti  Ti151  1  0.88792697  0.10929651  0.61753662  1
  Ti  Ti152  1  0.69709437  0.29080662  0.36837987  1
  Ti  Ti153  1  0.10163723  0.30398558  0.86489646  1
  Ti  Ti154  1  0.40526678  0.81429121  0.24777477  1
  Ti  Ti155  1  0.30742714  0.09851606  0.38992265  1
  Ti  Ti156  1  0.50324498  0.90148594  0.36536768  1
  Ti  Ti157  1  0.21250218  0.60314430  0.73907495  1
  Ti  Ti158  1  0.21797501  0.00106310  0.74831259  1
  Ti  Ti159  1  0.70861830  0.88754351  0.11222036  1
  Mo  Mo160  1  0.87114075  0.70537161  0.89178209  1
  Mo  Mo161  1  0.59149370  0.18843504  0.75684427  1
  Mo  Mo162  1  -0.00462862  0.80361518  0.24849285  1
  Mo  Mo163  1  0.41369791  0.21087709  0.47685534  1
  Mo  Mo164  1  0.61314898  0.60024562  0.25483992  1
  Mo  Mo165  1  0.50680072  0.30047200  0.61869418  1
  Mo  Mo166  1  0.10812031  0.70117906  0.12449251  1
  Mo  Mo167  1  0.50305958  0.89937799  0.64061647  1
  Mo  Mo168  1  0.79582715  0.00184085  0.00861370  1
  Mo  Mo169  1  0.31426916  0.71067841  0.38543440  1
  Mo  Mo170  1  0.69955363  0.10510024  0.11672674  1
  Mo  Mo171  1  0.08721527  0.29661125  0.37596640  1
  Mo  Mo172  1  0.40622027  0.41019667  0.48415900  1
  Mo  Mo173  1  0.69990825  0.09075512  0.62747620  1
  Mo  Mo174  1  0.49903068  0.70365980  0.11929241  1
  Mo  Mo175  1  0.79650080  0.38786193  0.74953746  1
  Mo  Mo176  1  0.79824489  0.39379306  0.49705021  1
  Mo  Mo177  1  0.20525043  0.59774624  0.24546783  1
  Mo  Mo178  1  0.60539657  0.20542572  0.25122627  1
  Mo  Mo179  1  0.09814774  0.30008038  0.13800148  1
  Mo  Mo180  1  0.78420066  0.60022719  -0.01132030  1
  Mo  Mo181  1  0.69529723  0.48877963  0.12147764  1
  Mo  Mo182  1  0.40230025  -0.00753414  0.24748114  1
  Mo  Mo183  1  0.40747528  0.20516437  0.00509686  1
  Mo  Mo184  1  -0.00273294  0.40408603  -0.00109166  1
  Mo  Mo185  1  0.20224907  0.79135578  0.73857095  1
  Mo  Mo186  1  0.09780882  0.50460531  0.61662363  1
  Mo  Mo187  1  0.39883558  -0.00145480  0.49627345  1
  Mo  Mo188  1  0.49591838  0.30552571  0.87845224  1
  Mo  Mo189  1  0.30058897  0.90013545  0.86864344  1
  Mo  Mo190  1  0.79646504  0.79029704  0.50343956  1
  Mo  Mo191  1  0.30582251  0.30395029  0.38222968  1
  Mo  Mo192  1  0.69304934  0.69613278  0.86606538  1
  Mo  Mo193  1  0.60397929  0.39463140  0.25253937  1
  Mo  Mo194  1  0.78289057  0.20906427  0.50084678  1
  Mo  Mo195  1  0.30703925  0.69643553  0.87225302  1
  Mo  Mo196  1  0.30705699  0.70933345  0.12438749  1
  Mo  Mo197  1  0.79089147  0.79525193  0.00226449  1
  Mo  Mo198  1  0.20646386  0.79872680  -0.00138508  1
  Mo  Mo199  1  0.79265104  0.20464961  0.00245640  1
