# generated using pymatgen
data_HfZrTaTiMo
_symmetry_space_group_name_H-M   'P 1'
_cell_length_a   15.21293607
_cell_length_b   15.20656975
_cell_length_c   16.84611004
_cell_angle_alpha   90.02906479
_cell_angle_beta   90.01343999
_cell_angle_gamma   90.12882619
_symmetry_Int_Tables_number   1
_chemical_formula_structural   HfZrTaTiMo
_chemical_formula_sum   'Hf40 Zr40 Ta40 Ti40 Mo40'
_cell_volume   3897.11091296
_cell_formula_units_Z   40
loop_
 _symmetry_equiv_pos_site_id
 _symmetry_equiv_pos_as_xyz
  1  'x, y, z'
loop_
 _atom_site_type_symbol
 _atom_site_label
 _atom_site_symmetry_multiplicity
 _atom_site_fract_x
 _atom_site_fract_y
 _atom_site_fract_z
 _atom_site_occupancy
  Hf  Hf0  1  0.88314286  0.51359924  0.87006716  1
  Hf  Hf1  1  0.58869169  0.00333306  -0.01546909  1
  Hf  Hf2  1  0.69042759  0.70380756  0.60390820  1
  Hf  Hf3  1  0.79274448  0.00115647  -0.00705109  1
  Hf  Hf4  1  0.20630493  0.01801462  0.49740193  1
  Hf  Hf5  1  -0.00284743  0.59603064  0.51906648  1
  Hf  Hf6  1  0.10031740  0.32804350  0.10995813  1
  Hf  Hf7  1  0.58981401  0.41365630  0.00361805  1
  Hf  Hf8  1  0.60724091  0.22169642  0.75537150  1
  Hf  Hf9  1  0.20202846  0.00644463  0.24395582  1
  Hf  Hf10  1  0.40921901  -0.00575147  0.49542455  1
  Hf  Hf11  1  0.39800487  0.20015202  0.49985529  1
  Hf  Hf12  1  0.31176695  0.89781632  0.12966583  1
  Hf  Hf13  1  0.08976567  0.69812132  0.37918746  1
  Hf  Hf14  1  0.29434516  0.47595152  0.12874664  1
  Hf  Hf15  1  0.10928860  0.90289985  0.88646027  1
  Hf  Hf16  1  0.21129459  0.79631629  0.00254434  1
  Hf  Hf17  1  0.10042391  0.89865538  0.62364055  1
  Hf  Hf18  1  0.39624948  -0.00651300  -0.00876596  1
  Hf  Hf19  1  0.20646725  0.58474066  0.49422345  1
  Hf  Hf20  1  -0.00898584  0.80877404  0.24100181  1
  Hf  Hf21  1  -0.00146060  0.79504811  0.74731630  1
  Hf  Hf22  1  0.29272992  0.29528476  0.86129961  1
  Hf  Hf23  1  0.90256965  0.88827647  0.87958580  1
  Hf  Hf24  1  0.18850097  0.39087001  0.26109021  1
  Hf  Hf25  1  0.61959040  0.60912793  0.00858413  1
  Hf  Hf26  1  0.90603952  0.10372808  0.88384072  1
  Hf  Hf27  1  0.19652715  0.58163457  0.00301878  1
  Hf  Hf28  1  0.49797586  0.31006008  0.87065917  1
  Hf  Hf29  1  0.60318418  0.20287285  -0.01189691  1
  Hf  Hf30  1  0.41273079  0.00114799  0.25440944  1
  Hf  Hf31  1  0.79882452  0.76699652  -0.00308790  1
  Hf  Hf32  1  0.11909620  0.69287713  0.62871655  1
  Hf  Hf33  1  0.79784712  0.19535820  0.24372236  1
  Hf  Hf34  1  0.39919897  0.38477041  0.26838231  1
  Hf  Hf35  1  0.40096693  0.18591952  0.01098247  1
  Hf  Hf36  1  0.89550369  0.09895112  0.11846955  1
  Hf  Hf37  1  0.48852664  0.88206245  0.85974309  1
  Hf  Hf38  1  0.31787211  0.68135501  0.13207106  1
  Hf  Hf39  1  0.91210919  0.49669093  0.13843295  1
  Zr  Zr40  1  0.19054561  0.59189119  0.24872652  1
  Zr  Zr41  1  0.79269191  0.60351369  0.73201802  1
  Zr  Zr42  1  0.90108506  0.50416886  0.36950533  1
  Zr  Zr43  1  0.79103365  0.81414970  0.25680761  1
  Zr  Zr44  1  0.70556321  0.89393192  0.11526534  1
  Zr  Zr45  1  0.08869979  0.48624028  0.37962267  1
  Zr  Zr46  1  0.10309954  0.68636458  0.87100043  1
  Zr  Zr47  1  0.42448861  0.78942078  0.00733204  1
  Zr  Zr48  1  0.30911860  0.90321693  0.62852092  1
  Zr  Zr49  1  0.60690806  0.01612954  0.76375382  1
  Zr  Zr50  1  -0.00777262  -0.00802828  0.50480984  1
  Zr  Zr51  1  0.50820414  0.89583606  0.63662113  1
  Zr  Zr52  1  0.30372972  0.30005497  0.63447557  1
  Zr  Zr53  1  0.29125301  0.50329525  0.63669672  1
  Zr  Zr54  1  0.09470167  0.90344380  0.11331119  1
  Zr  Zr55  1  0.00314019  0.19885830  0.50865841  1
  Zr  Zr56  1  0.30429066  0.70783355  0.36469963  1
  Zr  Zr57  1  0.21057544  0.80237724  0.49700274  1
  Zr  Zr58  1  0.32208078  0.70354231  0.87292649  1
  Zr  Zr59  1  0.89911991  0.09902730  0.36724567  1
  Zr  Zr60  1  0.88178240  0.28655638  0.62613728  1
  Zr  Zr61  1  0.79713512  0.38833506  0.25242386  1
  Zr  Zr62  1  0.69177397  0.87607886  0.87641871  1
  Zr  Zr63  1  0.19966803  0.79995360  0.24181655  1
  Zr  Zr64  1  0.29596677  0.50210108  0.85825833  1
  Zr  Zr65  1  0.61011437  -0.00033241  0.50104597  1
  Zr  Zr66  1  0.10395216  0.12153352  0.36920105  1
  Zr  Zr67  1  0.00680866  0.58883464  0.73654406  1
  Zr  Zr68  1  0.79275617  0.60740972  0.26626483  1
  Zr  Zr69  1  0.79229289  0.41275387  0.00529625  1
  Zr  Zr70  1  0.78780124  0.59551903  0.49299714  1
  Zr  Zr71  1  0.08990951  0.90306928  0.37561764  1
  Zr  Zr72  1  0.49508486  0.50587949  0.60747958  1
  Zr  Zr73  1  0.50041925  0.30148086  0.13056062  1
  Zr  Zr74  1  0.20016884  0.00536509  0.75951865  1
  Zr  Zr75  1  0.89925217  0.72360406  0.39187290  1
  Zr  Zr76  1  0.38405388  0.39414278  -0.00212501  1
  Zr  Zr77  1  0.00034646  0.00504201  0.75408039  1
  Zr  Zr78  1  0.21219241  0.20478099  0.23176518  1
  Zr  Zr79  1  -0.01173769  0.39399932  0.74543282  1
  Ta  Ta80  1  0.68627387  0.48362245  0.61473131  1
  Ta  Ta81  1  0.31732366  0.70200568  0.62852235  1
  Ta  Ta82  1  0.00063138  0.22258698  0.23475803  1
  Ta  Ta83  1  0.39674843  0.60681708  0.48379130  1
  Ta  Ta84  1  0.89281795  0.30306411  0.87779192  1
  Ta  Ta85  1  0.10595213  0.10813512  0.62736600  1
  Ta  Ta86  1  -0.00203584  0.39802518  0.51471783  1
  Ta  Ta87  1  -0.01700510  0.60478506  -0.00338257  1
  Ta  Ta88  1  0.77444466  0.39039588  0.75115646  1
  Ta  Ta89  1  0.40054706  0.00988698  0.75976854  1
  Ta  Ta90  1  0.21572224  0.79844412  0.75644235  1
  Ta  Ta91  1  0.67869630  0.72638415  0.38564237  1
  Ta  Ta92  1  0.79368076  0.20683325  -0.00013366  1
  Ta  Ta93  1  0.58980413  0.60493298  0.26950657  1
  Ta  Ta94  1  0.79917065  0.79851657  0.74711201  1
  Ta  Ta95  1  0.69794331  0.29970599  0.12729515  1
  Ta  Ta96  1  0.19112790  0.20022894  0.75436499  1
  Ta  Ta97  1  0.59650698  0.20214451  0.25439454  1
  Ta  Ta98  1  0.70145258  0.28618561  0.38805261  1
  Ta  Ta99  1  0.51694771  0.88188247  0.37620738  1
  Ta  Ta100  1  0.91094136  0.30089577  0.37879275  1
  Ta  Ta101  1  0.50104234  0.11301841  0.63200270  1
  Ta  Ta102  1  0.30870733  0.10296723  0.37271273  1
  Ta  Ta103  1  0.10025193  0.11009090  0.11174386  1
  Ta  Ta104  1  0.79749705  0.19410974  0.76410022  1
  Ta  Ta105  1  0.53237313  0.68603263  0.87282391  1
  Ta  Ta106  1  0.79949125  0.00091786  0.75809126  1
  Ta  Ta107  1  0.41982498  0.58552895  0.00109292  1
  Ta  Ta108  1  0.61197443  -0.00214415  0.25886026  1
  Ta  Ta109  1  0.70718135  0.10941843  0.62422663  1
  Ta  Ta110  1  0.49881376  0.50791612  0.14446126  1
  Ta  Ta111  1  0.67604187  0.50746711  0.86451847  1
  Ta  Ta112  1  0.89759245  0.69769986  0.13035054  1
  Ta  Ta113  1  0.50903982  0.30767587  0.61502670  1
  Ta  Ta114  1  0.51657990  0.90510394  0.12925668  1
  Ta  Ta115  1  0.68203973  0.09997677  0.12595055  1
  Ta  Ta116  1  0.42291350  0.61024958  0.74754478  1
  Ta  Ta117  1  0.00301286  0.19909143  0.75476360  1
  Ta  Ta118  1  0.79900393  0.39348657  0.49239002  1
  Ta  Ta119  1  0.10604507  0.11530232  0.89430560  1
  Ti  Ti120  1  0.88353173  0.48997882  0.62375376  1
  Ti  Ti121  1  0.69890816  0.10283097  0.37880028  1
  Ti  Ti122  1  -0.00027736  0.41598222  -0.01064276  1
  Ti  Ti123  1  0.09203692  0.68627618  0.12237316  1
  Ti  Ti124  1  0.68191288  0.48082530  0.37185465  1
  Ti  Ti125  1  0.19391048  0.38439006  0.49786839  1
  Ti  Ti126  1  0.30259863  0.10741907  0.63361674  1
  Ti  Ti127  1  0.51605644  0.69909577  0.13372976  1
  Ti  Ti128  1  0.50689411  0.10520157  0.37628518  1
  Ti  Ti129  1  0.30412214  0.10375320  0.87211898  1
  Ti  Ti130  1  0.89649526  0.09621871  0.63330643  1
  Ti  Ti131  1  0.49811069  0.70524802  0.60735450  1
  Ti  Ti132  1  0.89472516  0.71670551  0.61063480  1
  Ti  Ti133  1  0.69119338  0.50211559  0.14483656  1
  Ti  Ti134  1  0.20864606  0.01249403  0.00321039  1
  Ti  Ti135  1  0.51449378  0.30112549  0.38671301  1
  Ti  Ti136  1  0.00016277  0.00174019  0.00287892  1
  Ti  Ti137  1  0.79396023  0.82867915  0.49587418  1
  Ti  Ti138  1  0.80496698  -0.00256342  0.24584984  1
  Ti  Ti139  1  0.28498160  0.28765611  0.38483566  1
  Ti  Ti140  1  0.89188803  0.90302550  0.62966185  1
  Ti  Ti141  1  0.09422200  0.30504964  0.88131872  1
  Ti  Ti142  1  0.39892236  0.58461118  0.27263741  1
  Ti  Ti143  1  0.69205188  0.29318342  0.60558176  1
  Ti  Ti144  1  0.31029256  0.90160515  0.37031256  1
  Ti  Ti145  1  0.70474717  0.90432673  0.63351126  1
  Ti  Ti146  1  0.42240687  0.79302994  0.24849447  1
  Ti  Ti147  1  -0.00216659  0.79393734  0.00431928  1
  Ti  Ti148  1  0.10528655  0.29938129  0.62892379  1
  Ti  Ti149  1  0.39373646  0.40767588  0.48343528  1
  Ti  Ti150  1  0.20945635  0.21047641  0.00832470  1
  Ti  Ti151  1  -0.00597060  0.21401231  0.00637938  1
  Ti  Ti152  1  0.41827183  0.40370530  0.74647154  1
  Ti  Ti153  1  0.69958485  0.69530505  0.14015535  1
  Ti  Ti154  1  0.17670449  0.41018209  0.75261372  1
  Ti  Ti155  1  0.58961168  0.59568968  0.47658012  1
  Ti  Ti156  1  0.40245340  0.18905291  0.24045051  1
  Ti  Ti157  1  0.80252184  0.01124066  0.50010627  1
  Ti  Ti158  1  0.60420868  0.77191485  0.74331121  1
  Ti  Ti159  1  -0.00436333  0.00660462  0.23780846  1
  Mo  Mo160  1  0.09222889  0.49195632  0.87623235  1
  Mo  Mo161  1  0.60029996  0.59447215  0.73499633  1
  Mo  Mo162  1  0.40878727  0.79485061  0.74614277  1
  Mo  Mo163  1  0.59969425  0.80640949  0.50563133  1
  Mo  Mo164  1  0.59722562  0.19470858  0.50243295  1
  Mo  Mo165  1  0.18780642  0.39590971  -0.01533100  1
  Mo  Mo166  1  0.59820187  0.80167490  0.24891017  1
  Mo  Mo167  1  0.89927360  0.69938848  0.87080162  1
  Mo  Mo168  1  0.09203776  0.29465641  0.37909276  1
  Mo  Mo169  1  0.30011262  0.29586106  0.12436659  1
  Mo  Mo170  1  0.60072483  0.39885478  0.49258280  1
  Mo  Mo171  1  0.60095906  0.79373089  0.00220941  1
  Mo  Mo172  1  -0.00248010  0.39626610  0.24810908  1
  Mo  Mo173  1  0.70598840  0.31251777  0.87712998  1
  Mo  Mo174  1  0.40312911  0.80101207  0.49493657  1
  Mo  Mo175  1  0.70492379  0.10779705  0.87598335  1
  Mo  Mo176  1  0.50784163  0.09110854  0.13252197  1
  Mo  Mo177  1  0.29712612  0.48758136  0.38060599  1
  Mo  Mo178  1  0.10106444  0.48577231  0.61674871  1
  Mo  Mo179  1  0.70788185  0.91516291  0.37631243  1
  Mo  Mo180  1  0.59438736  0.41075306  0.74234410  1
  Mo  Mo181  1  -0.00672649  0.80156111  0.51527793  1
  Mo  Mo182  1  0.40317539  0.19711576  0.74651380  1
  Mo  Mo183  1  0.29865283  0.89987113  0.87310973  1
  Mo  Mo184  1  0.49320435  0.10830444  0.86420838  1
  Mo  Mo185  1  0.30200980  0.09396230  0.12006796  1
  Mo  Mo186  1  0.90210288  0.89969189  0.11266583  1
  Mo  Mo187  1  0.71852444  0.68384488  0.86606183  1
  Mo  Mo188  1  0.09288044  0.51102669  0.12102827  1
  Mo  Mo189  1  0.49718815  0.70048063  0.37724279  1
  Mo  Mo190  1  0.89629676  0.91272932  0.37525226  1
  Mo  Mo191  1  0.20983534  0.60215329  0.74840839  1
  Mo  Mo192  1  0.80115866  0.58810834  0.01361337  1
  Mo  Mo193  1  -0.00073425  0.61040360  0.24628439  1
  Mo  Mo194  1  0.59933051  0.39734621  0.25438429  1
  Mo  Mo195  1  0.49426815  0.50813153  0.87286015  1
  Mo  Mo196  1  0.49600846  0.49368119  0.37767611  1
  Mo  Mo197  1  0.89769666  0.29670200  0.11175484  1
  Mo  Mo198  1  0.20589208  0.20296714  0.50837652  1
  Mo  Mo199  1  0.79726960  0.19155045  0.49792399  1
