# generated using pymatgen
data_HfZrTaTiMo
_symmetry_space_group_name_H-M   'P 1'
_cell_length_a   15.20786305
_cell_length_b   15.21157021
_cell_length_c   16.82672064
_cell_angle_alpha   90.01333939
_cell_angle_beta   90.00273545
_cell_angle_gamma   90.03359780
_symmetry_Int_Tables_number   1
_chemical_formula_structural   HfZrTaTiMo
_chemical_formula_sum   'Hf40 Zr40 Ta40 Ti40 Mo40'
_cell_volume   3892.61665590
_cell_formula_units_Z   40
loop_
 _symmetry_equiv_pos_site_id
 _symmetry_equiv_pos_as_xyz
  1  'x, y, z'
loop_
 _atom_site_type_symbol
 _atom_site_label
 _atom_site_symmetry_multiplicity
 _atom_site_fract_x
 _atom_site_fract_y
 _atom_site_fract_z
 _atom_site_occupancy
  Hf  Hf0  1  0.91060128  0.29467187  0.62688633  1
  Hf  Hf1  1  0.80608015  0.20780080  0.01159464  1
  Hf  Hf2  1  0.09083570  0.70872142  0.37142059  1
  Hf  Hf3  1  0.39959551  0.18317794  0.00276428  1
  Hf  Hf4  1  0.31529150  0.50031268  0.63054641  1
  Hf  Hf5  1  0.30892251  0.10068991  0.13560467  1
  Hf  Hf6  1  0.50415651  0.30431630  0.12705884  1
  Hf  Hf7  1  0.00903858  0.40225062  0.48129083  1
  Hf  Hf8  1  0.89571701  0.28973326  0.36278784  1
  Hf  Hf9  1  0.09805261  0.10905986  0.64876627  1
  Hf  Hf10  1  0.48838090  0.10239068  0.36035244  1
  Hf  Hf11  1  0.09676295  0.69829780  0.62780005  1
  Hf  Hf12  1  0.89934097  0.08934513  0.64171651  1
  Hf  Hf13  1  0.10906832  0.31013135  0.62950059  1
  Hf  Hf14  1  0.39492232  0.59129908  0.48406309  1
  Hf  Hf15  1  0.59033479  0.00041414  0.49324244  1
  Hf  Hf16  1  0.61560104  0.37993139  0.76590725  1
  Hf  Hf17  1  0.71399873  0.70055362  0.36530977  1
  Hf  Hf18  1  0.79544975  -0.00694575  0.49270690  1
  Hf  Hf19  1  0.69884871  0.11108900  0.87558955  1
  Hf  Hf20  1  0.40090747  -0.01493280  0.75611085  1
  Hf  Hf21  1  0.68701978  0.48370863  0.62992440  1
  Hf  Hf22  1  0.30240183  0.91121952  0.38491294  1
  Hf  Hf23  1  0.80634123  0.19189748  0.50175541  1
  Hf  Hf24  1  0.18933379  0.80599598  0.23757051  1
  Hf  Hf25  1  0.48758433  0.68713180  0.62238659  1
  Hf  Hf26  1  0.21084885  0.81293607  -0.01172201  1
  Hf  Hf27  1  0.09871236  0.90622869  0.37880059  1
  Hf  Hf28  1  0.28862297  0.10927081  0.85567397  1
  Hf  Hf29  1  0.70042969  0.89544247  0.88383976  1
  Hf  Hf30  1  0.00268400  0.40650211  0.25965658  1
  Hf  Hf31  1  0.58488358  0.80119875  0.75900620  1
  Hf  Hf32  1  0.60326263  0.80026557  0.49042394  1
  Hf  Hf33  1  0.21619642  0.40468120  0.48954104  1
  Hf  Hf34  1  0.10016590  0.49933153  0.12277798  1
  Hf  Hf35  1  0.79371279  0.40232990  0.49943337  1
  Hf  Hf36  1  0.68408203  0.49926614  0.12297240  1
  Hf  Hf37  1  0.70358395  0.90235393  0.62853599  1
  Hf  Hf38  1  -0.00233524  0.60431807  0.49228774  1
  Hf  Hf39  1  0.18953970  0.59799538  0.75812241  1
  Zr  Zr40  1  0.60105470  -0.00235706  0.75437486  1
  Zr  Zr41  1  0.39574268  0.39993545  0.00313082  1
  Zr  Zr42  1  0.11309363  0.29934934  0.13042353  1
  Zr  Zr43  1  -0.00505108  0.80593920  0.75306654  1
  Zr  Zr44  1  0.20418451  0.58020790  -0.00843104  1
  Zr  Zr45  1  0.71242015  0.49930487  0.87938987  1
  Zr  Zr46  1  0.80201915  0.00795712  0.01583590  1
  Zr  Zr47  1  0.28996366  0.70712581  0.37428197  1
  Zr  Zr48  1  0.47520307  0.90695247  0.11117761  1
  Zr  Zr49  1  0.28801543  0.10733606  0.36556297  1
  Zr  Zr50  1  0.59853878  0.57775629  0.48363740  1
  Zr  Zr51  1  0.19435898  0.02721276  -0.00780093  1
  Zr  Zr52  1  0.79610812  -0.01032256  0.24045004  1
  Zr  Zr53  1  0.20905617  0.40922946  0.26905704  1
  Zr  Zr54  1  0.79299432  0.39847086  0.23487964  1
  Zr  Zr55  1  0.50866113  0.30504420  0.61989935  1
  Zr  Zr56  1  0.69439027  0.30725295  0.37410905  1
  Zr  Zr57  1  0.58157105  0.00686875  -0.00640113  1
  Zr  Zr58  1  -0.00332599  0.00633287  0.50137630  1
  Zr  Zr59  1  0.09930435  0.70144338  0.10769832  1
  Zr  Zr60  1  0.90783883  0.10833646  0.86410741  1
  Zr  Zr61  1  0.30735220  0.69658965  0.12447765  1
  Zr  Zr62  1  0.90644382  0.90362325  0.89489895  1
  Zr  Zr63  1  0.91735157  0.50504493  0.62982721  1
  Zr  Zr64  1  0.81798013  0.39830187  0.75557760  1
  Zr  Zr65  1  0.89227535  0.88797737  0.36693071  1
  Zr  Zr66  1  0.79875904  0.60563852  0.50427236  1
  Zr  Zr67  1  0.58258896  0.58712033  0.75694979  1
  Zr  Zr68  1  0.21841322  0.19648881  0.51391731  1
  Zr  Zr69  1  0.51096983  0.70181416  0.13497118  1
  Zr  Zr70  1  0.39998226  0.81661307  0.25512761  1
  Zr  Zr71  1  0.30495795  0.49487293  0.86667593  1
  Zr  Zr72  1  0.79411432  0.59769978  0.01303660  1
  Zr  Zr73  1  0.08529906  0.69532083  0.88778701  1
  Zr  Zr74  1  0.88867104  0.70130837  0.88653000  1
  Zr  Zr75  1  0.70023655  0.10117058  0.36013367  1
  Zr  Zr76  1  0.10861202  0.26948544  0.36798096  1
  Zr  Zr77  1  0.11323915  0.29450445  0.87071477  1
  Zr  Zr78  1  0.67532214  0.90083473  0.12372859  1
  Zr  Zr79  1  0.69345944  0.69853232  0.63126715  1
  Ta  Ta80  1  0.19940593  0.80448024  0.75718539  1
  Ta  Ta81  1  0.09300988  0.90339103  0.62857673  1
  Ta  Ta82  1  0.10619439  0.10686862  0.13579417  1
  Ta  Ta83  1  0.58970701  0.59780181  -0.00504354  1
  Ta  Ta84  1  0.19932452  -0.00302934  0.24393286  1
  Ta  Ta85  1  0.40544249  0.40176201  0.25713740  1
  Ta  Ta86  1  -0.00942166  0.80304715  0.22816998  1
  Ta  Ta87  1  -0.00395365  0.60348612  0.24631166  1
  Ta  Ta88  1  0.61102416  0.39280295  -0.00668682  1
  Ta  Ta89  1  0.91179121  0.29639885  0.13037489  1
  Ta  Ta90  1  0.69469128  0.10683272  0.62592024  1
  Ta  Ta91  1  0.39979817  0.59027270  0.26287036  1
  Ta  Ta92  1  0.59034956  0.78773385  -0.00923711  1
  Ta  Ta93  1  0.50653470  0.09992843  0.14895489  1
  Ta  Ta94  1  0.81294988  0.39905480  0.01089119  1
  Ta  Ta95  1  0.38866392  0.79203341  0.75047236  1
  Ta  Ta96  1  0.80607132  0.60536554  0.75079417  1
  Ta  Ta97  1  0.91358894  0.10037638  0.35681324  1
  Ta  Ta98  1  0.30720372  0.10701967  0.64565226  1
  Ta  Ta99  1  0.49052664  0.10147308  0.87013714  1
  Ta  Ta100  1  -0.00871652  0.80483461  0.50947744  1
  Ta  Ta101  1  0.01558493  0.19116929  0.00275607  1
  Ta  Ta102  1  0.00650558  -0.00633133  0.24284804  1
  Ta  Ta103  1  0.49910615  0.70528945  0.37018048  1
  Ta  Ta104  1  0.50588872  0.29077461  0.88111423  1
  Ta  Ta105  1  0.39099907  0.01493117  0.50998906  1
  Ta  Ta106  1  0.78607170  0.20886221  0.74769562  1
  Ta  Ta107  1  0.00619156  0.39913764  -0.00222364  1
  Ta  Ta108  1  0.19584403  0.59752630  0.49443400  1
  Ta  Ta109  1  0.79047624  0.79771023  0.02171507  1
  Ta  Ta110  1  0.40078176  0.80690238  0.50006958  1
  Ta  Ta111  1  0.60295129  0.20165107  0.00753614  1
  Ta  Ta112  1  0.29313379  0.70165877  0.62353376  1
  Ta  Ta113  1  0.41726489  0.39821906  0.75041630  1
  Ta  Ta114  1  0.60044229  0.59776441  0.26163689  1
  Ta  Ta115  1  0.88694599  0.50900128  0.36715482  1
  Ta  Ta116  1  0.29421342  0.89849887  0.62214071  1
  Ta  Ta117  1  0.79816305  0.78839391  0.22456961  1
  Ta  Ta118  1  0.49622909  0.10190667  0.62704914  1
  Ta  Ta119  1  0.89718554  0.71025922  0.63217867  1
  Ti  Ti120  1  0.09214865  0.10614721  0.85066329  1
  Ti  Ti121  1  0.59331362  0.40984224  0.25514469  1
  Ti  Ti122  1  0.90159541  0.70139635  0.36281455  1
  Ti  Ti123  1  0.40325090  0.60564915  0.00149345  1
  Ti  Ti124  1  0.00806567  0.19307293  0.49762690  1
  Ti  Ti125  1  0.80440094  0.80001420  0.50307557  1
  Ti  Ti126  1  0.49229171  0.89814920  0.62134842  1
  Ti  Ti127  1  0.08902748  0.91181336  0.10638669  1
  Ti  Ti128  1  0.10826635  0.50367135  0.62401730  1
  Ti  Ti129  1  0.79489066  0.80314301  0.75303439  1
  Ti  Ti130  1  0.48821757  0.69400362  0.87502760  1
  Ti  Ti131  1  0.60782855  0.21338228  0.24497219  1
  Ti  Ti132  1  0.90573400  0.30203480  0.87757387  1
  Ti  Ti133  1  0.19395055  0.00602711  0.51155101  1
  Ti  Ti134  1  0.21415454  0.39517809  0.74637430  1
  Ti  Ti135  1  0.69445079  0.69699591  0.87374162  1
  Ti  Ti136  1  0.19760533  0.59682853  0.25765664  1
  Ti  Ti137  1  0.49766965  0.49474447  0.88242889  1
  Ti  Ti138  1  0.41426154  0.39479163  0.49444337  1
  Ti  Ti139  1  0.60403197  0.81445321  0.26462314  1
  Ti  Ti140  1  0.50223836  0.29703155  0.37726958  1
  Ti  Ti141  1  0.30204775  0.29883461  0.13347282  1
  Ti  Ti142  1  0.90541302  0.69393614  0.11350506  1
  Ti  Ti143  1  0.69724958  0.11028061  0.13705288  1
  Ti  Ti144  1  0.09461722  0.91350269  0.88124385  1
  Ti  Ti145  1  0.29130180  0.90722834  0.11613772  1
  Ti  Ti146  1  0.31138906  0.29564660  0.86995093  1
  Ti  Ti147  1  0.30377880  0.70117343  0.87306123  1
  Ti  Ti148  1  0.19394896  0.80377127  0.50737410  1
  Ti  Ti149  1  0.30138466  0.49391986  0.12930966  1
  Ti  Ti150  1  0.91929225  0.50844914  0.87946974  1
  Ti  Ti151  1  0.80244989  0.59860494  0.23238677  1
  Ti  Ti152  1  0.80414796  -0.00553167  0.75392964  1
  Ti  Ti153  1  0.19387612  -0.01100302  0.75042889  1
  Ti  Ti154  1  0.59775139  0.20330757  0.50064833  1
  Ti  Ti155  1  0.31899814  0.29267979  0.37149456  1
  Ti  Ti156  1  0.91365597  0.09850329  0.13412948  1
  Ti  Ti157  1  0.59513506  0.19736448  0.74870155  1
  Ti  Ti158  1  0.01789730  0.41334552  0.76165513  1
  Ti  Ti159  1  0.49164472  0.50457424  0.12621551  1
  Mo  Mo160  1  0.89350035  0.89520013  0.62866756  1
  Mo  Mo161  1  0.71021703  0.29433363  0.88634952  1
  Mo  Mo162  1  0.00155678  -0.00366220  0.75075338  1
  Mo  Mo163  1  0.50120360  0.48889705  0.36834587  1
  Mo  Mo164  1  0.68964447  0.69801780  0.13244859  1
  Mo  Mo165  1  0.09560668  0.51507073  0.37255696  1
  Mo  Mo166  1  0.70615257  0.50403265  0.36011620  1
  Mo  Mo167  1  0.20902038  0.21045576  0.73865439  1
  Mo  Mo168  1  0.31251483  0.30225967  0.63143565  1
  Mo  Mo169  1  0.90270735  0.89794521  0.11503167  1
  Mo  Mo170  1  0.20763998  0.20014447  0.24970935  1
  Mo  Mo171  1  0.09744842  0.08925731  0.36584847  1
  Mo  Mo172  1  0.40547351  0.21406768  0.24697456  1
  Mo  Mo173  1  0.48629044  0.88832117  0.88492374  1
  Mo  Mo174  1  0.00375797  0.01356087  0.00687633  1
  Mo  Mo175  1  0.80362347  0.19786494  0.23182544  1
  Mo  Mo176  1  0.30239412  0.49839412  0.37808200  1
  Mo  Mo177  1  0.41023244  0.19682168  0.50234832  1
  Mo  Mo178  1  -0.00587278  0.59523332  0.74847652  1
  Mo  Mo179  1  0.49618523  0.49511014  0.62568058  1
  Mo  Mo180  1  0.49719844  0.90325872  0.38307603  1
  Mo  Mo181  1  0.20593361  0.38607024  0.00176201  1
  Mo  Mo182  1  0.69792008  0.29925759  0.12192818  1
  Mo  Mo183  1  0.39965175  0.79182573  -0.01110120  1
  Mo  Mo184  1  -0.00887068  0.58775598  0.00491589  1
  Mo  Mo185  1  0.28950757  0.89734649  0.86687431  1
  Mo  Mo186  1  0.69936408  0.89279357  0.36978457  1
  Mo  Mo187  1  -0.00051365  0.19391291  0.24228062  1
  Mo  Mo188  1  0.59885118  0.39515181  0.49134131  1
  Mo  Mo189  1  0.39456775  0.60535684  0.75187683  1
  Mo  Mo190  1  0.70451050  0.28752204  0.61993303  1
  Mo  Mo191  1  0.41194764  0.20440165  0.75368593  1
  Mo  Mo192  1  0.38176910  -0.01485876  -0.02380171  1
  Mo  Mo193  1  0.39510983  -0.00144881  0.24994979  1
  Mo  Mo194  1  -0.00948446  0.21878436  0.75263559  1
  Mo  Mo195  1  0.09691598  0.48966894  0.87932340  1
  Mo  Mo196  1  0.58906285  -0.00505509  0.25575819  1
  Mo  Mo197  1  -0.00233953  0.80433567  0.01236045  1
  Mo  Mo198  1  0.90814461  0.49747216  0.12439511  1
  Mo  Mo199  1  0.20876984  0.21620366  0.00163727  1
