# generated using pymatgen
data_HfZrTaTiMo
_symmetry_space_group_name_H-M   'P 1'
_cell_length_a   15.22086934
_cell_length_b   15.20519818
_cell_length_c   16.81649067
_cell_angle_alpha   89.97395778
_cell_angle_beta   90.01652906
_cell_angle_gamma   89.95552919
_symmetry_Int_Tables_number   1
_chemical_formula_structural   HfZrTaTiMo
_chemical_formula_sum   'Hf40 Zr40 Ta40 Ti40 Mo40'
_cell_volume   3891.94522711
_cell_formula_units_Z   40
loop_
 _symmetry_equiv_pos_site_id
 _symmetry_equiv_pos_as_xyz
  1  'x, y, z'
loop_
 _atom_site_type_symbol
 _atom_site_label
 _atom_site_symmetry_multiplicity
 _atom_site_fract_x
 _atom_site_fract_y
 _atom_site_fract_z
 _atom_site_occupancy
  Hf  Hf0  1  0.41782559  0.40121949  -0.00920614  1
  Hf  Hf1  1  0.80036540  0.01121401  0.01556477  1
  Hf  Hf2  1  0.70029609  0.51174240  0.64219151  1
  Hf  Hf3  1  0.50023953  0.69911476  0.36499633  1
  Hf  Hf4  1  0.40345993  0.39553031  0.76142374  1
  Hf  Hf5  1  0.41332672  0.20559561  0.76654746  1
  Hf  Hf6  1  0.41245325  0.58921348  0.50636363  1
  Hf  Hf7  1  0.29910313  0.29662614  0.11250001  1
  Hf  Hf8  1  0.80221027  0.60680193  0.76166160  1
  Hf  Hf9  1  0.90207718  0.32201388  0.35466503  1
  Hf  Hf10  1  0.29355651  0.09697830  0.87578299  1
  Hf  Hf11  1  0.28980306  0.68213473  0.61447648  1
  Hf  Hf12  1  -0.01478678  0.59436569  0.25372034  1
  Hf  Hf13  1  0.19606352  -0.01285535  0.00181716  1
  Hf  Hf14  1  -0.00907251  0.80917782  0.72436149  1
  Hf  Hf15  1  0.50976921  0.87886785  0.88247413  1
  Hf  Hf16  1  0.51981805  0.09505298  0.88266672  1
  Hf  Hf17  1  0.10874849  0.50578333  0.87503958  1
  Hf  Hf18  1  0.69613431  0.91249295  0.37018782  1
  Hf  Hf19  1  0.89078543  0.09698002  0.35924067  1
  Hf  Hf20  1  0.10100548  0.50076266  0.11797686  1
  Hf  Hf21  1  0.49437054  0.29525475  0.36058853  1
  Hf  Hf22  1  -0.01232783  0.01713886  0.72317184  1
  Hf  Hf23  1  0.39747072  -0.00267043  0.00158601  1
  Hf  Hf24  1  0.62234159  0.60164530  0.23054889  1
  Hf  Hf25  1  0.08121978  0.30732921  0.88303340  1
  Hf  Hf26  1  0.51453142  0.49955490  0.36570603  1
  Hf  Hf27  1  0.80653157  0.41945417  0.49778685  1
  Hf  Hf28  1  0.10759158  0.29950513  0.36627682  1
  Hf  Hf29  1  0.79083240  0.81360494  0.74477080  1
  Hf  Hf30  1  0.18434419  0.79412194  0.26125472  1
  Hf  Hf31  1  0.09762139  0.30441938  0.12486754  1
  Hf  Hf32  1  -0.00360519  -0.01430692  0.24737254  1
  Hf  Hf33  1  0.29843666  0.69186157  0.38117883  1
  Hf  Hf34  1  0.29735420  0.89321652  0.62939561  1
  Hf  Hf35  1  0.70439634  0.69410327  0.37855255  1
  Hf  Hf36  1  0.18940885  -0.01122065  0.74957297  1
  Hf  Hf37  1  -0.01686903  0.00425986  0.51120300  1
  Hf  Hf38  1  0.60718001  0.20474596  0.48870871  1
  Hf  Hf39  1  0.41403921  0.19820685  0.00022200  1
  Zr  Zr40  1  0.89254346  0.69401613  0.38928803  1
  Zr  Zr41  1  0.08878776  0.89295238  0.38688963  1
  Zr  Zr42  1  0.40532003  -0.00626315  0.76212544  1
  Zr  Zr43  1  0.07829193  0.10071773  0.87199465  1
  Zr  Zr44  1  0.59962558  0.40816516  0.50268685  1
  Zr  Zr45  1  0.28418989  0.69838861  0.13253823  1
  Zr  Zr46  1  0.61333530  0.40296321  0.23190326  1
  Zr  Zr47  1  0.79854091  0.01537813  0.74305083  1
  Zr  Zr48  1  0.11207824  0.50564297  0.62703829  1
  Zr  Zr49  1  0.60091601  0.39008983  0.76428662  1
  Zr  Zr50  1  0.51123979  0.09302368  0.34807933  1
  Zr  Zr51  1  -0.00140393  0.20902571  0.49814344  1
  Zr  Zr52  1  0.41021094  0.78360636  0.74345993  1
  Zr  Zr53  1  0.69119287  0.10856906  0.61904140  1
  Zr  Zr54  1  0.58965673  0.80024800  0.49606335  1
  Zr  Zr55  1  0.70166133  0.49628626  0.88212522  1
  Zr  Zr56  1  0.71063472  0.30879194  0.62658499  1
  Zr  Zr57  1  0.10451922  0.09562724  0.37715881  1
  Zr  Zr58  1  -0.01291766  0.58361835  0.51268832  1
  Zr  Zr59  1  0.31831917  0.09659251  0.62966017  1
  Zr  Zr60  1  0.40344870  0.38284286  0.50571505  1
  Zr  Zr61  1  -0.00023270  0.00852655  0.01858201  1
  Zr  Zr62  1  0.40918174  0.18093743  0.49934766  1
  Zr  Zr63  1  0.09001971  0.88446038  0.87209430  1
  Zr  Zr64  1  0.69779917  0.91066246  0.88989803  1
  Zr  Zr65  1  0.29558420  0.49386293  0.11791670  1
  Zr  Zr66  1  0.49817652  0.90625924  0.14026472  1
  Zr  Zr67  1  0.18605716  0.18824323  0.00480509  1
  Zr  Zr68  1  0.20085597  0.39063540  0.49939751  1
  Zr  Zr69  1  0.40442834  0.60300686  0.00486510  1
  Zr  Zr70  1  0.11449516  0.11075924  0.61106898  1
  Zr  Zr71  1  0.67761289  0.71165551  0.87729277  1
  Zr  Zr72  1  0.19355502  0.20627846  0.75385300  1
  Zr  Zr73  1  0.91224256  0.48629662  0.87290129  1
  Zr  Zr74  1  0.81050931  0.61617095  -0.00828230  1
  Zr  Zr75  1  0.40389671  0.59218818  0.24022535  1
  Zr  Zr76  1  0.89948734  0.91629384  0.87959236  1
  Zr  Zr77  1  0.48333275  0.90388365  0.36158072  1
  Zr  Zr78  1  0.39526764  0.79748216  0.00504818  1
  Zr  Zr79  1  0.29473141  0.69579683  0.86993120  1
  Ta  Ta80  1  0.59642742  0.60218855  0.01673874  1
  Ta  Ta81  1  0.80037005  0.21571103  0.75238094  1
  Ta  Ta82  1  0.80368729  0.79402017  0.24734837  1
  Ta  Ta83  1  0.30422952  0.48446858  0.37180436  1
  Ta  Ta84  1  0.87944717  0.69230593  0.61902215  1
  Ta  Ta85  1  0.40517580  0.38740286  0.23607978  1
  Ta  Ta86  1  0.71565515  0.29965025  0.11212199  1
  Ta  Ta87  1  -0.01123968  0.79728241  0.51684195  1
  Ta  Ta88  1  0.28702997  0.89812050  0.12939217  1
  Ta  Ta89  1  0.88563293  0.89407215  0.38253505  1
  Ta  Ta90  1  0.29198314  0.30597542  0.88921650  1
  Ta  Ta91  1  0.18233404  0.78933786  0.00162689  1
  Ta  Ta92  1  0.69655524  0.90326745  0.61232657  1
  Ta  Ta93  1  0.09348511  0.68737840  0.39166695  1
  Ta  Ta94  1  0.01089665  0.61434880  0.74265280  1
  Ta  Ta95  1  0.39066091  0.80745996  0.50091882  1
  Ta  Ta96  1  0.00645575  0.20226668  0.24695414  1
  Ta  Ta97  1  0.20427610  -0.00820118  0.25487894  1
  Ta  Ta98  1  0.60176786  -0.00663710  0.74585605  1
  Ta  Ta99  1  0.50069034  0.90602374  0.62157379  1
  Ta  Ta100  1  0.89362493  0.11052329  0.14633824  1
  Ta  Ta101  1  0.80516143  0.20958392  0.48731460  1
  Ta  Ta102  1  0.08907926  0.49382637  0.37740273  1
  Ta  Ta103  1  0.90090906  0.31734278  0.14196431  1
  Ta  Ta104  1  0.19328861  0.79092825  0.50132253  1
  Ta  Ta105  1  0.20545563  0.39809087  0.25357776  1
  Ta  Ta106  1  0.22624920  -0.00887497  0.49003746  1
  Ta  Ta107  1  0.41113988  0.58917058  0.74089529  1
  Ta  Ta108  1  0.21468296  0.19566078  0.24966797  1
  Ta  Ta109  1  0.31546777  0.09008548  0.36256658  1
  Ta  Ta110  1  0.68349359  0.70776498  0.63079474  1
  Ta  Ta111  1  0.30839937  0.48577332  0.62916366  1
  Ta  Ta112  1  0.90515322  0.50482429  0.11479329  1
  Ta  Ta113  1  0.91218140  0.71452174  0.86953941  1
  Ta  Ta114  1  0.59698491  0.20609190  0.22752406  1
  Ta  Ta115  1  -0.01290631  0.79431862  0.00943981  1
  Ta  Ta116  1  0.18055926  0.77978103  0.73737108  1
  Ta  Ta117  1  0.88880528  0.12420551  0.88041997  1
  Ta  Ta118  1  0.71885255  0.29132860  0.89716517  1
  Ta  Ta119  1  0.18930987  0.58972588  0.26386544  1
  Ti  Ti120  1  0.60699385  0.19595909  0.75838871  1
  Ti  Ti121  1  0.60691473  0.19656866  0.01710492  1
  Ti  Ti122  1  -0.00418094  0.39526240  0.50406101  1
  Ti  Ti123  1  0.58322500  0.00981771  0.50030307  1
  Ti  Ti124  1  0.79205226  0.21408777  0.24845651  1
  Ti  Ti125  1  0.20239417  0.39896354  0.75386351  1
  Ti  Ti126  1  0.30353626  0.49888953  0.87692359  1
  Ti  Ti127  1  0.71960973  0.49751319  0.10852234  1
  Ti  Ti128  1  0.29105050  0.88764069  0.86969443  1
  Ti  Ti129  1  0.70525537  0.10636265  0.88410982  1
  Ti  Ti130  1  0.08876834  0.69539841  0.12915229  1
  Ti  Ti131  1  0.30581891  0.09239001  0.13222921  1
  Ti  Ti132  1  0.71520136  0.71229048  0.11361584  1
  Ti  Ti133  1  0.29535739  0.29226541  0.63086337  1
  Ti  Ti134  1  0.70118771  0.89631684  0.12706293  1
  Ti  Ti135  1  0.70124024  0.10722065  0.35699263  1
  Ti  Ti136  1  -0.02564566  0.21261799  0.01539872  1
  Ti  Ti137  1  0.60579086  0.59724867  0.50601697  1
  Ti  Ti138  1  0.21907825  0.19808871  0.48578829  1
  Ti  Ti139  1  0.70229689  0.31563153  0.36515535  1
  Ti  Ti140  1  0.09382796  0.31025568  0.63174768  1
  Ti  Ti141  1  0.69959491  0.09402184  0.14036719  1
  Ti  Ti142  1  0.60449970  0.39797984  0.00545557  1
  Ti  Ti143  1  0.50565219  0.70886653  0.13193855  1
  Ti  Ti144  1  0.10349263  0.90065416  0.60963304  1
  Ti  Ti145  1  0.19864387  0.60372945  -0.00544768  1
  Ti  Ti146  1  0.90032230  0.48363632  0.64938533  1
  Ti  Ti147  1  0.60842906  0.80141595  0.24810399  1
  Ti  Ti148  1  0.50974853  0.51647278  0.87502005  1
  Ti  Ti149  1  0.89107151  0.89028711  0.12878637  1
  Ti  Ti150  1  -0.01642915  0.21692450  0.73974299  1
  Ti  Ti151  1  -0.00982012  0.79038334  0.25208864  1
  Ti  Ti152  1  0.50330659  0.28831602  0.62982638  1
  Ti  Ti153  1  0.59613146  0.00174843  0.01874411  1
  Ti  Ti154  1  0.10467118  0.09519231  0.13893374  1
  Ti  Ti155  1  0.20792530  0.59630185  0.75064008  1
  Ti  Ti156  1  0.00811509  0.61125750  -0.00460994  1
  Ti  Ti157  1  0.38379969  0.80432779  0.24896187  1
  Ti  Ti158  1  0.09627849  0.88849905  0.12902919  1
  Ti  Ti159  1  0.79034353  0.01213799  0.49933009  1
  Mo  Mo160  1  0.90076847  0.29621983  0.87940357  1
  Mo  Mo161  1  0.79971058  -0.00710736  0.24323607  1
  Mo  Mo162  1  0.60841221  0.00008107  0.23947876  1
  Mo  Mo163  1  0.52319194  0.29576282  0.88595162  1
  Mo  Mo164  1  0.88489372  0.90460872  0.60923103  1
  Mo  Mo165  1  -0.00160485  0.40404821  0.00683649  1
  Mo  Mo166  1  0.49980952  0.69599877  0.61894150  1
  Mo  Mo167  1  0.79814340  0.60491321  0.23570718  1
  Mo  Mo168  1  0.00990410  0.39975816  0.74463943  1
  Mo  Mo169  1  0.51057213  0.10054478  0.63399016  1
  Mo  Mo170  1  0.80386151  0.42424031  0.24375748  1
  Mo  Mo171  1  0.50388835  0.68976267  0.87746883  1
  Mo  Mo172  1  0.09334679  0.69805750  0.87119052  1
  Mo  Mo173  1  0.79467642  0.80820610  0.50743544  1
  Mo  Mo174  1  0.20350837  0.58793581  0.48360836  1
  Mo  Mo175  1  0.20254228  0.40336121  -0.00949938  1
  Mo  Mo176  1  0.81107308  0.39345051  0.75568859  1
  Mo  Mo177  1  0.78573368  0.60232675  0.51308940  1
  Mo  Mo178  1  0.38728017  0.00140289  0.23921696  1
  Mo  Mo179  1  0.90250405  0.30338906  0.62229511  1
  Mo  Mo180  1  0.50064216  0.10366009  0.13119332  1
  Mo  Mo181  1  0.09603041  0.69876668  0.61198143  1
  Mo  Mo182  1  0.88625488  0.12146488  0.61574583  1
  Mo  Mo183  1  0.58835588  0.61016670  0.74900946  1
  Mo  Mo184  1  0.50223973  0.49705032  0.63349297  1
  Mo  Mo185  1  0.29462960  0.89458328  0.37426025  1
  Mo  Mo186  1  0.59616451  0.80903523  0.73941256  1
  Mo  Mo187  1  0.41014709  -0.00974578  0.50032801  1
  Mo  Mo188  1  0.30551742  0.29227774  0.36218889  1
  Mo  Mo189  1  0.50995534  0.49972516  0.12115632  1
  Mo  Mo190  1  0.71531179  0.50457272  0.36998486  1
  Mo  Mo191  1  0.80149937  0.19508550  0.01707361  1
  Mo  Mo192  1  0.01063823  0.40849011  0.24820548  1
  Mo  Mo193  1  0.60109226  0.79541183  0.01893456  1
  Mo  Mo194  1  0.81332726  0.39572652  0.00523618  1
  Mo  Mo195  1  0.40037008  0.20083540  0.23258594  1
  Mo  Mo196  1  0.88933715  0.50469022  0.37333506  1
  Mo  Mo197  1  0.90392060  0.70268412  0.12572186  1
  Mo  Mo198  1  0.50717819  0.30342243  0.11727578  1
  Mo  Mo199  1  0.80296735  0.80835727  0.00557442  1
