# generated using pymatgen
data_HfZrTaTiMo
_symmetry_space_group_name_H-M   'P 1'
_cell_length_a   15.21111950
_cell_length_b   15.21800397
_cell_length_c   16.80591554
_cell_angle_alpha   90.00021240
_cell_angle_beta   90.03805465
_cell_angle_gamma   90.04051953
_symmetry_Int_Tables_number   1
_chemical_formula_structural   HfZrTaTiMo
_chemical_formula_sum   'Hf40 Zr40 Ta40 Ti40 Mo40'
_cell_volume   3890.27984676
_cell_formula_units_Z   40
loop_
 _symmetry_equiv_pos_site_id
 _symmetry_equiv_pos_as_xyz
  1  'x, y, z'
loop_
 _atom_site_type_symbol
 _atom_site_label
 _atom_site_symmetry_multiplicity
 _atom_site_fract_x
 _atom_site_fract_y
 _atom_site_fract_z
 _atom_site_occupancy
  Hf  Hf0  1  0.51801959  0.69971086  0.36899054  1
  Hf  Hf1  1  0.69608384  0.88433020  0.86264075  1
  Hf  Hf2  1  0.20599469  0.00212240  0.75303106  1
  Hf  Hf3  1  0.19750017  0.00496038  0.26305578  1
  Hf  Hf4  1  0.21167244  0.78493747  -0.01469669  1
  Hf  Hf5  1  0.91435284  0.69887516  0.37398403  1
  Hf  Hf6  1  0.10354813  0.11023775  0.12873295  1
  Hf  Hf7  1  0.69288829  0.49648354  0.37380142  1
  Hf  Hf8  1  0.50322026  0.69713682  0.12750565  1
  Hf  Hf9  1  0.39514992  0.60999345  -0.01123092  1
  Hf  Hf10  1  0.29594998  0.70255357  0.63089505  1
  Hf  Hf11  1  0.18841307  0.40004234  0.24940021  1
  Hf  Hf12  1  0.08855139  0.48913314  0.87828905  1
  Hf  Hf13  1  0.39946624  0.81010035  0.76067344  1
  Hf  Hf14  1  0.69379523  0.88673460  0.36630460  1
  Hf  Hf15  1  0.49211338  0.90071171  0.11888389  1
  Hf  Hf16  1  0.17841811  0.80070544  0.49048297  1
  Hf  Hf17  1  0.60457394  -0.00111546  0.00222476  1
  Hf  Hf18  1  0.59123698  0.00222547  0.25676052  1
  Hf  Hf19  1  0.09488613  0.11119403  0.38474336  1
  Hf  Hf20  1  0.20417936  -0.00753464  -0.00613605  1
  Hf  Hf21  1  0.20561434  0.60992721  0.26901099  1
  Hf  Hf22  1  0.20144711  0.00115836  0.49073416  1
  Hf  Hf23  1  0.40099136  0.38735190  0.25419816  1
  Hf  Hf24  1  0.30978987  0.10199997  0.88138989  1
  Hf  Hf25  1  0.09928383  0.90650594  0.62739679  1
  Hf  Hf26  1  0.69313715  0.68697622  0.63632817  1
  Hf  Hf27  1  0.09885357  0.49943222  0.61355938  1
  Hf  Hf28  1  0.88632806  0.90944733  0.62698153  1
  Hf  Hf29  1  0.71438518  0.69551982  0.35930730  1
  Hf  Hf30  1  0.60155877  0.78665751  -0.00540536  1
  Hf  Hf31  1  -0.00163291  0.80860008  0.00669116  1
  Hf  Hf32  1  0.81084537  0.58097235  0.23377526  1
  Hf  Hf33  1  0.09348233  0.90163293  0.86989110  1
  Hf  Hf34  1  -0.00401573  0.79487038  0.73908026  1
  Hf  Hf35  1  0.91956882  0.10592814  0.60088974  1
  Hf  Hf36  1  0.70735887  0.10346982  0.13007571  1
  Hf  Hf37  1  0.89258021  0.50010014  0.39095943  1
  Hf  Hf38  1  -0.00454755  0.02435445  0.75284606  1
  Hf  Hf39  1  0.59765673  -0.00750660  0.50044447  1
  Zr  Zr40  1  0.82047492  0.19434526  -0.01022635  1
  Zr  Zr41  1  0.30663768  0.09985652  0.11818850  1
  Zr  Zr42  1  0.29038418  0.50646696  0.11596961  1
  Zr  Zr43  1  -0.00437393  0.01581095  -0.00013566  1
  Zr  Zr44  1  0.89812332  0.50584354  0.62337065  1
  Zr  Zr45  1  0.20360693  0.61196551  0.48937620  1
  Zr  Zr46  1  0.40593352  0.20397943  0.74385014  1
  Zr  Zr47  1  0.30340976  0.10167684  0.61682398  1
  Zr  Zr48  1  0.00714968  0.59716176  0.23510922  1
  Zr  Zr49  1  0.70964779  0.09351030  0.86369324  1
  Zr  Zr50  1  -0.01699393  0.59501091  0.01191149  1
  Zr  Zr51  1  0.78878329  0.39238149  0.51243248  1
  Zr  Zr52  1  0.40084280  0.58861035  0.25729319  1
  Zr  Zr53  1  0.70618497  0.10164604  0.38476268  1
  Zr  Zr54  1  0.29418055  0.89357643  0.12908976  1
  Zr  Zr55  1  0.79995899  0.78986851  0.00822822  1
  Zr  Zr56  1  0.50820731  0.31265262  0.88017097  1
  Zr  Zr57  1  0.30387250  0.50383182  0.62322416  1
  Zr  Zr58  1  0.89685673  0.89460539  0.36946743  1
  Zr  Zr59  1  0.89366531  0.69753085  0.87015451  1
  Zr  Zr60  1  0.79254524  0.39163180  -0.01336497  1
  Zr  Zr61  1  0.68749621  0.88245355  0.63163963  1
  Zr  Zr62  1  0.39676439  0.79906928  0.26552509  1
  Zr  Zr63  1  0.49884075  0.70785580  0.63162886  1
  Zr  Zr64  1  0.11644138  0.69639446  0.11948147  1
  Zr  Zr65  1  0.69288723  0.47346971  0.12451017  1
  Zr  Zr66  1  0.18899463  0.39734895  0.74725591  1
  Zr  Zr67  1  0.40338730  0.41318396  0.75271245  1
  Zr  Zr68  1  0.80446651  -0.00840759  0.00466184  1
  Zr  Zr69  1  0.82384170  0.19252371  0.74919186  1
  Zr  Zr70  1  0.00774061  0.21249410  0.25706436  1
  Zr  Zr71  1  0.10289900  0.68264229  0.87221899  1
  Zr  Zr72  1  0.58873803  0.00063874  0.74164023  1
  Zr  Zr73  1  0.08457392  0.51012558  0.39223718  1
  Zr  Zr74  1  0.39929145  0.00828843  0.26810527  1
  Zr  Zr75  1  0.59132323  0.39748812  0.51415591  1
  Zr  Zr76  1  0.50006208  0.11356664  0.11569012  1
  Zr  Zr77  1  0.41342660  0.59918183  0.48775176  1
  Zr  Zr78  1  0.89973516  0.31553570  0.12960205  1
  Zr  Zr79  1  0.71887660  0.08500303  0.62256839  1
  Ta  Ta80  1  0.30481071  0.30140494  0.11630719  1
  Ta  Ta81  1  0.39686974  0.38727092  0.49858405  1
  Ta  Ta82  1  -0.00056114  0.00209771  0.25498858  1
  Ta  Ta83  1  0.78956220  0.60826791  0.50614931  1
  Ta  Ta84  1  0.39626276  0.80416076  0.48829706  1
  Ta  Ta85  1  0.78829211  0.59387333  0.00301245  1
  Ta  Ta86  1  0.79815405  0.21058282  0.25790410  1
  Ta  Ta87  1  0.59780839  0.20456285  0.52505056  1
  Ta  Ta88  1  0.19821980  0.20139039  0.74799974  1
  Ta  Ta89  1  0.59811926  0.20914027  0.25046166  1
  Ta  Ta90  1  0.89650033  0.49219525  0.86578280  1
  Ta  Ta91  1  0.30236197  0.89795838  0.61849603  1
  Ta  Ta92  1  0.80471435  0.39318560  0.74752660  1
  Ta  Ta93  1  0.29471556  0.48141430  0.38401198  1
  Ta  Ta94  1  0.19473106  0.39149250  -0.00192625  1
  Ta  Ta95  1  0.40367022  0.00038488  0.48942343  1
  Ta  Ta96  1  0.69637765  0.88863348  0.14292831  1
  Ta  Ta97  1  0.08371317  0.47349555  0.11257607  1
  Ta  Ta98  1  0.58884578  0.59167799  0.76610228  1
  Ta  Ta99  1  0.09904600  0.90480204  0.13244750  1
  Ta  Ta100  1  0.89928636  0.90282958  0.13987543  1
  Ta  Ta101  1  0.80550668  0.79472666  0.50639293  1
  Ta  Ta102  1  0.61882958  0.21460770  -0.00139199  1
  Ta  Ta103  1  0.09799535  0.29806659  0.60429742  1
  Ta  Ta104  1  0.60165828  0.20459878  0.72828216  1
  Ta  Ta105  1  0.29548505  0.30521023  0.88015771  1
  Ta  Ta106  1  0.50794737  0.10838347  0.88146459  1
  Ta  Ta107  1  0.60070054  0.58920948  -0.01108613  1
  Ta  Ta108  1  0.10629043  0.31478161  0.39427923  1
  Ta  Ta109  1  0.90007315  0.29804349  0.38664831  1
  Ta  Ta110  1  0.29000677  0.50883854  0.87802465  1
  Ta  Ta111  1  0.21522316  0.21162985  0.25727955  1
  Ta  Ta112  1  0.50483686  0.51289478  0.62606971  1
  Ta  Ta113  1  0.20122265  0.79617082  0.75500227  1
  Ta  Ta114  1  0.60335151  0.39679209  0.73716816  1
  Ta  Ta115  1  0.80201803  0.00453746  0.25065186  1
  Ta  Ta116  1  0.50540160  0.11865086  0.38624734  1
  Ta  Ta117  1  0.59784594  0.58764639  0.24256433  1
  Ta  Ta118  1  0.49353361  0.91322035  0.88088718  1
  Ta  Ta119  1  0.39945266  0.00452085  0.74882234  1
  Ti  Ti120  1  0.90415713  0.10528434  0.13662106  1
  Ti  Ti121  1  0.20016468  0.20357071  -0.00004850  1
  Ti  Ti122  1  0.41185560  0.20550205  0.50641550  1
  Ti  Ti123  1  0.79597769  0.20132244  0.50397266  1
  Ti  Ti124  1  0.50890409  0.31167835  0.11032896  1
  Ti  Ti125  1  0.00111949  0.59448647  0.74093943  1
  Ti  Ti126  1  0.09626105  0.29948124  0.87346400  1
  Ti  Ti127  1  0.10137005  0.11315357  0.87691608  1
  Ti  Ti128  1  0.30695881  0.11551489  0.38213457  1
  Ti  Ti129  1  0.21442768  0.21507497  0.49442637  1
  Ti  Ti130  1  0.48754848  0.90127657  0.62056817  1
  Ti  Ti131  1  0.68980553  0.49046354  0.87041893  1
  Ti  Ti132  1  0.50329996  0.48702863  0.37672119  1
  Ti  Ti133  1  -0.00262382  0.63592653  0.51917001  1
  Ti  Ti134  1  -0.01714479  0.40658794  0.25746816  1
  Ti  Ti135  1  0.91121896  0.30260503  0.61462758  1
  Ti  Ti136  1  0.50098869  0.70062010  0.86892039  1
  Ti  Ti137  1  0.89604621  0.10004332  0.38479301  1
  Ti  Ti138  1  0.69995924  0.69329552  0.13546052  1
  Ti  Ti139  1  0.60083371  0.78563014  0.49782943  1
  Ti  Ti140  1  0.29644483  0.89605476  0.37870906  1
  Ti  Ti141  1  0.39714348  0.81040804  -0.01642771  1
  Ti  Ti142  1  0.70391934  0.29610970  0.85848244  1
  Ti  Ti143  1  -0.00009283  -0.01569630  0.48836508  1
  Ti  Ti144  1  0.79503266  0.59367874  0.75652146  1
  Ti  Ti145  1  0.00997545  0.21924592  0.00018017  1
  Ti  Ti146  1  0.30773134  0.70375338  0.12645381  1
  Ti  Ti147  1  0.40498387  0.21235389  -0.00386412  1
  Ti  Ti148  1  0.68932989  0.29590781  0.37937324  1
  Ti  Ti149  1  0.29585234  0.30376582  0.62485221  1
  Ti  Ti150  1  0.01285171  0.21957399  0.74629883  1
  Ti  Ti151  1  0.10752838  0.11133187  0.61257145  1
  Ti  Ti152  1  0.69676894  0.49925341  0.63300782  1
  Ti  Ti153  1  0.40823668  0.20400777  0.25353734  1
  Ti  Ti154  1  0.00208750  0.79864547  0.23984155  1
  Ti  Ti155  1  0.18811582  0.80151517  0.26870629  1
  Ti  Ti156  1  0.59889219  0.38880788  0.25163636  1
  Ti  Ti157  1  0.79546327  0.79088150  0.75026374  1
  Ti  Ti158  1  0.89241624  0.91264597  0.86390364  1
  Ti  Ti159  1  0.49372432  0.49365228  0.11248288  1
  Mo  Mo160  1  0.59703606  0.39972570  -0.00442995  1
  Mo  Mo161  1  0.10009556  0.69957744  0.63747913  1
  Mo  Mo162  1  0.60042296  0.79282862  0.24317787  1
  Mo  Mo163  1  0.00164939  0.20231949  0.49163021  1
  Mo  Mo164  1  0.19971018  0.58873467  0.00049131  1
  Mo  Mo165  1  0.39436918  0.60424694  0.76288758  1
  Mo  Mo166  1  0.19360801  0.60227026  0.74671471  1
  Mo  Mo167  1  0.60920450  0.59763265  0.50173259  1
  Mo  Mo168  1  0.30074847  0.70068054  0.37786351  1
  Mo  Mo169  1  -0.01005490  0.80533840  0.51527121  1
  Mo  Mo170  1  0.50451127  0.29648344  0.37769372  1
  Mo  Mo171  1  0.89380066  0.70573839  0.12565228  1
  Mo  Mo172  1  0.49792353  0.09600709  0.61427749  1
  Mo  Mo173  1  -0.00584874  0.39009914  -0.00593297  1
  Mo  Mo174  1  0.49236103  0.30640896  0.62812893  1
  Mo  Mo175  1  0.20782079  0.39940817  0.50279085  1
  Mo  Mo176  1  0.59297796  0.79300227  0.76428753  1
  Mo  Mo177  1  0.40535494  0.00216321  -0.00680257  1
  Mo  Mo178  1  0.08849146  0.71368958  0.37138513  1
  Mo  Mo179  1  0.80435038  -0.00993720  0.49156073  1
  Mo  Mo180  1  0.50051600  0.90180570  0.38517083  1
  Mo  Mo181  1  0.80696908  0.79257364  0.23687367  1
  Mo  Mo182  1  0.11331776  0.29775166  0.12421765  1
  Mo  Mo183  1  0.08957761  0.89956976  0.36613958  1
  Mo  Mo184  1  0.80679088  -0.00775415  0.75406744  1
  Mo  Mo185  1  0.70906124  0.29710050  0.63733828  1
  Mo  Mo186  1  0.91695872  0.30671754  0.86836700  1
  Mo  Mo187  1  0.88844167  0.70064569  0.63514683  1
  Mo  Mo188  1  -0.00696965  0.39298388  0.74425542  1
  Mo  Mo189  1  0.30211069  0.90131271  0.87206131  1
  Mo  Mo190  1  0.39288146  0.40099291  -0.00302921  1
  Mo  Mo191  1  0.79584385  0.38578765  0.26364276  1
  Mo  Mo192  1  0.49781650  0.50401551  0.87910848  1
  Mo  Mo193  1  0.92049542  0.10563012  0.87483736  1
  Mo  Mo194  1  -0.00329294  0.40077644  0.50007295  1
  Mo  Mo195  1  0.30218930  0.69562601  0.86206431  1
  Mo  Mo196  1  0.69387667  0.28875173  0.13077854  1
  Mo  Mo197  1  0.69745293  0.68249763  0.86916837  1
  Mo  Mo198  1  0.89398577  0.49449275  0.11976134  1
  Mo  Mo199  1  0.30544722  0.29275341  0.37677261  1
