# generated using pymatgen
data_HfZrTaTiMo
_symmetry_space_group_name_H-M   'P 1'
_cell_length_a   15.20831486
_cell_length_b   15.21132942
_cell_length_c   16.85486805
_cell_angle_alpha   90.00107676
_cell_angle_beta   90.00357587
_cell_angle_gamma   89.83967684
_symmetry_Int_Tables_number   1
_chemical_formula_structural   HfZrTaTiMo
_chemical_formula_sum   'Hf40 Zr40 Ta40 Ti40 Mo40'
_cell_volume   3899.16777483
_cell_formula_units_Z   40
loop_
 _symmetry_equiv_pos_site_id
 _symmetry_equiv_pos_as_xyz
  1  'x, y, z'
loop_
 _atom_site_type_symbol
 _atom_site_label
 _atom_site_symmetry_multiplicity
 _atom_site_fract_x
 _atom_site_fract_y
 _atom_site_fract_z
 _atom_site_occupancy
  Hf  Hf0  1  0.20949392  0.00537755  0.74694492  1
  Hf  Hf1  1  0.41254851  0.60588511  0.75792856  1
  Hf  Hf2  1  0.90361780  0.10455050  0.11963364  1
  Hf  Hf3  1  0.41033486  0.80627616  -0.00512413  1
  Hf  Hf4  1  0.00953916  0.40794963  0.50952864  1
  Hf  Hf5  1  0.59108535  0.19755234  0.76289290  1
  Hf  Hf6  1  0.19680777  0.00703800  -0.00274445  1
  Hf  Hf7  1  0.50187809  0.89827070  0.14019307  1
  Hf  Hf8  1  0.70967346  0.90446398  0.37506806  1
  Hf  Hf9  1  0.69715766  0.08142663  0.86547533  1
  Hf  Hf10  1  0.10097370  0.90581895  0.12779181  1
  Hf  Hf11  1  0.00740368  0.60542846  0.25100657  1
  Hf  Hf12  1  0.49737024  0.70366320  0.61398531  1
  Hf  Hf13  1  0.00766585  0.58764062  0.00043235  1
  Hf  Hf14  1  0.09768178  0.90571138  0.86286695  1
  Hf  Hf15  1  -0.00161578  0.19186695  0.50315490  1
  Hf  Hf16  1  0.30106143  0.70437724  0.86450752  1
  Hf  Hf17  1  0.79443956  -0.00242986  0.00016181  1
  Hf  Hf18  1  0.50776591  0.30199611  0.37311956  1
  Hf  Hf19  1  0.21548226  0.59564843  0.24463387  1
  Hf  Hf20  1  0.50303924  0.91801626  0.36304927  1
  Hf  Hf21  1  0.09163270  0.90248183  0.63286988  1
  Hf  Hf22  1  0.90060350  0.90171297  0.12374302  1
  Hf  Hf23  1  0.41255659  0.20470061  0.49068482  1
  Hf  Hf24  1  0.80298592  -0.00610045  0.50684812  1
  Hf  Hf25  1  0.00175104  0.38452994  0.74441990  1
  Hf  Hf26  1  0.80784603  0.60056169  0.00524901  1
  Hf  Hf27  1  0.50140172  0.10945325  0.14134031  1
  Hf  Hf28  1  0.39266655  0.00071232  0.01199095  1
  Hf  Hf29  1  0.67455731  0.10636757  0.35908529  1
  Hf  Hf30  1  0.31218610  0.10916365  0.62522149  1
  Hf  Hf31  1  0.10014443  0.68841386  0.86315212  1
  Hf  Hf32  1  0.70847984  0.69375969  0.38164321  1
  Hf  Hf33  1  0.59826974  -0.01079001  0.00764600  1
  Hf  Hf34  1  0.48826055  0.90744690  0.62654302  1
  Hf  Hf35  1  0.58194436  0.79620898  0.75985329  1
  Hf  Hf36  1  0.19617966  0.21622259  0.74702988  1
  Hf  Hf37  1  0.89869611  0.08131520  0.36944490  1
  Hf  Hf38  1  0.60026826  0.58929119  0.49824478  1
  Hf  Hf39  1  0.70121540  0.29441548  0.10665055  1
  Zr  Zr40  1  0.19147393  0.79956839  0.26257952  1
  Zr  Zr41  1  0.90687504  0.10271403  0.86902015  1
  Zr  Zr42  1  0.18650193  0.79730875  0.49434724  1
  Zr  Zr43  1  -0.00490699  0.58653237  0.74111952  1
  Zr  Zr44  1  0.90435125  0.70262399  0.12459834  1
  Zr  Zr45  1  -0.01390569  0.79940618  0.49736361  1
  Zr  Zr46  1  0.90872564  0.30324439  0.12119671  1
  Zr  Zr47  1  0.39000763  0.79089242  0.26449390  1
  Zr  Zr48  1  0.38698186  0.00507107  0.49286570  1
  Zr  Zr49  1  0.69761968  0.69975537  0.62671541  1
  Zr  Zr50  1  0.69653247  0.90324061  0.63381061  1
  Zr  Zr51  1  0.89943843  0.08471632  0.64344466  1
  Zr  Zr52  1  0.80307998  0.21356649  0.75836549  1
  Zr  Zr53  1  0.00823003  0.60178650  0.50289329  1
  Zr  Zr54  1  0.50399458  0.69456524  0.13039270  1
  Zr  Zr55  1  0.27398875  0.91690468  0.38328152  1
  Zr  Zr56  1  0.30671825  0.70636463  0.62571238  1
  Zr  Zr57  1  0.79604186  0.20103543  0.24732696  1
  Zr  Zr58  1  0.40034837  0.60311847  -0.00733825  1
  Zr  Zr59  1  0.20574424  0.80140303  -0.00403464  1
  Zr  Zr60  1  0.37088661  0.00337716  0.24319865  1
  Zr  Zr61  1  0.21240470  0.57383297  0.51341744  1
  Zr  Zr62  1  0.28029515  0.12332363  0.12654897  1
  Zr  Zr63  1  0.20544396  0.58114164  0.00904848  1
  Zr  Zr64  1  0.90683908  0.30009810  0.36940431  1
  Zr  Zr65  1  0.80147999  0.40075474  0.50063418  1
  Zr  Zr66  1  0.70627977  0.69822969  0.86587953  1
  Zr  Zr67  1  0.60061240  0.58402096  0.25038985  1
  Zr  Zr68  1  0.10932107  0.29403206  0.13379110  1
  Zr  Zr69  1  0.81250114  0.59474579  0.50999996  1
  Zr  Zr70  1  -0.00517365  0.80189418  -0.01465406  1
  Zr  Zr71  1  0.11413374  0.29224344  0.37042374  1
  Zr  Zr72  1  0.49611046  0.30187913  0.10865616  1
  Zr  Zr73  1  0.58939079  0.02662116  0.50327811  1
  Zr  Zr74  1  0.49697502  0.29704595  0.62049797  1
  Zr  Zr75  1  0.61297542  0.79299578  0.25383501  1
  Zr  Zr76  1  0.59719617  0.39536636  0.75455167  1
  Zr  Zr77  1  0.11262989  0.49432778  0.36642084  1
  Zr  Zr78  1  0.60898713  0.60340343  0.00097940  1
  Zr  Zr79  1  0.39542518  0.22051382  0.75999295  1
  Ta  Ta80  1  0.09697424  0.10781437  0.86360088  1
  Ta  Ta81  1  0.48989334  0.09726959  0.88334762  1
  Ta  Ta82  1  0.60585349  0.80175860  -0.00471899  1
  Ta  Ta83  1  0.38856874  0.22339764  0.25545249  1
  Ta  Ta84  1  0.70166756  0.29583765  0.62280400  1
  Ta  Ta85  1  0.70124388  0.30217537  0.37405527  1
  Ta  Ta86  1  -0.00396857  0.80685811  0.26069253  1
  Ta  Ta87  1  0.49451606  0.48900994  0.11439500  1
  Ta  Ta88  1  0.10362148  0.70247618  0.12434875  1
  Ta  Ta89  1  0.28694176  0.31400623  0.88886366  1
  Ta  Ta90  1  0.50613543  0.49480977  0.88281347  1
  Ta  Ta91  1  0.48716960  0.49781002  0.62339284  1
  Ta  Ta92  1  0.59464197  0.80806345  0.49105123  1
  Ta  Ta93  1  0.28836755  0.12208062  0.37209890  1
  Ta  Ta94  1  0.08982809  0.29588148  0.87825211  1
  Ta  Ta95  1  0.00019541  -0.00601611  0.50516282  1
  Ta  Ta96  1  0.60322656  0.59042496  0.75252849  1
  Ta  Ta97  1  0.29722521  0.10845787  0.87737036  1
  Ta  Ta98  1  0.78896632  0.19134365  0.50027652  1
  Ta  Ta99  1  0.79692692  0.40720843  0.24504135  1
  Ta  Ta100  1  0.70963810  0.49192174  0.87615114  1
  Ta  Ta101  1  0.10068300  0.69765757  0.63769268  1
  Ta  Ta102  1  0.89923208  0.29380023  0.62180744  1
  Ta  Ta103  1  0.78905554  0.80273338  -0.00223403  1
  Ta  Ta104  1  0.59667133  0.39611238  0.50058720  1
  Ta  Ta105  1  0.49429940  0.30519397  0.89812609  1
  Ta  Ta106  1  0.80076654  0.58735174  0.74365797  1
  Ta  Ta107  1  0.70097616  0.29961630  0.89568795  1
  Ta  Ta108  1  0.60414939  0.38975940  0.24409194  1
  Ta  Ta109  1  0.31108217  0.91058675  0.86542048  1
  Ta  Ta110  1  0.30148378  0.70770335  0.12597997  1
  Ta  Ta111  1  -0.00886195  0.80139698  0.75134457  1
  Ta  Ta112  1  0.49566367  0.69002904  0.38336031  1
  Ta  Ta113  1  0.01677712  0.17952411  0.25193501  1
  Ta  Ta114  1  0.89869892  0.50169020  0.36017362  1
  Ta  Ta115  1  0.11264544  0.48222352  0.86890196  1
  Ta  Ta116  1  0.20600930  0.20215776  0.50835921  1
  Ta  Ta117  1  0.20481031  0.58280799  0.73846514  1
  Ta  Ta118  1  0.69081203  0.10459512  0.63979464  1
  Ta  Ta119  1  0.79694621  0.60053869  0.24148985  1
  Ti  Ti120  1  0.90000339  0.29948184  0.89088698  1
  Ti  Ti121  1  0.69657303  0.49071036  0.62908575  1
  Ti  Ti122  1  0.89822319  0.69448766  0.86945029  1
  Ti  Ti123  1  0.10776793  0.30318176  0.61985936  1
  Ti  Ti124  1  0.38853669  0.20090246  -0.00328556  1
  Ti  Ti125  1  0.40269122  0.59219509  0.25465206  1
  Ti  Ti126  1  0.17150194  0.01919815  0.24670954  1
  Ti  Ti127  1  0.70045390  0.49563051  0.12028200  1
  Ti  Ti128  1  0.60424540  0.18570916  -0.00632248  1
  Ti  Ti129  1  0.50582687  0.90833993  0.86988753  1
  Ti  Ti130  1  0.80786350  0.40593135  0.00191082  1
  Ti  Ti131  1  0.40931399  0.41261769  0.25465378  1
  Ti  Ti132  1  0.80244298  0.79531680  0.24543582  1
  Ti  Ti133  1  0.30206312  0.32881733  0.61901450  1
  Ti  Ti134  1  0.79922715  0.79957768  0.50495431  1
  Ti  Ti135  1  0.20384542  0.80002081  0.74688500  1
  Ti  Ti136  1  0.30332200  0.32600648  0.11009674  1
  Ti  Ti137  1  0.39732332  0.79920117  0.48490579  1
  Ti  Ti138  1  0.91030351  0.49282165  0.13582536  1
  Ti  Ti139  1  0.89957879  0.70346465  0.63236751  1
  Ti  Ti140  1  0.30455650  0.49226633  0.86660800  1
  Ti  Ti141  1  0.10735754  0.48737063  0.13770279  1
  Ti  Ti142  1  0.69946288  0.49056541  0.37193559  1
  Ti  Ti143  1  0.01341046  0.39598588  0.00013887  1
  Ti  Ti144  1  0.10535302  0.09215605  0.38617636  1
  Ti  Ti145  1  0.90608054  0.49313670  0.87521015  1
  Ti  Ti146  1  0.79715319  -0.01102502  0.24276220  1
  Ti  Ti147  1  0.90259358  0.70154101  0.37032204  1
  Ti  Ti148  1  0.29520966  0.90131719  0.62019256  1
  Ti  Ti149  1  0.29299101  0.68207332  0.38557472  1
  Ti  Ti150  1  0.80246034  0.40282966  0.74981978  1
  Ti  Ti151  1  0.22761006  0.39115170  0.25267431  1
  Ti  Ti152  1  0.88615602  0.90524723  0.86488664  1
  Ti  Ti153  1  0.18409305  0.20613014  -0.00512316  1
  Ti  Ti154  1  0.09798377  0.10302251  0.63138443  1
  Ti  Ti155  1  0.00270112  0.00854435  -0.00656716  1
  Ti  Ti156  1  0.07641894  0.91066371  0.37424526  1
  Ti  Ti157  1  0.80023594  0.80101002  0.75067118  1
  Ti  Ti158  1  0.41213434  0.01095182  0.75175994  1
  Ti  Ti159  1  0.69568574  0.09161635  0.13293723  1
  Mo  Mo160  1  0.31770527  0.49561084  0.37322121  1
  Mo  Mo161  1  0.50498433  0.10234362  0.63062227  1
  Mo  Mo162  1  0.00358530  0.19856466  -0.00350678  1
  Mo  Mo163  1  0.89458567  0.48812181  0.63183982  1
  Mo  Mo164  1  0.00521148  0.20304338  0.74110821  1
  Mo  Mo165  1  0.20800915  0.39016677  0.50024458  1
  Mo  Mo166  1  0.89651636  0.88818819  0.63479761  1
  Mo  Mo167  1  0.48547498  0.10825326  0.34808570  1
  Mo  Mo168  1  0.18226549  0.01508321  0.50903374  1
  Mo  Mo169  1  0.10023343  0.69986353  0.37314538  1
  Mo  Mo170  1  0.39805302  0.41754705  0.49268741  1
  Mo  Mo171  1  0.39745473  0.40698239  0.76054198  1
  Mo  Mo172  1  0.70745320  0.70104277  0.12287057  1
  Mo  Mo173  1  0.30260976  0.31302299  0.38378855  1
  Mo  Mo174  1  0.60667561  0.00051184  0.23839021  1
  Mo  Mo175  1  0.50797886  0.49790528  0.37402221  1
  Mo  Mo176  1  0.19251538  0.40260316  0.00231341  1
  Mo  Mo177  1  0.20595888  0.39566598  0.75113271  1
  Mo  Mo178  1  0.08861068  0.10143530  0.11957861  1
  Mo  Mo179  1  0.79664097  0.19564829  -0.00726720  1
  Mo  Mo180  1  0.59573428  0.20790804  0.24140851  1
  Mo  Mo181  1  -0.00177993  0.40063982  0.24879943  1
  Mo  Mo182  1  0.88979234  0.89200034  0.36997951  1
  Mo  Mo183  1  0.39106431  0.81807447  0.75257700  1
  Mo  Mo184  1  0.59174789  0.00235658  0.75018432  1
  Mo  Mo185  1  0.50407137  0.70106538  0.87472627  1
  Mo  Mo186  1  0.70513358  0.89304777  0.12734279  1
  Mo  Mo187  1  0.40498009  0.60015169  0.49603949  1
  Mo  Mo188  1  0.70159899  0.89561932  0.86749738  1
  Mo  Mo189  1  0.79859916  -0.01003177  0.75104096  1
  Mo  Mo190  1  0.39158255  0.40781911  -0.00616371  1
  Mo  Mo191  1  -0.00593604  -0.00260310  0.25063886  1
  Mo  Mo192  1  0.31126992  0.49828984  0.13260139  1
  Mo  Mo193  1  0.00261533  -0.00334902  0.75320431  1
  Mo  Mo194  1  0.29077480  0.89251675  0.12418764  1
  Mo  Mo195  1  0.11210550  0.48672472  0.63253238  1
  Mo  Mo196  1  0.20612405  0.20003896  0.25294436  1
  Mo  Mo197  1  0.31316566  0.49645621  0.63443875  1
  Mo  Mo198  1  0.61152824  0.20881830  0.50121478  1
  Mo  Mo199  1  0.60541118  0.40455497  -0.00465007  1
