# generated using pymatgen
data_HfZrTaTiMo
_symmetry_space_group_name_H-M   'P 1'
_cell_length_a   15.21874641
_cell_length_b   15.21587268
_cell_length_c   16.84512575
_cell_angle_alpha   89.94390481
_cell_angle_beta   90.07577807
_cell_angle_gamma   89.96173453
_symmetry_Int_Tables_number   1
_chemical_formula_structural   HfZrTaTiMo
_chemical_formula_sum   'Hf40 Zr40 Ta40 Ti40 Mo40'
_cell_volume   3900.76078567
_cell_formula_units_Z   40
loop_
 _symmetry_equiv_pos_site_id
 _symmetry_equiv_pos_as_xyz
  1  'x, y, z'
loop_
 _atom_site_type_symbol
 _atom_site_label
 _atom_site_symmetry_multiplicity
 _atom_site_fract_x
 _atom_site_fract_y
 _atom_site_fract_z
 _atom_site_occupancy
  Hf  Hf0  1  0.60447330  0.79340407  0.50229261  1
  Hf  Hf1  1  0.60327106  -0.01267965  0.50386781  1
  Hf  Hf2  1  0.90031191  0.69757255  0.36954296  1
  Hf  Hf3  1  0.49650655  0.49342976  0.88141605  1
  Hf  Hf4  1  0.39038279  0.38976394  0.00212106  1
  Hf  Hf5  1  0.89586972  0.49709021  0.13244601  1
  Hf  Hf6  1  0.29924268  0.49721585  0.13797956  1
  Hf  Hf7  1  0.29429355  0.09836796  0.87991601  1
  Hf  Hf8  1  -0.00134585  0.39202174  -0.00101751  1
  Hf  Hf9  1  0.30177366  0.10304491  0.38756940  1
  Hf  Hf10  1  0.19294492  0.79342081  -0.00479933  1
  Hf  Hf11  1  0.30356569  0.70441176  0.34444660  1
  Hf  Hf12  1  0.89635354  0.89952333  0.37502968  1
  Hf  Hf13  1  0.50470837  0.50163880  0.12741327  1
  Hf  Hf14  1  0.40192898  0.37082600  0.74678513  1
  Hf  Hf15  1  0.21824293  0.19997785  0.73883070  1
  Hf  Hf16  1  0.49951318  0.70557055  0.14094169  1
  Hf  Hf17  1  0.01350135  0.20820456  0.73584648  1
  Hf  Hf18  1  0.30377526  0.49059662  0.61586844  1
  Hf  Hf19  1  0.49299276  0.29149855  0.11957991  1
  Hf  Hf20  1  0.51619604  0.09044933  0.11503474  1
  Hf  Hf21  1  0.50353758  0.89077809  0.87635718  1
  Hf  Hf22  1  0.19131983  0.79691389  0.76184306  1
  Hf  Hf23  1  0.88850169  0.48960852  0.85558528  1
  Hf  Hf24  1  0.70985732  0.10608696  0.39597897  1
  Hf  Hf25  1  -0.00081065  0.61113520  -0.01210353  1
  Hf  Hf26  1  0.50122155  0.69795786  0.35472824  1
  Hf  Hf27  1  0.40330679  0.01132504  0.24465164  1
  Hf  Hf28  1  0.90367900  0.09708398  0.61459744  1
  Hf  Hf29  1  0.20186561  0.18689170  0.25238691  1
  Hf  Hf30  1  0.40697649  0.39230203  0.25317904  1
  Hf  Hf31  1  0.09384176  0.89411433  0.62239501  1
  Hf  Hf32  1  0.50119018  0.89204532  0.36646192  1
  Hf  Hf33  1  0.30018340  0.69752068  0.14019989  1
  Hf  Hf34  1  0.09840568  0.69032373  0.35788175  1
  Hf  Hf35  1  0.60100454  0.40416243  0.74896319  1
  Hf  Hf36  1  0.69946298  0.50832095  0.63073772  1
  Hf  Hf37  1  0.70832466  0.31373168  0.38201724  1
  Hf  Hf38  1  0.40210834  0.61041540  0.49217090  1
  Hf  Hf39  1  0.59869333  0.20002516  0.25222642  1
  Zr  Zr40  1  0.09495617  0.50203656  0.14206344  1
  Zr  Zr41  1  0.31014250  0.11763725  0.10859198  1
  Zr  Zr42  1  0.59508334  0.21015522  0.75310050  1
  Zr  Zr43  1  0.09458068  0.88580957  0.39218898  1
  Zr  Zr44  1  0.10113931  0.08929024  0.39537986  1
  Zr  Zr45  1  0.10132159  0.08882012  0.11252781  1
  Zr  Zr46  1  0.80704598  0.21115023  0.24997826  1
  Zr  Zr47  1  0.00086979  0.61819546  0.76171387  1
  Zr  Zr48  1  0.60421203  0.00066820  0.75151162  1
  Zr  Zr49  1  0.09125006  0.29316980  0.38146503  1
  Zr  Zr50  1  0.19443799  0.39330577  0.73691667  1
  Zr  Zr51  1  0.69155727  0.90368359  0.12150480  1
  Zr  Zr52  1  0.19888456  0.59364811  -0.00281908  1
  Zr  Zr53  1  0.29615776  0.90537351  0.36010359  1
  Zr  Zr54  1  0.09581419  0.29589318  0.12971698  1
  Zr  Zr55  1  0.29631742  0.49740970  0.37097822  1
  Zr  Zr56  1  0.79645014  0.60500914  0.49427590  1
  Zr  Zr57  1  0.50147388  0.09872383  0.62529516  1
  Zr  Zr58  1  0.10076770  0.09269580  0.61751670  1
  Zr  Zr59  1  0.50168589  0.30470853  0.39320065  1
  Zr  Zr60  1  -0.00693860  0.81577512  0.00000985  1
  Zr  Zr61  1  0.08872439  0.69394082  0.62236627  1
  Zr  Zr62  1  0.30575710  0.70308615  0.63499998  1
  Zr  Zr63  1  0.70949857  0.30445445  0.87745754  1
  Zr  Zr64  1  0.60365076  0.79054601  0.74923006  1
  Zr  Zr65  1  0.89521637  0.50195730  0.64066698  1
  Zr  Zr66  1  0.80119129  0.39755482  0.00017578  1
  Zr  Zr67  1  0.50461856  0.10142800  0.38834619  1
  Zr  Zr68  1  0.70093153  0.30186638  0.12222425  1
  Zr  Zr69  1  0.09933783  0.49425066  0.86768842  1
  Zr  Zr70  1  0.70531328  0.10876638  0.61169281  1
  Zr  Zr71  1  0.80085133  0.60391241  -0.00586420  1
  Zr  Zr72  1  0.02085615  -0.00463094  0.24834460  1
  Zr  Zr73  1  0.22765926  0.79465466  0.50328561  1
  Zr  Zr74  1  0.69643498  0.69940731  0.11966719  1
  Zr  Zr75  1  0.72366108  0.09433007  0.87566842  1
  Zr  Zr76  1  0.40022368  0.58726969  0.75578355  1
  Zr  Zr77  1  0.18880594  0.59321993  0.49579266  1
  Zr  Zr78  1  0.29394078  0.90857571  0.11891182  1
  Zr  Zr79  1  0.81192721  0.01162384  0.25500363  1
  Ta  Ta80  1  0.91004933  0.11333905  0.40147506  1
  Ta  Ta81  1  0.59360733  0.60308701  0.75665094  1
  Ta  Ta82  1  0.50185259  0.50060523  0.61601191  1
  Ta  Ta83  1  0.18182606  0.81852146  0.23574819  1
  Ta  Ta84  1  0.50407705  0.30630222  0.60720427  1
  Ta  Ta85  1  0.48858745  0.88758442  0.63067241  1
  Ta  Ta86  1  0.61412932  -0.00178569  0.25731764  1
  Ta  Ta87  1  0.09293501  0.69830019  0.13520225  1
  Ta  Ta88  1  0.69596493  0.49993203  0.13291639  1
  Ta  Ta89  1  0.71387088  0.09718359  0.11061823  1
  Ta  Ta90  1  0.50362604  0.69175377  0.62361514  1
  Ta  Ta91  1  0.29895753  0.89843002  0.87917284  1
  Ta  Ta92  1  0.80295341  0.59956080  0.25347980  1
  Ta  Ta93  1  0.40546608  -0.00486416  -0.00708795  1
  Ta  Ta94  1  0.19973882  0.38862497  0.25691880  1
  Ta  Ta95  1  -0.01341337  0.80083854  0.23489185  1
  Ta  Ta96  1  0.30341818  0.69505264  0.87443887  1
  Ta  Ta97  1  0.60733302  -0.00834093  -0.01272639  1
  Ta  Ta98  1  0.80707760  0.20658139  0.73970714  1
  Ta  Ta99  1  -0.00794313  0.19233482  0.25224724  1
  Ta  Ta100  1  -0.00836799  0.58892384  0.49584447  1
  Ta  Ta101  1  0.11076818  0.29331133  0.87647631  1
  Ta  Ta102  1  0.71303488  0.89432590  0.63455972  1
  Ta  Ta103  1  0.79241345  0.80513650  0.24629372  1
  Ta  Ta104  1  0.39878024  0.60209529  -0.00279108  1
  Ta  Ta105  1  0.39665903  -0.02063602  0.50737626  1
  Ta  Ta106  1  0.83376511  0.19136685  0.00419674  1
  Ta  Ta107  1  0.20881515  -0.00783518  0.51274905  1
  Ta  Ta108  1  -0.02200751  0.01963433  -0.00836846  1
  Ta  Ta109  1  0.60457195  0.19819041  -0.00942174  1
  Ta  Ta110  1  0.49380147  0.10650106  0.87660357  1
  Ta  Ta111  1  0.30762482  0.08833049  0.62631758  1
  Ta  Ta112  1  0.79316000  0.81736658  -0.00562462  1
  Ta  Ta113  1  0.68527972  0.70825698  0.88780068  1
  Ta  Ta114  1  0.39857443  0.79745939  0.75957668  1
  Ta  Ta115  1  0.80670789  -0.02295368  0.50221818  1
  Ta  Ta116  1  0.18853557  0.39395314  0.50525157  1
  Ta  Ta117  1  0.39685322  0.19917389  0.51088403  1
  Ta  Ta118  1  -0.02032296  0.39711808  0.49837263  1
  Ta  Ta119  1  0.91320188  0.28923353  0.86414523  1
  Ti  Ti120  1  0.08826493  0.49373207  0.62754311  1
  Ti  Ti121  1  0.71093082  0.89718037  0.86584934  1
  Ti  Ti122  1  0.59958473  0.40070209  -0.00360895  1
  Ti  Ti123  1  0.39671333  0.20519546  0.25571584  1
  Ti  Ti124  1  0.88787740  0.72040821  0.87295042  1
  Ti  Ti125  1  -0.02566547  0.79483546  0.50769288  1
  Ti  Ti126  1  0.20195448  0.20295276  0.51576996  1
  Ti  Ti127  1  0.29511684  0.48851021  0.87450588  1
  Ti  Ti128  1  0.50101753  0.89557193  0.12542703  1
  Ti  Ti129  1  0.29945885  0.30129844  0.39082979  1
  Ti  Ti130  1  0.89494761  0.70283332  0.12521758  1
  Ti  Ti131  1  0.40422598  0.79388034  -0.00233578  1
  Ti  Ti132  1  0.19650035  -0.00551983  0.75091873  1
  Ti  Ti133  1  0.39293233  -0.00109590  0.75468706  1
  Ti  Ti134  1  0.70122803  0.70104709  0.62679467  1
  Ti  Ti135  1  0.70696754  0.50349879  0.36816471  1
  Ti  Ti136  1  -0.00764773  0.81050948  0.75854538  1
  Ti  Ti137  1  0.82015896  0.23449703  0.50841738  1
  Ti  Ti138  1  0.59268691  0.60374249  -0.00159976  1
  Ti  Ti139  1  0.89541468  0.91692432  0.12154150  1
  Ti  Ti140  1  0.70026733  0.71492202  0.36794809  1
  Ti  Ti141  1  0.70873722  0.31229227  0.61857643  1
  Ti  Ti142  1  0.08344689  0.49622968  0.36222116  1
  Ti  Ti143  1  0.18738828  -0.00593558  -0.00962132  1
  Ti  Ti144  1  0.60098146  0.60029619  0.49216248  1
  Ti  Ti145  1  0.60707275  0.59313191  0.25417772  1
  Ti  Ti146  1  0.20395898  0.21058413  -0.00105119  1
  Ti  Ti147  1  0.19927186  0.59864384  0.75429867  1
  Ti  Ti148  1  -0.02414146  0.38972882  0.25958127  1
  Ti  Ti149  1  0.89186745  0.92490739  0.86060799  1
  Ti  Ti150  1  0.78538398  0.61862331  0.76087647  1
  Ti  Ti151  1  0.08987335  0.90968974  0.87086675  1
  Ti  Ti152  1  0.19943914  0.39593988  0.00430605  1
  Ti  Ti153  1  0.60968401  0.40990272  0.50250431  1
  Ti  Ti154  1  0.08918617  0.10376196  0.87338775  1
  Ti  Ti155  1  0.89867613  0.90114269  0.63804591  1
  Ti  Ti156  1  0.31183580  0.28826780  0.87657687  1
  Ti  Ti157  1  0.88530278  0.71042202  0.63241005  1
  Ti  Ti158  1  0.50746791  0.49666172  0.37346051  1
  Ti  Ti159  1  0.69504612  0.50797960  0.87234463  1
  Mo  Mo160  1  0.89715891  0.49502115  0.36988670  1
  Mo  Mo161  1  0.40683848  0.59194179  0.25498199  1
  Mo  Mo162  1  0.00499814  0.21024595  0.51326596  1
  Mo  Mo163  1  0.00570099  -0.00097362  0.75495009  1
  Mo  Mo164  1  0.09037825  0.89595203  0.11283106  1
  Mo  Mo165  1  0.01278473  0.20278955  -0.00913458  1
  Mo  Mo166  1  0.60701281  0.40633206  0.25385575  1
  Mo  Mo167  1  0.80811603  -0.00001820  0.73896523  1
  Mo  Mo168  1  -0.00136855  0.39434402  0.74861369  1
  Mo  Mo169  1  0.90411487  0.10653184  0.12569888  1
  Mo  Mo170  1  0.80307833  0.79932368  0.75923272  1
  Mo  Mo171  1  0.09586228  0.30705118  0.61113064  1
  Mo  Mo172  1  0.60772818  0.80756957  0.25299236  1
  Mo  Mo173  1  0.49421114  0.69430343  0.88253797  1
  Mo  Mo174  1  0.79356778  0.39408858  0.75289393  1
  Mo  Mo175  1  0.40016767  0.40425419  0.49971996  1
  Mo  Mo176  1  0.79975206  0.41479700  0.50124250  1
  Mo  Mo177  1  0.89675887  0.31005615  0.63454149  1
  Mo  Mo178  1  0.80397089  -0.00220899  -0.00355582  1
  Mo  Mo179  1  -0.00486527  -0.01051219  0.50274660  1
  Mo  Mo180  1  0.41124557  0.79950365  0.50218321  1
  Mo  Mo181  1  0.49960286  0.29403879  0.88672752  1
  Mo  Mo182  1  0.40283427  0.19161246  0.74462990  1
  Mo  Mo183  1  0.29404998  0.30294059  0.13011418  1
  Mo  Mo184  1  0.20250279  0.00147281  0.24698527  1
  Mo  Mo185  1  0.19161164  0.59530413  0.24954258  1
  Mo  Mo186  1  0.90899577  0.10643306  0.85944550  1
  Mo  Mo187  1  0.40597112  0.19522635  -0.00523268  1
  Mo  Mo188  1  0.09832186  0.70892123  0.87170764  1
  Mo  Mo189  1  0.30295729  0.90221220  0.64058916  1
  Mo  Mo190  1  0.70179140  0.89746564  0.37181172  1
  Mo  Mo191  1  -0.00992567  0.60135003  0.24688572  1
  Mo  Mo192  1  0.40008253  0.80915001  0.23476281  1
  Mo  Mo193  1  0.89973224  0.30187503  0.37780310  1
  Mo  Mo194  1  0.30420896  0.29480324  0.61065108  1
  Mo  Mo195  1  0.60842702  0.20757243  0.50962356  1
  Mo  Mo196  1  0.59265483  0.80052779  -0.00312402  1
  Mo  Mo197  1  0.90664133  0.29694431  0.12794993  1
  Mo  Mo198  1  0.79572540  0.79893609  0.50525980  1
  Mo  Mo199  1  0.79024306  0.40746563  0.24861248  1
