# generated using pymatgen
data_HfZrTaTiMo
_symmetry_space_group_name_H-M   'P 1'
_cell_length_a   15.21374172
_cell_length_b   15.21529141
_cell_length_c   16.86718968
_cell_angle_alpha   89.94820573
_cell_angle_beta   89.95179177
_cell_angle_gamma   89.95539161
_symmetry_Int_Tables_number   1
_chemical_formula_structural   HfZrTaTiMo
_chemical_formula_sum   'Hf40 Zr40 Ta40 Ti40 Mo40'
_cell_volume   3904.43844138
_cell_formula_units_Z   40
loop_
 _symmetry_equiv_pos_site_id
 _symmetry_equiv_pos_as_xyz
  1  'x, y, z'
loop_
 _atom_site_type_symbol
 _atom_site_label
 _atom_site_symmetry_multiplicity
 _atom_site_fract_x
 _atom_site_fract_y
 _atom_site_fract_z
 _atom_site_occupancy
  Hf  Hf0  1  0.51082790  0.70006171  0.61384323  1
  Hf  Hf1  1  0.60137885  0.79776798  0.75214042  1
  Hf  Hf2  1  0.80689763  0.81027177  0.00429984  1
  Hf  Hf3  1  0.72296387  0.09701118  0.62259920  1
  Hf  Hf4  1  0.49371380  0.49969519  0.38403458  1
  Hf  Hf5  1  0.39229190  0.39840873  0.50787471  1
  Hf  Hf6  1  0.10175221  0.90978965  0.62766719  1
  Hf  Hf7  1  0.10001666  0.30056144  0.13229264  1
  Hf  Hf8  1  0.09684509  0.50275809  0.61829446  1
  Hf  Hf9  1  0.41052566  0.22379443  0.00571141  1
  Hf  Hf10  1  0.90073388  0.49277146  0.62814538  1
  Hf  Hf11  1  0.00070174  0.80504480  0.75129011  1
  Hf  Hf12  1  0.29841008  0.10135931  0.88614867  1
  Hf  Hf13  1  0.19337552  0.40236496  0.50007321  1
  Hf  Hf14  1  0.89022030  0.90771778  0.62742085  1
  Hf  Hf15  1  0.47909942  0.48988463  0.12778444  1
  Hf  Hf16  1  0.29949589  0.30333280  0.37178743  1
  Hf  Hf17  1  0.07863613  0.50622712  0.37470057  1
  Hf  Hf18  1  0.50958545  0.10201995  0.36756498  1
  Hf  Hf19  1  0.70398656  0.49726268  0.12398356  1
  Hf  Hf20  1  0.30783107  0.50266695  0.85698809  1
  Hf  Hf21  1  0.10036231  0.30501827  0.35714930  1
  Hf  Hf22  1  0.60274508  -0.00765155  0.49888123  1
  Hf  Hf23  1  0.88794977  0.29324828  0.88658742  1
  Hf  Hf24  1  -0.00875908  0.01605574  0.49662014  1
  Hf  Hf25  1  0.70884357  0.69495346  0.12528937  1
  Hf  Hf26  1  0.10811973  0.49222593  0.87417640  1
  Hf  Hf27  1  0.40453733  0.60947876  0.73764945  1
  Hf  Hf28  1  0.00187234  0.59973868  0.75189801  1
  Hf  Hf29  1  0.80316074  0.59910127  0.49771046  1
  Hf  Hf30  1  0.50580061  0.69390383  0.37120475  1
  Hf  Hf31  1  0.49242999  0.89637850  0.87763217  1
  Hf  Hf32  1  0.49844609  0.29525144  0.38252832  1
  Hf  Hf33  1  0.40112979  0.81010052  0.49676460  1
  Hf  Hf34  1  0.17050047  0.61131023  0.24811072  1
  Hf  Hf35  1  0.80640235  0.80147553  0.49109777  1
  Hf  Hf36  1  0.59994711  0.80768733  0.01190969  1
  Hf  Hf37  1  -0.00123948  0.17856600  0.24214406  1
  Hf  Hf38  1  0.59134444  0.59659845  0.00592676  1
  Hf  Hf39  1  0.30245765  0.10725388  0.36801419  1
  Zr  Zr40  1  0.90418045  0.29484829  0.37102444  1
  Zr  Zr41  1  0.39393124  0.20233340  0.74744094  1
  Zr  Zr42  1  0.69497560  0.48784811  0.87223373  1
  Zr  Zr43  1  0.70424183  0.69350300  0.88401545  1
  Zr  Zr44  1  0.21136925  0.79402469  0.74019797  1
  Zr  Zr45  1  0.71104226  0.90680211  0.35430316  1
  Zr  Zr46  1  0.91613984  0.67271445  0.12135040  1
  Zr  Zr47  1  0.49589563  0.31070759  0.86436694  1
  Zr  Zr48  1  0.09098896  0.12443885  0.62603940  1
  Zr  Zr49  1  0.18145456  0.20947888  0.76632674  1
  Zr  Zr50  1  0.61035955  0.79725271  0.24256598  1
  Zr  Zr51  1  0.29669046  0.70897887  0.36212895  1
  Zr  Zr52  1  0.61072306  0.79753156  0.49237283  1
  Zr  Zr53  1  0.28577580  0.91223020  0.14711164  1
  Zr  Zr54  1  0.29520641  0.70701578  0.14384179  1
  Zr  Zr55  1  0.59363579  0.39260026  0.24470254  1
  Zr  Zr56  1  -0.00308728  0.39837151  0.00299094  1
  Zr  Zr57  1  0.80601771  0.80031150  0.76527858  1
  Zr  Zr58  1  0.20348469  0.00795509  0.49847579  1
  Zr  Zr59  1  0.00737414  0.37968601  0.75123664  1
  Zr  Zr60  1  0.29229957  0.11585907  0.11615322  1
  Zr  Zr61  1  0.52080708  0.10334795  0.87801667  1
  Zr  Zr62  1  0.38387767  0.58828262  0.00713556  1
  Zr  Zr63  1  0.82888965  0.79814207  0.24278181  1
  Zr  Zr64  1  0.80186500  0.00792315  0.76820023  1
  Zr  Zr65  1  0.40224663  0.79729507  0.01043747  1
  Zr  Zr66  1  0.49227603  0.90302674  0.35112305  1
  Zr  Zr67  1  0.61026719  0.19937046  0.51037509  1
  Zr  Zr68  1  0.69474378  0.51265240  0.63141350  1
  Zr  Zr69  1  0.21305487  0.41506850  0.01375710  1
  Zr  Zr70  1  0.01255758  0.79722416  0.00214152  1
  Zr  Zr71  1  0.39622252  -0.00354268  0.00482792  1
  Zr  Zr72  1  0.10677383  0.69671319  0.87216381  1
  Zr  Zr73  1  0.70064669  0.29565804  0.37302376  1
  Zr  Zr74  1  0.30308068  0.70691979  0.87641365  1
  Zr  Zr75  1  0.31576601  0.90860344  0.62653357  1
  Zr  Zr76  1  0.49766784  0.08452160  0.63212385  1
  Zr  Zr77  1  0.59231576  0.39838994  0.73616349  1
  Zr  Zr78  1  0.00424793  0.79431189  0.50651797  1
  Zr  Zr79  1  0.79576806  0.38305032  0.51166199  1
  Ta  Ta80  1  0.62023845  0.20519003  0.01650926  1
  Ta  Ta81  1  0.49788635  0.69949420  0.14081307  1
  Ta  Ta82  1  0.20614949  0.20256617  0.24421930  1
  Ta  Ta83  1  0.60321779  0.19642306  0.23582357  1
  Ta  Ta84  1  0.58590061  0.39004666  0.00719079  1
  Ta  Ta85  1  0.20531952  0.80136993  0.50086102  1
  Ta  Ta86  1  0.71059207  0.68596019  0.36432811  1
  Ta  Ta87  1  0.69303031  0.91543382  0.88617504  1
  Ta  Ta88  1  0.78508381  0.38410421  0.00733028  1
  Ta  Ta89  1  0.00301516  0.00715005  0.75936227  1
  Ta  Ta90  1  0.92314169  0.89710777  0.36930201  1
  Ta  Ta91  1  0.90275903  0.69279058  0.62636103  1
  Ta  Ta92  1  0.80767979  0.40251449  0.24296017  1
  Ta  Ta93  1  0.79994029  0.38259749  0.74284771  1
  Ta  Ta94  1  0.29414825  0.51040279  0.62841343  1
  Ta  Ta95  1  0.90758429  0.26948505  0.62370740  1
  Ta  Ta96  1  0.28695147  0.90938679  0.35763056  1
  Ta  Ta97  1  0.90628478  0.08090562  0.11537155  1
  Ta  Ta98  1  0.71067988  0.70249254  0.62916148  1
  Ta  Ta99  1  0.89533795  0.49557042  0.87049553  1
  Ta  Ta100  1  0.49463417  0.50580168  0.61438776  1
  Ta  Ta101  1  0.38951320  0.19340093  0.51011984  1
  Ta  Ta102  1  0.00544838  0.18035070  -0.00427806  1
  Ta  Ta103  1  0.01309762  -0.02469611  0.23995731  1
  Ta  Ta104  1  0.28432494  0.29718601  0.62508954  1
  Ta  Ta105  1  0.20200137  0.00429564  0.75971113  1
  Ta  Ta106  1  0.20621923  0.81432478  0.00402406  1
  Ta  Ta107  1  0.71223991  0.09895795  0.35885695  1
  Ta  Ta108  1  -0.01590294  0.18891182  0.77055925  1
  Ta  Ta109  1  0.28596778  0.50278905  0.36474865  1
  Ta  Ta110  1  0.17543086  0.00698827  0.00082266  1
  Ta  Ta111  1  0.17960006  0.61241593  0.01931716  1
  Ta  Ta112  1  0.50071438  0.90608155  0.14204696  1
  Ta  Ta113  1  0.40873158  0.21241601  0.23731603  1
  Ta  Ta114  1  0.40347131  0.00350252  0.49300639  1
  Ta  Ta115  1  0.29339505  0.31454582  0.87653350  1
  Ta  Ta116  1  0.60017472  0.40305435  0.51200135  1
  Ta  Ta117  1  0.69599334  0.49781058  0.37666679  1
  Ta  Ta118  1  0.71374167  0.09957512  0.13219430  1
  Ta  Ta119  1  0.50347117  0.69108707  0.87253507  1
  Ti  Ti120  1  0.79939384  0.01260768  -0.00703399  1
  Ti  Ti121  1  0.71531238  0.91579436  0.13243624  1
  Ti  Ti122  1  0.90631466  0.68893691  0.88482742  1
  Ti  Ti123  1  0.69167949  0.28763766  0.87555468  1
  Ti  Ti124  1  0.38575206  0.60482601  0.50022749  1
  Ti  Ti125  1  0.29463896  0.10179503  0.62902676  1
  Ti  Ti126  1  0.80062744  -0.00356774  0.48781115  1
  Ti  Ti127  1  0.39744381  -0.00480448  0.76002490  1
  Ti  Ti128  1  0.61266529  0.19715808  0.74085975  1
  Ti  Ti129  1  0.49907441  0.50171280  0.87046882  1
  Ti  Ti130  1  -0.00327127  0.38623734  0.50508751  1
  Ti  Ti131  1  0.50671421  0.10098162  0.12489038  1
  Ti  Ti132  1  0.19320506  0.60947928  0.49190958  1
  Ti  Ti133  1  0.19055441  0.21129574  -0.00643800  1
  Ti  Ti134  1  0.49413384  0.29697660  0.62451662  1
  Ti  Ti135  1  0.38887597  0.40341324  0.25523464  1
  Ti  Ti136  1  0.60176412  0.59081238  0.24733096  1
  Ti  Ti137  1  0.39950549  0.01697573  0.24297729  1
  Ti  Ti138  1  0.89374919  0.29077060  0.12090781  1
  Ti  Ti139  1  0.79858674  0.19688628  0.75478067  1
  Ti  Ti140  1  0.60632173  0.00510649  0.01047885  1
  Ti  Ti141  1  0.91056245  0.68558328  0.36889718  1
  Ti  Ti142  1  0.10910784  0.69386376  0.62232362  1
  Ti  Ti143  1  0.18810162  0.20630539  0.49655244  1
  Ti  Ti144  1  0.09084949  0.71599931  0.37656237  1
  Ti  Ti145  1  0.80422381  0.19793760  0.24432227  1
  Ti  Ti146  1  0.20393734  0.40183169  0.74059562  1
  Ti  Ti147  1  0.07594015  0.50860176  0.13421044  1
  Ti  Ti148  1  0.79685128  0.59879644  0.75504183  1
  Ti  Ti149  1  0.09563820  0.09384573  0.36955511  1
  Ti  Ti150  1  0.91023627  0.90840785  0.88446031  1
  Ti  Ti151  1  0.69468866  0.89604924  0.62729716  1
  Ti  Ti152  1  0.11099389  0.90515087  0.87352262  1
  Ti  Ti153  1  0.30847718  0.32155307  0.12959536  1
  Ti  Ti154  1  0.81416762  0.58140292  -0.00326991  1
  Ti  Ti155  1  0.39670053  0.59727940  0.25211925  1
  Ti  Ti156  1  0.82333074  0.18122003  0.49290169  1
  Ti  Ti157  1  0.89141240  0.49670474  0.37315299  1
  Ti  Ti158  1  0.40640828  0.80526987  0.74376265  1
  Ti  Ti159  1  0.60395709  -0.00185482  0.75148989  1
  Mo  Mo160  1  0.29864067  0.69845703  0.60943445  1
  Mo  Mo161  1  0.59982935  0.60672691  0.75334068  1
  Mo  Mo162  1  0.01495751  0.78476142  0.24761161  1
  Mo  Mo163  1  0.19732179  0.40862396  0.24249664  1
  Mo  Mo164  1  0.79462672  0.59053547  0.25747651  1
  Mo  Mo165  1  0.89620009  0.48229204  0.12336229  1
  Mo  Mo166  1  0.18646276  0.02096706  0.25237486  1
  Mo  Mo167  1  0.10304434  0.29689298  0.88618439  1
  Mo  Mo168  1  0.19917034  0.59559863  0.73984411  1
  Mo  Mo169  1  0.70596548  0.29745164  0.13155209  1
  Mo  Mo170  1  0.09642196  0.90280829  0.12118992  1
  Mo  Mo171  1  -0.02109649  0.59462783  0.25438093  1
  Mo  Mo172  1  0.69738166  0.11029211  0.88034851  1
  Mo  Mo173  1  0.39799369  0.80432718  0.25070963  1
  Mo  Mo174  1  0.39140596  0.40105839  0.72642234  1
  Mo  Mo175  1  0.50791284  0.90468415  0.63238928  1
  Mo  Mo176  1  0.60277290  0.59561192  0.49247304  1
  Mo  Mo177  1  0.28504610  0.50280651  0.14672007  1
  Mo  Mo178  1  0.10472147  0.90173526  0.38000778  1
  Mo  Mo179  1  0.09484780  0.09360008  0.87790600  1
  Mo  Mo180  1  0.80277415  0.19884095  0.00963462  1
  Mo  Mo181  1  0.60740987  0.00937022  0.23494133  1
  Mo  Mo182  1  0.10121501  0.09980273  0.12414300  1
  Mo  Mo183  1  0.89755995  0.08773996  0.36329437  1
  Mo  Mo184  1  0.90114378  0.89782479  0.11914781  1
  Mo  Mo185  1  0.10008056  0.70668148  0.12665378  1
  Mo  Mo186  1  -0.00924868  0.39967403  0.23875506  1
  Mo  Mo187  1  0.09416552  0.30371136  0.62176589  1
  Mo  Mo188  1  -0.00182035  0.60130184  0.50135038  1
  Mo  Mo189  1  0.70564317  0.29338789  0.63060335  1
  Mo  Mo190  1  0.90208037  0.09537627  0.62887856  1
  Mo  Mo191  1  0.17943221  0.81871687  0.25640846  1
  Mo  Mo192  1  0.00390797  0.20399800  0.48732562  1
  Mo  Mo193  1  0.40032101  0.40789985  -0.00388535  1
  Mo  Mo194  1  0.89545351  0.09698097  0.89010707  1
  Mo  Mo195  1  0.49765093  0.29661046  0.12568291  1
  Mo  Mo196  1  0.82194763  0.00800438  0.24677739  1
  Mo  Mo197  1  0.00155558  0.58768369  -0.00963738  1
  Mo  Mo198  1  -0.00593055  -0.01095200  -0.00092034  1
  Mo  Mo199  1  0.29408123  0.90579844  0.87438580  1
