# generated using pymatgen
data_HfZrTaTiMo
_symmetry_space_group_name_H-M   'P 1'
_cell_length_a   15.18819577
_cell_length_b   15.18757385
_cell_length_c   16.82104967
_cell_angle_alpha   89.96455668
_cell_angle_beta   90.00089321
_cell_angle_gamma   90.00726178
_symmetry_Int_Tables_number   1
_chemical_formula_structural   HfZrTaTiMo
_chemical_formula_sum   'Hf40 Zr40 Ta40 Ti40 Mo40'
_cell_volume   3880.14178501
_cell_formula_units_Z   40
loop_
 _symmetry_equiv_pos_site_id
 _symmetry_equiv_pos_as_xyz
  1  'x, y, z'
loop_
 _atom_site_type_symbol
 _atom_site_label
 _atom_site_symmetry_multiplicity
 _atom_site_fract_x
 _atom_site_fract_y
 _atom_site_fract_z
 _atom_site_occupancy
  Hf  Hf0  1  0.80160174  0.01257869  0.48018460  1
  Hf  Hf1  1  0.71097178  0.89400497  0.87459335  1
  Hf  Hf2  1  0.22371236  0.59910256  0.00443523  1
  Hf  Hf3  1  0.90643869  0.09710206  0.13395018  1
  Hf  Hf4  1  0.20704733  0.01441540  0.00292362  1
  Hf  Hf5  1  0.90818328  0.10984844  0.61463082  1
  Hf  Hf6  1  0.81236269  0.19424396  0.74770762  1
  Hf  Hf7  1  0.80690570  -0.00894980  0.00584862  1
  Hf  Hf8  1  0.80028514  0.59322636  0.51988612  1
  Hf  Hf9  1  0.19161435  0.21914010  -0.00426678  1
  Hf  Hf10  1  0.10995404  0.69285095  0.86740822  1
  Hf  Hf11  1  -0.00524329  0.80601595  0.75352803  1
  Hf  Hf12  1  0.39874085  0.39131621  0.49994869  1
  Hf  Hf13  1  0.70111580  0.89328693  0.13123575  1
  Hf  Hf14  1  0.08513390  0.30353133  0.60638365  1
  Hf  Hf15  1  0.70355589  0.10296863  0.13361093  1
  Hf  Hf16  1  0.67182394  0.48368087  0.61324732  1
  Hf  Hf17  1  0.41427490  0.60081550  0.48905589  1
  Hf  Hf18  1  0.90671969  0.30284147  0.13557925  1
  Hf  Hf19  1  0.40754635  -0.01518711  0.02210521  1
  Hf  Hf20  1  0.09817207  0.49192691  0.11836842  1
  Hf  Hf21  1  -0.00384347  0.60277597  -0.00898764  1
  Hf  Hf22  1  0.38937863  0.40620111  -0.00075311  1
  Hf  Hf23  1  0.21708768  0.19737427  0.49053729  1
  Hf  Hf24  1  0.10024866  0.90866263  0.13517999  1
  Hf  Hf25  1  0.69881009  0.30092003  0.88267125  1
  Hf  Hf26  1  0.20411458  0.60419885  0.51441334  1
  Hf  Hf27  1  0.29688593  0.70973694  0.36655158  1
  Hf  Hf28  1  0.50439901  0.09446565  0.88359062  1
  Hf  Hf29  1  0.20109484  0.80440943  0.74539889  1
  Hf  Hf30  1  0.39532416  0.78300868  0.00803370  1
  Hf  Hf31  1  0.50370185  0.69731370  0.14124376  1
  Hf  Hf32  1  0.59938131  0.79980919  0.00057861  1
  Hf  Hf33  1  0.18959843  0.39755190  0.25363763  1
  Hf  Hf34  1  0.18692939  0.60250003  0.25233640  1
  Hf  Hf35  1  0.89455342  0.50637232  0.12352891  1
  Hf  Hf36  1  0.00897126  0.00017560  0.00354410  1
  Hf  Hf37  1  0.50046307  0.49302669  0.87073514  1
  Hf  Hf38  1  0.52959686  0.30316555  0.62169508  1
  Hf  Hf39  1  0.50301492  0.48678145  0.13587213  1
  Zr  Zr40  1  0.60960575  0.58463619  0.26282122  1
  Zr  Zr41  1  0.39028056  0.80508800  0.50562711  1
  Zr  Zr42  1  0.19046931  0.41533841  0.72921760  1
  Zr  Zr43  1  0.08038698  0.50491232  0.38912516  1
  Zr  Zr44  1  0.78819957  0.60185263  -0.00187610  1
  Zr  Zr45  1  0.70261327  0.09909150  0.88293375  1
  Zr  Zr46  1  0.78832594  0.80298014  0.73065754  1
  Zr  Zr47  1  0.68905250  0.30784493  0.13377715  1
  Zr  Zr48  1  0.89836303  0.49349370  0.86713287  1
  Zr  Zr49  1  0.18895554  0.81198979  0.50839030  1
  Zr  Zr50  1  0.88469571  0.70098837  0.86110287  1
  Zr  Zr51  1  0.28849294  0.48915249  0.38246240  1
  Zr  Zr52  1  -0.00573395  0.19674556  0.47693346  1
  Zr  Zr53  1  0.01596094  0.21004666  0.26889228  1
  Zr  Zr54  1  0.78953133  0.41474569  0.25351352  1
  Zr  Zr55  1  0.41352601  0.20409022  0.74522410  1
  Zr  Zr56  1  0.40794044  -0.00750124  0.74371056  1
  Zr  Zr57  1  0.29320844  0.11373708  0.86210131  1
  Zr  Zr58  1  0.60866413  0.00443225  0.74303502  1
  Zr  Zr59  1  0.08511147  0.70188572  0.12047809  1
  Zr  Zr60  1  0.19387235  0.80970117  0.00053292  1
  Zr  Zr61  1  0.58741392  0.79700992  0.48787392  1
  Zr  Zr62  1  0.42099124  0.18755671  0.50714596  1
  Zr  Zr63  1  0.29278857  0.91602442  0.36128834  1
  Zr  Zr64  1  0.80229536  0.19416788  0.27493504  1
  Zr  Zr65  1  -0.00698811  -0.00338580  0.26287940  1
  Zr  Zr66  1  0.60026880  -0.00144969  0.26613430  1
  Zr  Zr67  1  0.90362314  0.90422530  0.61150870  1
  Zr  Zr68  1  0.59129625  0.79760265  0.74059837  1
  Zr  Zr69  1  0.11074682  0.48252707  0.87967779  1
  Zr  Zr70  1  0.60337703  0.79558647  0.27246689  1
  Zr  Zr71  1  0.90905639  0.09277133  0.87580352  1
  Zr  Zr72  1  0.58681023  0.59891004  0.00257218  1
  Zr  Zr73  1  0.40379502  0.41512363  0.73229192  1
  Zr  Zr74  1  0.78923028  0.38887939  0.73580897  1
  Zr  Zr75  1  0.69781795  0.50267522  0.86329868  1
  Zr  Zr76  1  0.39460736  0.19722530  0.00285147  1
  Zr  Zr77  1  0.30064316  0.69766459  0.14441232  1
  Zr  Zr78  1  0.30779460  0.89659521  0.87230524  1
  Zr  Zr79  1  0.80436022  0.80347947  0.27058290  1
  Ta  Ta80  1  0.69874513  0.11256389  0.61072035  1
  Ta  Ta81  1  0.09814918  0.91544915  0.62872504  1
  Ta  Ta82  1  0.00572095  0.38256905  -0.00318478  1
  Ta  Ta83  1  0.09447881  0.91547367  0.87033626  1
  Ta  Ta84  1  0.59879817  0.20110483  0.00719250  1
  Ta  Ta85  1  0.88832322  0.50616692  0.38863262  1
  Ta  Ta86  1  0.32643039  0.10538126  0.35808160  1
  Ta  Ta87  1  0.39944898  0.38439322  0.26345267  1
  Ta  Ta88  1  -0.00531567  0.38008474  0.74640110  1
  Ta  Ta89  1  0.70768124  0.69130392  0.13213146  1
  Ta  Ta90  1  0.39496386  0.78696910  0.73730380  1
  Ta  Ta91  1  0.90753756  0.29415585  0.87898307  1
  Ta  Ta92  1  0.30035273  0.09996734  0.63455523  1
  Ta  Ta93  1  0.80043347  0.79714952  0.50140694  1
  Ta  Ta94  1  0.19135826  0.01179333  0.75076093  1
  Ta  Ta95  1  0.29576132  0.30355829  0.12996386  1
  Ta  Ta96  1  0.30803965  0.52415191  0.86629988  1
  Ta  Ta97  1  0.61956674  0.21140159  0.47720612  1
  Ta  Ta98  1  0.79478994  0.59793929  0.72535539  1
  Ta  Ta99  1  0.50620726  0.10199365  0.13462800  1
  Ta  Ta100  1  0.47682550  0.68961716  0.86731628  1
  Ta  Ta101  1  0.11290539  0.31618520  0.39246797  1
  Ta  Ta102  1  0.10144128  0.89435969  0.36935634  1
  Ta  Ta103  1  0.69504950  0.49212565  0.39678701  1
  Ta  Ta104  1  0.09229958  0.70618872  0.38163827  1
  Ta  Ta105  1  0.69301928  0.91265548  0.60239068  1
  Ta  Ta106  1  0.80424644  0.60864266  0.26006648  1
  Ta  Ta107  1  0.10854641  0.10559880  0.62222311  1
  Ta  Ta108  1  0.80692863  0.20522128  0.00647879  1
  Ta  Ta109  1  0.10172906  0.29969292  0.12854929  1
  Ta  Ta110  1  0.70683490  0.68657561  0.39320956  1
  Ta  Ta111  1  0.90732022  0.48131989  0.62157756  1
  Ta  Ta112  1  0.00774255  0.58658429  0.73746352  1
  Ta  Ta113  1  -0.00250469  0.78681941  0.25671489  1
  Ta  Ta114  1  0.28649557  0.32226152  0.86364223  1
  Ta  Ta115  1  0.79297621  0.37437658  0.50380912  1
  Ta  Ta116  1  0.58879122  0.01362557  0.48657950  1
  Ta  Ta117  1  -0.00121963  0.00951086  0.74879989  1
  Ta  Ta118  1  0.29316726  0.29439056  0.62710133  1
  Ta  Ta119  1  0.01883247  -0.00439173  0.48865988  1
  Ti  Ti120  1  0.49327592  0.29423620  0.13055847  1
  Ti  Ti121  1  0.00289459  0.19602126  0.00215868  1
  Ti  Ti122  1  0.48212243  0.90959944  0.37575643  1
  Ti  Ti123  1  0.89542267  0.70595104  0.12646969  1
  Ti  Ti124  1  -0.01016287  0.59411116  0.25463708  1
  Ti  Ti125  1  0.60134381  -0.00232452  0.01015421  1
  Ti  Ti126  1  0.09529290  0.70772415  0.62861770  1
  Ti  Ti127  1  0.49598471  0.68606795  0.62312753  1
  Ti  Ti128  1  0.40518747  0.59017492  0.26895442  1
  Ti  Ti129  1  -0.01278709  0.80855521  -0.01532142  1
  Ti  Ti130  1  0.10802553  0.11154133  0.13770026  1
  Ti  Ti131  1  0.29576169  0.90698074  0.62938056  1
  Ti  Ti132  1  0.68293837  0.69445290  0.86146455  1
  Ti  Ti133  1  0.19367361  0.80770997  0.24737417  1
  Ti  Ti134  1  0.90394464  0.69900318  0.62719213  1
  Ti  Ti135  1  0.50407243  0.89119129  0.87422096  1
  Ti  Ti136  1  0.90084800  0.88999535  0.13186741  1
  Ti  Ti137  1  0.30564306  0.49534800  0.13586025  1
  Ti  Ti138  1  0.40425236  0.81632510  0.24282632  1
  Ti  Ti139  1  0.61170060  0.20412343  0.74973976  1
  Ti  Ti140  1  0.39733378  0.00440313  0.50571030  1
  Ti  Ti141  1  0.80058421  0.39856556  0.00574981  1
  Ti  Ti142  1  0.90621169  0.32200466  0.37173780  1
  Ti  Ti143  1  0.58702611  0.58886720  0.74064937  1
  Ti  Ti144  1  0.80215309  0.79417475  0.00051092  1
  Ti  Ti145  1  0.20981997  0.00537521  0.50167439  1
  Ti  Ti146  1  0.50073510  0.90559908  0.61761032  1
  Ti  Ti147  1  0.90876507  0.69282934  0.38994849  1
  Ti  Ti148  1  0.80272538  -0.00321715  0.74045099  1
  Ti  Ti149  1  0.58984528  0.20811263  0.26905003  1
  Ti  Ti150  1  0.91066082  0.88687689  0.39097097  1
  Ti  Ti151  1  0.68556746  0.69854399  0.61316801  1
  Ti  Ti152  1  0.21793425  0.60726635  0.72703400  1
  Ti  Ti153  1  0.00032608  0.60452036  0.51613577  1
  Ti  Ti154  1  0.79710166  -0.00679075  0.27538947  1
  Ti  Ti155  1  0.12369099  0.09067326  0.36852551  1
  Ti  Ti156  1  0.60203249  0.39823422  0.00474655  1
  Ti  Ti157  1  0.21474021  0.20718614  0.26079524  1
  Ti  Ti158  1  0.30108551  0.10167062  0.14153579  1
  Ti  Ti159  1  0.49967087  0.29753422  0.87616256  1
  Mo  Mo160  1  0.80224026  0.20235552  0.47873344  1
  Mo  Mo161  1  0.58782444  0.39557127  0.48132862  1
  Mo  Mo162  1  -0.01172041  0.40714851  0.49983820  1
  Mo  Mo163  1  0.30140254  0.50039523  0.60887150  1
  Mo  Mo164  1  0.40358536  0.20072434  0.23808203  1
  Mo  Mo165  1  0.91256960  0.09140077  0.37438676  1
  Mo  Mo166  1  0.49832486  0.50243591  0.61879315  1
  Mo  Mo167  1  0.49758514  0.09723248  0.36655715  1
  Mo  Mo168  1  0.58968415  0.39464707  0.26621469  1
  Mo  Mo169  1  0.59447685  0.60065825  0.49128392  1
  Mo  Mo170  1  0.49040599  0.70406122  0.35959686  1
  Mo  Mo171  1  0.51746774  0.09257442  0.61989155  1
  Mo  Mo172  1  0.09256716  0.50820831  0.62009920  1
  Mo  Mo173  1  0.69837991  0.50173386  0.12373544  1
  Mo  Mo174  1  0.40142404  0.59689655  0.00382643  1
  Mo  Mo175  1  0.69778576  0.10211942  0.37266260  1
  Mo  Mo176  1  0.29812702  0.29128775  0.37540788  1
  Mo  Mo177  1  0.01367162  0.19805978  0.74723770  1
  Mo  Mo178  1  0.50687669  0.89777743  0.12824300  1
  Mo  Mo179  1  0.09876569  0.10924996  0.87000522  1
  Mo  Mo180  1  -0.00221581  0.40860412  0.25452246  1
  Mo  Mo181  1  0.70617425  0.28698406  0.61925650  1
  Mo  Mo182  1  0.19987854  0.40042382  0.51511018  1
  Mo  Mo183  1  0.00014130  0.79547272  0.50406062  1
  Mo  Mo184  1  0.39916397  0.60502424  0.73528233  1
  Mo  Mo185  1  0.69932300  0.30752774  0.36473725  1
  Mo  Mo186  1  0.49048341  0.29117795  0.37212574  1
  Mo  Mo187  1  0.30269907  0.70622136  0.62176019  1
  Mo  Mo188  1  0.29865192  0.90506103  0.14090530  1
  Mo  Mo189  1  0.59382546  0.38678211  0.75444419  1
  Mo  Mo190  1  0.09821518  0.29196330  0.86751289  1
  Mo  Mo191  1  0.29931781  0.69831491  0.86789389  1
  Mo  Mo192  1  0.20470130  0.40019988  0.00185577  1
  Mo  Mo193  1  0.19813023  0.01374677  0.24619527  1
  Mo  Mo194  1  0.90150710  0.89807981  0.87351122  1
  Mo  Mo195  1  0.40386039  -0.00186242  0.23169035  1
  Mo  Mo196  1  0.70102204  0.89606495  0.39792496  1
  Mo  Mo197  1  0.49915681  0.49394269  0.36970310  1
  Mo  Mo198  1  0.19530277  0.21084313  0.74318955  1
  Mo  Mo199  1  0.89679538  0.29109033  0.61904219  1
