# generated using pymatgen
data_HfZrTaTiMo
_symmetry_space_group_name_H-M   'P 1'
_cell_length_a   15.20928191
_cell_length_b   15.22362867
_cell_length_c   16.85409432
_cell_angle_alpha   90.07090319
_cell_angle_beta   90.00927852
_cell_angle_gamma   89.95412687
_symmetry_Int_Tables_number   1
_chemical_formula_structural   HfZrTaTiMo
_chemical_formula_sum   'Hf40 Zr40 Ta40 Ti40 Mo40'
_cell_volume   3902.40046263
_cell_formula_units_Z   40
loop_
 _symmetry_equiv_pos_site_id
 _symmetry_equiv_pos_as_xyz
  1  'x, y, z'
loop_
 _atom_site_type_symbol
 _atom_site_label
 _atom_site_symmetry_multiplicity
 _atom_site_fract_x
 _atom_site_fract_y
 _atom_site_fract_z
 _atom_site_occupancy
  Hf  Hf0  1  0.88847428  0.30232097  0.35980616  1
  Hf  Hf1  1  0.32631798  0.69398555  0.13410834  1
  Hf  Hf2  1  0.21066483  -0.01503492  0.75247982  1
  Hf  Hf3  1  0.30519963  0.49516076  0.61492578  1
  Hf  Hf4  1  0.50175181  0.89933053  0.87466698  1
  Hf  Hf5  1  0.41284210  0.20923501  0.25116079  1
  Hf  Hf6  1  0.89739679  0.70532735  0.88118240  1
  Hf  Hf7  1  0.19317739  0.00709391  0.23629210  1
  Hf  Hf8  1  -0.00751985  0.19423419  0.75485486  1
  Hf  Hf9  1  0.89895186  0.09071414  0.61266084  1
  Hf  Hf10  1  0.30389271  0.90966703  0.36980626  1
  Hf  Hf11  1  0.58622859  0.38830900  -0.00435270  1
  Hf  Hf12  1  0.41676666  0.60439501  0.50382414  1
  Hf  Hf13  1  0.20461399  0.80124074  0.24686720  1
  Hf  Hf14  1  0.89947559  0.87576352  0.12775513  1
  Hf  Hf15  1  0.68583023  0.09500998  0.61970285  1
  Hf  Hf16  1  0.79299039  0.20577477  0.50285938  1
  Hf  Hf17  1  0.11046549  0.89077638  0.87941957  1
  Hf  Hf18  1  0.39487450  -0.00707326  0.00483674  1
  Hf  Hf19  1  0.78580373  0.20275724  0.74592433  1
  Hf  Hf20  1  0.00827411  0.80540172  0.74221745  1
  Hf  Hf21  1  0.68968022  0.50266394  0.12876168  1
  Hf  Hf22  1  0.11181695  0.49617800  0.88066903  1
  Hf  Hf23  1  0.30002290  0.12993123  0.11381955  1
  Hf  Hf24  1  0.09244194  0.09359731  0.88307918  1
  Hf  Hf25  1  0.69200991  0.09116437  0.38658584  1
  Hf  Hf26  1  0.62461020  0.59267757  0.51178008  1
  Hf  Hf27  1  0.21922808  0.58892057  0.01569731  1
  Hf  Hf28  1  0.70596642  0.89588947  0.13376935  1
  Hf  Hf29  1  0.10561964  0.69394924  0.87939291  1
  Hf  Hf30  1  0.52242659  0.70721246  0.37277712  1
  Hf  Hf31  1  0.29473006  0.11561736  0.89297278  1
  Hf  Hf32  1  0.51126435  0.11918686  0.10668171  1
  Hf  Hf33  1  0.31273417  0.70879240  0.37690729  1
  Hf  Hf34  1  0.60098835  0.01296202  0.24066492  1
  Hf  Hf35  1  0.52771439  0.70345215  0.13351055  1
  Hf  Hf36  1  0.69604851  0.49573873  0.36197174  1
  Hf  Hf37  1  0.00669614  0.60542661  0.74302453  1
  Hf  Hf38  1  0.50135042  0.69620273  0.86890426  1
  Hf  Hf39  1  0.89695412  0.50311945  0.87767188  1
  Zr  Zr40  1  0.89044112  0.30405685  0.62349914  1
  Zr  Zr41  1  0.30648365  0.72185633  0.60767313  1
  Zr  Zr42  1  0.58142804  0.38096282  0.23443740  1
  Zr  Zr43  1  0.60052933  0.59608792  -0.00458175  1
  Zr  Zr44  1  0.67512274  0.29350627  0.37189769  1
  Zr  Zr45  1  0.49829185  0.47786719  0.38216385  1
  Zr  Zr46  1  0.70304480  0.10745925  0.88868635  1
  Zr  Zr47  1  0.49139766  0.30540774  0.63809566  1
  Zr  Zr48  1  0.89202569  0.09357261  0.88318768  1
  Zr  Zr49  1  0.39905852  0.60739777  0.73519828  1
  Zr  Zr50  1  -0.00464883  0.60793857  0.25441685  1
  Zr  Zr51  1  0.18741128  0.40418949  0.49702553  1
  Zr  Zr52  1  0.00541218  0.59467416  0.48314680  1
  Zr  Zr53  1  0.61035662  0.80429522  0.50874886  1
  Zr  Zr54  1  0.69726024  0.88874367  0.36391650  1
  Zr  Zr55  1  0.60671980  -0.00253640  0.00060806  1
  Zr  Zr56  1  0.19603627  0.19394410  0.49300134  1
  Zr  Zr57  1  0.30057010  0.70913152  0.87527249  1
  Zr  Zr58  1  0.30635264  0.31086180  0.37710945  1
  Zr  Zr59  1  0.09337935  0.29814536  0.61852191  1
  Zr  Zr60  1  0.80875430  0.80568187  0.73865167  1
  Zr  Zr61  1  0.09835819  0.08407229  0.61601217  1
  Zr  Zr62  1  0.30045528  0.10030866  0.37145350  1
  Zr  Zr63  1  0.89718314  0.70339962  0.59998013  1
  Zr  Zr64  1  -0.00230637  0.60002784  0.01327399  1
  Zr  Zr65  1  0.79085335  0.39388095  0.01222315  1
  Zr  Zr66  1  0.21432025  0.80488835  0.02068559  1
  Zr  Zr67  1  0.89760751  0.08946629  0.38281079  1
  Zr  Zr68  1  0.60339566  0.00630112  0.75932560  1
  Zr  Zr69  1  0.49357925  0.91129440  0.62721087  1
  Zr  Zr70  1  -0.00405429  0.39936211  0.75456432  1
  Zr  Zr71  1  -0.00161772  0.18289241  0.25360069  1
  Zr  Zr72  1  -0.00121578  0.39805527  0.01232619  1
  Zr  Zr73  1  0.20571911  0.39874642  0.74735710  1
  Zr  Zr74  1  0.29561551  0.50729857  0.38067621  1
  Zr  Zr75  1  0.78420830  0.41036352  0.49748186  1
  Zr  Zr76  1  0.70171015  0.48953663  0.86266027  1
  Zr  Zr77  1  0.19888668  0.19579201  0.74973015  1
  Zr  Zr78  1  0.19784025  -0.00275703  0.01627039  1
  Zr  Zr79  1  0.88905717  0.08294873  0.12153877  1
  Ta  Ta80  1  0.30623447  0.09480802  0.62493411  1
  Ta  Ta81  1  0.41491220  0.79459145  0.00588400  1
  Ta  Ta82  1  0.73029545  0.70025527  0.13233421  1
  Ta  Ta83  1  0.90479230  0.90075275  0.88261826  1
  Ta  Ta84  1  0.73065881  0.69161145  0.37210334  1
  Ta  Ta85  1  0.40264381  0.20117905  0.50173374  1
  Ta  Ta86  1  0.61702265  0.79613115  -0.00206251  1
  Ta  Ta87  1  0.89954515  0.89012003  0.38449438  1
  Ta  Ta88  1  0.50140897  0.10214784  0.38122733  1
  Ta  Ta89  1  0.39099132  0.41959282  0.00148222  1
  Ta  Ta90  1  0.50105313  0.91079005  0.37922205  1
  Ta  Ta91  1  0.09719691  0.29329851  0.88623955  1
  Ta  Ta92  1  0.49121815  0.10806262  0.63077014  1
  Ta  Ta93  1  0.31080543  0.50115965  0.87062435  1
  Ta  Ta94  1  0.20306352  0.59827825  0.24769188  1
  Ta  Ta95  1  0.39159846  0.82227957  0.75024954  1
  Ta  Ta96  1  0.19187007  0.40043724  0.24551124  1
  Ta  Ta97  1  0.10059364  0.29186410  0.12909772  1
  Ta  Ta98  1  0.80470530  0.60261009  0.74156308  1
  Ta  Ta99  1  0.88608512  0.50697214  0.36477430  1
  Ta  Ta100  1  0.48124858  0.51234202  0.12537136  1
  Ta  Ta101  1  0.60447051  0.79751039  0.74538076  1
  Ta  Ta102  1  0.19895087  0.20669086  0.25243470  1
  Ta  Ta103  1  0.89068546  0.28984581  0.13507097  1
  Ta  Ta104  1  0.00431476  0.80365791  0.26725231  1
  Ta  Ta105  1  0.87976246  0.29799729  0.87990588  1
  Ta  Ta106  1  0.09740127  0.70285573  0.13146658  1
  Ta  Ta107  1  -0.01241850  0.20285398  0.00518061  1
  Ta  Ta108  1  0.10534823  0.70201776  0.61393520  1
  Ta  Ta109  1  0.39769448  -0.00030488  0.50343662  1
  Ta  Ta110  1  0.20879490  0.38559581  0.00918567  1
  Ta  Ta111  1  0.89961939  0.50025715  0.62214249  1
  Ta  Ta112  1  0.70572516  0.69757849  0.87040735  1
  Ta  Ta113  1  0.60494124  0.60251914  0.74094228  1
  Ta  Ta114  1  0.70554328  0.49011239  0.64207720  1
  Ta  Ta115  1  0.71597614  0.89388165  0.87614769  1
  Ta  Ta116  1  -0.00263581  -0.00915283  0.00453632  1
  Ta  Ta117  1  0.50205345  0.89572033  0.12603034  1
  Ta  Ta118  1  -0.01136349  0.39751754  0.48643205  1
  Ta  Ta119  1  0.77390901  0.18882796  0.23995353  1
  Ti  Ti120  1  0.81260915  -0.00818659  0.25658612  1
  Ti  Ti121  1  0.09431599  0.49404080  0.36409341  1
  Ti  Ti122  1  0.09774674  0.07498885  0.38100670  1
  Ti  Ti123  1  0.38477511  0.40675121  0.23870740  1
  Ti  Ti124  1  0.50926140  0.49008113  0.62859171  1
  Ti  Ti125  1  0.49689401  0.49570758  0.86013967  1
  Ti  Ti126  1  0.40251899  0.00578479  0.23574487  1
  Ti  Ti127  1  0.20135537  0.60278847  0.73917521  1
  Ti  Ti128  1  0.68416874  0.30778595  0.63275057  1
  Ti  Ti129  1  0.49452549  0.12285255  0.89384563  1
  Ti  Ti130  1  0.10876069  0.89410827  0.61190500  1
  Ti  Ti131  1  0.80827367  -0.00302561  0.74398206  1
  Ti  Ti132  1  0.88767889  0.51132033  0.13119501  1
  Ti  Ti133  1  -0.00643244  0.39990295  0.24195906  1
  Ti  Ti134  1  0.40819636  0.59788223  0.26050992  1
  Ti  Ti135  1  0.08988798  0.90120554  0.13257650  1
  Ti  Ti136  1  0.01683160  0.79822901  0.47819835  1
  Ti  Ti137  1  0.09020983  0.10458849  0.11985115  1
  Ti  Ti138  1  0.70560530  0.89646140  0.62606447  1
  Ti  Ti139  1  0.41929500  0.80968968  0.25019407  1
  Ti  Ti140  1  -0.00133747  -0.00703295  0.74732468  1
  Ti  Ti141  1  0.09601208  0.50384028  0.61795827  1
  Ti  Ti142  1  -0.00215514  0.19997578  0.48791095  1
  Ti  Ti143  1  0.39003420  0.21265991  0.76322613  1
  Ti  Ti144  1  0.58750424  0.20877577  0.76633965  1
  Ti  Ti145  1  0.00531800  0.79773239  0.00411176  1
  Ti  Ti146  1  0.10341942  0.49765231  0.13131306  1
  Ti  Ti147  1  0.20414856  0.81286253  0.48895008  1
  Ti  Ti148  1  0.60610855  0.60251295  0.25166713  1
  Ti  Ti149  1  0.19486479  0.61183327  0.49242338  1
  Ti  Ti150  1  0.50818358  0.70942822  0.62626924  1
  Ti  Ti151  1  0.58809612  0.20609286  0.50717626  1
  Ti  Ti152  1  0.09130241  0.29886263  0.36583391  1
  Ti  Ti153  1  0.39861802  0.01666455  0.76446833  1
  Ti  Ti154  1  0.79078706  0.39436915  0.23634276  1
  Ti  Ti155  1  0.78920659  -0.01752492  0.50145949  1
  Ti  Ti156  1  0.30177510  0.29562219  0.61981253  1
  Ti  Ti157  1  0.47944455  0.30226885  0.11122140  1
  Ti  Ti158  1  0.20374015  0.79479491  0.73977416  1
  Ti  Ti159  1  0.91421124  0.90043918  0.60079459  1
  Mo  Mo160  1  0.79491900  0.60717980  0.00117814  1
  Mo  Mo161  1  0.31472424  0.90319066  0.14012323  1
  Mo  Mo162  1  0.59163899  0.19072022  0.24770890  1
  Mo  Mo163  1  0.40838052  0.60096481  -0.00305782  1
  Mo  Mo164  1  0.29097389  0.31277831  0.87822022  1
  Mo  Mo165  1  0.39176369  0.23390334  -0.00881048  1
  Mo  Mo166  1  0.48215324  0.31196685  0.86731777  1
  Mo  Mo167  1  0.80187384  0.59480204  0.50322287  1
  Mo  Mo168  1  0.69226338  0.29762759  0.87073378  1
  Mo  Mo169  1  0.81571805  0.78721921  0.25779967  1
  Mo  Mo170  1  0.39756266  0.40348230  0.75267342  1
  Mo  Mo171  1  0.11553829  0.69893376  0.37097811  1
  Mo  Mo172  1  0.59337428  0.39602119  0.50931734  1
  Mo  Mo173  1  0.29484653  0.90949335  0.61878077  1
  Mo  Mo174  1  0.29794347  0.50152286  0.13515592  1
  Mo  Mo175  1  0.79308668  0.20483319  0.01352973  1
  Mo  Mo176  1  0.69981402  0.69765055  0.63320588  1
  Mo  Mo177  1  0.80197353  0.59075844  0.24679302  1
  Mo  Mo178  1  0.40566478  0.39453521  0.50681400  1
  Mo  Mo179  1  0.70319567  0.10422682  0.11177302  1
  Mo  Mo180  1  0.68394240  0.28294351  0.12528432  1
  Mo  Mo181  1  0.80175042  0.80004470  0.50256210  1
  Mo  Mo182  1  0.30936660  0.89956804  0.87585658  1
  Mo  Mo183  1  0.90824833  0.69800622  0.12263132  1
  Mo  Mo184  1  0.29392448  0.30909679  0.13328324  1
  Mo  Mo185  1  0.59885890  0.39768888  0.75744150  1
  Mo  Mo186  1  0.10336543  0.90156261  0.37250331  1
  Mo  Mo187  1  0.59564764  0.21309484  -0.01202424  1
  Mo  Mo188  1  0.00120433  -0.01314776  0.25337025  1
  Mo  Mo189  1  0.00374835  -0.01229709  0.49661238  1
  Mo  Mo190  1  0.18287996  0.20816471  0.00401826  1
  Mo  Mo191  1  0.59154076  0.00815361  0.50429482  1
  Mo  Mo192  1  0.40847810  0.80851640  0.49232790  1
  Mo  Mo193  1  0.60719153  0.79867414  0.25224529  1
  Mo  Mo194  1  0.80196577  0.39803867  0.74974989  1
  Mo  Mo195  1  0.80331459  -0.01480110  0.00127997  1
  Mo  Mo196  1  0.80079535  0.79454210  -0.00348325  1
  Mo  Mo197  1  0.90289193  0.70099938  0.38485003  1
  Mo  Mo198  1  0.49457881  0.29009936  0.38322717  1
  Mo  Mo199  1  0.20262224  -0.00700634  0.50177544  1
