# generated using pymatgen
data_HfZrTaTiMo
_symmetry_space_group_name_H-M   'P 1'
_cell_length_a   15.21750620
_cell_length_b   15.21103859
_cell_length_c   16.81035346
_cell_angle_alpha   90.02136102
_cell_angle_beta   89.95197607
_cell_angle_gamma   89.89030733
_symmetry_Int_Tables_number   1
_chemical_formula_structural   HfZrTaTiMo
_chemical_formula_sum   'Hf40 Zr40 Ta40 Ti40 Mo40'
_cell_volume   3891.15222952
_cell_formula_units_Z   40
loop_
 _symmetry_equiv_pos_site_id
 _symmetry_equiv_pos_as_xyz
  1  'x, y, z'
loop_
 _atom_site_type_symbol
 _atom_site_label
 _atom_site_symmetry_multiplicity
 _atom_site_fract_x
 _atom_site_fract_y
 _atom_site_fract_z
 _atom_site_occupancy
  Hf  Hf0  1  0.80383101  0.58584878  0.75574265  1
  Hf  Hf1  1  0.39163951  0.79800186  -0.00772996  1
  Hf  Hf2  1  0.89411895  0.50248212  0.38254166  1
  Hf  Hf3  1  0.29722099  0.11209947  0.63396363  1
  Hf  Hf4  1  0.50178025  0.90012449  0.36155217  1
  Hf  Hf5  1  0.50889202  0.49677709  0.13405284  1
  Hf  Hf6  1  -0.01338914  0.02070523  0.74942452  1
  Hf  Hf7  1  0.29507659  0.91477598  0.64232981  1
  Hf  Hf8  1  0.79443037  0.79697495  0.00064983  1
  Hf  Hf9  1  0.89797675  0.89891307  0.12135148  1
  Hf  Hf10  1  0.70352719  0.11678805  0.36819043  1
  Hf  Hf11  1  0.50291571  0.69794786  0.87521211  1
  Hf  Hf12  1  0.29410816  0.88923159  0.13057443  1
  Hf  Hf13  1  0.89421358  0.11576881  0.89330278  1
  Hf  Hf14  1  0.21056978  0.00144223  0.48784008  1
  Hf  Hf15  1  0.00455753  0.61167899  0.26141463  1
  Hf  Hf16  1  0.58939212  0.80503402  0.01003948  1
  Hf  Hf17  1  0.19554585  0.40614150  0.01032629  1
  Hf  Hf18  1  0.52585640  0.49943867  0.61310138  1
  Hf  Hf19  1  0.09581522  0.49619104  0.38336086  1
  Hf  Hf20  1  0.09382939  0.08518359  0.61050596  1
  Hf  Hf21  1  0.42687096  0.60542924  0.47637109  1
  Hf  Hf22  1  0.50292302  0.69562522  0.62660885  1
  Hf  Hf23  1  0.19852169  0.40194744  0.73326426  1
  Hf  Hf24  1  0.40901514  -0.01085486  -0.01068544  1
  Hf  Hf25  1  0.52552973  0.28677951  0.37537076  1
  Hf  Hf26  1  0.19598967  0.20637422  0.02199425  1
  Hf  Hf27  1  0.38795261  0.19641740  0.48594677  1
  Hf  Hf28  1  0.31329300  0.08800881  0.13517685  1
  Hf  Hf29  1  0.28991118  0.29451199  0.87461064  1
  Hf  Hf30  1  0.40226007  0.59812355  0.26546722  1
  Hf  Hf31  1  0.70532797  0.29157629  0.88667407  1
  Hf  Hf32  1  0.59770789  0.00354993  0.01431990  1
  Hf  Hf33  1  0.71337941  0.09793671  0.61373672  1
  Hf  Hf34  1  0.00427872  0.81038767  0.73038917  1
  Hf  Hf35  1  0.17614650  0.79339082  0.26344319  1
  Hf  Hf36  1  0.61181310  0.20097905  0.74597236  1
  Hf  Hf37  1  0.80813303  0.60636167  0.25179759  1
  Hf  Hf38  1  0.18946596  0.79716725  -0.01238127  1
  Hf  Hf39  1  0.09340731  0.11546550  0.88291480  1
  Zr  Zr40  1  0.50187045  0.09642506  0.63001941  1
  Zr  Zr41  1  0.60694084  0.59342514  0.26438577  1
  Zr  Zr42  1  0.20210058  0.38637499  0.50667975  1
  Zr  Zr43  1  0.20185654  0.39290808  0.24661297  1
  Zr  Zr44  1  -0.01507861  0.41116722  0.02000130  1
  Zr  Zr45  1  0.81285985  0.58381300  -0.00630479  1
  Zr  Zr46  1  -0.01220131  0.19787623  0.24184624  1
  Zr  Zr47  1  0.38798221  0.79828939  0.26076118  1
  Zr  Zr48  1  0.09080704  0.28235180  0.61037273  1
  Zr  Zr49  1  0.39608383  0.20285040  0.25779182  1
  Zr  Zr50  1  0.41097930  0.58414779  0.75334562  1
  Zr  Zr51  1  0.19373474  0.79150812  0.74061047  1
  Zr  Zr52  1  0.40483961  0.19162506  0.00399536  1
  Zr  Zr53  1  0.08254170  0.90451345  0.38903066  1
  Zr  Zr54  1  0.39175547  0.80603989  0.49851871  1
  Zr  Zr55  1  0.59664428  0.78600180  0.49104104  1
  Zr  Zr56  1  0.90777606  0.70237337  0.86398140  1
  Zr  Zr57  1  0.49548976  0.30779025  0.87661939  1
  Zr  Zr58  1  0.71654798  0.90025939  0.36202337  1
  Zr  Zr59  1  0.40956788  0.39498227  0.48381264  1
  Zr  Zr60  1  0.68720491  0.90410912  0.87530587  1
  Zr  Zr61  1  0.59535456  0.40545517  0.75260749  1
  Zr  Zr62  1  0.29424058  0.49723985  0.37940666  1
  Zr  Zr63  1  0.31442582  0.50351649  0.61568821  1
  Zr  Zr64  1  0.88990574  0.93078519  0.61071545  1
  Zr  Zr65  1  0.18326130  0.20131360  0.74999840  1
  Zr  Zr66  1  0.20446539  -0.00165340  -0.00064954  1
  Zr  Zr67  1  -0.03262873  0.80628743  0.26529558  1
  Zr  Zr68  1  0.10248426  0.51931440  0.13344391  1
  Zr  Zr69  1  0.89248415  0.91391443  0.87714429  1
  Zr  Zr70  1  0.30319993  0.09080710  0.85731089  1
  Zr  Zr71  1  0.40338597  -0.00174239  0.49197079  1
  Zr  Zr72  1  0.80490579  0.38526029  0.74960367  1
  Zr  Zr73  1  0.89237092  0.69554097  0.62315927  1
  Zr  Zr74  1  0.28858274  0.68743199  0.12708724  1
  Zr  Zr75  1  0.60804995  -0.00253439  0.49583066  1
  Zr  Zr76  1  0.40209400  0.59030452  -0.00105882  1
  Zr  Zr77  1  0.79063053  0.80609685  0.74085643  1
  Zr  Zr78  1  0.30598375  0.48763107  0.86687571  1
  Zr  Zr79  1  0.18723736  0.19589025  0.24079058  1
  Ta  Ta80  1  0.60635106  0.59891297  0.00453641  1
  Ta  Ta81  1  0.09567177  0.90865000  0.86854173  1
  Ta  Ta82  1  0.51361603  0.09627855  0.86622965  1
  Ta  Ta83  1  0.70445936  0.10083798  0.88480632  1
  Ta  Ta84  1  0.39958459  0.39363948  0.01068346  1
  Ta  Ta85  1  0.09661265  0.90288204  0.13033965  1
  Ta  Ta86  1  0.80645800  0.18670637  0.74786092  1
  Ta  Ta87  1  -0.00334360  0.59536669  0.51140090  1
  Ta  Ta88  1  0.59927908  0.79273771  0.74726213  1
  Ta  Ta89  1  0.29401310  0.69377586  0.86540904  1
  Ta  Ta90  1  0.20387390  -0.00551882  0.26378820  1
  Ta  Ta91  1  0.19232568  0.80080552  0.51609465  1
  Ta  Ta92  1  0.50339844  0.29602809  0.61171752  1
  Ta  Ta93  1  0.80061943  0.21350477  0.02662135  1
  Ta  Ta94  1  0.00434718  0.00728890  0.01094412  1
  Ta  Ta95  1  -0.01502192  0.22040081  0.75194488  1
  Ta  Ta96  1  0.60358338  0.20322923  0.23074043  1
  Ta  Ta97  1  0.60207495  0.19817283  0.01920215  1
  Ta  Ta98  1  0.19658810  0.60072988  -0.01163456  1
  Ta  Ta99  1  0.49950900  0.70244602  0.12938368  1
  Ta  Ta100  1  0.61329308  0.59892183  0.75623866  1
  Ta  Ta101  1  0.61687176  0.40068153  0.48631072  1
  Ta  Ta102  1  0.28478784  0.70409603  0.38749804  1
  Ta  Ta103  1  0.40282705  0.79936130  0.75475798  1
  Ta  Ta104  1  0.00209033  0.40558765  0.73443826  1
  Ta  Ta105  1  0.08367450  0.32196880  0.87815182  1
  Ta  Ta106  1  0.09063676  0.71439827  0.12153524  1
  Ta  Ta107  1  0.69844695  0.69575571  0.87845844  1
  Ta  Ta108  1  0.01112104  0.60953788  -0.00491886  1
  Ta  Ta109  1  0.79678782  0.80126800  0.50350119  1
  Ta  Ta110  1  0.50005654  0.89793633  0.63781292  1
  Ta  Ta111  1  0.60439834  0.79220134  0.24625785  1
  Ta  Ta112  1  0.90241333  0.69513542  0.11890840  1
  Ta  Ta113  1  0.70126658  0.69533742  0.12539319  1
  Ta  Ta114  1  -0.01377601  0.39185594  0.50816466  1
  Ta  Ta115  1  0.71008899  0.09607137  0.13270775  1
  Ta  Ta116  1  -0.00785604  0.40085075  0.24180328  1
  Ta  Ta117  1  0.60222740  0.39991532  0.00684135  1
  Ta  Ta118  1  0.60105461  0.00532087  0.24162269  1
  Ta  Ta119  1  -0.00096213  0.20764274  0.03052299  1
  Ti  Ti120  1  0.61305528  0.39364420  0.25447281  1
  Ti  Ti121  1  0.49439662  0.30103484  0.13022965  1
  Ti  Ti122  1  0.79750910  0.20973208  0.23562873  1
  Ti  Ti123  1  0.00021753  0.80583631  -0.00662610  1
  Ti  Ti124  1  0.09155821  0.29791603  0.38139867  1
  Ti  Ti125  1  0.19465775  0.59534301  0.73859718  1
  Ti  Ti126  1  0.40553601  0.39513293  0.26108738  1
  Ti  Ti127  1  0.60906583  -0.00397672  0.74856121  1
  Ti  Ti128  1  0.30752560  0.49422375  0.13293739  1
  Ti  Ti129  1  0.49161370  0.90746836  0.14242591  1
  Ti  Ti130  1  0.89997181  0.30389362  0.88755317  1
  Ti  Ti131  1  0.29585218  0.89735013  0.85634881  1
  Ti  Ti132  1  0.00744575  0.00683692  0.24691341  1
  Ti  Ti133  1  0.30563142  0.70057471  0.62539327  1
  Ti  Ti134  1  0.69577057  0.67610280  0.61438844  1
  Ti  Ti135  1  0.79864329  0.21431161  0.49237288  1
  Ti  Ti136  1  0.50584150  0.09659423  0.36754824  1
  Ti  Ti137  1  0.90527293  0.12625781  0.60519630  1
  Ti  Ti138  1  -0.00435751  0.80431450  0.51270622  1
  Ti  Ti139  1  0.08847517  0.69678368  0.39979798  1
  Ti  Ti140  1  0.89462086  0.29826822  0.37060043  1
  Ti  Ti141  1  0.69964761  0.49337492  0.88387680  1
  Ti  Ti142  1  0.79578533  0.40456857  0.49973896  1
  Ti  Ti143  1  0.40631516  0.21174527  0.74723298  1
  Ti  Ti144  1  0.71666327  0.49266351  0.12028558  1
  Ti  Ti145  1  0.90363707  0.09005684  0.38489930  1
  Ti  Ti146  1  0.92602562  0.49195700  0.86835642  1
  Ti  Ti147  1  0.70261854  0.30474466  0.61785560  1
  Ti  Ti148  1  0.69288898  0.89750540  0.62237706  1
  Ti  Ti149  1  0.79896104  0.00681398  0.01178854  1
  Ti  Ti150  1  0.10020196  0.10974740  0.38401351  1
  Ti  Ti151  1  0.88912102  0.49334503  0.61836515  1
  Ti  Ti152  1  0.81826727  -0.00066374  0.24936307  1
  Ti  Ti153  1  0.71622335  0.69580160  0.37795614  1
  Ti  Ti154  1  0.19971764  0.60386217  0.26145682  1
  Ti  Ti155  1  0.70216505  0.89514684  0.13959060  1
  Ti  Ti156  1  0.01307818  0.59302469  0.73157912  1
  Ti  Ti157  1  0.80093963  0.39985373  0.24705286  1
  Ti  Ti158  1  0.09770379  0.69378211  0.86438297  1
  Ti  Ti159  1  0.19700045  0.60402874  0.51274077  1
  Mo  Mo160  1  -0.00740110  0.20388322  0.47969840  1
  Mo  Mo161  1  0.29942804  0.09443077  0.36124095  1
  Mo  Mo162  1  0.09484257  0.30553937  0.12937646  1
  Mo  Mo163  1  -0.00245313  0.00743550  0.49506155  1
  Mo  Mo164  1  0.10252710  0.69408076  0.61491174  1
  Mo  Mo165  1  0.89910108  0.51105705  0.13567811  1
  Mo  Mo166  1  0.18468717  -0.00492187  0.75406421  1
  Mo  Mo167  1  0.51687854  0.50055297  0.88862300  1
  Mo  Mo168  1  0.88768591  0.31218041  0.13414421  1
  Mo  Mo169  1  0.50530028  0.09726271  0.13185704  1
  Mo  Mo170  1  0.49652028  0.90400473  0.85855065  1
  Mo  Mo171  1  0.79374819  0.59669196  0.49893968  1
  Mo  Mo172  1  0.30917030  0.30840824  0.12501664  1
  Mo  Mo173  1  0.71807862  0.30253209  0.36840650  1
  Mo  Mo174  1  0.79640856  0.40279795  -0.00191312  1
  Mo  Mo175  1  0.89765883  0.70670393  0.39977139  1
  Mo  Mo176  1  0.09774237  0.50659199  0.86740325  1
  Mo  Mo177  1  0.40649133  -0.00003643  0.75736994  1
  Mo  Mo178  1  0.79464840  0.79458002  0.24611403  1
  Mo  Mo179  1  0.51146471  0.48870032  0.36360238  1
  Mo  Mo180  1  0.61832593  0.59006333  0.47953931  1
  Mo  Mo181  1  0.70631114  0.49821182  0.62309080  1
  Mo  Mo182  1  0.20088097  0.19610119  0.48584846  1
  Mo  Mo183  1  0.50675950  0.70328190  0.36717442  1
  Mo  Mo184  1  0.70876217  0.48851547  0.37081813  1
  Mo  Mo185  1  0.40058872  -0.00003438  0.25990758  1
  Mo  Mo186  1  0.78996239  0.01490915  0.75211138  1
  Mo  Mo187  1  0.31290419  0.29426867  0.62734407  1
  Mo  Mo188  1  0.69091996  0.31041300  0.12472251  1
  Mo  Mo189  1  0.60585022  0.20819011  0.50286784  1
  Mo  Mo190  1  0.29006970  0.89290489  0.37325926  1
  Mo  Mo191  1  0.89163616  0.90417716  0.39038447  1
  Mo  Mo192  1  0.09352290  0.49931626  0.61562075  1
  Mo  Mo193  1  0.89756174  0.09553307  0.12402908  1
  Mo  Mo194  1  0.80116413  0.00937854  0.48942707  1
  Mo  Mo195  1  0.40010891  0.38510050  0.73169613  1
  Mo  Mo196  1  0.28403366  0.28876723  0.37353398  1
  Mo  Mo197  1  0.88938230  0.29760115  0.61787325  1
  Mo  Mo198  1  0.09495401  0.90314869  0.61669802  1
  Mo  Mo199  1  0.10048746  0.08753739  0.12854641  1
