# generated using pymatgen
data_HfZrTaTiMo
_symmetry_space_group_name_H-M   'P 1'
_cell_length_a   15.21052084
_cell_length_b   15.21017432
_cell_length_c   16.80138547
_cell_angle_alpha   89.93976876
_cell_angle_beta   90.00953475
_cell_angle_gamma   90.03748228
_symmetry_Int_Tables_number   1
_chemical_formula_structural   HfZrTaTiMo
_chemical_formula_sum   'Hf40 Zr40 Ta40 Ti40 Mo40'
_cell_volume   3887.07601616
_cell_formula_units_Z   40
loop_
 _symmetry_equiv_pos_site_id
 _symmetry_equiv_pos_as_xyz
  1  'x, y, z'
loop_
 _atom_site_type_symbol
 _atom_site_label
 _atom_site_symmetry_multiplicity
 _atom_site_fract_x
 _atom_site_fract_y
 _atom_site_fract_z
 _atom_site_occupancy
  Hf  Hf0  1  0.90753350  0.87793334  0.85438081  1
  Hf  Hf1  1  0.89591051  0.50389195  0.86472198  1
  Hf  Hf2  1  -0.00093171  0.58599683  0.26531577  1
  Hf  Hf3  1  0.50200219  0.49546311  0.63594994  1
  Hf  Hf4  1  0.89330184  0.29905947  0.38351540  1
  Hf  Hf5  1  0.76804583  0.39651839  0.51823964  1
  Hf  Hf6  1  0.69205316  0.30205967  0.12849491  1
  Hf  Hf7  1  0.29148411  0.90783882  0.87105860  1
  Hf  Hf8  1  0.29800154  0.50028748  0.38756913  1
  Hf  Hf9  1  -0.00504151  0.21944786  0.25238719  1
  Hf  Hf10  1  0.40136528  0.60479643  0.76058090  1
  Hf  Hf11  1  0.41250684  0.00855630  0.25434195  1
  Hf  Hf12  1  0.09952167  0.89084394  0.35602712  1
  Hf  Hf13  1  0.39924899  0.00599179  0.74687902  1
  Hf  Hf14  1  0.51905565  0.69865614  0.38320951  1
  Hf  Hf15  1  0.49896855  0.70148371  0.62158492  1
  Hf  Hf16  1  0.90002428  0.69901865  0.13445065  1
  Hf  Hf17  1  -0.00218105  0.40693953  -0.00965706  1
  Hf  Hf18  1  0.61331524  -0.01007286  0.25100268  1
  Hf  Hf19  1  0.60535771  0.58200221  0.50425781  1
  Hf  Hf20  1  0.30007070  0.90079753  0.35760575  1
  Hf  Hf21  1  0.39790821  -0.00515269  0.00524113  1
  Hf  Hf22  1  0.58759314  0.40460485  -0.01679139  1
  Hf  Hf23  1  0.90449113  0.90352079  0.37211092  1
  Hf  Hf24  1  0.39735520  -0.00509438  0.49639845  1
  Hf  Hf25  1  0.09367816  0.71436299  0.61031588  1
  Hf  Hf26  1  0.69425829  0.09610743  0.87344823  1
  Hf  Hf27  1  0.30034964  0.11245395  0.13426728  1
  Hf  Hf28  1  0.09285813  0.09366803  0.36218979  1
  Hf  Hf29  1  0.19779253  -0.00616793  0.49976200  1
  Hf  Hf30  1  0.89085981  0.49576137  0.39282178  1
  Hf  Hf31  1  0.41130292  0.59419392  -0.01507311  1
  Hf  Hf32  1  0.70565817  0.29218115  0.86482303  1
  Hf  Hf33  1  0.49981640  0.87872989  0.12980376  1
  Hf  Hf34  1  0.40723313  0.20748638  0.48633242  1
  Hf  Hf35  1  0.10139526  0.70002465  0.13415103  1
  Hf  Hf36  1  0.51772738  0.10114468  0.38264084  1
  Hf  Hf37  1  0.79783766  0.00497605  0.25641138  1
  Hf  Hf38  1  0.41028770  0.60011889  0.25622292  1
  Hf  Hf39  1  0.50398068  0.10185487  0.12374081  1
  Zr  Zr40  1  0.00224113  0.60737512  0.74210355  1
  Zr  Zr41  1  0.19248158  0.00301138  0.00664339  1
  Zr  Zr42  1  0.10502748  0.09472116  0.86493085  1
  Zr  Zr43  1  0.18716360  0.19359926  0.49997577  1
  Zr  Zr44  1  0.89878103  0.10255187  0.12132404  1
  Zr  Zr45  1  0.61155337  0.60991942  -0.01432523  1
  Zr  Zr46  1  0.09651634  0.30724230  0.86670570  1
  Zr  Zr47  1  0.30999367  0.30351312  0.60892137  1
  Zr  Zr48  1  0.20412577  0.21916101  0.25347407  1
  Zr  Zr49  1  0.40147089  0.80382092  0.76001020  1
  Zr  Zr50  1  0.80039018  -0.00447644  0.73279439  1
  Zr  Zr51  1  0.60676551  -0.02621735  0.51150493  1
  Zr  Zr52  1  0.69015453  0.30364870  0.36804470  1
  Zr  Zr53  1  0.49820015  0.49433160  0.12197496  1
  Zr  Zr54  1  0.29410671  0.49369577  0.87928814  1
  Zr  Zr55  1  0.73041045  0.69395347  0.85062741  1
  Zr  Zr56  1  0.79740229  0.78860773  0.00645771  1
  Zr  Zr57  1  0.80507612  -0.00828129  0.00140196  1
  Zr  Zr58  1  0.89808085  0.10058109  0.87208620  1
  Zr  Zr59  1  0.08683184  0.29270369  0.62296330  1
  Zr  Zr60  1  0.31939030  0.70520887  0.12571162  1
  Zr  Zr61  1  0.89695781  0.50443616  0.61499678  1
  Zr  Zr62  1  0.80910141  0.00378328  0.50863374  1
  Zr  Zr63  1  0.20032214  0.59788625  0.25953106  1
  Zr  Zr64  1  0.19006394  0.41346986  0.73635084  1
  Zr  Zr65  1  0.21427317  0.19861464  0.74360045  1
  Zr  Zr66  1  0.89536088  0.30845394  0.12520554  1
  Zr  Zr67  1  0.29570276  0.49162481  0.12038003  1
  Zr  Zr68  1  0.20052470  0.80598773  0.00456052  1
  Zr  Zr69  1  0.09350002  0.10554405  0.13158286  1
  Zr  Zr70  1  0.70772876  0.50170117  0.12463049  1
  Zr  Zr71  1  0.39330537  0.39058031  0.74968515  1
  Zr  Zr72  1  0.59873396  0.20039549  0.00177660  1
  Zr  Zr73  1  0.69955963  0.89862124  0.86845914  1
  Zr  Zr74  1  0.09285330  0.90208236  0.15355118  1
  Zr  Zr75  1  0.59987661  0.80394601  0.74637094  1
  Zr  Zr76  1  0.49745391  0.11070731  0.61661400  1
  Zr  Zr77  1  0.78990665  0.61669257  0.25963186  1
  Zr  Zr78  1  0.20287336  0.61449532  0.49914685  1
  Zr  Zr79  1  0.90013111  0.71305890  0.39021682  1
  Ta  Ta80  1  0.91993196  0.89238478  0.62800958  1
  Ta  Ta81  1  0.78879786  0.80510677  0.51953942  1
  Ta  Ta82  1  0.20448210  0.60984174  0.73641829  1
  Ta  Ta83  1  0.17953027  0.40402510  0.25589803  1
  Ta  Ta84  1  0.19972547  0.79608642  0.74571031  1
  Ta  Ta85  1  0.80537935  0.38786008  0.73962526  1
  Ta  Ta86  1  0.38377347  0.39632686  0.25973613  1
  Ta  Ta87  1  0.19971502  0.39607693  0.00218322  1
  Ta  Ta88  1  0.29815173  0.29196015  0.88053657  1
  Ta  Ta89  1  0.40493799  0.60492362  0.49602202  1
  Ta  Ta90  1  0.10189985  0.51971800  0.87528585  1
  Ta  Ta91  1  0.40258502  0.80230791  0.50297137  1
  Ta  Ta92  1  0.49590959  0.09289252  0.87684361  1
  Ta  Ta93  1  0.69844743  0.49586826  0.85232461  1
  Ta  Ta94  1  0.49066454  0.28913936  0.86968546  1
  Ta  Ta95  1  0.89951116  0.89644140  0.14304248  1
  Ta  Ta96  1  0.69779698  0.10813741  0.62399857  1
  Ta  Ta97  1  0.29493030  0.09404839  0.62344201  1
  Ta  Ta98  1  0.29867952  0.10460836  0.36756931  1
  Ta  Ta99  1  0.60047022  0.59727339  0.24751014  1
  Ta  Ta100  1  0.61709098  0.78451050  0.24183733  1
  Ta  Ta101  1  0.09263330  0.48924940  0.39839741  1
  Ta  Ta102  1  0.70366446  0.09994140  0.11942107  1
  Ta  Ta103  1  0.59811337  0.19463099  0.24769256  1
  Ta  Ta104  1  -0.00622766  0.20519170  -0.00800138  1
  Ta  Ta105  1  0.40814000  0.21396876  0.26421272  1
  Ta  Ta106  1  0.29831542  0.89952844  0.14862088  1
  Ta  Ta107  1  0.79659523  0.39448772  -0.01121429  1
  Ta  Ta108  1  0.59279006  -0.00171502  0.73705132  1
  Ta  Ta109  1  0.28734317  0.69775321  0.87951219  1
  Ta  Ta110  1  0.09549802  0.71186684  0.87310469  1
  Ta  Ta111  1  0.90444007  0.50022982  0.12467570  1
  Ta  Ta112  1  0.30910640  0.71379659  0.37020755  1
  Ta  Ta113  1  0.30384175  0.51092719  0.61171676  1
  Ta  Ta114  1  0.41208632  0.79613094  -0.01731598  1
  Ta  Ta115  1  -0.00140371  0.80516583  0.00139293  1
  Ta  Ta116  1  0.28999066  0.31072965  0.38876998  1
  Ta  Ta117  1  0.09098338  0.49721835  0.12262919  1
  Ta  Ta118  1  0.70540075  0.68657654  0.63835493  1
  Ta  Ta119  1  0.50549013  0.88494249  0.36976218  1
  Ti  Ti120  1  -0.00744162  0.39935626  0.74441230  1
  Ti  Ti121  1  0.09766757  0.09204670  0.63755730  1
  Ti  Ti122  1  0.00017034  -0.00878114  -0.00199003  1
  Ti  Ti123  1  0.80687225  0.40778803  0.25318780  1
  Ti  Ti124  1  0.61140983  0.21985677  0.50339287  1
  Ti  Ti125  1  0.59926693  0.79790526  -0.00278017  1
  Ti  Ti126  1  0.10079933  0.30936466  0.12023715  1
  Ti  Ti127  1  0.59142001  0.19489886  0.74965507  1
  Ti  Ti128  1  0.10526387  0.90815309  0.63628770  1
  Ti  Ti129  1  0.80911991  0.59319509  -0.00281141  1
  Ti  Ti130  1  0.68870627  0.49229664  0.65228438  1
  Ti  Ti131  1  0.20739201  0.80826063  0.50030541  1
  Ti  Ti132  1  0.80602670  0.20447846  0.51749818  1
  Ti  Ti133  1  0.78986472  0.60679745  0.49918361  1
  Ti  Ti134  1  0.70182128  0.87284155  0.37960157  1
  Ti  Ti135  1  0.70934609  0.10414118  0.38765965  1
  Ti  Ti136  1  0.09135807  0.30502030  0.38957872  1
  Ti  Ti137  1  0.80068636  0.19858601  0.73634147  1
  Ti  Ti138  1  -0.01323238  0.20570887  0.75266337  1
  Ti  Ti139  1  -0.01140111  0.38502862  0.51190439  1
  Ti  Ti140  1  0.09674661  0.90407925  0.85777643  1
  Ti  Ti141  1  0.57968981  0.39696733  0.25322083  1
  Ti  Ti142  1  0.09777462  0.70519538  0.38099261  1
  Ti  Ti143  1  0.68591431  0.50147893  0.37054241  1
  Ti  Ti144  1  0.30405941  0.10714241  0.87609616  1
  Ti  Ti145  1  0.91468468  0.10466331  0.62461029  1
  Ti  Ti146  1  0.79085397  0.19924786  0.25342325  1
  Ti  Ti147  1  0.41962998  0.40811560  0.49235154  1
  Ti  Ti148  1  0.51412439  0.30351009  0.63048511  1
  Ti  Ti149  1  0.00737352  0.00155974  0.50370724  1
  Ti  Ti150  1  0.47948564  0.30222829  0.12606995  1
  Ti  Ti151  1  0.19284322  0.60031563  0.00261970  1
  Ti  Ti152  1  0.39169427  0.20804507  0.00265410  1
  Ti  Ti153  1  -0.00130836  0.61043692  -0.00274767  1
  Ti  Ti154  1  0.30307373  0.89246829  0.62851291  1
  Ti  Ti155  1  0.90328278  0.70132526  0.60972455  1
  Ti  Ti156  1  0.90143974  0.10634336  0.38201794  1
  Ti  Ti157  1  0.09841214  0.50331037  0.60293325  1
  Ti  Ti158  1  0.19634201  0.20617836  0.00292307  1
  Ti  Ti159  1  0.59945623  -0.01249424  0.00510655  1
  Mo  Mo160  1  0.70123942  0.90199174  0.12317524  1
  Mo  Mo161  1  0.19617599  0.40297667  0.50834047  1
  Mo  Mo162  1  -0.00193170  0.60181175  0.49262602  1
  Mo  Mo163  1  0.49607005  0.90122946  0.62115557  1
  Mo  Mo164  1  0.00449115  0.00454231  0.74213870  1
  Mo  Mo165  1  0.50488376  0.70456671  0.87398497  1
  Mo  Mo166  1  0.80706724  0.59204665  0.73783694  1
  Mo  Mo167  1  0.70413584  0.89434685  0.63304506  1
  Mo  Mo168  1  0.00854385  0.81556999  0.50245593  1
  Mo  Mo169  1  0.59681056  0.59833619  0.75698637  1
  Mo  Mo170  1  0.50481475  0.90935909  0.88344007  1
  Mo  Mo171  1  0.59516399  0.39213524  0.76322699  1
  Mo  Mo172  1  0.89297680  0.29328593  0.62516833  1
  Mo  Mo173  1  0.20537303  0.00775087  0.24895201  1
  Mo  Mo174  1  0.89731482  0.29954688  0.87062176  1
  Mo  Mo175  1  0.20493878  -0.00690064  0.74075284  1
  Mo  Mo176  1  0.80398395  0.20893304  -0.00219992  1
  Mo  Mo177  1  -0.01102330  0.18781402  0.49900046  1
  Mo  Mo178  1  0.79127087  0.81036181  0.24619112  1
  Mo  Mo179  1  0.51156032  0.69345468  0.12068599  1
  Mo  Mo180  1  0.29727784  0.30537906  0.12339556  1
  Mo  Mo181  1  0.59226344  0.39584308  0.50314042  1
  Mo  Mo182  1  0.00115652  0.40525515  0.25599239  1
  Mo  Mo183  1  0.41605403  0.79677666  0.25309652  1
  Mo  Mo184  1  0.20561981  0.78980717  0.25222607  1
  Mo  Mo185  1  0.91692164  0.69258335  0.87803354  1
  Mo  Mo186  1  0.70248737  0.70002726  0.38348879  1
  Mo  Mo187  1  0.30159881  0.70478516  0.62156107  1
  Mo  Mo188  1  0.39698188  0.38592816  -0.00776927  1
  Mo  Mo189  1  0.81559627  0.78824892  0.72436229  1
  Mo  Mo190  1  0.50331124  0.49499757  0.37031013  1
  Mo  Mo191  1  -0.00651316  0.78788940  0.25482888  1
  Mo  Mo192  1  0.68901283  0.29302681  0.64143275  1
  Mo  Mo193  1  0.50568527  0.49476191  0.86274371  1
  Mo  Mo194  1  0.40533891  0.19490494  0.75434491  1
  Mo  Mo195  1  0.49821306  0.30682188  0.37073211  1
  Mo  Mo196  1  -0.00990169  0.00758899  0.25500413  1
  Mo  Mo197  1  0.60594521  0.78855274  0.51051914  1
  Mo  Mo198  1  0.00955093  0.80006246  0.74348035  1
  Mo  Mo199  1  0.69324841  0.70334277  0.11884435  1
