# generated using pymatgen
data_HfZrTaTiMo
_symmetry_space_group_name_H-M   'P 1'
_cell_length_a   15.22573575
_cell_length_b   15.21544743
_cell_length_c   16.82477432
_cell_angle_alpha   89.96051559
_cell_angle_beta   89.98355835
_cell_angle_gamma   90.03046070
_symmetry_Int_Tables_number   1
_chemical_formula_structural   HfZrTaTiMo
_chemical_formula_sum   'Hf40 Zr40 Ta40 Ti40 Mo40'
_cell_volume   3897.73295397
_cell_formula_units_Z   40
loop_
 _symmetry_equiv_pos_site_id
 _symmetry_equiv_pos_as_xyz
  1  'x, y, z'
loop_
 _atom_site_type_symbol
 _atom_site_label
 _atom_site_symmetry_multiplicity
 _atom_site_fract_x
 _atom_site_fract_y
 _atom_site_fract_z
 _atom_site_occupancy
  Hf  Hf0  1  0.51736549  0.09452836  0.12829944  1
  Hf  Hf1  1  0.81049366  0.19096374  0.75234879  1
  Hf  Hf2  1  0.30094250  0.09506602  0.38209101  1
  Hf  Hf3  1  0.71581478  0.10164687  0.37715579  1
  Hf  Hf4  1  0.77947037  0.40286865  0.48329046  1
  Hf  Hf5  1  0.30313148  0.88727576  0.37789257  1
  Hf  Hf6  1  0.40548110  -0.01177421  0.25143531  1
  Hf  Hf7  1  0.91492470  0.08664804  0.62304843  1
  Hf  Hf8  1  0.41467883  0.20978586  0.74832278  1
  Hf  Hf9  1  0.08242543  0.70317832  0.11387593  1
  Hf  Hf10  1  0.29527357  0.70264397  0.10409621  1
  Hf  Hf11  1  0.07031593  0.50167090  0.37935657  1
  Hf  Hf12  1  0.09568986  0.29246249  0.37608309  1
  Hf  Hf13  1  0.01421471  0.19727555  0.22787504  1
  Hf  Hf14  1  0.61736311  -0.00047398  -0.01037018  1
  Hf  Hf15  1  0.61849664  0.80514175  -0.00570334  1
  Hf  Hf16  1  0.20045178  0.79441020  0.50993864  1
  Hf  Hf17  1  0.47404051  0.69557328  0.37694215  1
  Hf  Hf18  1  0.10835341  0.70591821  0.37153898  1
  Hf  Hf19  1  0.40962066  0.00446597  -0.01267727  1
  Hf  Hf20  1  0.82386382  0.21293019  0.49641561  1
  Hf  Hf21  1  0.61316727  -0.01309312  0.26543831  1
  Hf  Hf22  1  0.19229274  0.01984678  0.75308429  1
  Hf  Hf23  1  0.79101986  0.80220541  0.25945275  1
  Hf  Hf24  1  -0.01545896  0.58047314  0.75757559  1
  Hf  Hf25  1  0.39351254  0.60462815  0.23350461  1
  Hf  Hf26  1  0.92461702  0.09951757  0.36927584  1
  Hf  Hf27  1  0.60090160  0.59812501  0.23741253  1
  Hf  Hf28  1  0.18860236  -0.00275259  0.23920785  1
  Hf  Hf29  1  0.91328316  0.68635509  0.37679707  1
  Hf  Hf30  1  0.00360788  0.80226111  0.51206985  1
  Hf  Hf31  1  0.18946235  -0.00423939  0.51033907  1
  Hf  Hf32  1  0.69140608  0.49576679  0.64125137  1
  Hf  Hf33  1  0.17693119  0.81164052  -0.00840350  1
  Hf  Hf34  1  0.80165214  0.79081396  0.50372844  1
  Hf  Hf35  1  0.29805839  0.69847792  0.64359474  1
  Hf  Hf36  1  0.20547991  0.20116628  0.23615927  1
  Hf  Hf37  1  0.29618427  0.12041967  0.87986025  1
  Hf  Hf38  1  0.88449824  0.71018637  0.85776033  1
  Hf  Hf39  1  0.10940699  0.28474250  0.88479726  1
  Zr  Zr40  1  0.31161721  0.09959040  0.11969197  1
  Zr  Zr41  1  0.90748393  0.31115443  0.36030337  1
  Zr  Zr42  1  0.47346323  0.49965000  0.88910118  1
  Zr  Zr43  1  0.20003507  0.40284218  0.75497109  1
  Zr  Zr44  1  0.18520522  0.40516207  0.50440886  1
  Zr  Zr45  1  0.31154428  0.31256317  0.62097779  1
  Zr  Zr46  1  0.80637162  0.59133365  0.24596363  1
  Zr  Zr47  1  0.70528472  0.30270061  0.12902924  1
  Zr  Zr48  1  0.70272070  0.10682786  0.60479270  1
  Zr  Zr49  1  0.59517745  0.80002750  0.50629368  1
  Zr  Zr50  1  0.40869720  0.80906440  -0.00194937  1
  Zr  Zr51  1  0.49519313  0.49401437  0.11578809  1
  Zr  Zr52  1  0.19602278  0.00376114  -0.00432355  1
  Zr  Zr53  1  0.30362892  0.31026959  0.37228146  1
  Zr  Zr54  1  0.41143990  0.20137698  0.25771090  1
  Zr  Zr55  1  0.30199212  0.90474879  0.63916440  1
  Zr  Zr56  1  0.91032337  0.90053890  0.36197326  1
  Zr  Zr57  1  0.71303822  0.30493501  0.63487188  1
  Zr  Zr58  1  0.40723839  0.00613474  0.76177653  1
  Zr  Zr59  1  0.59110450  0.38989619  0.77046495  1
  Zr  Zr60  1  0.79826013  0.39364679  -0.01850581  1
  Zr  Zr61  1  -0.00274188  0.38320744  0.76034592  1
  Zr  Zr62  1  0.49736164  0.70323503  0.87017412  1
  Zr  Zr63  1  0.61470442  0.02429917  0.75800814  1
  Zr  Zr64  1  0.68944424  0.68891155  0.37534662  1
  Zr  Zr65  1  0.18839444  0.60131664  0.23926897  1
  Zr  Zr66  1  0.58335565  0.59011083  0.50654288  1
  Zr  Zr67  1  0.29671243  0.52657242  0.37934920  1
  Zr  Zr68  1  0.41308474  0.41763153  0.49100496  1
  Zr  Zr69  1  0.59711712  0.60840170  0.00359579  1
  Zr  Zr70  1  0.81480768  -0.01250514  0.49295850  1
  Zr  Zr71  1  0.62102404  0.19920897  0.00607825  1
  Zr  Zr72  1  0.50770649  0.09074940  0.39278049  1
  Zr  Zr73  1  0.29249391  0.68881064  0.88511707  1
  Zr  Zr74  1  0.50796931  0.09667860  0.60278086  1
  Zr  Zr75  1  0.20349263  0.20056503  0.51160143  1
  Zr  Zr76  1  0.48215232  0.50766484  0.63454483  1
  Zr  Zr77  1  0.70211088  0.90912583  0.62928268  1
  Zr  Zr78  1  0.79957439  0.59276452  0.50425058  1
  Zr  Zr79  1  0.18596009  0.40242139  0.23778833  1
  Ta  Ta80  1  0.90094458  0.30044277  0.11807662  1
  Ta  Ta81  1  0.72647009  0.89994423  0.85984248  1
  Ta  Ta82  1  0.51638844  0.30310593  0.61772361  1
  Ta  Ta83  1  0.71878540  0.09239677  0.13426546  1
  Ta  Ta84  1  0.39889021  0.79726708  0.23805771  1
  Ta  Ta85  1  0.19741633  0.39530586  0.00081444  1
  Ta  Ta86  1  -0.02853608  0.80205378  -0.00393631  1
  Ta  Ta87  1  0.50430333  0.29982840  0.13192822  1
  Ta  Ta88  1  0.19017153  0.59300140  0.75852871  1
  Ta  Ta89  1  0.69777952  0.70491112  0.85550332  1
  Ta  Ta90  1  0.80809104  0.40147081  0.77619320  1
  Ta  Ta91  1  0.70323094  0.49899559  0.11213762  1
  Ta  Ta92  1  0.01607163  0.18852641  0.74285717  1
  Ta  Ta93  1  0.00129108  -0.01259895  0.00724918  1
  Ta  Ta94  1  0.40026985  0.79669885  0.51202982  1
  Ta  Ta95  1  0.08766093  0.49906919  0.10261197  1
  Ta  Ta96  1  0.31015449  0.31040047  0.12112262  1
  Ta  Ta97  1  0.79959093  0.62069411  -0.00012107  1
  Ta  Ta98  1  0.41161574  0.21089199  0.49497381  1
  Ta  Ta99  1  0.09354656  0.90160495  0.64756535  1
  Ta  Ta100  1  0.41365125  0.21120712  0.00249444  1
  Ta  Ta101  1  0.59498053  0.81010883  0.74499075  1
  Ta  Ta102  1  0.18572767  0.60681899  0.51115075  1
  Ta  Ta103  1  0.20361487  0.80180808  0.24010026  1
  Ta  Ta104  1  0.70499261  0.71043293  0.12724725  1
  Ta  Ta105  1  0.31287360  0.31282129  0.88602842  1
  Ta  Ta106  1  0.08108680  0.89997571  0.85783809  1
  Ta  Ta107  1  0.81023608  0.19884579  0.24697958  1
  Ta  Ta108  1  -0.01947976  0.39147042  0.51511806  1
  Ta  Ta109  1  0.08877118  0.70412521  0.86611095  1
  Ta  Ta110  1  0.70647922  0.90489156  0.12924097  1
  Ta  Ta111  1  0.51812253  0.12286117  0.87757731  1
  Ta  Ta112  1  0.29161690  0.50326286  0.10275035  1
  Ta  Ta113  1  0.09902710  0.50317832  0.89065211  1
  Ta  Ta114  1  0.09413016  0.69827584  0.64735634  1
  Ta  Ta115  1  0.59544993  0.39278471  -0.01310683  1
  Ta  Ta116  1  0.89827820  0.89298680  0.13561216  1
  Ta  Ta117  1  0.69249402  0.69539210  0.64260565  1
  Ta  Ta118  1  0.70072137  0.51487330  0.87286825  1
  Ta  Ta119  1  0.90494664  0.89158138  0.64326365  1
  Ti  Ti120  1  -0.01263872  0.60377753  -0.01208773  1
  Ti  Ti121  1  0.00666505  0.80041896  0.24211443  1
  Ti  Ti122  1  0.88525009  0.48246986  0.63262787  1
  Ti  Ti123  1  0.78996115  0.40509707  0.25384674  1
  Ti  Ti124  1  0.08973233  0.49621756  0.62873044  1
  Ti  Ti125  1  0.89345483  0.50305820  0.10723505  1
  Ti  Ti126  1  0.51889804  0.31121783  0.36702139  1
  Ti  Ti127  1  -0.00661409  0.59438036  0.51775972  1
  Ti  Ti128  1  0.61259105  0.20301531  0.25406990  1
  Ti  Ti129  1  -0.00669632  0.59645354  0.23655054  1
  Ti  Ti130  1  0.10427205  0.09404725  0.37596629  1
  Ti  Ti131  1  0.50962319  0.89380822  0.12325944  1
  Ti  Ti132  1  0.20574086  0.21264871  0.73713042  1
  Ti  Ti133  1  0.51171452  0.90470119  0.86816918  1
  Ti  Ti134  1  -0.00363107  0.39227504  -0.00618507  1
  Ti  Ti135  1  0.40171963  0.40530686  0.24887402  1
  Ti  Ti136  1  0.51382806  0.49776771  0.36275294  1
  Ti  Ti137  1  0.69654273  0.27595439  0.86995565  1
  Ti  Ti138  1  0.90300353  0.27220527  0.88860630  1
  Ti  Ti139  1  0.90008299  0.08146039  0.87797531  1
  Ti  Ti140  1  0.61526263  0.22638405  0.48635167  1
  Ti  Ti141  1  0.81062906  -0.01161217  -0.00024748  1
  Ti  Ti142  1  0.29044503  0.89899168  0.86465042  1
  Ti  Ti143  1  0.00160113  0.18791287  0.01428656  1
  Ti  Ti144  1  0.09709301  0.90548382  0.37174044  1
  Ti  Ti145  1  0.28786289  0.50878257  0.62146258  1
  Ti  Ti146  1  0.31420872  0.10229008  0.61866335  1
  Ti  Ti147  1  0.58497505  0.60303547  0.75252348  1
  Ti  Ti148  1  0.38466188  0.59237102  0.75853688  1
  Ti  Ti149  1  0.19926243  0.20350512  0.01913593  1
  Ti  Ti150  1  0.08787602  0.09856362  0.88214175  1
  Ti  Ti151  1  0.29865207  0.90103440  0.11905572  1
  Ti  Ti152  1  0.40203349  0.80070844  0.75398059  1
  Ti  Ti153  1  -0.01232214  0.40927665  0.23144794  1
  Ti  Ti154  1  0.49757609  0.90706444  0.62289396  1
  Ti  Ti155  1  0.90138725  0.08789518  0.12702572  1
  Ti  Ti156  1  0.01679941  0.19590291  0.51771235  1
  Ti  Ti157  1  0.89240168  0.69125382  0.64102395  1
  Ti  Ti158  1  0.58912397  0.79855402  0.25375929  1
  Ti  Ti159  1  0.39289461  0.40348960  0.75435308  1
  Mo  Mo160  1  0.60488430  0.20187539  0.74745010  1
  Mo  Mo161  1  0.89390864  0.69879238  0.12263469  1
  Mo  Mo162  1  0.18151900  0.60232457  -0.00370297  1
  Mo  Mo163  1  0.59399220  0.39892592  0.49762680  1
  Mo  Mo164  1  0.39974362  0.39419140  0.00801976  1
  Mo  Mo165  1  0.37680990  0.61932769  0.51038018  1
  Mo  Mo166  1  0.69467697  0.89613738  0.37864847  1
  Mo  Mo167  1  -0.00293580  0.79280593  0.74412132  1
  Mo  Mo168  1  0.89538372  0.50131109  0.88936736  1
  Mo  Mo169  1  0.80997032  0.00200067  0.74816315  1
  Mo  Mo170  1  0.10976982  0.09779675  0.63103799  1
  Mo  Mo171  1  0.49299737  0.71051333  0.64388655  1
  Mo  Mo172  1  0.50542607  0.71265788  0.12803755  1
  Mo  Mo173  1  0.50007029  0.29862601  0.87918493  1
  Mo  Mo174  1  0.01483161  -0.00568541  0.50340222  1
  Mo  Mo175  1  0.68790851  0.49001132  0.36609788  1
  Mo  Mo176  1  0.79388032  0.79670268  0.73602889  1
  Mo  Mo177  1  0.90077250  0.90208757  0.86486192  1
  Mo  Mo178  1  0.09444078  0.30120212  0.62728472  1
  Mo  Mo179  1  0.19652626  0.80075956  0.76423808  1
  Mo  Mo180  1  -0.00555992  0.00622376  0.75729218  1
  Mo  Mo181  1  0.09671174  0.30539626  0.10948755  1
  Mo  Mo182  1  0.89855588  0.49986340  0.37077278  1
  Mo  Mo183  1  0.90495283  0.29796066  0.63003291  1
  Mo  Mo184  1  0.80708449  0.00441681  0.24910406  1
  Mo  Mo185  1  0.28789385  0.49912167  0.89235663  1
  Mo  Mo186  1  0.81793729  0.18373515  0.00397527  1
  Mo  Mo187  1  0.29325756  0.70431199  0.37347240  1
  Mo  Mo188  1  0.09317869  0.89575707  0.12421750  1
  Mo  Mo189  1  0.00612909  -0.00542149  0.23469215  1
  Mo  Mo190  1  0.79656712  0.80813664  0.00033160  1
  Mo  Mo191  1  0.60349906  -0.01629769  0.48155374  1
  Mo  Mo192  1  0.72235626  0.10025948  0.88133064  1
  Mo  Mo193  1  0.39672568  -0.00770554  0.50294140  1
  Mo  Mo194  1  0.49661170  0.88811464  0.37875268  1
  Mo  Mo195  1  0.59921670  0.39936705  0.24302632  1
  Mo  Mo196  1  0.69888668  0.29838197  0.35763706  1
  Mo  Mo197  1  0.79064441  0.58910933  0.74812302  1
  Mo  Mo198  1  0.39531775  0.60381209  0.01185962  1
  Mo  Mo199  1  0.09607111  0.09605420  0.11332964  1
