# generated using pymatgen
data_HfZrTaTiMo
_symmetry_space_group_name_H-M   'P 1'
_cell_length_a   15.20904693
_cell_length_b   15.21877556
_cell_length_c   16.81778664
_cell_angle_alpha   90.01864466
_cell_angle_beta   90.00191542
_cell_angle_gamma   89.97749214
_symmetry_Int_Tables_number   1
_chemical_formula_structural   HfZrTaTiMo
_chemical_formula_sum   'Hf40 Zr40 Ta40 Ti40 Mo40'
_cell_volume   3892.69604696
_cell_formula_units_Z   40
loop_
 _symmetry_equiv_pos_site_id
 _symmetry_equiv_pos_as_xyz
  1  'x, y, z'
loop_
 _atom_site_type_symbol
 _atom_site_label
 _atom_site_symmetry_multiplicity
 _atom_site_fract_x
 _atom_site_fract_y
 _atom_site_fract_z
 _atom_site_occupancy
  Hf  Hf0  1  0.38133397  0.59329295  0.26370193  1
  Hf  Hf1  1  0.59045740  0.60467751  0.02130855  1
  Hf  Hf2  1  0.29958109  0.49320110  0.61677382  1
  Hf  Hf3  1  -0.01094431  0.39328813  -0.00931455  1
  Hf  Hf4  1  0.28913384  0.29535868  0.60106275  1
  Hf  Hf5  1  0.90078447  0.89504936  0.63326933  1
  Hf  Hf6  1  0.10175270  0.90673629  0.86941361  1
  Hf  Hf7  1  -0.01905420  0.59778422  0.75582733  1
  Hf  Hf8  1  0.59032482  0.39143322  0.01961400  1
  Hf  Hf9  1  0.20397120  0.20620636  0.74238877  1
  Hf  Hf10  1  0.19966252  0.62677496  -0.00803245  1
  Hf  Hf11  1  0.50082584  0.70570635  0.36738331  1
  Hf  Hf12  1  0.89515933  0.48989318  0.35429993  1
  Hf  Hf13  1  0.69659059  0.70143953  0.34896702  1
  Hf  Hf14  1  -0.01462420  0.38983753  0.74737069  1
  Hf  Hf15  1  0.81297659  0.21224641  0.73699240  1
  Hf  Hf16  1  0.08796881  0.70212646  0.63666713  1
  Hf  Hf17  1  0.50475432  0.49624058  0.36746598  1
  Hf  Hf18  1  0.29584834  0.51873104  0.11544912  1
  Hf  Hf19  1  0.57983022  0.80566182  0.22661077  1
  Hf  Hf20  1  0.80883118  0.60178572  -0.00552373  1
  Hf  Hf21  1  0.09812375  0.50391818  0.86594933  1
  Hf  Hf22  1  0.20238748  0.80518892  0.73994895  1
  Hf  Hf23  1  0.60690416  0.18175679  0.50607924  1
  Hf  Hf24  1  0.19305309  0.20038693  0.00057583  1
  Hf  Hf25  1  0.29970928  0.09977947  0.12411027  1
  Hf  Hf26  1  0.69288992  0.90528978  0.87952972  1
  Hf  Hf27  1  0.19189378  0.60907982  0.49958081  1
  Hf  Hf28  1  -0.00127053  0.00789030  0.49483762  1
  Hf  Hf29  1  0.82779836  0.20020161  0.00941304  1
  Hf  Hf30  1  0.11030049  0.11464123  0.37784130  1
  Hf  Hf31  1  -0.00070445  0.01989743  0.00320088  1
  Hf  Hf32  1  0.88440180  0.69830274  0.62323378  1
  Hf  Hf33  1  0.40543351  -0.00886230  0.24160521  1
  Hf  Hf34  1  0.19537325  0.40381283  -0.00435402  1
  Hf  Hf35  1  0.40894583  -0.01048342  0.00533240  1
  Hf  Hf36  1  0.00142648  0.79403680  -0.00408843  1
  Hf  Hf37  1  0.09379837  0.30876517  0.13336561  1
  Hf  Hf38  1  0.78674195  0.60057851  0.76962300  1
  Hf  Hf39  1  0.79948917  0.00556555  0.01031393  1
  Zr  Zr40  1  0.59021349  0.41353563  0.74028123  1
  Zr  Zr41  1  0.91523756  0.49688761  0.13989915  1
  Zr  Zr42  1  0.51020897  0.09750983  0.36643394  1
  Zr  Zr43  1  0.59856840  0.19914020  0.73923042  1
  Zr  Zr44  1  0.12228749  0.89723232  0.38525010  1
  Zr  Zr45  1  -0.00878446  0.39623412  0.50286857  1
  Zr  Zr46  1  0.40538568  0.80472641  0.50169484  1
  Zr  Zr47  1  0.40659590  0.59905519  0.49916645  1
  Zr  Zr48  1  0.51397847  0.09312484  0.87827301  1
  Zr  Zr49  1  0.71532673  0.49317071  0.14055132  1
  Zr  Zr50  1  0.20759861  0.00691747  0.73644546  1
  Zr  Zr51  1  0.68873552  0.71091916  0.62748096  1
  Zr  Zr52  1  0.20432385  -0.01032986  0.24889602  1
  Zr  Zr53  1  0.69410798  0.29458001  0.37292949  1
  Zr  Zr54  1  0.28117353  0.28702367  0.39117338  1
  Zr  Zr55  1  0.62070450  0.19318406  0.01633171  1
  Zr  Zr56  1  -0.00446800  0.79677667  0.49200217  1
  Zr  Zr57  1  0.89786836  0.91184374  0.86815667  1
  Zr  Zr58  1  0.68239004  0.50016403  0.88588219  1
  Zr  Zr59  1  0.70735243  0.29602530  0.87261227  1
  Zr  Zr60  1  0.89709003  0.70187980  0.36134203  1
  Zr  Zr61  1  0.41493442  0.79764889  0.76268954  1
  Zr  Zr62  1  0.30684514  0.10438658  0.87652838  1
  Zr  Zr63  1  0.81177161  0.19874453  0.49945297  1
  Zr  Zr64  1  0.30273796  0.49661900  0.87360682  1
  Zr  Zr65  1  0.49461139  0.30069411  0.87390574  1
  Zr  Zr66  1  0.90329809  0.89506953  0.13061929  1
  Zr  Zr67  1  0.10167081  0.49698160  0.37858105  1
  Zr  Zr68  1  0.31060773  0.31116405  0.12862023  1
  Zr  Zr69  1  0.01556093  0.80603587  0.25880305  1
  Zr  Zr70  1  0.59081185  0.80041703  0.00735473  1
  Zr  Zr71  1  0.71074633  0.90269842  0.64293408  1
  Zr  Zr72  1  0.39060860  0.77670694  -0.01505284  1
  Zr  Zr73  1  0.48595992  0.29761083  0.39051647  1
  Zr  Zr74  1  0.40756778  0.58597855  0.74443196  1
  Zr  Zr75  1  0.49095471  0.29705566  0.60846970  1
  Zr  Zr76  1  0.79401364  0.59949706  0.48924003  1
  Zr  Zr77  1  0.58661005  0.37566537  0.23573510  1
  Zr  Zr78  1  0.20799075  0.41640011  0.25430498  1
  Zr  Zr79  1  0.51566329  0.89192877  0.63149339  1
  Ta  Ta80  1  0.20392473  0.80778710  0.52134627  1
  Ta  Ta81  1  0.71168993  0.08737393  0.36497205  1
  Ta  Ta82  1  0.10842053  0.70941833  0.12490220  1
  Ta  Ta83  1  0.79318124  0.40372941  0.49106785  1
  Ta  Ta84  1  0.00310423  0.01141787  0.74340124  1
  Ta  Ta85  1  0.69674586  0.51066107  0.62470730  1
  Ta  Ta86  1  0.09561120  0.70613806  0.85566250  1
  Ta  Ta87  1  0.90108847  0.09416640  0.62661291  1
  Ta  Ta88  1  0.21589486  0.00621048  0.51229615  1
  Ta  Ta89  1  0.60757427  0.00265135  0.23001942  1
  Ta  Ta90  1  0.37491381  0.80015510  0.25454485  1
  Ta  Ta91  1  0.40918324  0.20821631  0.00688164  1
  Ta  Ta92  1  0.90651165  0.69528947  0.13602960  1
  Ta  Ta93  1  0.29230577  0.87625978  0.11418589  1
  Ta  Ta94  1  0.70671501  0.31397032  0.61723002  1
  Ta  Ta95  1  0.09911764  0.10579732  0.87113020  1
  Ta  Ta96  1  0.30125281  0.90050995  0.87690561  1
  Ta  Ta97  1  -0.00129072  0.01136677  0.25886601  1
  Ta  Ta98  1  0.71877925  0.09724331  0.86948165  1
  Ta  Ta99  1  0.91315337  0.12105778  0.86381628  1
  Ta  Ta100  1  0.79899595  0.39471057  0.00170469  1
  Ta  Ta101  1  0.69300456  0.89913604  0.35642384  1
  Ta  Ta102  1  0.09468474  0.10351888  0.13194841  1
  Ta  Ta103  1  0.61350906  -0.02045488  0.49561703  1
  Ta  Ta104  1  0.19879301  -0.00487837  0.00274694  1
  Ta  Ta105  1  0.29932497  0.69813219  0.63291017  1
  Ta  Ta106  1  0.79995142  0.00066587  0.49365167  1
  Ta  Ta107  1  0.41333120  0.00336253  0.50101754  1
  Ta  Ta108  1  0.60319775  -0.00378285  0.02005996  1
  Ta  Ta109  1  0.79613550  0.19373165  0.24446776  1
  Ta  Ta110  1  0.71712097  0.70362033  0.13764775  1
  Ta  Ta111  1  0.58935103  0.59848012  0.22864250  1
  Ta  Ta112  1  0.39035166  0.37844919  0.74186305  1
  Ta  Ta113  1  0.78030779  0.81282238  0.48875965  1
  Ta  Ta114  1  0.19346672  0.39890509  0.74590294  1
  Ta  Ta115  1  0.09666013  0.49853912  0.62774428  1
  Ta  Ta116  1  0.00985892  0.20539364  0.51103743  1
  Ta  Ta117  1  0.89644996  0.30338328  0.14154134  1
  Ta  Ta118  1  0.60224544  0.41733629  0.50289271  1
  Ta  Ta119  1  0.69665557  0.50021957  0.35197710  1
  Ti  Ti120  1  0.00034628  0.60015721  -0.00855615  1
  Ti  Ti121  1  0.19637533  0.62741581  0.26170183  1
  Ti  Ti122  1  0.08943498  0.29044218  0.87004292  1
  Ti  Ti123  1  0.59373745  0.60695118  0.75729965  1
  Ti  Ti124  1  0.09568551  0.90864497  0.62455028  1
  Ti  Ti125  1  0.40810406  0.21134467  0.24718415  1
  Ti  Ti126  1  0.30067593  0.29931397  0.87605753  1
  Ti  Ti127  1  0.28346528  0.72370555  0.38475649  1
  Ti  Ti128  1  0.31548362  0.10527220  0.62247522  1
  Ti  Ti129  1  0.79801807  0.79375761  -0.00527884  1
  Ti  Ti130  1  0.70505642  0.89646511  0.12747837  1
  Ti  Ti131  1  0.50284713  0.10615076  0.12988924  1
  Ti  Ti132  1  0.90679561  0.29061424  0.36601214  1
  Ti  Ti133  1  0.29349808  0.69123006  0.85551590  1
  Ti  Ti134  1  0.00956473  0.20379712  0.72549853  1
  Ti  Ti135  1  0.46241775  0.69370943  0.12965342  1
  Ti  Ti136  1  0.30490266  0.48180386  0.39907446  1
  Ti  Ti137  1  0.88646284  0.91128798  0.36754239  1
  Ti  Ti138  1  0.10449960  0.90250838  0.12146040  1
  Ti  Ti139  1  0.49999417  0.90049008  0.37187144  1
  Ti  Ti140  1  0.60481830  0.78922606  0.77603231  1
  Ti  Ti141  1  0.60411498  -0.00317652  0.75542438  1
  Ti  Ti142  1  0.48916064  0.49982409  0.88798354  1
  Ti  Ti143  1  -0.00125859  0.19954688  0.25512934  1
  Ti  Ti144  1  0.79735210  0.40907199  0.75224382  1
  Ti  Ti145  1  0.01433547  0.60178543  0.25499894  1
  Ti  Ti146  1  0.50247379  0.09091910  0.62684936  1
  Ti  Ti147  1  0.50231571  0.69216618  0.62328382  1
  Ti  Ti148  1  0.88614411  0.49540724  0.62163690  1
  Ti  Ti149  1  0.47729356  0.48525009  0.13032386  1
  Ti  Ti150  1  0.40873099  0.00376353  0.75520611  1
  Ti  Ti151  1  0.30835359  0.09255784  0.37935371  1
  Ti  Ti152  1  0.20155473  0.20177884  0.24840221  1
  Ti  Ti153  1  0.10143231  0.51485400  0.12651064  1
  Ti  Ti154  1  0.70541024  0.09217995  0.62938580  1
  Ti  Ti155  1  0.80690015  0.00409834  0.24258461  1
  Ti  Ti156  1  -0.00720904  0.59706822  0.49925011  1
  Ti  Ti157  1  0.60471186  0.60917986  0.49510688  1
  Ti  Ti158  1  0.31644001  0.90368993  0.62896612  1
  Ti  Ti159  1  0.80563950  0.79049805  0.77030892  1
  Mo  Mo160  1  0.80264280  0.60140774  0.24512529  1
  Mo  Mo161  1  0.19338288  0.80652166  -0.01158591  1
  Mo  Mo162  1  0.49438754  0.29223574  0.12530661  1
  Mo  Mo163  1  0.40355138  0.39986168  0.50181142  1
  Mo  Mo164  1  0.90121003  0.30037559  0.87099472  1
  Mo  Mo165  1  0.40222752  0.59360427  -0.00174127  1
  Mo  Mo166  1  0.89307971  0.30517283  0.61799429  1
  Mo  Mo167  1  0.39035190  0.39966566  0.25885604  1
  Mo  Mo168  1  0.80312788  0.01276677  0.75370203  1
  Mo  Mo169  1  0.79860598  0.81169392  0.24602863  1
  Mo  Mo170  1  0.39504377  0.17708732  0.49889271  1
  Mo  Mo171  1  0.91335377  0.10474350  0.13761632  1
  Mo  Mo172  1  0.48727573  0.89963950  0.12435580  1
  Mo  Mo173  1  0.70968894  0.29546991  0.12820143  1
  Mo  Mo174  1  0.80154891  0.38574047  0.26007396  1
  Mo  Mo175  1  0.09329212  0.29772540  0.36957663  1
  Mo  Mo176  1  0.00865838  0.20437040  0.00250030  1
  Mo  Mo177  1  0.69637717  0.70329471  0.88455590  1
  Mo  Mo178  1  0.50699565  0.68249583  0.87895607  1
  Mo  Mo179  1  0.10180427  0.69890925  0.38633651  1
  Mo  Mo180  1  0.09866416  0.30777490  0.62615644  1
  Mo  Mo181  1  0.89298288  0.49260713  0.88077051  1
  Mo  Mo182  1  0.50853286  0.50397263  0.61949159  1
  Mo  Mo183  1  0.90188835  0.10120033  0.37147946  1
  Mo  Mo184  1  0.00899305  0.38988557  0.25632328  1
  Mo  Mo185  1  0.31169128  0.90685398  0.38597526  1
  Mo  Mo186  1  0.39777354  0.39783792  -0.00236495  1
  Mo  Mo187  1  0.28959881  0.69919392  0.12805787  1
  Mo  Mo188  1  0.60152933  0.18605832  0.23924737  1
  Mo  Mo189  1  -0.00441659  0.80463367  0.75327452  1
  Mo  Mo190  1  0.20081286  0.80086151  0.25073756  1
  Mo  Mo191  1  0.19478341  0.59543389  0.74108752  1
  Mo  Mo192  1  0.90384981  0.70254970  0.88016333  1
  Mo  Mo193  1  0.19016763  0.18763679  0.50866084  1
  Mo  Mo194  1  0.60384985  0.79866685  0.48902736  1
  Mo  Mo195  1  0.49883551  0.90229580  0.87195127  1
  Mo  Mo196  1  0.71138918  0.09369222  0.13370530  1
  Mo  Mo197  1  0.39693300  0.19357624  0.74319651  1
  Mo  Mo198  1  0.10162677  0.10089429  0.61830773  1
  Mo  Mo199  1  0.18583433  0.39800841  0.50443629  1
