# generated using pymatgen
data_HfZrTaTiMo
_symmetry_space_group_name_H-M   'P 1'
_cell_length_a   15.20981205
_cell_length_b   15.22079366
_cell_length_c   16.83222797
_cell_angle_alpha   90.03696106
_cell_angle_beta   90.06422626
_cell_angle_gamma   90.12245406
_symmetry_Int_Tables_number   1
_chemical_formula_structural   HfZrTaTiMo
_chemical_formula_sum   'Hf40 Zr40 Ta40 Ti40 Mo40'
_cell_volume   3896.73968724
_cell_formula_units_Z   40
loop_
 _symmetry_equiv_pos_site_id
 _symmetry_equiv_pos_as_xyz
  1  'x, y, z'
loop_
 _atom_site_type_symbol
 _atom_site_label
 _atom_site_symmetry_multiplicity
 _atom_site_fract_x
 _atom_site_fract_y
 _atom_site_fract_z
 _atom_site_occupancy
  Hf  Hf0  1  0.29965513  0.30551317  0.36619927  1
  Hf  Hf1  1  0.31601685  0.90181518  0.39846821  1
  Hf  Hf2  1  0.81215026  0.21193868  0.25251705  1
  Hf  Hf3  1  0.00898138  0.00310309  0.00215147  1
  Hf  Hf4  1  0.51538966  0.91242976  0.12564431  1
  Hf  Hf5  1  0.80897645  0.40095451  0.76010974  1
  Hf  Hf6  1  0.30987705  0.29392119  0.12211781  1
  Hf  Hf7  1  0.39836567  0.81467388  0.24981703  1
  Hf  Hf8  1  0.09760339  0.90894652  0.61058250  1
  Hf  Hf9  1  0.19302102  0.01641430  0.74038818  1
  Hf  Hf10  1  0.10978212  0.09713207  0.36755357  1
  Hf  Hf11  1  0.29938260  0.50608124  0.12805456  1
  Hf  Hf12  1  0.18995106  0.39812001  0.24589177  1
  Hf  Hf13  1  0.08562226  0.49003786  0.88298622  1
  Hf  Hf14  1  0.81689637  0.79224152  0.25346837  1
  Hf  Hf15  1  0.20636648  0.20256328  0.49886339  1
  Hf  Hf16  1  0.80918426  0.19936038  0.76652451  1
  Hf  Hf17  1  -0.01613826  0.60541281  0.26303653  1
  Hf  Hf18  1  0.19052429  0.39324323  0.00942767  1
  Hf  Hf19  1  0.69564065  0.09181962  0.12832823  1
  Hf  Hf20  1  0.17304786  0.59266573  0.73113192  1
  Hf  Hf21  1  -0.01550301  0.39634827  0.25941718  1
  Hf  Hf22  1  0.10714817  0.29763422  0.61829378  1
  Hf  Hf23  1  0.80950471  -0.00235096  0.24409541  1
  Hf  Hf24  1  0.00567825  -0.00553804  0.25285703  1
  Hf  Hf25  1  0.07976515  0.50162779  0.12683930  1
  Hf  Hf26  1  0.90010836  0.29982658  0.61817465  1
  Hf  Hf27  1  0.50152444  0.11404911  0.12128430  1
  Hf  Hf28  1  0.60051897  -0.00136952  0.49944837  1
  Hf  Hf29  1  0.31270320  0.10793116  0.37263868  1
  Hf  Hf30  1  0.30097584  0.90609904  0.61397868  1
  Hf  Hf31  1  0.58737468  0.59999638  0.50315997  1
  Hf  Hf32  1  0.20151327  0.80395404  0.00765048  1
  Hf  Hf33  1  0.01099257  0.40371577  0.74413050  1
  Hf  Hf34  1  0.28159940  0.71182740  0.85827734  1
  Hf  Hf35  1  0.39542759  0.38934447  0.76741824  1
  Hf  Hf36  1  0.50585317  0.90743499  0.86554508  1
  Hf  Hf37  1  0.68691360  0.10238923  0.35583093  1
  Hf  Hf38  1  0.79828830  -0.00750407  0.00506342  1
  Hf  Hf39  1  0.59780203  0.40232465  0.49891134  1
  Zr  Zr40  1  0.40237658  0.60597244  0.75179776  1
  Zr  Zr41  1  0.29201664  0.48787633  0.63183162  1
  Zr  Zr42  1  0.70870030  0.89680743  0.37867681  1
  Zr  Zr43  1  0.61183390  0.40160172  -0.01161416  1
  Zr  Zr44  1  0.59197446  0.38473532  0.24658154  1
  Zr  Zr45  1  0.70481234  0.69662620  0.13784471  1
  Zr  Zr46  1  0.39234072  0.60817995  -0.00628437  1
  Zr  Zr47  1  0.30025719  0.91261984  0.86275159  1
  Zr  Zr48  1  0.08653873  0.69469801  0.86784013  1
  Zr  Zr49  1  0.21065364  0.60191242  0.50655946  1
  Zr  Zr50  1  0.70001912  0.29502607  0.62866020  1
  Zr  Zr51  1  0.80491400  0.78726321  0.00369018  1
  Zr  Zr52  1  0.50154371  0.49518809  0.63598754  1
  Zr  Zr53  1  0.30348044  0.69446857  0.37522302  1
  Zr  Zr54  1  0.49394932  0.29502168  0.63379210  1
  Zr  Zr55  1  0.39953783  0.81503232  0.00277723  1
  Zr  Zr56  1  0.89148398  0.69949770  0.85994042  1
  Zr  Zr57  1  0.90131031  0.90523511  0.60850122  1
  Zr  Zr58  1  0.50357890  0.10026028  0.64692252  1
  Zr  Zr59  1  0.70068369  0.30573370  0.37594250  1
  Zr  Zr60  1  0.39871484  0.80303997  0.73836245  1
  Zr  Zr61  1  0.59294265  0.79267091  0.49462896  1
  Zr  Zr62  1  0.49304165  0.70119980  0.13145592  1
  Zr  Zr63  1  0.70999944  0.29400526  0.11502042  1
  Zr  Zr64  1  0.69455561  0.68083206  0.86626190  1
  Zr  Zr65  1  0.59456384  0.19278633  0.50131672  1
  Zr  Zr66  1  0.00100494  0.19962732  0.25633519  1
  Zr  Zr67  1  0.10366451  0.90139511  0.87250311  1
  Zr  Zr68  1  0.19371554  0.80372608  0.26021143  1
  Zr  Zr69  1  0.59735910  0.60067815  0.00781924  1
  Zr  Zr70  1  0.80264296  0.01911479  0.49965900  1
  Zr  Zr71  1  0.50094484  0.89986780  0.62246297  1
  Zr  Zr72  1  0.87906967  0.70296946  0.61516682  1
  Zr  Zr73  1  0.18891245  0.60875887  0.00780973  1
  Zr  Zr74  1  0.10114699  0.89360812  0.12686465  1
  Zr  Zr75  1  0.70711129  0.68644942  0.36915422  1
  Zr  Zr76  1  0.28486505  0.50036848  0.86967193  1
  Zr  Zr77  1  0.00048142  0.80364969  0.73923362  1
  Zr  Zr78  1  0.01625039  0.20047549  0.76046228  1
  Zr  Zr79  1  0.80604385  -0.00283590  0.74865152  1
  Ta  Ta80  1  0.79549072  0.41371420  0.24879552  1
  Ta  Ta81  1  0.40031320  0.40398898  0.24925495  1
  Ta  Ta82  1  0.90109982  0.90152314  0.87353163  1
  Ta  Ta83  1  0.20929639  0.19008365  0.00806146  1
  Ta  Ta84  1  0.90202715  0.89181332  0.12463061  1
  Ta  Ta85  1  0.59791518  0.58852238  0.24718538  1
  Ta  Ta86  1  0.39390321  0.39874033  0.49558673  1
  Ta  Ta87  1  0.79185753  0.58009382  0.00505715  1
  Ta  Ta88  1  0.21866850  -0.00254183  0.24291465  1
  Ta  Ta89  1  -0.01874580  0.60222401  0.00433000  1
  Ta  Ta90  1  0.40403433  0.02183452  -0.00209135  1
  Ta  Ta91  1  0.19679518  0.40300302  0.49340253  1
  Ta  Ta92  1  0.70776614  0.88276617  0.62216675  1
  Ta  Ta93  1  0.21698760  0.00360572  0.00943306  1
  Ta  Ta94  1  0.50922634  0.50557956  0.87073701  1
  Ta  Ta95  1  0.41549572  0.20939360  0.24819110  1
  Ta  Ta96  1  0.89428852  0.50555478  0.87763814  1
  Ta  Ta97  1  0.40186707  0.40049072  -0.01103262  1
  Ta  Ta98  1  0.30424938  0.11519112  0.63249200  1
  Ta  Ta99  1  0.28426136  0.29319957  0.87914273  1
  Ta  Ta100  1  0.18774464  0.60083069  0.25584078  1
  Ta  Ta101  1  0.49367881  0.28430476  0.88132381  1
  Ta  Ta102  1  0.48890733  0.50133286  0.37243178  1
  Ta  Ta103  1  0.70548630  0.50423687  0.63743272  1
  Ta  Ta104  1  0.49692600  0.49236722  0.12407280  1
  Ta  Ta105  1  0.10869658  0.10215489  0.12626001  1
  Ta  Ta106  1  0.60976782  0.39376818  0.77174565  1
  Ta  Ta107  1  0.91105466  0.89849182  0.38991876  1
  Ta  Ta108  1  -0.00104384  0.01079280  0.75333192  1
  Ta  Ta109  1  0.60949201  0.80751003  0.00003661  1
  Ta  Ta110  1  0.41243410  0.00893961  0.25410167  1
  Ta  Ta111  1  0.88689313  0.50262889  0.38692514  1
  Ta  Ta112  1  0.60153925  -0.00431822  -0.00880567  1
  Ta  Ta113  1  -0.00488319  0.19981813  0.48467464  1
  Ta  Ta114  1  0.60076856  0.80885083  0.25819783  1
  Ta  Ta115  1  0.70053628  0.08962255  0.87662573  1
  Ta  Ta116  1  0.09132084  0.70409287  0.60423673  1
  Ta  Ta117  1  0.09461967  0.50547120  0.38342397  1
  Ta  Ta118  1  0.31473739  0.10957854  0.86527294  1
  Ta  Ta119  1  0.60378351  0.78444483  0.73957363  1
  Ti  Ti120  1  0.39741660  0.59885078  0.24809946  1
  Ti  Ti121  1  0.70887468  0.10009210  0.63320228  1
  Ti  Ti122  1  0.69349850  0.50082554  0.37290054  1
  Ti  Ti123  1  0.80652482  0.20475729  0.48675406  1
  Ti  Ti124  1  0.90049967  0.69944335  0.40023169  1
  Ti  Ti125  1  -0.00369509  0.40296601  0.49668336  1
  Ti  Ti126  1  0.11649409  0.11220379  0.88351244  1
  Ti  Ti127  1  0.80425216  0.39223864  -0.00870651  1
  Ti  Ti128  1  -0.02241415  0.58800985  0.72486237  1
  Ti  Ti129  1  0.50312948  0.30164455  0.10832949  1
  Ti  Ti130  1  0.88393341  0.49249873  0.12336444  1
  Ti  Ti131  1  0.20381349  0.01305426  0.50537800  1
  Ti  Ti132  1  0.90659160  0.10123845  0.88892782  1
  Ti  Ti133  1  0.60578865  0.19733741  0.76847445  1
  Ti  Ti134  1  -0.00219804  0.79655390  -0.00084875  1
  Ti  Ti135  1  0.91635399  0.10742005  0.62422384  1
  Ti  Ti136  1  0.91957648  0.30155669  0.89430542  1
  Ti  Ti137  1  0.09816358  0.30549544  0.37875116  1
  Ti  Ti138  1  0.29722505  0.50134001  0.37025739  1
  Ti  Ti139  1  0.39468458  0.76287910  0.51799422  1
  Ti  Ti140  1  0.78875348  0.59382822  0.50834447  1
  Ti  Ti141  1  0.60484256  0.19155489  -0.01572199  1
  Ti  Ti142  1  0.30209433  0.29882286  0.63154792  1
  Ti  Ti143  1  0.61011857  -0.00794983  0.74894487  1
  Ti  Ti144  1  0.90489030  0.69145476  0.12796331  1
  Ti  Ti145  1  0.20601883  0.19686798  0.23905800  1
  Ti  Ti146  1  0.00507639  0.01602174  0.49100646  1
  Ti  Ti147  1  0.79877375  0.40331729  0.50177509  1
  Ti  Ti148  1  0.49548779  0.69982595  0.36779858  1
  Ti  Ti149  1  0.49521290  0.28949587  0.37869794  1
  Ti  Ti150  1  0.40995686  0.03000764  0.49946158  1
  Ti  Ti151  1  0.70709540  0.88546682  0.86574152  1
  Ti  Ti152  1  0.07911204  0.29254636  0.11629442  1
  Ti  Ti153  1  0.90637587  0.11856883  0.11015546  1
  Ti  Ti154  1  0.00389664  0.79965360  0.26664935  1
  Ti  Ti155  1  0.11051063  0.89719887  0.39364627  1
  Ti  Ti156  1  0.50084618  0.70693867  0.87506314  1
  Ti  Ti157  1  0.09454794  0.70286625  0.39705173  1
  Ti  Ti158  1  0.28951379  0.70759854  0.13730148  1
  Ti  Ti159  1  0.08961320  0.70003666  0.13248945  1
  Mo  Mo160  1  0.80389015  0.58909861  0.25301431  1
  Mo  Mo161  1  0.08552845  0.49573215  0.60608762  1
  Mo  Mo162  1  0.79399117  0.79896405  0.49392509  1
  Mo  Mo163  1  0.40310244  0.58660949  0.49893837  1
  Mo  Mo164  1  0.40050718  0.00672437  0.74672178  1
  Mo  Mo165  1  0.20515590  0.21122233  0.75058853  1
  Mo  Mo166  1  0.30595542  0.10003498  0.13286147  1
  Mo  Mo167  1  0.68958746  0.69361133  0.62809325  1
  Mo  Mo168  1  0.59510172  0.19849747  0.24552318  1
  Mo  Mo169  1  0.29041249  0.70111471  0.63255446  1
  Mo  Mo170  1  0.09539559  0.10419331  0.61652734  1
  Mo  Mo171  1  0.00104687  0.80214053  0.49208203  1
  Mo  Mo172  1  0.19125161  0.38762128  0.75102733  1
  Mo  Mo173  1  0.59900889  0.59234682  0.75065191  1
  Mo  Mo174  1  0.70370199  0.89554817  0.12704266  1
  Mo  Mo175  1  0.39903693  0.20160631  0.75843984  1
  Mo  Mo176  1  -0.00566089  0.59265779  0.50102328  1
  Mo  Mo177  1  0.40218909  0.20326042  -0.00562187  1
  Mo  Mo178  1  0.01209614  0.20089497  -0.00267423  1
  Mo  Mo179  1  0.59796611  -0.00583376  0.25260642  1
  Mo  Mo180  1  -0.01323864  0.40579165  0.00590295  1
  Mo  Mo181  1  0.89335067  0.49308355  0.61092258  1
  Mo  Mo182  1  0.70752750  0.49456257  0.86994885  1
  Mo  Mo183  1  0.50749281  0.09540352  0.86574057  1
  Mo  Mo184  1  0.49793228  0.10338087  0.37185094  1
  Mo  Mo185  1  0.19340205  0.79737206  0.72339401  1
  Mo  Mo186  1  0.20221331  0.80345815  0.50384954  1
  Mo  Mo187  1  0.89944261  0.09828311  0.37471013  1
  Mo  Mo188  1  0.90346818  0.30503834  0.11214210  1
  Mo  Mo189  1  0.89901049  0.30910154  0.38648820  1
  Mo  Mo190  1  0.79166651  0.80504559  0.74930468  1
  Mo  Mo191  1  0.39830066  0.20838448  0.50274681  1
  Mo  Mo192  1  0.80371542  0.19421860  -0.01355404  1
  Mo  Mo193  1  0.70904763  0.28765307  0.88194797  1
  Mo  Mo194  1  0.50286172  0.91037574  0.37034475  1
  Mo  Mo195  1  0.69729323  0.49655256  0.13058374  1
  Mo  Mo196  1  0.49910897  0.69214601  0.62686312  1
  Mo  Mo197  1  0.30977984  0.91163761  0.12535692  1
  Mo  Mo198  1  0.10304442  0.29697304  0.88854467  1
  Mo  Mo199  1  0.79728519  0.59499244  0.74073257  1
