# generated using pymatgen
data_HfZrTaTiMo
_symmetry_space_group_name_H-M   'P 1'
_cell_length_a   15.21959771
_cell_length_b   15.20691679
_cell_length_c   16.83417323
_cell_angle_alpha   90.00940903
_cell_angle_beta   90.01263588
_cell_angle_gamma   90.02778868
_symmetry_Int_Tables_number   1
_chemical_formula_structural   HfZrTaTiMo
_chemical_formula_sum   'Hf40 Zr40 Ta40 Ti40 Mo40'
_cell_volume   3896.15357341
_cell_formula_units_Z   40
loop_
 _symmetry_equiv_pos_site_id
 _symmetry_equiv_pos_as_xyz
  1  'x, y, z'
loop_
 _atom_site_type_symbol
 _atom_site_label
 _atom_site_symmetry_multiplicity
 _atom_site_fract_x
 _atom_site_fract_y
 _atom_site_fract_z
 _atom_site_occupancy
  Hf  Hf0  1  0.71408639  0.91865394  0.13253109  1
  Hf  Hf1  1  0.77948580  0.80140581  0.74496352  1
  Hf  Hf2  1  0.19738652  0.39085293  -0.00081200  1
  Hf  Hf3  1  0.00925860  0.61622672  0.50556390  1
  Hf  Hf4  1  0.39403570  0.61637554  0.76128488  1
  Hf  Hf5  1  0.61803901  -0.00787060  0.49892331  1
  Hf  Hf6  1  0.28962437  0.09602899  0.13314263  1
  Hf  Hf7  1  -0.01091536  -0.00231116  -0.00898303  1
  Hf  Hf8  1  0.09629256  0.30021044  0.39213081  1
  Hf  Hf9  1  0.89256706  0.48832554  0.13472501  1
  Hf  Hf10  1  0.80318892  0.40902537  -0.02068166  1
  Hf  Hf11  1  0.59476558  0.00873088  0.24848070  1
  Hf  Hf12  1  0.30798902  0.50877170  0.11652470  1
  Hf  Hf13  1  0.48766141  0.69530100  0.10946894  1
  Hf  Hf14  1  0.51956628  0.90391396  0.88922043  1
  Hf  Hf15  1  0.28788305  0.50543087  0.87516768  1
  Hf  Hf16  1  0.08508306  0.09792025  0.13150418  1
  Hf  Hf17  1  0.10617284  0.10363830  0.61191936  1
  Hf  Hf18  1  0.40668918  0.00098491  0.50166391  1
  Hf  Hf19  1  0.80226587  0.40003937  0.74995833  1
  Hf  Hf20  1  0.79714706  0.61405602  0.24193955  1
  Hf  Hf21  1  0.69590715  0.52122071  0.63835975  1
  Hf  Hf22  1  0.60119735  0.58980312  0.24095106  1
  Hf  Hf23  1  0.40816786  0.19694089  0.24767014  1
  Hf  Hf24  1  0.30087481  0.69859738  0.61711264  1
  Hf  Hf25  1  0.10290325  0.50473009  0.38433704  1
  Hf  Hf26  1  0.59288314  0.39329932  0.51816341  1
  Hf  Hf27  1  0.39365531  0.60574576  0.25718004  1
  Hf  Hf28  1  0.29737972  0.89558525  0.62569060  1
  Hf  Hf29  1  0.79205380  0.60557196  0.00957692  1
  Hf  Hf30  1  0.09558494  0.88728232  0.87603079  1
  Hf  Hf31  1  0.10325893  0.89864552  0.11312080  1
  Hf  Hf32  1  0.51284831  0.89113110  0.62445664  1
  Hf  Hf33  1  0.19227492  0.20715883  0.25480771  1
  Hf  Hf34  1  -0.01466611  -0.00426237  0.49197998  1
  Hf  Hf35  1  0.00390699  0.39330087  0.25458658  1
  Hf  Hf36  1  0.89819746  0.50749736  0.38587654  1
  Hf  Hf37  1  0.81129469  -0.00152247  0.76543139  1
  Hf  Hf38  1  0.88845168  0.09030273  0.13481325  1
  Hf  Hf39  1  0.72187882  0.90781788  0.36272071  1
  Zr  Zr40  1  0.51377935  0.29251669  0.38144179  1
  Zr  Zr41  1  0.38746437  0.39174136  0.75566629  1
  Zr  Zr42  1  0.40892455  0.39598455  0.24338979  1
  Zr  Zr43  1  0.81022458  0.60671442  0.75204413  1
  Zr  Zr44  1  0.90441979  0.72245662  0.38221927  1
  Zr  Zr45  1  0.20024803  0.18922744  -0.00357878  1
  Zr  Zr46  1  0.29754828  0.49758935  0.38512875  1
  Zr  Zr47  1  -0.01265679  0.59426668  0.00597020  1
  Zr  Zr48  1  0.80376411  0.20681970  -0.01902358  1
  Zr  Zr49  1  0.19956336  -0.00081688  0.74238053  1
  Zr  Zr50  1  0.49111687  0.50371413  0.63676274  1
  Zr  Zr51  1  0.90453046  0.29019954  0.12604796  1
  Zr  Zr52  1  0.40011291  0.20015557  0.74076668  1
  Zr  Zr53  1  0.39440936  0.80387999  0.26237527  1
  Zr  Zr54  1  0.30242602  0.30013011  0.38948167  1
  Zr  Zr55  1  0.51122457  0.70123110  0.62572175  1
  Zr  Zr56  1  0.39141724  0.01738127  -0.01039034  1
  Zr  Zr57  1  0.29319114  0.70643319  0.10977555  1
  Zr  Zr58  1  0.09416956  0.70036094  0.11673221  1
  Zr  Zr59  1  0.60638367  0.79264676  0.23759335  1
  Zr  Zr60  1  0.40248144  0.19475813  0.51611775  1
  Zr  Zr61  1  0.50678956  0.10993358  0.86396037  1
  Zr  Zr62  1  0.60828580  0.19019438  0.51997206  1
  Zr  Zr63  1  0.60577998  0.60248823  0.49625082  1
  Zr  Zr64  1  0.51417429  0.50325365  0.85793794  1
  Zr  Zr65  1  0.30467686  0.89862830  0.11047574  1
  Zr  Zr66  1  0.09659586  0.86818697  0.39108757  1
  Zr  Zr67  1  0.59924171  0.58590069  0.00834689  1
  Zr  Zr68  1  0.29872912  0.90028552  0.88092576  1
  Zr  Zr69  1  0.19670779  -0.01403061  0.26688298  1
  Zr  Zr70  1  0.41001458  0.40724368  -0.00912810  1
  Zr  Zr71  1  0.69197879  0.12436044  0.12611067  1
  Zr  Zr72  1  0.40124224  0.21897860  -0.00854386  1
  Zr  Zr73  1  0.07335442  0.50053008  0.86786989  1
  Zr  Zr74  1  0.82566209  0.79972588  0.01688817  1
  Zr  Zr75  1  0.18874246  0.39825437  0.74023226  1
  Zr  Zr76  1  0.40185732  0.80087544  0.48450940  1
  Zr  Zr77  1  0.79058010  0.00062818  -0.01624729  1
  Zr  Zr78  1  0.79050938  0.39709247  0.51382998  1
  Zr  Zr79  1  0.50243276  0.49356676  0.37622864  1
  Ta  Ta80  1  0.40086462  -0.00380433  0.25645765  1
  Ta  Ta81  1  0.69623836  0.71092480  0.88254941  1
  Ta  Ta82  1  0.61269398  -0.02136677  0.74980237  1
  Ta  Ta83  1  0.20687583  -0.00544143  0.49474892  1
  Ta  Ta84  1  -0.01014443  0.18965091  0.26847664  1
  Ta  Ta85  1  0.70292547  0.32138532  0.12136601  1
  Ta  Ta86  1  0.70654897  0.49456762  0.37530851  1
  Ta  Ta87  1  0.10149922  0.09515485  0.87100505  1
  Ta  Ta88  1  0.29549965  0.50265876  0.61988847  1
  Ta  Ta89  1  0.00192553  0.60278213  0.25022146  1
  Ta  Ta90  1  0.61768679  0.80456215  0.01529522  1
  Ta  Ta91  1  0.69467895  0.11623345  0.36789425  1
  Ta  Ta92  1  0.88836884  0.30366964  0.38141253  1
  Ta  Ta93  1  0.28942385  0.29226398  0.61259289  1
  Ta  Ta94  1  0.68527436  0.29380501  0.85704677  1
  Ta  Ta95  1  0.49674583  0.10109353  0.11875653  1
  Ta  Ta96  1  0.19330873  0.59706707  -0.00568030  1
  Ta  Ta97  1  0.19422889  0.59976150  0.24919078  1
  Ta  Ta98  1  0.49923183  0.70786260  0.89178381  1
  Ta  Ta99  1  0.30002743  0.09779259  0.37595503  1
  Ta  Ta100  1  -0.01197952  -0.01482673  0.26510819  1
  Ta  Ta101  1  0.69269199  0.09571903  0.86670375  1
  Ta  Ta102  1  0.08949729  0.29594599  0.61250360  1
  Ta  Ta103  1  0.90100596  0.29222294  0.62430825  1
  Ta  Ta104  1  0.90272348  0.50336054  0.61237279  1
  Ta  Ta105  1  0.79942399  0.18979901  0.50255318  1
  Ta  Ta106  1  0.20301201  0.20034707  0.75072016  1
  Ta  Ta107  1  0.60578807  0.38524202  -0.01136764  1
  Ta  Ta108  1  0.40310906  -0.00117109  0.74886362  1
  Ta  Ta109  1  0.78907331  0.22189077  0.25834478  1
  Ta  Ta110  1  0.90982267  0.69598495  0.87135773  1
  Ta  Ta111  1  0.19281338  0.60589005  0.74639614  1
  Ta  Ta112  1  0.19366415  0.40258272  0.51268424  1
  Ta  Ta113  1  0.70536375  0.70240253  0.38170834  1
  Ta  Ta114  1  0.88955462  0.90772262  0.62542546  1
  Ta  Ta115  1  0.50073336  0.09675811  0.37555096  1
  Ta  Ta116  1  0.09803176  0.29421485  0.86888381  1
  Ta  Ta117  1  0.27347642  0.70079768  0.38930797  1
  Ta  Ta118  1  -0.00796656  0.40072888  0.73505291  1
  Ta  Ta119  1  0.80931113  0.19533247  0.75859825  1
  Ti  Ti120  1  0.79339039  0.81879988  0.50525614  1
  Ti  Ti121  1  0.09150521  0.89627867  0.61659154  1
  Ti  Ti122  1  0.10343382  0.49383256  0.12697964  1
  Ti  Ti123  1  0.88332692  0.09416095  0.37165374  1
  Ti  Ti124  1  0.09904325  0.09770764  0.38323027  1
  Ti  Ti125  1  0.71658703  0.08069199  0.63666913  1
  Ti  Ti126  1  0.91228310  0.30622336  0.86547474  1
  Ti  Ti127  1  -0.01143544  0.19918773  0.49253423  1
  Ti  Ti128  1  0.00019407  0.00080707  0.74912940  1
  Ti  Ti129  1  0.09893287  0.29717781  0.12759363  1
  Ti  Ti130  1  0.39852551  0.59340773  0.49569874  1
  Ti  Ti131  1  0.30677887  0.30295073  0.12640326  1
  Ti  Ti132  1  0.51123461  0.09230663  0.63993143  1
  Ti  Ti133  1  0.00004795  0.19959148  -0.00949708  1
  Ti  Ti134  1  0.88599170  0.70546405  0.61309063  1
  Ti  Ti135  1  0.29647061  0.70730235  0.89137589  1
  Ti  Ti136  1  0.10404856  0.70987389  0.62655823  1
  Ti  Ti137  1  0.00423340  0.19795856  0.74882182  1
  Ti  Ti138  1  0.19869940  0.78975276  0.25414179  1
  Ti  Ti139  1  0.90432925  0.10253910  0.62653595  1
  Ti  Ti140  1  0.09756555  0.50449440  0.62029936  1
  Ti  Ti141  1  0.62170533  0.38417977  0.25364526  1
  Ti  Ti142  1  0.70336644  0.28304389  0.64199972  1
  Ti  Ti143  1  0.40642511  0.80777128  0.75930135  1
  Ti  Ti144  1  0.00049325  0.60487001  0.73605770  1
  Ti  Ti145  1  0.70000860  0.50697879  0.86052785  1
  Ti  Ti146  1  0.20203027  0.79105042  0.75206899  1
  Ti  Ti147  1  0.59883128  0.20155456  -0.00640948  1
  Ti  Ti148  1  0.50627080  0.69833961  0.37591876  1
  Ti  Ti149  1  0.59085186  0.38050135  0.73865385  1
  Ti  Ti150  1  0.00553984  0.79549945  0.24641862  1
  Ti  Ti151  1  -0.00816653  0.79700706  0.73712699  1
  Ti  Ti152  1  0.10035906  0.69837616  0.87465974  1
  Ti  Ti153  1  0.20537094  0.40308689  0.24481688  1
  Ti  Ti154  1  0.90038279  0.88349567  0.86972342  1
  Ti  Ti155  1  0.51139576  0.89850488  0.37456368  1
  Ti  Ti156  1  0.82209807  0.81556621  0.23729564  1
  Ti  Ti157  1  0.51671483  0.47171323  0.12527601  1
  Ti  Ti158  1  0.00128480  0.39155404  0.00088595  1
  Ti  Ti159  1  0.50127214  0.90729616  0.11046441  1
  Mo  Mo160  1  0.70258318  0.89518823  0.62396682  1
  Mo  Mo161  1  0.59293711  0.79473779  0.75934837  1
  Mo  Mo162  1  0.39396253  0.60050657  -0.01585865  1
  Mo  Mo163  1  0.18842645  0.00700763  -0.00840728  1
  Mo  Mo164  1  0.20013392  0.60147915  0.51238587  1
  Mo  Mo165  1  0.49945014  0.29860550  0.62594641  1
  Mo  Mo166  1  0.19522188  0.18937021  0.49590152  1
  Mo  Mo167  1  0.79829322  0.60922604  0.50159896  1
  Mo  Mo168  1  0.79947255  0.01374351  0.50334302  1
  Mo  Mo169  1  0.40869162  0.80176963  -0.00343453  1
  Mo  Mo170  1  -0.00532867  0.39914435  0.51222903  1
  Mo  Mo171  1  0.91791640  0.90523397  0.13180633  1
  Mo  Mo172  1  0.90478470  0.70192295  0.13811714  1
  Mo  Mo173  1  0.19319692  0.79663552  -0.01241046  1
  Mo  Mo174  1  0.19079417  0.79621415  0.50843075  1
  Mo  Mo175  1  0.91278859  0.10918831  0.86547774  1
  Mo  Mo176  1  -0.00984857  0.80402475  0.52341510  1
  Mo  Mo177  1  0.79966561  0.40730115  0.26060971  1
  Mo  Mo178  1  0.70041969  0.71657179  0.61064816  1
  Mo  Mo179  1  0.80432686  0.01625967  0.25394345  1
  Mo  Mo180  1  0.69779988  0.70624328  0.12757217  1
  Mo  Mo181  1  0.59972789  0.01033896  0.00785172  1
  Mo  Mo182  1  0.00007250  0.79396003  -0.00912280  1
  Mo  Mo183  1  0.39618214  0.40097270  0.51592481  1
  Mo  Mo184  1  0.50689263  0.30128732  0.86653927  1
  Mo  Mo185  1  0.70249835  0.89496982  0.88397080  1
  Mo  Mo186  1  0.60651266  0.80104174  0.48318636  1
  Mo  Mo187  1  0.29082928  0.29796824  0.86936347  1
  Mo  Mo188  1  0.52012554  0.28953359  0.12393107  1
  Mo  Mo189  1  0.30163290  0.90310873  0.37939573  1
  Mo  Mo190  1  0.09740512  0.69045241  0.37066104  1
  Mo  Mo191  1  0.89709412  0.90175299  0.37798443  1
  Mo  Mo192  1  0.59715061  0.20656477  0.24849353  1
  Mo  Mo193  1  0.29259352  0.10355687  0.86330328  1
  Mo  Mo194  1  0.89817679  0.50116098  0.86896509  1
  Mo  Mo195  1  0.70029520  0.49346272  0.12710411  1
  Mo  Mo196  1  0.30017456  0.09195476  0.62409550  1
  Mo  Mo197  1  0.70491437  0.30272638  0.38318066  1
  Mo  Mo198  1  0.61040178  0.18760526  0.73533750  1
  Mo  Mo199  1  0.60873366  0.62669667  0.75887338  1
