# generated using pymatgen
data_HfZrTaTiMo
_symmetry_space_group_name_H-M   'P 1'
_cell_length_a   15.20544073
_cell_length_b   15.20237571
_cell_length_c   16.80736085
_cell_angle_alpha   90.01811539
_cell_angle_beta   89.96142385
_cell_angle_gamma   89.83632912
_symmetry_Int_Tables_number   1
_chemical_formula_structural   HfZrTaTiMo
_chemical_formula_sum   'Hf40 Zr40 Ta40 Ti40 Mo40'
_cell_volume   3885.15281921
_cell_formula_units_Z   40
loop_
 _symmetry_equiv_pos_site_id
 _symmetry_equiv_pos_as_xyz
  1  'x, y, z'
loop_
 _atom_site_type_symbol
 _atom_site_label
 _atom_site_symmetry_multiplicity
 _atom_site_fract_x
 _atom_site_fract_y
 _atom_site_fract_z
 _atom_site_occupancy
  Hf  Hf0  1  0.49536659  0.69513026  0.62162603  1
  Hf  Hf1  1  0.59428179  0.40465510  0.75508384  1
  Hf  Hf2  1  0.09709988  0.28808231  0.12258731  1
  Hf  Hf3  1  0.68924531  0.90757381  0.13611448  1
  Hf  Hf4  1  0.37409248  0.40765392  0.51968038  1
  Hf  Hf5  1  0.60503261  0.20029362  0.50794737  1
  Hf  Hf6  1  0.20964274  -0.00970723  0.00871905  1
  Hf  Hf7  1  0.70208432  0.30208538  0.63907581  1
  Hf  Hf8  1  0.08689658  0.49775645  0.88944021  1
  Hf  Hf9  1  0.38748742  0.60056154  0.75373264  1
  Hf  Hf10  1  0.90514688  0.09880852  0.87640246  1
  Hf  Hf11  1  0.70238984  0.09250586  0.64210606  1
  Hf  Hf12  1  0.80520768  0.01570199  0.24050342  1
  Hf  Hf13  1  0.89968468  0.91232602  0.61171611  1
  Hf  Hf14  1  0.00612883  0.61022296  0.74499708  1
  Hf  Hf15  1  0.10436405  0.49894035  0.60837864  1
  Hf  Hf16  1  0.80419137  0.18098155  0.50019013  1
  Hf  Hf17  1  0.89630402  0.71783821  0.35422087  1
  Hf  Hf18  1  0.20163215  0.79386617  0.73942047  1
  Hf  Hf19  1  0.80150639  0.58618479  0.75857672  1
  Hf  Hf20  1  0.51710851  0.09715164  0.37152653  1
  Hf  Hf21  1  0.37915424  0.61427274  -0.00303245  1
  Hf  Hf22  1  0.59486433  0.60122165  0.76520131  1
  Hf  Hf23  1  0.48897552  0.49203234  0.89218206  1
  Hf  Hf24  1  0.51147075  0.08896744  0.11474303  1
  Hf  Hf25  1  0.48793368  0.71372735  0.88562720  1
  Hf  Hf26  1  0.69180376  0.67338714  0.38897036  1
  Hf  Hf27  1  0.77327554  0.60815302  0.23735704  1
  Hf  Hf28  1  0.68935319  0.29352243  0.36804157  1
  Hf  Hf29  1  0.40445571  0.80227062  0.24678294  1
  Hf  Hf30  1  0.29159820  0.30024015  0.37988747  1
  Hf  Hf31  1  0.49549051  0.29508461  0.12160386  1
  Hf  Hf32  1  0.01683278  0.00933144  0.25409950  1
  Hf  Hf33  1  0.48650835  0.10737265  0.88780407  1
  Hf  Hf34  1  0.79414890  0.40025319  0.01603618  1
  Hf  Hf35  1  0.09778930  0.89206537  0.88147941  1
  Hf  Hf36  1  0.70778195  0.89691425  0.87488220  1
  Hf  Hf37  1  0.90320847  0.70527371  0.61687661  1
  Hf  Hf38  1  0.90230290  0.30305370  0.62672917  1
  Hf  Hf39  1  0.89263484  0.50490144  0.60798100  1
  Zr  Zr40  1  0.22298543  0.19331817  -0.00818495  1
  Zr  Zr41  1  -0.00014571  0.40072002  0.24877998  1
  Zr  Zr42  1  0.01655434  0.00289211  0.75112418  1
  Zr  Zr43  1  0.21222577  -0.01868542  0.24224282  1
  Zr  Zr44  1  -0.00878582  0.41416195  0.74829718  1
  Zr  Zr45  1  0.79568975  0.01049259  0.00879354  1
  Zr  Zr46  1  0.30037046  0.68289213  0.36242863  1
  Zr  Zr47  1  0.69402257  0.89497425  0.35584470  1
  Zr  Zr48  1  0.10354444  0.70019713  0.35637529  1
  Zr  Zr49  1  0.59488920  0.80504286  0.75384657  1
  Zr  Zr50  1  0.38632904  0.40552485  0.25053589  1
  Zr  Zr51  1  0.90862631  0.71070314  0.87965288  1
  Zr  Zr52  1  0.40708630  -0.00652917  0.74820422  1
  Zr  Zr53  1  0.92186442  0.11797596  0.11905849  1
  Zr  Zr54  1  0.49196634  0.30045138  0.37260906  1
  Zr  Zr55  1  0.10679719  0.91095619  0.60491244  1
  Zr  Zr56  1  0.11287574  0.69477996  0.87974859  1
  Zr  Zr57  1  0.38856167  0.39975846  0.73818181  1
  Zr  Zr58  1  0.50908982  0.91233295  0.90102644  1
  Zr  Zr59  1  0.90044769  0.32556583  0.87178379  1
  Zr  Zr60  1  0.40416034  0.19852177  0.51298974  1
  Zr  Zr61  1  0.68672934  0.50650746  0.61698455  1
  Zr  Zr62  1  0.79634032  0.80893459  0.49014076  1
  Zr  Zr63  1  0.80438475  0.21178113  0.00081455  1
  Zr  Zr64  1  0.67326930  0.51551477  0.10838584  1
  Zr  Zr65  1  0.30841009  0.88191158  0.88363296  1
  Zr  Zr66  1  0.19421290  0.39228010  0.75221471  1
  Zr  Zr67  1  0.78538894  0.39790241  0.48923076  1
  Zr  Zr68  1  0.19277218  0.38935746  0.24757619  1
  Zr  Zr69  1  0.88805494  0.51470481  0.37436166  1
  Zr  Zr70  1  0.19841893  0.78503449  0.02398258  1
  Zr  Zr71  1  0.69793305  0.89891577  0.63275585  1
  Zr  Zr72  1  0.59180368  0.41914720  0.25162475  1
  Zr  Zr73  1  0.89757848  0.29386055  0.37184377  1
  Zr  Zr74  1  0.48265761  0.50058089  0.10268919  1
  Zr  Zr75  1  0.41298309  -0.00116962  0.25588000  1
  Zr  Zr76  1  0.91219006  0.10304983  0.63232697  1
  Zr  Zr77  1  0.79132329  0.40097326  0.23615891  1
  Zr  Zr78  1  0.81459359  0.80819084  0.01436226  1
  Zr  Zr79  1  0.70166106  0.69571380  0.61336247  1
  Ta  Ta80  1  0.61502560  -0.00160475  0.49624848  1
  Ta  Ta81  1  0.11259894  0.10624903  0.61653883  1
  Ta  Ta82  1  0.28437394  0.49968354  0.88878955  1
  Ta  Ta83  1  0.49835130  0.89442441  0.11035792  1
  Ta  Ta84  1  0.80592012  -0.00496015  0.75881891  1
  Ta  Ta85  1  0.11012423  0.90107248  0.38479409  1
  Ta  Ta86  1  0.48678166  0.51419077  0.38517474  1
  Ta  Ta87  1  0.29931696  0.08570800  0.61662802  1
  Ta  Ta88  1  0.09968971  0.29417364  0.61720628  1
  Ta  Ta89  1  0.20101539  0.18350117  0.25309364  1
  Ta  Ta90  1  0.28980034  0.48469175  0.10799190  1
  Ta  Ta91  1  0.69040626  0.09741620  0.86499004  1
  Ta  Ta92  1  0.61272336  0.19576886  0.00112393  1
  Ta  Ta93  1  0.11263274  0.09627855  0.87855485  1
  Ta  Ta94  1  0.20491370  0.18990440  0.75288413  1
  Ta  Ta95  1  0.20640314  0.78462416  0.49864786  1
  Ta  Ta96  1  0.57965520  0.40611636  0.50135172  1
  Ta  Ta97  1  0.90287305  0.71608049  0.14578399  1
  Ta  Ta98  1  0.30436068  0.69311613  0.14075899  1
  Ta  Ta99  1  0.20153715  0.58117677  0.23468217  1
  Ta  Ta100  1  0.00568834  0.19648383  0.49339781  1
  Ta  Ta101  1  0.90569783  0.92119437  0.37495694  1
  Ta  Ta102  1  0.80589932  0.20449350  0.76035507  1
  Ta  Ta103  1  0.39890809  0.79527472  0.49641938  1
  Ta  Ta104  1  0.01582034  0.21133456  -0.01751628  1
  Ta  Ta105  1  0.58680974  0.80737551  0.49546957  1
  Ta  Ta106  1  -0.00033214  0.62108867  0.02492966  1
  Ta  Ta107  1  0.30637417  0.89428476  0.61164422  1
  Ta  Ta108  1  0.39217255  0.19672721  0.73907905  1
  Ta  Ta109  1  0.00106422  0.80709540  0.74033159  1
  Ta  Ta110  1  0.79544909  0.61479280  0.01336784  1
  Ta  Ta111  1  0.49829953  0.70264766  0.37803683  1
  Ta  Ta112  1  0.00456154  0.61052264  0.48903310  1
  Ta  Ta113  1  0.30111501  0.09453887  0.38325499  1
  Ta  Ta114  1  0.00458434  0.80405870  0.48850754  1
  Ta  Ta115  1  0.89790854  0.51000902  0.12223939  1
  Ta  Ta116  1  0.41610085  -0.01008425  0.49388406  1
  Ta  Ta117  1  0.00478688  0.59687439  0.23745333  1
  Ta  Ta118  1  0.69438153  0.29904579  0.86575432  1
  Ta  Ta119  1  0.01727261  0.21011358  0.76248715  1
  Ti  Ti120  1  0.49651826  0.29551500  0.87816967  1
  Ti  Ti121  1  0.58892370  0.19457026  0.75184513  1
  Ti  Ti122  1  0.91602324  0.90375267  0.13780962  1
  Ti  Ti123  1  0.20511868  0.20187550  0.50344568  1
  Ti  Ti124  1  0.61223580  0.79017655  0.00607756  1
  Ti  Ti125  1  -0.00354580  0.40475822  0.01393557  1
  Ti  Ti126  1  0.21230486  -0.00284934  0.75109057  1
  Ti  Ti127  1  0.50253351  0.90329411  0.62234774  1
  Ti  Ti128  1  0.71471885  0.09578025  0.36800139  1
  Ti  Ti129  1  0.10691695  0.09535469  0.38834093  1
  Ti  Ti130  1  0.59821649  0.38527775  -0.00459493  1
  Ti  Ti131  1  0.00690715  0.20007854  0.25867065  1
  Ti  Ti132  1  0.80848121  0.79480545  0.75076228  1
  Ti  Ti133  1  0.10119087  0.29308100  0.38170779  1
  Ti  Ti134  1  0.90757188  0.89979069  0.87684437  1
  Ti  Ti135  1  0.38130910  0.60106725  0.50952860  1
  Ti  Ti136  1  0.00481936  -0.00370692  0.00426356  1
  Ti  Ti137  1  0.18498009  0.59316456  0.02164331  1
  Ti  Ti138  1  0.11519450  0.49854712  0.38361085  1
  Ti  Ti139  1  0.39439781  0.19679835  0.25133193  1
  Ti  Ti140  1  0.00156630  0.39829990  0.49044911  1
  Ti  Ti141  1  0.80533810  0.20997372  0.23207481  1
  Ti  Ti142  1  0.10741088  0.69817772  0.61356640  1
  Ti  Ti143  1  0.49937603  0.30244691  0.63019604  1
  Ti  Ti144  1  0.70209137  0.49753433  0.88887239  1
  Ti  Ti145  1  0.30293305  0.89310871  0.38336858  1
  Ti  Ti146  1  0.40904072  0.59273816  0.24261035  1
  Ti  Ti147  1  0.89479781  0.51742950  0.89750610  1
  Ti  Ti148  1  0.31484572  0.09803757  0.12503902  1
  Ti  Ti149  1  0.39292374  0.79537619  0.74252190  1
  Ti  Ti150  1  0.11169584  0.09664492  0.11881512  1
  Ti  Ti151  1  0.30230963  0.28916189  0.12239919  1
  Ti  Ti152  1  0.51228261  0.69446729  0.11544626  1
  Ti  Ti153  1  0.60181649  0.78237819  0.24559468  1
  Ti  Ti154  1  0.19124924  0.38716209  -0.00224548  1
  Ti  Ti155  1  0.30923261  0.29279373  0.87550863  1
  Ti  Ti156  1  0.70626150  0.69745029  0.88202932  1
  Ti  Ti157  1  0.50614117  0.09078039  0.62677814  1
  Ti  Ti158  1  0.61240128  0.18823763  0.23704582  1
  Ti  Ti159  1  0.20211847  0.59480952  0.74695743  1
  Mo  Mo160  1  0.60053757  0.00657964  0.75296355  1
  Mo  Mo161  1  0.50072608  0.89328978  0.37791673  1
  Mo  Mo162  1  0.60118028  0.60641934  -0.02023041  1
  Mo  Mo163  1  0.60117283  -0.00155133  0.25268282  1
  Mo  Mo164  1  0.69402327  0.71097871  0.12358400  1
  Mo  Mo165  1  0.79047427  0.40745244  0.75825057  1
  Mo  Mo166  1  0.00927188  0.81692727  0.25718190  1
  Mo  Mo167  1  0.29354182  0.70082320  0.62016908  1
  Mo  Mo168  1  0.81025937  0.60107670  0.49205969  1
  Mo  Mo169  1  0.57425919  0.59744891  0.50318337  1
  Mo  Mo170  1  0.90723023  0.30766959  0.12478937  1
  Mo  Mo171  1  0.18934089  0.39191800  0.49812473  1
  Mo  Mo172  1  0.29150475  0.69201955  0.87477566  1
  Mo  Mo173  1  0.00197869  0.00959325  0.48665596  1
  Mo  Mo174  1  0.60931191  0.00163685  -0.00007930  1
  Mo  Mo175  1  0.39237675  0.00504701  0.00801096  1
  Mo  Mo176  1  0.09517555  0.49566817  0.11585335  1
  Mo  Mo177  1  0.00285402  0.81085434  0.01421755  1
  Mo  Mo178  1  0.29535855  0.50233529  0.37629775  1
  Mo  Mo179  1  0.09864921  0.70345061  0.14775059  1
  Mo  Mo180  1  0.79809491  0.00591667  0.49051512  1
  Mo  Mo181  1  0.28730495  0.50972005  0.62688075  1
  Mo  Mo182  1  0.67859404  0.49460896  0.38187795  1
  Mo  Mo183  1  0.20341054  0.79738314  0.23944984  1
  Mo  Mo184  1  0.49282452  0.50136201  0.62309315  1
  Mo  Mo185  1  0.68949987  0.29766101  0.12623746  1
  Mo  Mo186  1  0.10780250  0.30169967  0.87913867  1
  Mo  Mo187  1  0.28299579  0.28299092  0.62632366  1
  Mo  Mo188  1  0.90524162  0.10579466  0.36738931  1
  Mo  Mo189  1  0.20040412  0.59244955  0.49449765  1
  Mo  Mo190  1  0.40569955  0.20330974  0.00142610  1
  Mo  Mo191  1  0.80285726  0.80861579  0.24446425  1
  Mo  Mo192  1  0.39645256  0.80032379  0.01999232  1
  Mo  Mo193  1  0.57951655  0.60927688  0.25046968  1
  Mo  Mo194  1  0.21397510  0.00004720  0.49282393  1
  Mo  Mo195  1  0.09336422  0.90114482  0.12326818  1
  Mo  Mo196  1  0.31099068  0.89772141  0.12290595  1
  Mo  Mo197  1  0.70135102  0.11008118  0.12765520  1
  Mo  Mo198  1  0.30153734  0.09277893  0.86639645  1
  Mo  Mo199  1  0.38280293  0.38395556  -0.00771342  1
