# generated using pymatgen
data_HfZrTaTiMo
_symmetry_space_group_name_H-M   'P 1'
_cell_length_a   15.22506757
_cell_length_b   15.21493696
_cell_length_c   16.82145257
_cell_angle_alpha   89.95089559
_cell_angle_beta   90.02435749
_cell_angle_gamma   89.93764881
_symmetry_Int_Tables_number   1
_chemical_formula_structural   HfZrTaTiMo
_chemical_formula_sum   'Hf40 Zr40 Ta40 Ti40 Mo40'
_cell_volume   3896.65921157
_cell_formula_units_Z   40
loop_
 _symmetry_equiv_pos_site_id
 _symmetry_equiv_pos_as_xyz
  1  'x, y, z'
loop_
 _atom_site_type_symbol
 _atom_site_label
 _atom_site_symmetry_multiplicity
 _atom_site_fract_x
 _atom_site_fract_y
 _atom_site_fract_z
 _atom_site_occupancy
  Hf  Hf0  1  0.61934804  0.80741846  -0.00712536  1
  Hf  Hf1  1  0.30946022  0.09573246  0.87831972  1
  Hf  Hf2  1  0.61407587  0.60870440  -0.00739498  1
  Hf  Hf3  1  0.09765671  0.71179967  0.12293528  1
  Hf  Hf4  1  0.28010543  0.70265257  0.89287391  1
  Hf  Hf5  1  0.60350098  0.18731028  0.00294951  1
  Hf  Hf6  1  0.28771285  0.28528193  0.11344465  1
  Hf  Hf7  1  0.10303947  0.10530383  0.12496392  1
  Hf  Hf8  1  0.58181341  0.39590878  0.75164225  1
  Hf  Hf9  1  0.70871755  0.50027520  0.85883186  1
  Hf  Hf10  1  0.19202055  0.60813448  0.74753502  1
  Hf  Hf11  1  0.10092506  0.09585665  0.37854354  1
  Hf  Hf12  1  0.51185693  0.70352378  0.12207989  1
  Hf  Hf13  1  0.09523317  0.08924725  0.87306662  1
  Hf  Hf14  1  0.22280680  0.40082222  0.75416390  1
  Hf  Hf15  1  0.29122482  0.49816942  0.11140883  1
  Hf  Hf16  1  0.10471494  0.89380224  0.39089977  1
  Hf  Hf17  1  0.81224996  0.79055251  0.25259856  1
  Hf  Hf18  1  0.51109022  0.68927399  0.38455849  1
  Hf  Hf19  1  0.69494538  0.70513175  0.62769441  1
  Hf  Hf20  1  0.61225381  -0.00321755  0.24511537  1
  Hf  Hf21  1  0.49604797  0.49908957  0.10888019  1
  Hf  Hf22  1  -0.00553350  0.20990536  0.50974841  1
  Hf  Hf23  1  0.50007285  0.89322933  0.36500496  1
  Hf  Hf24  1  0.50040408  0.91235463  0.87665577  1
  Hf  Hf25  1  -0.00004058  0.57492109  0.51670984  1
  Hf  Hf26  1  -0.00839126  0.60982565  0.00225464  1
  Hf  Hf27  1  0.39883138  0.59902162  0.25354183  1
  Hf  Hf28  1  0.80146312  0.81716165  0.73931859  1
  Hf  Hf29  1  0.70829918  0.49959023  0.63313777  1
  Hf  Hf30  1  0.50635237  0.28129823  0.61403447  1
  Hf  Hf31  1  0.49398596  0.49813017  0.88783476  1
  Hf  Hf32  1  0.90310571  0.30385581  0.86170310  1
  Hf  Hf33  1  0.20250095  0.20440237  0.50057061  1
  Hf  Hf34  1  0.59357689  0.39583448  0.25864579  1
  Hf  Hf35  1  0.70894437  0.28555396  0.86408828  1
  Hf  Hf36  1  0.70015852  0.11112265  0.36907757  1
  Hf  Hf37  1  0.48812121  0.29335363  0.88859517  1
  Hf  Hf38  1  0.89975925  0.50365224  0.36676430  1
  Hf  Hf39  1  0.09443795  0.50393944  0.13131646  1
  Zr  Zr40  1  -0.00957882  0.18439601  0.73677457  1
  Zr  Zr41  1  0.90403631  0.50791131  0.86107383  1
  Zr  Zr42  1  0.89708498  0.90228453  0.38039251  1
  Zr  Zr43  1  0.30467871  0.49881244  0.90323912  1
  Zr  Zr44  1  0.60973633  0.59632070  0.25143681  1
  Zr  Zr45  1  0.39605388  0.58749803  0.74699505  1
  Zr  Zr46  1  0.29925251  0.69914477  0.11175599  1
  Zr  Zr47  1  0.29602267  0.50362391  0.60805918  1
  Zr  Zr48  1  0.69599448  0.29502209  0.13404714  1
  Zr  Zr49  1  0.89702297  0.29390593  0.13654981  1
  Zr  Zr50  1  0.89219206  0.09850998  0.87807290  1
  Zr  Zr51  1  0.20450331  0.81435882  0.24990982  1
  Zr  Zr52  1  0.37743528  0.19576603  0.24665684  1
  Zr  Zr53  1  0.28900709  0.90391397  0.61553678  1
  Zr  Zr54  1  -0.00346963  0.78215929  0.74781792  1
  Zr  Zr55  1  0.10395252  0.50545543  0.88085311  1
  Zr  Zr56  1  0.61175698  0.39513891  -0.00573322  1
  Zr  Zr57  1  0.90021278  0.10012162  0.38065005  1
  Zr  Zr58  1  0.49152721  0.70221862  0.87449034  1
  Zr  Zr59  1  0.10426968  0.30605965  0.63619567  1
  Zr  Zr60  1  0.58540115  -0.00396101  0.50112460  1
  Zr  Zr61  1  0.50316786  0.49508694  0.60685443  1
  Zr  Zr62  1  0.00062125  -0.02264578  0.73047902  1
  Zr  Zr63  1  0.62061171  0.38404111  0.49181002  1
  Zr  Zr64  1  0.39089264  0.40253983  0.25407806  1
  Zr  Zr65  1  0.60778359  -0.00239363  0.01500236  1
  Zr  Zr66  1  0.40022738  0.21311289  0.75083574  1
  Zr  Zr67  1  0.49224471  0.09305704  0.36212309  1
  Zr  Zr68  1  0.81816952  0.79230190  0.01179695  1
  Zr  Zr69  1  0.30262798  0.91997536  0.39077321  1
  Zr  Zr70  1  0.80307250  0.61400902  0.50239907  1
  Zr  Zr71  1  0.09464778  0.49971556  0.36048897  1
  Zr  Zr72  1  0.30063051  0.71573886  0.38147401  1
  Zr  Zr73  1  0.50332834  0.28687931  0.37810499  1
  Zr  Zr74  1  0.50017099  0.70258479  0.62560906  1
  Zr  Zr75  1  0.40134489  0.81639244  0.00275288  1
  Zr  Zr76  1  0.79975856  0.01740073  0.73050188  1
  Zr  Zr77  1  -0.00368446  0.78170154  0.50843737  1
  Zr  Zr78  1  0.30808100  0.10622582  0.62337786  1
  Zr  Zr79  1  0.17726050  0.40600400  0.49566619  1
  Ta  Ta80  1  0.60072343  -0.00349836  0.74281238  1
  Ta  Ta81  1  0.00131132  0.20787322  0.00042303  1
  Ta  Ta82  1  0.70468371  0.49863370  0.12457812  1
  Ta  Ta83  1  0.41017296  -0.00252671  0.74335908  1
  Ta  Ta84  1  0.81756616  0.00036695  0.23386975  1
  Ta  Ta85  1  0.61455487  0.79614102  0.25912575  1
  Ta  Ta86  1  0.68810651  0.11196276  0.61513420  1
  Ta  Ta87  1  0.88974469  0.50926776  0.13421890  1
  Ta  Ta88  1  0.19910218  0.19606936  0.75731147  1
  Ta  Ta89  1  0.38801223  -0.00753616  0.23478473  1
  Ta  Ta90  1  0.79152205  0.40766802  0.25702362  1
  Ta  Ta91  1  0.10996880  0.08932796  0.62288381  1
  Ta  Ta92  1  0.41446950  0.81316376  0.50893081  1
  Ta  Ta93  1  0.19220995  0.18996945  -0.00806394  1
  Ta  Ta94  1  0.70396960  0.29958558  0.63957227  1
  Ta  Ta95  1  0.89400671  0.29902062  0.36520338  1
  Ta  Ta96  1  0.29914787  0.50485853  0.38329894  1
  Ta  Ta97  1  0.89051635  0.89922282  0.87730089  1
  Ta  Ta98  1  0.29540463  0.29751085  0.89393735  1
  Ta  Ta99  1  0.59881957  0.81065922  0.75793030  1
  Ta  Ta100  1  0.78973696  0.21534326  0.50160708  1
  Ta  Ta101  1  0.18931376  0.61637016  0.49196588  1
  Ta  Ta102  1  0.80279185  0.59500054  -0.00271104  1
  Ta  Ta103  1  0.49131545  0.29578168  0.11828033  1
  Ta  Ta104  1  0.19775107  0.60657577  0.25818549  1
  Ta  Ta105  1  0.01127822  0.80952381  -0.01542737  1
  Ta  Ta106  1  0.72277549  0.70952176  0.86388662  1
  Ta  Ta107  1  0.80839090  -0.00541685  0.02036783  1
  Ta  Ta108  1  0.89085341  0.30879578  0.63702161  1
  Ta  Ta109  1  0.69749299  0.51070998  0.38375730  1
  Ta  Ta110  1  0.19148850  0.80908171  0.75468672  1
  Ta  Ta111  1  -0.00467112  -0.00498780  0.52085317  1
  Ta  Ta112  1  0.09861190  0.29823233  0.86937083  1
  Ta  Ta113  1  -0.00712906  0.39897345  0.00551936  1
  Ta  Ta114  1  0.80715826  0.39924918  0.00011419  1
  Ta  Ta115  1  0.80607574  0.19337226  0.00368868  1
  Ta  Ta116  1  0.49812241  0.10477868  0.13638689  1
  Ta  Ta117  1  0.50404045  0.89816604  0.13515693  1
  Ta  Ta118  1  0.81924271  0.40423517  0.50131614  1
  Ta  Ta119  1  0.60202308  0.18265405  0.75380090  1
  Ti  Ti120  1  0.71318616  0.10610370  0.13674919  1
  Ti  Ti121  1  0.68717513  0.90155886  0.61796487  1
  Ti  Ti122  1  0.79740480  0.80864079  0.49645238  1
  Ti  Ti123  1  0.29672304  0.70867925  0.61657269  1
  Ti  Ti124  1  0.20355716  0.01667468  0.24633887  1
  Ti  Ti125  1  0.82127585  0.61347739  0.73893616  1
  Ti  Ti126  1  0.61307240  0.79662042  0.48805278  1
  Ti  Ti127  1  0.19605996  -0.01036571  -0.00406583  1
  Ti  Ti128  1  0.79285283  0.00334097  0.50702683  1
  Ti  Ti129  1  0.29245975  0.90517234  0.11892078  1
  Ti  Ti130  1  -0.00484275  0.18877076  0.24875522  1
  Ti  Ti131  1  0.00431422  0.80158903  0.25564166  1
  Ti  Ti132  1  -0.00459544  -0.00010927  0.00513396  1
  Ti  Ti133  1  0.40081170  0.01313338  0.01769908  1
  Ti  Ti134  1  0.40339725  0.79863321  0.24299889  1
  Ti  Ti135  1  0.09624098  0.29870163  0.13216203  1
  Ti  Ti136  1  0.71874299  0.68738794  0.13063846  1
  Ti  Ti137  1  0.70194216  0.07871315  0.87827495  1
  Ti  Ti138  1  0.39698147  0.60696290  0.49875171  1
  Ti  Ti139  1  0.60138082  0.60975267  0.75775212  1
  Ti  Ti140  1  0.39174991  0.80434112  0.74720930  1
  Ti  Ti141  1  0.00829656  0.41525957  0.74222074  1
  Ti  Ti142  1  0.28687682  0.29892739  0.37341747  1
  Ti  Ti143  1  -0.00452816  0.39778798  0.24427524  1
  Ti  Ti144  1  0.10725752  0.70160856  0.62320125  1
  Ti  Ti145  1  0.00450478  -0.00829665  0.24348176  1
  Ti  Ti146  1  0.29519202  0.10356367  0.38122435  1
  Ti  Ti147  1  0.49780101  0.49674682  0.39299397  1
  Ti  Ti148  1  0.18000500  0.38975685  0.00306081  1
  Ti  Ti149  1  0.09946554  0.90534458  0.12089097  1
  Ti  Ti150  1  0.29560135  0.90276965  0.87394233  1
  Ti  Ti151  1  0.08947635  0.29656782  0.36502390  1
  Ti  Ti152  1  0.50222277  0.09834561  0.87822067  1
  Ti  Ti153  1  0.39082874  0.38899270  0.48930320  1
  Ti  Ti154  1  0.40996749  0.18532014  0.49740941  1
  Ti  Ti155  1  0.70852736  0.88897946  0.13297157  1
  Ti  Ti156  1  0.19951475  0.39451271  0.25133848  1
  Ti  Ti157  1  -0.01273773  0.61769802  0.24771301  1
  Ti  Ti158  1  0.30765251  0.30504195  0.62134035  1
  Ti  Ti159  1  0.20223237  -0.00313726  0.75195458  1
  Mo  Mo160  1  0.79220719  0.19665683  0.74404457  1
  Mo  Mo161  1  0.90693366  0.69880637  0.12854961  1
  Mo  Mo162  1  0.90745488  0.09715488  0.12263076  1
  Mo  Mo163  1  0.39372860  0.38856697  0.01005759  1
  Mo  Mo164  1  0.39843662  0.39493901  0.75021448  1
  Mo  Mo165  1  0.88616490  0.89589139  0.60768814  1
  Mo  Mo166  1  0.90159573  0.49481260  0.63791342  1
  Mo  Mo167  1  0.18642604  0.20495573  0.25699643  1
  Mo  Mo168  1  0.10459610  0.89944549  0.87413313  1
  Mo  Mo169  1  0.40297123  0.60433331  0.00655687  1
  Mo  Mo170  1  0.50223409  0.09253552  0.62672400  1
  Mo  Mo171  1  0.39963110  0.00376524  0.50286798  1
  Mo  Mo172  1  0.20104247  0.79545521  0.50383575  1
  Mo  Mo173  1  0.29093881  0.09041986  0.11628068  1
  Mo  Mo174  1  0.89947664  0.70178273  0.87260698  1
  Mo  Mo175  1  0.39916956  0.18753823  0.00655056  1
  Mo  Mo176  1  0.60647480  0.19449948  0.49964808  1
  Mo  Mo177  1  -0.00982980  0.38735584  0.49907874  1
  Mo  Mo178  1  0.10346814  0.50518296  0.62997618  1
  Mo  Mo179  1  0.10267286  0.89323743  0.61787103  1
  Mo  Mo180  1  0.79884875  0.59931142  0.25512667  1
  Mo  Mo181  1  0.79995004  0.40198228  0.74618038  1
  Mo  Mo182  1  0.70979677  0.90641626  0.87306141  1
  Mo  Mo183  1  0.89212066  0.69879406  0.62185152  1
  Mo  Mo184  1  0.18615927  0.60416001  0.00538516  1
  Mo  Mo185  1  0.59727684  0.19966498  0.23856420  1
  Mo  Mo186  1  0.92192292  0.89652943  0.12851707  1
  Mo  Mo187  1  0.60267255  0.60048028  0.49749302  1
  Mo  Mo188  1  0.49927551  0.89440902  0.63240919  1
  Mo  Mo189  1  0.09440157  0.70217122  0.87593005  1
  Mo  Mo190  1  0.71175408  0.30248534  0.36721729  1
  Mo  Mo191  1  0.91258909  0.69623177  0.37333000  1
  Mo  Mo192  1  0.00473840  0.59985087  0.73224884  1
  Mo  Mo193  1  0.09140226  0.69593702  0.37065137  1
  Mo  Mo194  1  0.19124013  0.00941449  0.50247672  1
  Mo  Mo195  1  0.19154073  0.81538997  -0.00423469  1
  Mo  Mo196  1  0.70716060  0.70847237  0.37831764  1
  Mo  Mo197  1  0.70616594  0.90336965  0.37329965  1
  Mo  Mo198  1  0.80181136  0.19572166  0.25286172  1
  Mo  Mo199  1  0.88975715  0.10628759  0.60622363  1
