# generated using pymatgen
data_HfZrTaTiMo
_symmetry_space_group_name_H-M   'P 1'
_cell_length_a   15.19005661
_cell_length_b   15.17476817
_cell_length_c   16.79770144
_cell_angle_alpha   89.94002182
_cell_angle_beta   90.00726481
_cell_angle_gamma   90.25050738
_symmetry_Int_Tables_number   1
_chemical_formula_structural   HfZrTaTiMo
_chemical_formula_sum   'Hf40 Zr40 Ta40 Ti40 Mo40'
_cell_volume   3871.92488142
_cell_formula_units_Z   40
loop_
 _symmetry_equiv_pos_site_id
 _symmetry_equiv_pos_as_xyz
  1  'x, y, z'
loop_
 _atom_site_type_symbol
 _atom_site_label
 _atom_site_symmetry_multiplicity
 _atom_site_fract_x
 _atom_site_fract_y
 _atom_site_fract_z
 _atom_site_occupancy
  Hf  Hf0  1  0.81418733  0.80983975  0.76916237  1
  Hf  Hf1  1  0.40345340  0.00557799  -0.01535355  1
  Hf  Hf2  1  0.71850250  0.70149119  0.63076538  1
  Hf  Hf3  1  0.50538809  0.51801084  0.85057976  1
  Hf  Hf4  1  0.00768371  0.21087866  0.49163322  1
  Hf  Hf5  1  0.00948101  0.39525336  -0.00380258  1
  Hf  Hf6  1  0.50185335  0.31685410  0.86045679  1
  Hf  Hf7  1  0.89060204  0.28984138  0.87307392  1
  Hf  Hf8  1  0.19014352  0.59597876  0.00684386  1
  Hf  Hf9  1  0.80460114  -0.01037783  0.25910555  1
  Hf  Hf10  1  0.87204785  0.69665761  0.11417280  1
  Hf  Hf11  1  0.50757927  0.10511859  0.12528482  1
  Hf  Hf12  1  0.09806242  0.68435065  0.38682547  1
  Hf  Hf13  1  0.10572623  0.10809702  0.63249614  1
  Hf  Hf14  1  0.50263975  0.91225934  0.85432277  1
  Hf  Hf15  1  0.01546216  0.79388613  0.01354522  1
  Hf  Hf16  1  0.39698358  0.20453209  -0.02148918  1
  Hf  Hf17  1  0.41117353  0.80734957  0.25482600  1
  Hf  Hf18  1  0.28885323  0.50592753  0.38087129  1
  Hf  Hf19  1  0.30520477  0.91205717  0.39528176  1
  Hf  Hf20  1  0.20711039  -0.00352137  0.25595774  1
  Hf  Hf21  1  0.00361640  0.19246270  -0.00486270  1
  Hf  Hf22  1  0.29597981  0.70729421  0.39446510  1
  Hf  Hf23  1  0.79920754  -0.01075008  0.48600574  1
  Hf  Hf24  1  0.49263014  0.30170643  0.12436780  1
  Hf  Hf25  1  0.69887275  0.30242951  0.12670135  1
  Hf  Hf26  1  0.68965865  0.48728608  0.64066095  1
  Hf  Hf27  1  0.71271420  0.10573633  0.88009135  1
  Hf  Hf28  1  0.40258643  0.60485365  -0.00383723  1
  Hf  Hf29  1  0.79968142  0.20050938  0.49307601  1
  Hf  Hf30  1  0.60067338  0.20672797  -0.01086743  1
  Hf  Hf31  1  0.18516879  0.37727298  0.49725576  1
  Hf  Hf32  1  0.09514585  0.89024646  0.87545243  1
  Hf  Hf33  1  0.60818421  -0.00510902  0.24828693  1
  Hf  Hf34  1  0.50282526  0.30768795  0.63962765  1
  Hf  Hf35  1  0.50998053  0.91737762  0.38864558  1
  Hf  Hf36  1  0.90206087  0.09638296  0.62362698  1
  Hf  Hf37  1  0.10482273  0.88824682  0.38970442  1
  Hf  Hf38  1  0.78642130  0.39792173  0.50248735  1
  Hf  Hf39  1  0.89288513  0.89076154  0.62528841  1
  Zr  Zr40  1  0.50937131  0.71310658  0.39047888  1
  Zr  Zr41  1  0.10849568  0.30593397  0.14018388  1
  Zr  Zr42  1  0.78563174  0.79598958  0.25090072  1
  Zr  Zr43  1  0.68430028  0.29616599  0.36844750  1
  Zr  Zr44  1  0.60070562  0.41762914  -0.00405900  1
  Zr  Zr45  1  0.61416345  0.80662359  0.74840011  1
  Zr  Zr46  1  0.50383724  0.11069783  0.65174708  1
  Zr  Zr47  1  0.50548457  0.90132094  0.12125083  1
  Zr  Zr48  1  0.00272812  0.60688691  0.74201784  1
  Zr  Zr49  1  0.08997799  0.48630923  0.62257527  1
  Zr  Zr50  1  0.59739479  0.79882823  -0.01858210  1
  Zr  Zr51  1  0.10179292  0.09111621  0.12899302  1
  Zr  Zr52  1  0.39592190  0.38856477  0.49950783  1
  Zr  Zr53  1  0.88925449  0.51411573  0.37514331  1
  Zr  Zr54  1  0.29068494  0.90339272  0.11683230  1
  Zr  Zr55  1  0.59867592  0.41017338  0.25083997  1
  Zr  Zr56  1  0.40896000  0.02916167  0.50911828  1
  Zr  Zr57  1  0.50712144  0.91801056  0.63729061  1
  Zr  Zr58  1  0.09494607  0.49526047  0.86782917  1
  Zr  Zr59  1  0.00008920  0.79394775  0.23750001  1
  Zr  Zr60  1  0.20869613  0.78586373  0.74541808  1
  Zr  Zr61  1  0.38987021  0.38692240  0.26772129  1
  Zr  Zr62  1  0.89961290  0.09897424  0.13208334  1
  Zr  Zr63  1  0.49583902  0.51125052  0.12965717  1
  Zr  Zr64  1  0.40585626  0.60108931  0.51247348  1
  Zr  Zr65  1  0.20123416  0.79478314  0.24830817  1
  Zr  Zr66  1  0.30549985  0.10649059  0.12046808  1
  Zr  Zr67  1  0.79829344  0.79926297  -0.02271914  1
  Zr  Zr68  1  0.10796825  0.90429990  0.61767597  1
  Zr  Zr69  1  0.29914681  0.50996426  0.86573680  1
  Zr  Zr70  1  0.90415955  0.30240610  0.13531714  1
  Zr  Zr71  1  0.21718133  0.20995229  0.26578534  1
  Zr  Zr72  1  0.08621587  0.48830483  0.36665587  1
  Zr  Zr73  1  -0.01947817  0.39724173  0.50300431  1
  Zr  Zr74  1  0.21373158  0.18118544  0.49152642  1
  Zr  Zr75  1  0.39753282  0.79707916  -0.00335833  1
  Zr  Zr76  1  0.70174326  0.69318453  0.39264127  1
  Zr  Zr77  1  0.28808340  0.49044854  0.13328137  1
  Zr  Zr78  1  -0.01212504  0.58817831  0.01228563  1
  Zr  Zr79  1  0.00337022  0.00414388  0.49087941  1
  Ta  Ta80  1  0.30045191  0.29935074  0.11708532  1
  Ta  Ta81  1  0.38952425  0.40336331  -0.00690545  1
  Ta  Ta82  1  0.60160614  0.61992120  0.25046044  1
  Ta  Ta83  1  0.90352301  0.10357271  0.36407032  1
  Ta  Ta84  1  0.80340202  0.59797237  0.76308154  1
  Ta  Ta85  1  0.78862168  0.19536185  0.25366523  1
  Ta  Ta86  1  0.90469527  0.90823145  0.11338035  1
  Ta  Ta87  1  0.29953217  0.09467697  0.64382698  1
  Ta  Ta88  1  0.30079797  0.89144060  0.86934923  1
  Ta  Ta89  1  0.48096086  0.70848339  0.85166056  1
  Ta  Ta90  1  0.80553821  0.40842582  -0.00533765  1
  Ta  Ta91  1  0.70147186  0.09505873  0.61974083  1
  Ta  Ta92  1  0.89380505  0.29650396  0.63449168  1
  Ta  Ta93  1  0.62463370  0.21693023  0.75462670  1
  Ta  Ta94  1  0.80001439  0.41088283  0.24799026  1
  Ta  Ta95  1  0.50515120  0.50570744  0.37724953  1
  Ta  Ta96  1  0.49628059  0.50451270  0.64061473  1
  Ta  Ta97  1  0.90150913  0.07668508  0.88149318  1
  Ta  Ta98  1  -0.00848625  0.79224192  0.50191403  1
  Ta  Ta99  1  0.90389189  0.30437697  0.35493969  1
  Ta  Ta100  1  0.92119205  0.69309986  0.87812671  1
  Ta  Ta101  1  0.30818070  0.69406321  0.13129804  1
  Ta  Ta102  1  0.50633967  0.10521881  0.85342896  1
  Ta  Ta103  1  0.00334590  -0.01250333  0.26012149  1
  Ta  Ta104  1  0.19951966  0.59707260  0.73831996  1
  Ta  Ta105  1  0.28393983  0.31117476  0.87059735  1
  Ta  Ta106  1  0.70713770  0.89406772  0.11406136  1
  Ta  Ta107  1  0.19624851  0.20742010  -0.01201539  1
  Ta  Ta108  1  0.38704464  0.20692106  0.76284009  1
  Ta  Ta109  1  0.79130474  0.59912279  0.24550820  1
  Ta  Ta110  1  0.10982035  0.69600210  0.60545089  1
  Ta  Ta111  1  0.39934684  0.60657972  0.26027572  1
  Ta  Ta112  1  -0.00840416  0.59283912  0.22711352  1
  Ta  Ta113  1  -0.00747602  -0.00776339  0.75360353  1
  Ta  Ta114  1  0.38483535  0.62051198  0.73005723  1
  Ta  Ta115  1  0.28967981  0.28741027  0.63255245  1
  Ta  Ta116  1  0.59001801  0.40092205  0.49929324  1
  Ta  Ta117  1  0.88441564  0.49924063  0.63899055  1
  Ta  Ta118  1  -0.01148751  0.39044948  0.75289258  1
  Ta  Ta119  1  0.29039555  0.49838637  0.61997087  1
  Ti  Ti120  1  0.70554989  0.51851756  0.11898024  1
  Ti  Ti121  1  0.78570721  0.37769290  0.75178889  1
  Ti  Ti122  1  0.29307929  0.09441321  0.86695183  1
  Ti  Ti123  1  0.32912643  0.11310986  0.37352352  1
  Ti  Ti124  1  0.79032326  0.59209532  -0.02376114  1
  Ti  Ti125  1  0.40657345  0.80808377  0.51818370  1
  Ti  Ti126  1  0.19102179  0.20223343  0.76229869  1
  Ti  Ti127  1  0.38215556  0.40778558  0.74215840  1
  Ti  Ti128  1  0.50962971  0.70527761  0.13005981  1
  Ti  Ti129  1  0.30239164  0.90421217  0.62457940  1
  Ti  Ti130  1  -0.00063418  0.19566123  0.75738915  1
  Ti  Ti131  1  0.51259168  0.12056097  0.36845572  1
  Ti  Ti132  1  0.80835492  0.79353865  0.49712572  1
  Ti  Ti133  1  0.80535719  0.18462168  0.74696022  1
  Ti  Ti134  1  -0.01215571  0.60048522  0.51322052  1
  Ti  Ti135  1  0.19125893  0.59839858  0.24239906  1
  Ti  Ti136  1  0.18709224  0.38990378  0.74073158  1
  Ti  Ti137  1  0.69499398  0.88896608  0.38028639  1
  Ti  Ti138  1  0.68683515  0.68635487  0.86028037  1
  Ti  Ti139  1  0.69285230  0.09519693  0.37823777  1
  Ti  Ti140  1  0.90310464  0.70293435  0.36981468  1
  Ti  Ti141  1  0.70338843  0.09487401  0.11955607  1
  Ti  Ti142  1  0.60327606  0.59503959  0.51506952  1
  Ti  Ti143  1  0.69283292  0.50541581  0.37826686  1
  Ti  Ti144  1  0.50550352  0.70765408  0.63324742  1
  Ti  Ti145  1  0.80095774  0.20145078  0.00523008  1
  Ti  Ti146  1  0.61107311  0.00005293  -0.00908076  1
  Ti  Ti147  1  0.58912190  0.20141276  0.50640336  1
  Ti  Ti148  1  0.60072899  0.61070346  -0.00456259  1
  Ti  Ti149  1  0.69957139  0.48782384  0.85880231  1
  Ti  Ti150  1  0.09679508  0.09496471  0.87328767  1
  Ti  Ti151  1  0.80449559  0.59759926  0.51119875  1
  Ti  Ti152  1  0.00795289  0.79435233  0.74603880  1
  Ti  Ti153  1  0.61377076  0.81921239  0.52170436  1
  Ti  Ti154  1  0.20414414  0.78765071  -0.00163677  1
  Ti  Ti155  1  0.10511755  0.09760151  0.36902947  1
  Ti  Ti156  1  0.63701645  0.00498660  0.75394249  1
  Ti  Ti157  1  0.40520495  0.00903779  0.25272477  1
  Ti  Ti158  1  0.19044024  -0.00383314  -0.00662325  1
  Ti  Ti159  1  0.19501062  -0.00490284  0.75656095  1
  Mo  Mo160  1  0.09229971  0.49285281  0.13525916  1
  Mo  Mo161  1  0.80833628  0.00176446  0.74879595  1
  Mo  Mo162  1  0.91162331  0.89745907  0.88131097  1
  Mo  Mo163  1  0.09666806  0.29163424  0.86611860  1
  Mo  Mo164  1  0.19725369  0.40475321  0.26094585  1
  Mo  Mo165  1  0.59966814  0.60784422  0.74203342  1
  Mo  Mo166  1  0.39716715  0.80639774  0.73866137  1
  Mo  Mo167  1  0.29261705  0.70012214  0.87148985  1
  Mo  Mo168  1  0.09381303  0.29283563  0.36002866  1
  Mo  Mo169  1  0.88873051  0.49286956  0.86216282  1
  Mo  Mo170  1  0.88236648  0.49458260  0.12255103  1
  Mo  Mo171  1  0.61179088  0.01321370  0.49938589  1
  Mo  Mo172  1  0.10596792  0.69468960  0.87439381  1
  Mo  Mo173  1  0.49611860  0.29137369  0.38097582  1
  Mo  Mo174  1  0.20796694  0.00233527  0.50194261  1
  Mo  Mo175  1  0.70884566  0.90744805  0.62012843  1
  Mo  Mo176  1  0.69927886  0.28621282  0.62046319  1
  Mo  Mo177  1  0.09176975  0.28790582  0.63773573  1
  Mo  Mo178  1  0.40583219  0.20720790  0.51146519  1
  Mo  Mo179  1  0.09920708  0.90337957  0.12038527  1
  Mo  Mo180  1  0.68594556  0.69835619  0.11564390  1
  Mo  Mo181  1  0.41170349  0.19666625  0.24969826  1
  Mo  Mo182  1  0.59859373  0.40139071  0.75172030  1
  Mo  Mo183  1  0.90379976  0.88935880  0.37602134  1
  Mo  Mo184  1  0.90545743  0.69605737  0.62634716  1
  Mo  Mo185  1  0.71154466  0.91538507  0.88191834  1
  Mo  Mo186  1  0.11397591  0.69306764  0.12888548  1
  Mo  Mo187  1  0.30139294  0.70556298  0.60761921  1
  Mo  Mo188  1  0.60294778  0.80291941  0.25032517  1
  Mo  Mo189  1  0.38239387  0.00466185  0.75960960  1
  Mo  Mo190  1  0.00195622  0.19221731  0.26196181  1
  Mo  Mo191  1  0.60487674  0.19319747  0.24507462  1
  Mo  Mo192  1  0.30256330  0.29798565  0.38259030  1
  Mo  Mo193  1  0.00467632  -0.00418596  -0.00343102  1
  Mo  Mo194  1  0.20634668  0.80095678  0.50925454  1
  Mo  Mo195  1  -0.00596560  0.40440620  0.24513545  1
  Mo  Mo196  1  0.80094724  0.00175517  0.00704455  1
  Mo  Mo197  1  0.20254963  0.39180940  -0.00239848  1
  Mo  Mo198  1  0.19390216  0.58925314  0.50718188  1
  Mo  Mo199  1  0.70731264  0.30385104  0.88286194  1
