# generated using pymatgen
data_HfZrTaTiMo
_symmetry_space_group_name_H-M   'P 1'
_cell_length_a   15.21630048
_cell_length_b   15.20870803
_cell_length_c   16.83919260
_cell_angle_alpha   89.99054277
_cell_angle_beta   90.02861014
_cell_angle_gamma   89.95828835
_symmetry_Int_Tables_number   1
_chemical_formula_structural   HfZrTaTiMo
_chemical_formula_sum   'Hf40 Zr40 Ta40 Ti40 Mo40'
_cell_volume   3896.92894783
_cell_formula_units_Z   40
loop_
 _symmetry_equiv_pos_site_id
 _symmetry_equiv_pos_as_xyz
  1  'x, y, z'
loop_
 _atom_site_type_symbol
 _atom_site_label
 _atom_site_symmetry_multiplicity
 _atom_site_fract_x
 _atom_site_fract_y
 _atom_site_fract_z
 _atom_site_occupancy
  Hf  Hf0  1  0.08157327  0.70214651  0.35806375  1
  Hf  Hf1  1  0.39855208  0.80878894  0.26297226  1
  Hf  Hf2  1  0.49284228  0.91787841  0.88259972  1
  Hf  Hf3  1  0.50746138  0.91164682  0.12013888  1
  Hf  Hf4  1  0.39232945  0.80781273  0.48091820  1
  Hf  Hf5  1  0.81490209  0.40093716  0.49248281  1
  Hf  Hf6  1  0.51344501  0.50165213  0.39005089  1
  Hf  Hf7  1  0.51384305  0.09390637  0.37426784  1
  Hf  Hf8  1  0.50955692  0.69437321  0.36543218  1
  Hf  Hf9  1  0.40921713  0.61496624  0.51352019  1
  Hf  Hf10  1  0.69932807  0.70680184  0.63579329  1
  Hf  Hf11  1  -0.01343503  0.00564335  0.00076063  1
  Hf  Hf12  1  0.10179246  0.88269648  0.62187732  1
  Hf  Hf13  1  0.30077415  0.49221451  0.38023423  1
  Hf  Hf14  1  0.91384385  0.26825853  0.11834019  1
  Hf  Hf15  1  0.71377223  0.30517610  0.11164398  1
  Hf  Hf16  1  0.50085275  0.71181560  0.12333452  1
  Hf  Hf17  1  0.00858441  0.38799712  0.23322217  1
  Hf  Hf18  1  0.38975703  0.20694002  0.26310104  1
  Hf  Hf19  1  0.88846836  0.10301122  0.62335210  1
  Hf  Hf20  1  0.89161306  0.72544272  0.13166185  1
  Hf  Hf21  1  0.59812483  0.00566020  0.74916319  1
  Hf  Hf22  1  0.71292177  0.89437649  0.11612743  1
  Hf  Hf23  1  0.29997557  0.91617897  0.61537680  1
  Hf  Hf24  1  0.91234779  0.30903052  0.63840327  1
  Hf  Hf25  1  0.80962832  0.19147674  0.25983866  1
  Hf  Hf26  1  0.80937610  0.79623184  -0.02040923  1
  Hf  Hf27  1  0.60259054  0.78416235  0.50186920  1
  Hf  Hf28  1  0.40502230  0.58563965  0.24076354  1
  Hf  Hf29  1  0.09775927  0.28622712  0.37207090  1
  Hf  Hf30  1  0.78634013  0.60007225  0.23146005  1
  Hf  Hf31  1  0.09464179  0.09302406  0.87125309  1
  Hf  Hf32  1  0.61136144  0.39592596  0.75818536  1
  Hf  Hf33  1  0.50438544  0.30389072  0.38529977  1
  Hf  Hf34  1  0.19393090  0.58566982  0.23323299  1
  Hf  Hf35  1  0.79212704  -0.00385804  0.75276891  1
  Hf  Hf36  1  0.88851431  0.70901894  0.35898603  1
  Hf  Hf37  1  0.38451530  0.18930968  0.49286937  1
  Hf  Hf38  1  0.20087775  -0.01934843  0.75292407  1
  Hf  Hf39  1  -0.00246619  0.00125748  0.73831441  1
  Zr  Zr40  1  0.28960201  0.69102088  0.36986922  1
  Zr  Zr41  1  0.62498435  0.17835597  0.49694410  1
  Zr  Zr42  1  0.09604924  0.70737576  0.12945520  1
  Zr  Zr43  1  0.29960718  0.70865875  0.12961055  1
  Zr  Zr44  1  0.08519512  0.10761561  0.12505518  1
  Zr  Zr45  1  0.28271780  0.71891333  0.61893909  1
  Zr  Zr46  1  0.10141663  0.49457216  0.88808530  1
  Zr  Zr47  1  0.80996777  0.59961401  0.77173001  1
  Zr  Zr48  1  0.58951618  0.60204280  0.00474264  1
  Zr  Zr49  1  0.59840506  0.60067945  0.75619438  1
  Zr  Zr50  1  0.60610284  0.40534444  0.24957501  1
  Zr  Zr51  1  0.10711177  0.29384749  0.87410725  1
  Zr  Zr52  1  0.39530863  0.60811738  0.73432010  1
  Zr  Zr53  1  0.71491249  0.49475781  0.62215678  1
  Zr  Zr54  1  0.20660324  0.19474276  0.00413416  1
  Zr  Zr55  1  0.10640030  0.49178322  0.37211050  1
  Zr  Zr56  1  0.50719429  0.30837071  0.12726221  1
  Zr  Zr57  1  0.39359958  0.40337654  0.50794175  1
  Zr  Zr58  1  0.70556339  0.29745146  0.88737047  1
  Zr  Zr59  1  0.30604555  0.09980199  0.87335298  1
  Zr  Zr60  1  0.39169687  0.00207874  0.25921085  1
  Zr  Zr61  1  0.80433891  0.39541261  0.25839195  1
  Zr  Zr62  1  0.79199661  0.58934494  -0.00353536  1
  Zr  Zr63  1  0.49859897  0.88669592  0.62243442  1
  Zr  Zr64  1  0.11355266  0.69973106  0.88286668  1
  Zr  Zr65  1  0.90631765  0.90324107  0.38459256  1
  Zr  Zr66  1  0.00637602  0.79250435  0.76053756  1
  Zr  Zr67  1  0.28184220  0.28976301  0.61552250  1
  Zr  Zr68  1  0.39142501  0.41524132  0.00496836  1
  Zr  Zr69  1  0.79025979  0.20278533  0.75376725  1
  Zr  Zr70  1  0.69948324  0.09959843  0.11599784  1
  Zr  Zr71  1  0.20215094  0.40547081  0.75027619  1
  Zr  Zr72  1  0.90486239  0.50560853  0.36803925  1
  Zr  Zr73  1  0.48145375  0.50492620  0.87445024  1
  Zr  Zr74  1  0.29324215  0.90879203  0.12244787  1
  Zr  Zr75  1  0.49440710  0.09010241  0.61495477  1
  Zr  Zr76  1  0.51109801  0.29783925  0.61047878  1
  Zr  Zr77  1  0.49414992  0.10939288  0.13167300  1
  Zr  Zr78  1  0.40549791  0.39409834  0.73963222  1
  Zr  Zr79  1  0.00267583  0.59435201  0.50140039  1
  Ta  Ta80  1  0.80532699  -0.00991286  0.25192700  1
  Ta  Ta81  1  0.18849740  0.82272141  0.26629755  1
  Ta  Ta82  1  0.39107921  0.01419593  0.00519339  1
  Ta  Ta83  1  0.00433915  -0.00104069  0.51259297  1
  Ta  Ta84  1  0.49220577  0.71509547  0.87928802  1
  Ta  Ta85  1  0.29004154  0.88895229  0.88386746  1
  Ta  Ta86  1  0.70576855  0.89513216  0.38425868  1
  Ta  Ta87  1  0.60322276  0.80655183  -0.00576399  1
  Ta  Ta88  1  0.60340874  0.59840649  0.23178967  1
  Ta  Ta89  1  0.58665557  0.20067891  0.75215055  1
  Ta  Ta90  1  0.27598100  0.10536430  0.37464043  1
  Ta  Ta91  1  0.19687938  0.60399322  0.74854367  1
  Ta  Ta92  1  0.79937789  0.80282714  0.76270197  1
  Ta  Ta93  1  0.89848888  0.10856892  0.86609373  1
  Ta  Ta94  1  0.20827984  0.39062611  0.23347713  1
  Ta  Ta95  1  0.30346058  0.28762570  0.12761934  1
  Ta  Ta96  1  0.90877565  0.10237176  0.38418026  1
  Ta  Ta97  1  0.70142043  0.91063890  0.61568282  1
  Ta  Ta98  1  0.90998887  0.50638772  0.62793906  1
  Ta  Ta99  1  0.60732471  0.41037453  -0.00528402  1
  Ta  Ta100  1  0.21380925  0.58820949  0.01347860  1
  Ta  Ta101  1  0.00851006  0.19709835  0.50895729  1
  Ta  Ta102  1  0.00245725  0.80616694  -0.00984057  1
  Ta  Ta103  1  0.91483864  0.30419432  0.87354567  1
  Ta  Ta104  1  -0.00681054  0.60170281  0.00778692  1
  Ta  Ta105  1  0.68980572  0.09527304  0.88660767  1
  Ta  Ta106  1  0.21029838  0.19176348  0.74738741  1
  Ta  Ta107  1  0.70959040  0.29177484  0.62119515  1
  Ta  Ta108  1  0.18279335  0.81108334  0.47707408  1
  Ta  Ta109  1  0.51908375  0.50532197  0.61232327  1
  Ta  Ta110  1  0.00244474  0.58530738  0.75703024  1
  Ta  Ta111  1  0.89983917  0.70126047  0.63135280  1
  Ta  Ta112  1  0.38962319  0.81031225  0.75757640  1
  Ta  Ta113  1  -0.00044822  0.39430534  0.01218107  1
  Ta  Ta114  1  0.80094862  0.61920871  0.50227192  1
  Ta  Ta115  1  0.69149841  0.70432706  0.87192108  1
  Ta  Ta116  1  -0.00774175  0.79283167  0.50348367  1
  Ta  Ta117  1  0.70094129  0.69621322  0.37320797  1
  Ta  Ta118  1  0.61807131  0.80008885  0.24795717  1
  Ta  Ta119  1  0.08724811  0.89872594  0.12709309  1
  Ti  Ti120  1  0.39661720  0.01263515  0.74831430  1
  Ti  Ti121  1  0.88744886  0.48527344  0.11620323  1
  Ti  Ti122  1  0.09912952  0.48413285  0.62691897  1
  Ti  Ti123  1  0.11140085  0.10771493  0.62894735  1
  Ti  Ti124  1  0.19772566  0.80084488  0.00240483  1
  Ti  Ti125  1  0.78774869  0.01068868  0.49915318  1
  Ti  Ti126  1  0.89049400  0.89087171  0.61895412  1
  Ti  Ti127  1  0.79610669  -0.00274715  -0.01033412  1
  Ti  Ti128  1  0.28361049  0.30310095  0.38388821  1
  Ti  Ti129  1  0.39617096  -0.00195776  0.48194909  1
  Ti  Ti130  1  0.90870999  0.90601148  0.86883237  1
  Ti  Ti131  1  0.61482911  -0.00129376  0.25469045  1
  Ti  Ti132  1  0.19636863  0.01169684  0.49878248  1
  Ti  Ti133  1  0.70441501  0.29932260  0.38297541  1
  Ti  Ti134  1  -0.00531274  0.00255513  0.24610330  1
  Ti  Ti135  1  0.01191155  0.38916606  0.50257260  1
  Ti  Ti136  1  0.30669299  0.68626641  0.88063410  1
  Ti  Ti137  1  0.18966909  0.19735688  0.24068679  1
  Ti  Ti138  1  0.81354374  0.41027983  0.76523001  1
  Ti  Ti139  1  0.40017117  0.39947537  0.24816053  1
  Ti  Ti140  1  0.29016700  0.50452213  0.61555698  1
  Ti  Ti141  1  0.39659140  0.80308429  -0.00318171  1
  Ti  Ti142  1  0.59442629  0.80541929  0.75408195  1
  Ti  Ti143  1  0.09313257  0.68709648  0.62750864  1
  Ti  Ti144  1  0.81400673  0.20471016  0.49158945  1
  Ti  Ti145  1  0.70097424  0.50905203  0.38610303  1
  Ti  Ti146  1  0.19115489  0.00536040  0.25111568  1
  Ti  Ti147  1  0.19894390  0.39708886  0.02036858  1
  Ti  Ti148  1  0.51464859  0.89984540  0.37494439  1
  Ti  Ti149  1  0.81590655  0.18925470  -0.00718044  1
  Ti  Ti150  1  0.61219350  0.19961997  0.25839654  1
  Ti  Ti151  1  0.09153637  0.09141905  0.37588543  1
  Ti  Ti152  1  -0.00878439  0.59124475  0.22748850  1
  Ti  Ti153  1  0.31705108  0.30578921  0.86972483  1
  Ti  Ti154  1  0.49587207  0.11570696  0.87679642  1
  Ti  Ti155  1  0.19325786  -0.00646610  0.00088145  1
  Ti  Ti156  1  0.69135091  0.90235486  0.87860571  1
  Ti  Ti157  1  0.59168233  0.20197140  -0.00459790  1
  Ti  Ti158  1  0.40184328  0.20869401  0.00019376  1
  Ti  Ti159  1  0.19452254  0.59856088  0.50122784  1
  Mo  Mo160  1  0.69496244  0.70725273  0.11848813  1
  Mo  Mo161  1  0.00091128  0.18665747  0.25667121  1
  Mo  Mo162  1  0.90730161  0.69733732  0.88041281  1
  Mo  Mo163  1  0.39382249  0.61425209  0.00228134  1
  Mo  Mo164  1  0.59580704  0.00721479  -0.00672724  1
  Mo  Mo165  1  0.69752177  0.10106012  0.62557552  1
  Mo  Mo166  1  0.21090509  0.78937210  0.75466272  1
  Mo  Mo167  1  0.00860447  0.19854676  0.74453748  1
  Mo  Mo168  1  0.09252215  0.91605983  0.37907945  1
  Mo  Mo169  1  0.90276676  0.90943516  0.12223611  1
  Mo  Mo170  1  -0.00430510  0.19795066  -0.01032963  1
  Mo  Mo171  1  0.49691355  0.29371277  0.87876171  1
  Mo  Mo172  1  0.69915536  0.49652409  0.87766177  1
  Mo  Mo173  1  0.80348889  0.80359553  0.50804128  1
  Mo  Mo174  1  0.91173361  0.29259716  0.38105399  1
  Mo  Mo175  1  0.90740699  0.49298803  0.89031834  1
  Mo  Mo176  1  0.09339764  0.49792403  0.11236097  1
  Mo  Mo177  1  0.28889970  0.50860838  0.87662518  1
  Mo  Mo178  1  0.29670347  0.09489523  0.62555112  1
  Mo  Mo179  1  0.30348683  0.49162900  0.12829499  1
  Mo  Mo180  1  0.79208764  0.80869898  0.25190037  1
  Mo  Mo181  1  0.29684521  0.10073088  0.12778072  1
  Mo  Mo182  1  0.10307819  0.89958456  0.88362578  1
  Mo  Mo183  1  0.50024084  0.50084583  0.12201309  1
  Mo  Mo184  1  0.71266408  0.08689670  0.36790980  1
  Mo  Mo185  1  0.61228067  0.59717346  0.50476544  1
  Mo  Mo186  1  -0.00402687  0.81868828  0.24827484  1
  Mo  Mo187  1  0.49987162  0.70443109  0.63190971  1
  Mo  Mo188  1  0.69605666  0.49311287  0.11948621  1
  Mo  Mo189  1  0.18710205  0.40265103  0.50546388  1
  Mo  Mo190  1  0.10530938  0.29768408  0.12335687  1
  Mo  Mo191  1  0.28982318  0.91436640  0.37924239  1
  Mo  Mo192  1  0.61820442  0.39365917  0.49988916  1
  Mo  Mo193  1  -0.00150360  0.40579431  0.75290231  1
  Mo  Mo194  1  0.60222692  -0.01477559  0.49271408  1
  Mo  Mo195  1  0.18634579  0.19346117  0.49933457  1
  Mo  Mo196  1  0.40244402  0.19979912  0.74799498  1
  Mo  Mo197  1  0.09489520  0.29397240  0.63493981  1
  Mo  Mo198  1  0.81007198  0.39465421  -0.00660424  1
  Mo  Mo199  1  0.88594555  0.08303172  0.12385009  1
