# generated using pymatgen
data_HfZrTaTiMo
_symmetry_space_group_name_H-M   'P 1'
_cell_length_a   15.21710384
_cell_length_b   15.20571722
_cell_length_c   16.82957710
_cell_angle_alpha   89.99963887
_cell_angle_beta   89.98478618
_cell_angle_gamma   90.01946917
_symmetry_Int_Tables_number   1
_chemical_formula_structural   HfZrTaTiMo
_chemical_formula_sum   'Hf40 Zr40 Ta40 Ti40 Mo40'
_cell_volume   3894.14462201
_cell_formula_units_Z   40
loop_
 _symmetry_equiv_pos_site_id
 _symmetry_equiv_pos_as_xyz
  1  'x, y, z'
loop_
 _atom_site_type_symbol
 _atom_site_label
 _atom_site_symmetry_multiplicity
 _atom_site_fract_x
 _atom_site_fract_y
 _atom_site_fract_z
 _atom_site_occupancy
  Hf  Hf0  1  0.80566666  0.59652773  0.49627662  1
  Hf  Hf1  1  0.79933497  -0.01159761  0.01111458  1
  Hf  Hf2  1  0.70484828  0.89601025  0.37249230  1
  Hf  Hf3  1  0.41249761  0.01020806  -0.01540009  1
  Hf  Hf4  1  0.01041973  -0.01490878  0.50647703  1
  Hf  Hf5  1  0.79257916  0.79719662  0.74426886  1
  Hf  Hf6  1  0.20653440  0.61070564  -0.00813972  1
  Hf  Hf7  1  0.50249084  0.91441242  0.37652266  1
  Hf  Hf8  1  0.00806976  0.40408377  0.50600988  1
  Hf  Hf9  1  0.79967506  0.59615009  -0.00233527  1
  Hf  Hf10  1  0.68780170  0.89529454  0.88358158  1
  Hf  Hf11  1  0.21410524  0.79243328  0.25364391  1
  Hf  Hf12  1  0.89810852  0.69184683  0.12873620  1
  Hf  Hf13  1  0.20445408  0.01883440  -0.02034573  1
  Hf  Hf14  1  0.49643352  0.29518967  0.62811645  1
  Hf  Hf15  1  0.60235921  0.60489152  -0.01156876  1
  Hf  Hf16  1  0.48263660  0.09416434  0.13187985  1
  Hf  Hf17  1  -0.00337873  0.38332528  0.74720386  1
  Hf  Hf18  1  0.69351767  0.69378288  0.61953309  1
  Hf  Hf19  1  0.68090569  0.49598052  0.11976799  1
  Hf  Hf20  1  0.30088967  0.71175346  0.86245532  1
  Hf  Hf21  1  0.89202252  0.09450041  0.36928962  1
  Hf  Hf22  1  0.59241310  0.59405783  0.48920390  1
  Hf  Hf23  1  0.59869280  0.39444889  0.49454043  1
  Hf  Hf24  1  0.50377375  0.50681461  0.63152152  1
  Hf  Hf25  1  -0.00720977  0.18770590  0.50102236  1
  Hf  Hf26  1  0.60449002  0.79238053  0.23343820  1
  Hf  Hf27  1  0.09956577  0.70135625  0.86044295  1
  Hf  Hf28  1  0.79322408  0.19368736  0.22528306  1
  Hf  Hf29  1  0.79401976  -0.01680387  0.23431381  1
  Hf  Hf30  1  0.29055998  0.31010239  0.62630205  1
  Hf  Hf31  1  0.30503484  0.90697393  0.39174131  1
  Hf  Hf32  1  0.10032899  0.30453424  0.87910303  1
  Hf  Hf33  1  0.10460006  0.90782889  0.85664749  1
  Hf  Hf34  1  0.01229364  0.58605905  -0.00030182  1
  Hf  Hf35  1  0.41015810  0.60919123  0.75902078  1
  Hf  Hf36  1  0.89337852  0.30125488  0.37512433  1
  Hf  Hf37  1  0.20045505  0.18997377  0.50334416  1
  Hf  Hf38  1  0.21889429  0.21437259  -0.00328881  1
  Hf  Hf39  1  0.89483816  0.28463394  0.89142051  1
  Zr  Zr40  1  -0.00243451  0.20344483  0.24123120  1
  Zr  Zr41  1  0.91253177  0.08902922  0.11627130  1
  Zr  Zr42  1  0.70095348  0.48670146  0.35942745  1
  Zr  Zr43  1  0.90794455  0.49195299  0.87874683  1
  Zr  Zr44  1  0.30628485  0.91780334  0.62863247  1
  Zr  Zr45  1  0.89626259  0.70635267  0.36999051  1
  Zr  Zr46  1  -0.00412116  0.79888577  0.73331617  1
  Zr  Zr47  1  0.69001909  0.29151199  0.63143513  1
  Zr  Zr48  1  0.89490368  0.89391248  0.87231424  1
  Zr  Zr49  1  0.80410223  0.39054633  0.22933854  1
  Zr  Zr50  1  0.31244410  0.10826003  0.64556399  1
  Zr  Zr51  1  0.00027205  0.79572975  -0.00301323  1
  Zr  Zr52  1  0.79904963  0.39620245  0.49863006  1
  Zr  Zr53  1  0.19019479  0.20563800  0.24997325  1
  Zr  Zr54  1  0.29650744  0.51233224  0.12406705  1
  Zr  Zr55  1  0.30899679  0.91589130  0.12152479  1
  Zr  Zr56  1  0.09904736  0.67719590  0.62025439  1
  Zr  Zr57  1  0.61116077  0.60162134  0.77355005  1
  Zr  Zr58  1  0.89340358  0.28868074  0.62684801  1
  Zr  Zr59  1  0.00563826  0.79379810  0.25129179  1
  Zr  Zr60  1  0.78999708  0.39606664  0.76531914  1
  Zr  Zr61  1  0.28567377  0.70591500  0.39936066  1
  Zr  Zr62  1  0.00903159  -0.00356070  0.25572975  1
  Zr  Zr63  1  0.31393649  0.91050765  0.85455809  1
  Zr  Zr64  1  0.78930560  0.17896753  0.76331698  1
  Zr  Zr65  1  0.39226156  0.41874305  0.49613211  1
  Zr  Zr66  1  0.01232967  0.39945692  0.24847130  1
  Zr  Zr67  1  0.59309656  0.39179834  0.77799027  1
  Zr  Zr68  1  0.40490512  0.59958133  -0.01253876  1
  Zr  Zr69  1  0.31403658  0.10629868  0.36775431  1
  Zr  Zr70  1  0.69615478  0.70036307  0.37116579  1
  Zr  Zr71  1  0.28965897  0.31847800  0.37689266  1
  Zr  Zr72  1  0.59493379  0.80977790  0.74262751  1
  Zr  Zr73  1  0.39359627  0.39475343  0.76512602  1
  Zr  Zr74  1  0.11769640  0.69353365  0.12701984  1
  Zr  Zr75  1  0.10304704  0.90674905  0.11819426  1
  Zr  Zr76  1  0.38323670  0.62642739  0.25375476  1
  Zr  Zr77  1  0.18543309  0.81397219  0.52319644  1
  Zr  Zr78  1  0.49966558  0.30252313  0.36677683  1
  Zr  Zr79  1  0.39893087  0.38449188  -0.00280501  1
  Ta  Ta80  1  0.70450182  0.49870165  0.62995288  1
  Ta  Ta81  1  0.39821298  0.22494246  0.23473682  1
  Ta  Ta82  1  0.69020384  0.09421702  0.36223036  1
  Ta  Ta83  1  0.40687750  0.42564272  0.24791735  1
  Ta  Ta84  1  0.79393803  0.59877577  0.23965141  1
  Ta  Ta85  1  0.60123016  0.20000517  0.22694058  1
  Ta  Ta86  1  0.59563952  -0.00684227  0.23152209  1
  Ta  Ta87  1  0.49188271  0.71703057  0.38130709  1
  Ta  Ta88  1  0.20915179  0.81016188  -0.00682966  1
  Ta  Ta89  1  0.58273299  0.20623611  0.01833368  1
  Ta  Ta90  1  0.69773707  0.09497431  0.62508193  1
  Ta  Ta91  1  0.50652223  0.91737423  0.61852770  1
  Ta  Ta92  1  0.32341504  0.12368297  0.85825937  1
  Ta  Ta93  1  0.20332287  0.80318912  0.72989325  1
  Ta  Ta94  1  0.90152721  0.50376627  0.63157332  1
  Ta  Ta95  1  0.80212660  0.00027235  0.49704373  1
  Ta  Ta96  1  0.80100951  0.59793097  0.75878759  1
  Ta  Ta97  1  0.29471941  0.51118556  0.63818544  1
  Ta  Ta98  1  0.01078418  0.19415983  0.00412693  1
  Ta  Ta99  1  0.10172156  0.31309951  0.11144860  1
  Ta  Ta100  1  0.70321318  0.91398346  0.62258717  1
  Ta  Ta101  1  0.59737871  0.80850102  0.50432855  1
  Ta  Ta102  1  0.08686110  0.67944138  0.39219590  1
  Ta  Ta103  1  0.10948377  0.50088975  0.85553197  1
  Ta  Ta104  1  0.40778340  0.20394714  0.50060227  1
  Ta  Ta105  1  0.10776831  0.48481713  0.63979952  1
  Ta  Ta106  1  0.90192801  0.09364827  0.88476826  1
  Ta  Ta107  1  0.50824701  0.72896428  0.88123404  1
  Ta  Ta108  1  0.78461193  0.18738040  0.49626150  1
  Ta  Ta109  1  0.59496636  0.18919398  0.49384269  1
  Ta  Ta110  1  0.10475293  0.88448575  0.38116885  1
  Ta  Ta111  1  0.10299348  0.09074314  0.63852075  1
  Ta  Ta112  1  0.20624566  -0.00510635  0.25567666  1
  Ta  Ta113  1  0.49128550  0.70984866  0.61287353  1
  Ta  Ta114  1  0.89273383  0.09021672  0.62949692  1
  Ta  Ta115  1  0.80040236  0.80727775  0.51022577  1
  Ta  Ta116  1  0.91299517  0.50895334  0.37076489  1
  Ta  Ta117  1  0.78960897  0.38999348  0.00567932  1
  Ta  Ta118  1  0.69618523  0.28119382  0.36553434  1
  Ta  Ta119  1  0.57813945  0.58845873  0.25088563  1
  Ti  Ti120  1  -0.00936384  0.79151358  0.51004575  1
  Ti  Ti121  1  0.20794300  0.40522842  0.24060831  1
  Ti  Ti122  1  0.19418650  0.20536759  0.76011444  1
  Ti  Ti123  1  0.30565160  0.69841108  0.62015868  1
  Ti  Ti124  1  0.40907333  0.82283421  0.24076794  1
  Ti  Ti125  1  0.49251487  0.69209639  0.12108804  1
  Ti  Ti126  1  0.59384156  0.39075155  0.24006311  1
  Ti  Ti127  1  0.68098611  0.27602898  0.89260198  1
  Ti  Ti128  1  0.00294014  0.58911709  0.24498282  1
  Ti  Ti129  1  0.89502882  0.69811698  0.87434736  1
  Ti  Ti130  1  0.91261274  0.48505563  0.11638855  1
  Ti  Ti131  1  0.89793363  0.90694520  0.62942177  1
  Ti  Ti132  1  0.60688230  0.00974556  0.49620342  1
  Ti  Ti133  1  0.90160101  0.88462811  0.12423058  1
  Ti  Ti134  1  0.11071775  0.09911412  0.12281826  1
  Ti  Ti135  1  0.19272334  0.41582474  0.00071318  1
  Ti  Ti136  1  -0.00484752  0.59508997  0.74986299  1
  Ti  Ti137  1  0.78815191  0.18909785  0.01434111  1
  Ti  Ti138  1  0.90251871  0.89477025  0.37697535  1
  Ti  Ti139  1  0.41022718  0.81142536  0.74137167  1
  Ti  Ti140  1  0.59607897  0.80496539  0.01927128  1
  Ti  Ti141  1  0.20068739  0.57043337  0.50118729  1
  Ti  Ti142  1  0.29168872  0.49720417  0.86631857  1
  Ti  Ti143  1  0.78448827  0.78724030  0.00961762  1
  Ti  Ti144  1  0.11039617  0.48749923  0.38046885  1
  Ti  Ti145  1  0.50990791  0.10171175  0.63308354  1
  Ti  Ti146  1  0.09718647  0.29436822  0.38381537  1
  Ti  Ti147  1  0.40350190  0.80507816  0.00275058  1
  Ti  Ti148  1  0.01021579  -0.00064720  -0.01041106  1
  Ti  Ti149  1  0.61288904  0.01372766  0.76262733  1
  Ti  Ti150  1  0.50383999  0.10805289  0.35593754  1
  Ti  Ti151  1  0.09885461  0.28688993  0.63108770  1
  Ti  Ti152  1  0.39805121  0.60474979  0.49341853  1
  Ti  Ti153  1  0.10885466  0.08369880  0.38088197  1
  Ti  Ti154  1  -0.00641119  0.01397256  0.75279930  1
  Ti  Ti155  1  0.89400147  0.68893370  0.62270787  1
  Ti  Ti156  1  0.29520999  0.11108755  0.13258283  1
  Ti  Ti157  1  0.19050409  0.59192207  0.26268198  1
  Ti  Ti158  1  0.40947536  0.01859837  0.50177096  1
  Ti  Ti159  1  0.60299034  0.00271747  0.01135913  1
  Mo  Mo160  1  0.59411444  0.40136014  -0.01684683  1
  Mo  Mo161  1  0.20645165  0.60298269  0.74716433  1
  Mo  Mo162  1  0.19654569  0.00856814  0.50243771  1
  Mo  Mo163  1  0.30814555  0.71986268  0.11628119  1
  Mo  Mo164  1  -0.00138465  0.59104123  0.50371998  1
  Mo  Mo165  1  0.00400011  0.39547116  -0.00064706  1
  Mo  Mo166  1  0.69230828  0.29870139  0.10964902  1
  Mo  Mo167  1  0.49821134  0.31564494  0.12975285  1
  Mo  Mo168  1  0.79896346  -0.00575253  0.75158642  1
  Mo  Mo169  1  0.09428371  0.90988338  0.64503714  1
  Mo  Mo170  1  0.29511837  0.30776383  0.13302669  1
  Mo  Mo171  1  0.59269480  0.18736099  0.75956190  1
  Mo  Mo172  1  0.52346368  0.10786803  0.88204900  1
  Mo  Mo173  1  0.29348550  0.30347113  0.87109902  1
  Mo  Mo174  1  0.49685442  0.50085960  0.87930980  1
  Mo  Mo175  1  0.29210125  0.50942019  0.36982734  1
  Mo  Mo176  1  0.09592724  0.10817587  0.86817915  1
  Mo  Mo177  1  0.50558627  0.90553410  0.87784996  1
  Mo  Mo178  1  0.19344536  0.39788761  0.50808006  1
  Mo  Mo179  1  0.79943108  0.79217616  0.23807946  1
  Mo  Mo180  1  0.43308552  0.00820149  0.75903035  1
  Mo  Mo181  1  0.49813562  0.89673217  0.12219939  1
  Mo  Mo182  1  0.41548793  0.20432279  0.75106235  1
  Mo  Mo183  1  0.69952257  0.89200666  0.11646475  1
  Mo  Mo184  1  0.00013638  0.18871187  0.75272362  1
  Mo  Mo185  1  0.19943659  0.01523110  0.76362695  1
  Mo  Mo186  1  0.39790596  0.00912689  0.25409307  1
  Mo  Mo187  1  0.49301966  0.51070416  0.36987796  1
  Mo  Mo188  1  0.71119290  0.70546220  0.87851265  1
  Mo  Mo189  1  0.90456040  0.29746178  0.10057025  1
  Mo  Mo190  1  0.49797315  0.50413071  0.12553691  1
  Mo  Mo191  1  0.70628914  0.09638231  0.89524650  1
  Mo  Mo192  1  0.19656902  0.39787528  0.75036444  1
  Mo  Mo193  1  0.10255498  0.50104136  0.12693914  1
  Mo  Mo194  1  0.39429636  0.19641752  0.00992372  1
  Mo  Mo195  1  0.69505132  0.69117741  0.13073146  1
  Mo  Mo196  1  0.70184866  0.48998444  0.89117836  1
  Mo  Mo197  1  0.48501808  0.27780298  0.88234824  1
  Mo  Mo198  1  0.69114040  0.09435833  0.11710106  1
  Mo  Mo199  1  0.40687999  0.80619016  0.50964385  1
