# generated using pymatgen
data_HfZrTaTiMo
_symmetry_space_group_name_H-M   'P 1'
_cell_length_a   15.18736089
_cell_length_b   15.19068880
_cell_length_c   16.80698004
_cell_angle_alpha   90.01465080
_cell_angle_beta   90.00501286
_cell_angle_gamma   89.90851813
_symmetry_Int_Tables_number   1
_chemical_formula_structural   HfZrTaTiMo
_chemical_formula_sum   'Hf40 Zr40 Ta40 Ti40 Mo40'
_cell_volume   3877.47400186
_cell_formula_units_Z   40
loop_
 _symmetry_equiv_pos_site_id
 _symmetry_equiv_pos_as_xyz
  1  'x, y, z'
loop_
 _atom_site_type_symbol
 _atom_site_label
 _atom_site_symmetry_multiplicity
 _atom_site_fract_x
 _atom_site_fract_y
 _atom_site_fract_z
 _atom_site_occupancy
  Hf  Hf0  1  0.89570436  0.49010635  0.62625657  1
  Hf  Hf1  1  0.91546778  0.69860981  0.37822532  1
  Hf  Hf2  1  0.48346876  0.29505865  0.12187508  1
  Hf  Hf3  1  -0.00870037  0.39483155  0.24844302  1
  Hf  Hf4  1  0.58842348  0.19359584  -0.01756481  1
  Hf  Hf5  1  0.28727772  0.91775905  0.12009847  1
  Hf  Hf6  1  0.70705321  0.11653567  0.11903805  1
  Hf  Hf7  1  0.50705978  0.69324412  0.88582995  1
  Hf  Hf8  1  0.28450531  0.49924600  0.36656451  1
  Hf  Hf9  1  0.50718983  0.09363805  0.12644279  1
  Hf  Hf10  1  0.20501371  0.60267961  0.76810653  1
  Hf  Hf11  1  0.60379347  0.40132525  0.48961590  1
  Hf  Hf12  1  0.90501133  0.10121567  0.39514883  1
  Hf  Hf13  1  0.60378063  -0.00008946  0.50511710  1
  Hf  Hf14  1  0.89877646  0.09699667  0.60206883  1
  Hf  Hf15  1  0.29979267  0.09164447  0.87186786  1
  Hf  Hf16  1  0.88861818  0.89603605  0.39225705  1
  Hf  Hf17  1  0.49359396  0.89651383  0.87493197  1
  Hf  Hf18  1  0.18617768  0.81101904  -0.00253536  1
  Hf  Hf19  1  0.60442493  0.00322169  0.75200933  1
  Hf  Hf20  1  0.81292137  0.60082593  -0.00072850  1
  Hf  Hf21  1  0.60716741  0.79894557  0.49601025  1
  Hf  Hf22  1  0.70250009  0.70834384  0.88603787  1
  Hf  Hf23  1  0.29653670  0.10647889  0.39517829  1
  Hf  Hf24  1  0.00327113  0.79850583  0.73644781  1
  Hf  Hf25  1  0.79842132  0.60139884  0.48999470  1
  Hf  Hf26  1  0.11159859  0.29137030  0.38520110  1
  Hf  Hf27  1  0.12034871  0.68391918  0.61764583  1
  Hf  Hf28  1  0.80093962  0.00046964  0.24916233  1
  Hf  Hf29  1  0.72005954  0.10240184  0.87682288  1
  Hf  Hf30  1  0.09127445  0.49938231  0.36880815  1
  Hf  Hf31  1  0.40468679  0.58794502  0.01026055  1
  Hf  Hf32  1  0.39085362  0.40425027  0.74725678  1
  Hf  Hf33  1  0.28874699  0.89445924  0.38528105  1
  Hf  Hf34  1  0.11366804  0.09055037  0.12500206  1
  Hf  Hf35  1  0.30851411  0.48373565  0.12661045  1
  Hf  Hf36  1  0.19684778  0.00256743  0.73006870  1
  Hf  Hf37  1  0.19889640  0.20580450  0.73140042  1
  Hf  Hf38  1  0.10382324  0.50253010  0.12051235  1
  Hf  Hf39  1  0.01461171  0.19283911  0.25533687  1
  Zr  Zr40  1  0.59138311  0.20619107  0.49879598  1
  Zr  Zr41  1  -0.01259500  0.18800988  -0.00132034  1
  Zr  Zr42  1  0.88040785  0.29685034  0.11852418  1
  Zr  Zr43  1  0.00308949  -0.01397397  0.26134050  1
  Zr  Zr44  1  0.40337458  0.19434193  0.73766346  1
  Zr  Zr45  1  0.39397424  -0.00962489  0.73800476  1
  Zr  Zr46  1  0.01128750  0.61756690  0.24617863  1
  Zr  Zr47  1  0.71019294  0.70177461  0.12499787  1
  Zr  Zr48  1  0.39339517  0.79796438  0.23932646  1
  Zr  Zr49  1  0.39820238  0.60405248  0.24449597  1
  Zr  Zr50  1  0.90170546  0.50424022  0.11973038  1
  Zr  Zr51  1  0.18423751  0.40674932  0.74264178  1
  Zr  Zr52  1  0.69271029  0.50768100  0.62663765  1
  Zr  Zr53  1  0.79713869  0.21041344  0.26169190  1
  Zr  Zr54  1  0.59979922  0.00546325  0.25571709  1
  Zr  Zr55  1  0.41251657  0.00343201  -0.00176953  1
  Zr  Zr56  1  0.19280684  0.19658920  -0.00794176  1
  Zr  Zr57  1  0.50717011  0.88574964  0.63012399  1
  Zr  Zr58  1  0.18468488  0.79990625  0.24407338  1
  Zr  Zr59  1  0.91345443  0.71351377  0.87862472  1
  Zr  Zr60  1  0.39072983  0.60261035  0.48589751  1
  Zr  Zr61  1  0.20498851  0.39718538  -0.00457377  1
  Zr  Zr62  1  0.40244572  0.00715785  0.51858786  1
  Zr  Zr63  1  0.89345709  0.28654268  0.87782771  1
  Zr  Zr64  1  0.00208787  0.78736007  0.50911067  1
  Zr  Zr65  1  0.30850953  0.71284031  0.88795686  1
  Zr  Zr66  1  0.60319792  0.59937719  0.25613439  1
  Zr  Zr67  1  0.80819482  0.59384746  0.25563625  1
  Zr  Zr68  1  0.79690937  0.60477656  0.75829382  1
  Zr  Zr69  1  0.70251420  0.10847872  0.62599730  1
  Zr  Zr70  1  0.20987123  0.80675040  0.75153041  1
  Zr  Zr71  1  0.01190707  -0.01602001  -0.00318237  1
  Zr  Zr72  1  -0.00279355  0.19555400  0.74068779  1
  Zr  Zr73  1  0.19533133  0.41070732  0.51536966  1
  Zr  Zr74  1  0.81401236  0.00802938  0.00593080  1
  Zr  Zr75  1  0.59108998  0.40959835  0.76222752  1
  Zr  Zr76  1  0.00728840  0.58731465  0.75505065  1
  Zr  Zr77  1  0.39134535  0.00563853  0.25207613  1
  Zr  Zr78  1  0.48922418  0.48441997  0.36585250  1
  Zr  Zr79  1  0.59571818  0.60540916  0.48129751  1
  Ta  Ta80  1  0.70843430  0.71666408  0.36502481  1
  Ta  Ta81  1  0.00061988  0.40051724  -0.00414176  1
  Ta  Ta82  1  0.10537391  0.09371696  0.40182081  1
  Ta  Ta83  1  0.09572829  0.10082856  0.60098642  1
  Ta  Ta84  1  0.29470461  0.51982341  0.62549594  1
  Ta  Ta85  1  -0.00252655  -0.00703208  0.73582116  1
  Ta  Ta86  1  0.79808329  0.39745174  0.75877745  1
  Ta  Ta87  1  0.40661693  0.79378833  0.49366852  1
  Ta  Ta88  1  0.49056040  0.50133069  0.61961354  1
  Ta  Ta89  1  0.59333593  0.81048956  0.01163955  1
  Ta  Ta90  1  0.58242232  0.40279866  -0.01134680  1
  Ta  Ta91  1  0.40579828  0.59898840  0.75354672  1
  Ta  Ta92  1  0.09296287  0.09029089  0.86521844  1
  Ta  Ta93  1  0.70254417  0.90085587  0.88386514  1
  Ta  Ta94  1  0.59799578  0.80603972  0.24650162  1
  Ta  Ta95  1  0.50842221  0.30375761  0.62816112  1
  Ta  Ta96  1  0.70234082  0.71351371  0.62757132  1
  Ta  Ta97  1  0.69861275  0.48808317  0.12168860  1
  Ta  Ta98  1  0.88355321  0.89745031  0.61068072  1
  Ta  Ta99  1  0.12560535  0.69880717  0.38675241  1
  Ta  Ta100  1  0.79900508  0.40244242  0.48355387  1
  Ta  Ta101  1  0.49136601  0.11104972  0.37722665  1
  Ta  Ta102  1  0.19454681  0.00869293  0.26108002  1
  Ta  Ta103  1  0.59963217  0.20629012  0.76229686  1
  Ta  Ta104  1  0.19793429  0.38766794  0.24547470  1
  Ta  Ta105  1  0.49747041  0.90106319  0.37702502  1
  Ta  Ta106  1  0.69372763  0.90938011  0.12088634  1
  Ta  Ta107  1  0.69660636  0.50343063  0.88362868  1
  Ta  Ta108  1  0.89392657  0.69491889  0.62269177  1
  Ta  Ta109  1  0.51113677  0.48646894  0.13184265  1
  Ta  Ta110  1  0.70044160  0.10159864  0.38295103  1
  Ta  Ta111  1  0.30720285  0.12003296  0.12041773  1
  Ta  Ta112  1  0.31514962  0.29752740  0.38529896  1
  Ta  Ta113  1  0.29877229  0.30047793  0.86690417  1
  Ta  Ta114  1  0.69785725  0.30451852  0.87883824  1
  Ta  Ta115  1  0.10245518  0.90051892  0.60756787  1
  Ta  Ta116  1  0.00679003  0.58260207  0.50405486  1
  Ta  Ta117  1  0.50490632  0.68778969  0.62870029  1
  Ta  Ta118  1  0.21740911  0.19970667  0.25395069  1
  Ta  Ta119  1  0.60759432  0.79626459  0.75380996  1
  Ti  Ti120  1  0.90434827  0.88573848  0.12865512  1
  Ti  Ti121  1  0.70575038  0.31167960  0.63009980  1
  Ti  Ti122  1  0.50246695  0.69825249  0.12272171  1
  Ti  Ti123  1  0.08802213  0.89593606  0.12882317  1
  Ti  Ti124  1  0.09639061  0.30129886  0.87219885  1
  Ti  Ti125  1  0.09661138  0.89801884  0.39610817  1
  Ti  Ti126  1  0.80759035  0.00023304  0.74769457  1
  Ti  Ti127  1  0.90121727  0.91023721  0.87010278  1
  Ti  Ti128  1  0.79854692  0.81249563  0.74909181  1
  Ti  Ti129  1  0.10180094  0.29467525  0.12416370  1
  Ti  Ti130  1  0.19583219  0.60314747  -0.00782770  1
  Ti  Ti131  1  0.08441964  0.70401475  0.10926982  1
  Ti  Ti132  1  0.90483218  0.30293290  0.38155364  1
  Ti  Ti133  1  0.68176262  0.30722835  0.11715513  1
  Ti  Ti134  1  0.59218591  0.20821901  0.26174088  1
  Ti  Ti135  1  0.90421900  0.49147586  0.87860656  1
  Ti  Ti136  1  0.79003490  0.40398099  0.26858538  1
  Ti  Ti137  1  0.39537702  0.79903297  0.02007385  1
  Ti  Ti138  1  0.90871668  0.09618031  0.13410241  1
  Ti  Ti139  1  0.30687209  0.49776150  0.88164171  1
  Ti  Ti140  1  0.39562201  0.21189258  -0.01587037  1
  Ti  Ti141  1  0.09997584  0.89506113  0.86706060  1
  Ti  Ti142  1  0.80497805  0.80907754  0.00662593  1
  Ti  Ti143  1  0.89450516  0.29703006  0.61818217  1
  Ti  Ti144  1  -0.00423460  0.39345754  0.50379347  1
  Ti  Ti145  1  0.40486897  0.79133036  0.75065268  1
  Ti  Ti146  1  0.60452820  0.39188368  0.25852823  1
  Ti  Ti147  1  0.39351306  0.37529374  0.25111918  1
  Ti  Ti148  1  -0.00495865  0.39130866  0.74765427  1
  Ti  Ti149  1  0.20699234  0.60797500  0.23723753  1
  Ti  Ti150  1  0.31393015  0.70583291  0.62353464  1
  Ti  Ti151  1  0.60369683  0.59567643  0.00907246  1
  Ti  Ti152  1  0.80867620  0.80107326  0.24409172  1
  Ti  Ti153  1  0.69942328  0.90224528  0.37264117  1
  Ti  Ti154  1  0.79266137  0.21590204  0.49402172  1
  Ti  Ti155  1  0.79017165  0.39815318  -0.00534219  1
  Ti  Ti156  1  0.79955640  0.20266608  0.74528747  1
  Ti  Ti157  1  0.39862985  0.39076205  0.50900606  1
  Ti  Ti158  1  0.59633431  0.60327261  0.75494254  1
  Ti  Ti159  1  0.21226352  0.21100933  0.52277912  1
  Mo  Mo160  1  0.78708434  -0.00088897  0.49530670  1
  Mo  Mo161  1  0.30652052  0.31286350  0.62295683  1
  Mo  Mo162  1  0.40076552  0.20964930  0.51975823  1
  Mo  Mo163  1  0.08991784  0.49763326  0.62533558  1
  Mo  Mo164  1  0.69912883  0.29783795  0.37347957  1
  Mo  Mo165  1  0.90947535  0.71248610  0.11818464  1
  Mo  Mo166  1  0.48918691  0.30065432  0.87263219  1
  Mo  Mo167  1  0.08497410  0.30032473  0.61748719  1
  Mo  Mo168  1  0.29390612  0.90647520  0.88260187  1
  Mo  Mo169  1  0.20215335  -0.00277523  0.51133341  1
  Mo  Mo170  1  0.40160675  0.39266286  -0.00880808  1
  Mo  Mo171  1  0.40078093  0.19793625  0.25367183  1
  Mo  Mo172  1  0.50261076  0.89429721  0.12486991  1
  Mo  Mo173  1  0.50628726  0.10157443  0.86815732  1
  Mo  Mo174  1  0.70304082  0.50021843  0.36968802  1
  Mo  Mo175  1  0.21514627  0.79477607  0.50397290  1
  Mo  Mo176  1  0.09936437  0.69827123  0.88272995  1
  Mo  Mo177  1  0.49353469  0.29495493  0.37270263  1
  Mo  Mo178  1  0.79257072  0.79465825  0.50175511  1
  Mo  Mo179  1  -0.00098293  0.80115562  0.25676545  1
  Mo  Mo180  1  0.00245484  0.21176545  0.50162357  1
  Mo  Mo181  1  0.01108239  0.59620036  -0.01137653  1
  Mo  Mo182  1  -0.00837646  0.79981849  -0.00170175  1
  Mo  Mo183  1  0.49749921  0.50556722  0.87811897  1
  Mo  Mo184  1  0.09588624  0.49621974  0.88547501  1
  Mo  Mo185  1  0.90605810  0.49244054  0.37973815  1
  Mo  Mo186  1  0.29308185  0.29365908  0.12432590  1
  Mo  Mo187  1  0.60701575  -0.00559360  -0.00590309  1
  Mo  Mo188  1  0.28136996  0.69246693  0.10830914  1
  Mo  Mo189  1  -0.00239237  -0.00528890  0.50263949  1
  Mo  Mo190  1  0.70790841  0.89740444  0.63285092  1
  Mo  Mo191  1  0.30192206  0.70162808  0.37013050  1
  Mo  Mo192  1  0.29817279  0.88446767  0.61280503  1
  Mo  Mo193  1  0.20356278  0.00153248  -0.01000670  1
  Mo  Mo194  1  0.29692858  0.10190376  0.61429681  1
  Mo  Mo195  1  0.20049815  0.60041543  0.49907043  1
  Mo  Mo196  1  0.79220444  0.20811638  0.00317951  1
  Mo  Mo197  1  0.50274841  0.71784211  0.36570281  1
  Mo  Mo198  1  0.90687515  0.08767336  0.86199587  1
  Mo  Mo199  1  0.50809026  0.10856534  0.63366573  1
