# generated using pymatgen
data_HfZrTaTiMo
_symmetry_space_group_name_H-M   'P 1'
_cell_length_a   15.21020422
_cell_length_b   15.20214760
_cell_length_c   16.86703077
_cell_angle_alpha   89.95464832
_cell_angle_beta   90.04803772
_cell_angle_gamma   89.89803120
_symmetry_Int_Tables_number   1
_chemical_formula_structural   HfZrTaTiMo
_chemical_formula_sum   'Hf40 Zr40 Ta40 Ti40 Mo40'
_cell_volume   3900.11713159
_cell_formula_units_Z   40
loop_
 _symmetry_equiv_pos_site_id
 _symmetry_equiv_pos_as_xyz
  1  'x, y, z'
loop_
 _atom_site_type_symbol
 _atom_site_label
 _atom_site_symmetry_multiplicity
 _atom_site_fract_x
 _atom_site_fract_y
 _atom_site_fract_z
 _atom_site_occupancy
  Hf  Hf0  1  0.60184612  -0.01098751  0.74678820  1
  Hf  Hf1  1  -0.01180579  0.61311058  0.25580284  1
  Hf  Hf2  1  0.28627029  0.50515144  0.88229699  1
  Hf  Hf3  1  0.48252449  0.09239950  0.36994135  1
  Hf  Hf4  1  0.31616834  0.89327733  0.11758331  1
  Hf  Hf5  1  -0.00155114  0.22501602  0.75359671  1
  Hf  Hf6  1  0.70477219  0.08855785  0.86597669  1
  Hf  Hf7  1  0.09899252  0.10310976  0.87375549  1
  Hf  Hf8  1  0.50214680  0.49854929  0.12037223  1
  Hf  Hf9  1  0.18653696  0.60268757  0.25534889  1
  Hf  Hf10  1  0.20758778  0.80405941  0.25912760  1
  Hf  Hf11  1  0.29687038  0.69162876  0.61243272  1
  Hf  Hf12  1  0.39312455  0.38981461  0.01101166  1
  Hf  Hf13  1  -0.00437493  0.59915914  0.73475675  1
  Hf  Hf14  1  0.90468517  0.09583938  0.13559238  1
  Hf  Hf15  1  0.59126339  0.39708278  0.25531265  1
  Hf  Hf16  1  0.41118382  0.80229571  0.51923594  1
  Hf  Hf17  1  0.60045070  0.38437142  0.76686300  1
  Hf  Hf18  1  0.89780594  0.53303248  0.87614554  1
  Hf  Hf19  1  0.29375209  0.69814603  0.12808822  1
  Hf  Hf20  1  0.50176525  0.70978256  0.12760456  1
  Hf  Hf21  1  0.58316390  -0.00987946  0.24503624  1
  Hf  Hf22  1  0.50629660  0.29268989  0.62659158  1
  Hf  Hf23  1  0.50256160  0.70562630  0.37999055  1
  Hf  Hf24  1  0.18897270  -0.01161169  0.74866272  1
  Hf  Hf25  1  0.88965268  0.09892045  0.64005941  1
  Hf  Hf26  1  0.79942810  0.58459443  0.50730191  1
  Hf  Hf27  1  0.08338487  0.09987655  0.63259097  1
  Hf  Hf28  1  0.21987897  0.79104016  -0.02117102  1
  Hf  Hf29  1  0.81662427  0.78356518  0.26407653  1
  Hf  Hf30  1  0.39763547  0.59465779  0.74288884  1
  Hf  Hf31  1  0.10630581  0.89590925  0.12059003  1
  Hf  Hf32  1  0.68861218  0.30464644  0.12582741  1
  Hf  Hf33  1  0.39050255  -0.01034228  0.74520012  1
  Hf  Hf34  1  0.60641321  0.59150192  -0.00810061  1
  Hf  Hf35  1  0.60155537  0.78806773  -0.00700946  1
  Hf  Hf36  1  0.09574280  0.31697215  0.61628310  1
  Hf  Hf37  1  0.18752410  0.19901429  0.49494088  1
  Hf  Hf38  1  0.79630154  0.42252238  0.76194448  1
  Hf  Hf39  1  0.19335542  -0.01141885  0.51178526  1
  Zr  Zr40  1  0.81484685  0.79821393  0.49682415  1
  Zr  Zr41  1  0.70566316  0.89012989  0.13605698  1
  Zr  Zr42  1  0.80190683  0.82074955  -0.00433378  1
  Zr  Zr43  1  0.50707989  0.49013686  0.62835229  1
  Zr  Zr44  1  0.60097449  0.00137097  0.50833939  1
  Zr  Zr45  1  0.40062430  0.19489928  0.49820301  1
  Zr  Zr46  1  0.39699154  0.60085668  0.26164753  1
  Zr  Zr47  1  0.89303431  0.30864711  0.13045926  1
  Zr  Zr48  1  0.70017985  0.11947645  0.63677833  1
  Zr  Zr49  1  0.01255963  0.21170856  0.25180347  1
  Zr  Zr50  1  0.89896121  0.11274533  0.36516676  1
  Zr  Zr51  1  0.20449977  0.21204419  0.75690766  1
  Zr  Zr52  1  -0.01509677  0.40828284  0.49852814  1
  Zr  Zr53  1  0.08946516  0.48972882  0.87926745  1
  Zr  Zr54  1  0.00769393  0.20451550  0.00745143  1
  Zr  Zr55  1  0.29295017  0.10894501  0.63021517  1
  Zr  Zr56  1  0.79759689  0.20046941  -0.00803493  1
  Zr  Zr57  1  0.69863223  0.90019385  0.37671025  1
  Zr  Zr58  1  0.18385459  0.38903560  0.23833246  1
  Zr  Zr59  1  0.28655711  0.49357553  0.38430141  1
  Zr  Zr60  1  0.61598192  -0.01112715  -0.00427517  1
  Zr  Zr61  1  0.40114135  -0.00434855  0.51947949  1
  Zr  Zr62  1  0.09630575  0.68659861  0.87328046  1
  Zr  Zr63  1  0.49895593  0.88442236  0.86778802  1
  Zr  Zr64  1  0.69200118  0.11239836  0.36679354  1
  Zr  Zr65  1  0.00744580  0.81621483  0.73887587  1
  Zr  Zr66  1  0.40967169  0.39882232  0.48935854  1
  Zr  Zr67  1  0.78748190  0.41438240  -0.00916171  1
  Zr  Zr68  1  0.29416747  0.28421530  0.36546989  1
  Zr  Zr69  1  0.21562519  0.79513566  0.75779680  1
  Zr  Zr70  1  0.39622958  0.39434309  0.24378533  1
  Zr  Zr71  1  0.19790805  0.00183824  -0.00863712  1
  Zr  Zr72  1  0.80354224  0.62014661  0.00446036  1
  Zr  Zr73  1  0.91772632  0.90262886  0.37266881  1
  Zr  Zr74  1  0.40364729  0.20226944  0.75608562  1
  Zr  Zr75  1  0.31596887  0.90314148  0.37996212  1
  Zr  Zr76  1  0.90321066  0.10114686  0.86282424  1
  Zr  Zr77  1  0.39182118  0.61514553  -0.00796880  1
  Zr  Zr78  1  0.60847954  0.79285468  0.51598154  1
  Zr  Zr79  1  0.70294683  0.10046708  0.12972274  1
  Ta  Ta80  1  0.00251532  0.79169465  -0.00325823  1
  Ta  Ta81  1  0.70309262  0.31776490  0.62416303  1
  Ta  Ta82  1  0.69564198  0.49432099  0.37070866  1
  Ta  Ta83  1  0.38292510  0.39712588  0.75357644  1
  Ta  Ta84  1  0.19854296  0.59243402  0.73928679  1
  Ta  Ta85  1  0.50672897  0.68847025  0.85782552  1
  Ta  Ta86  1  0.38948822  0.00234547  0.24058788  1
  Ta  Ta87  1  0.41570703  0.81143306  0.25469570  1
  Ta  Ta88  1  0.41344685  0.79577992  0.72664002  1
  Ta  Ta89  1  0.91100480  0.71057757  0.12669687  1
  Ta  Ta90  1  0.29705248  0.31277646  0.61857544  1
  Ta  Ta91  1  0.72248316  0.90429806  0.62790890  1
  Ta  Ta92  1  0.60467446  0.79251298  0.25734586  1
  Ta  Ta93  1  0.91055099  0.32273317  0.87775720  1
  Ta  Ta94  1  0.20584839  0.20777908  0.01405176  1
  Ta  Ta95  1  0.90916428  0.90053144  0.13748152  1
  Ta  Ta96  1  0.61658879  0.58686801  0.75260498  1
  Ta  Ta97  1  0.18831475  0.40636793  0.74649350  1
  Ta  Ta98  1  0.50619358  0.10168309  0.63530298  1
  Ta  Ta99  1  0.70033118  0.50418137  0.13612880  1
  Ta  Ta100  1  0.50986188  0.29089709  0.37185637  1
  Ta  Ta101  1  0.60124244  0.59911402  0.25685834  1
  Ta  Ta102  1  0.80781568  0.79670847  0.74423653  1
  Ta  Ta103  1  0.59813927  0.59031958  0.49843994  1
  Ta  Ta104  1  0.49186345  0.29244021  0.88205859  1
  Ta  Ta105  1  0.10352710  0.70130430  0.61411634  1
  Ta  Ta106  1  0.89620880  0.90478649  0.86940508  1
  Ta  Ta107  1  0.49235395  0.49258637  0.87337987  1
  Ta  Ta108  1  -0.00400934  0.41357217  0.01248502  1
  Ta  Ta109  1  0.80562172  -0.00167721  0.25436513  1
  Ta  Ta110  1  0.39766712  0.19498286  0.23049771  1
  Ta  Ta111  1  0.40650673  0.59780021  0.50075196  1
  Ta  Ta112  1  0.71139610  0.68367558  0.37525357  1
  Ta  Ta113  1  -0.01350586  0.19939330  0.49552558  1
  Ta  Ta114  1  0.80774741  0.01138375  0.50205951  1
  Ta  Ta115  1  0.59197500  0.19888649  -0.00348983  1
  Ta  Ta116  1  0.88474380  0.50277492  0.37194611  1
  Ta  Ta117  1  0.40536141  -0.00972360  -0.00667838  1
  Ta  Ta118  1  0.08196498  0.51198792  0.38251081  1
  Ta  Ta119  1  0.49964969  0.09730472  0.87669060  1
  Ti  Ti120  1  0.09065963  0.30726541  0.38332793  1
  Ti  Ti121  1  0.29390310  0.70255822  0.39181367  1
  Ti  Ti122  1  -0.00633294  0.40937429  0.25571143  1
  Ti  Ti123  1  0.17795118  0.59778628  0.01436546  1
  Ti  Ti124  1  0.80097614  0.21463394  0.49934963  1
  Ti  Ti125  1  0.29250253  0.09037664  0.11961871  1
  Ti  Ti126  1  0.79939548  0.40076131  0.25231667  1
  Ti  Ti127  1  0.02655231  0.00552328  0.25134492  1
  Ti  Ti128  1  0.08432095  0.50953751  0.12909120  1
  Ti  Ti129  1  0.60405958  0.20549182  0.49739153  1
  Ti  Ti130  1  0.11354257  0.90842181  0.37575601  1
  Ti  Ti131  1  0.29260984  0.50054891  0.12535337  1
  Ti  Ti132  1  0.30526864  0.10100713  0.88075882  1
  Ti  Ti133  1  -0.01274997  -0.00613332  0.00372532  1
  Ti  Ti134  1  0.89047091  0.51195970  0.13185027  1
  Ti  Ti135  1  0.39751553  0.19364774  0.00877396  1
  Ti  Ti136  1  -0.00129040  0.00376096  0.49990594  1
  Ti  Ti137  1  0.01720282  0.79925608  0.25752133  1
  Ti  Ti138  1  0.09114036  0.90161107  0.87993326  1
  Ti  Ti139  1  0.19052839  0.39565071  0.02009786  1
  Ti  Ti140  1  0.29412242  0.30481839  0.88343348  1
  Ti  Ti141  1  0.90386855  0.70630232  0.61709096  1
  Ti  Ti142  1  0.10345179  0.30761929  0.88486610  1
  Ti  Ti143  1  0.88937436  0.30330165  0.62842678  1
  Ti  Ti144  1  0.28419655  0.49235082  0.61075110  1
  Ti  Ti145  1  0.49561226  0.08937400  0.11478152  1
  Ti  Ti146  1  0.60990521  0.78774611  0.73662933  1
  Ti  Ti147  1  0.70744584  0.69364649  0.13709320  1
  Ti  Ti148  1  0.58830035  0.19891892  0.24106707  1
  Ti  Ti149  1  0.19532577  0.18377473  0.22928172  1
  Ti  Ti150  1  0.27448607  0.09064338  0.36202244  1
  Ti  Ti151  1  0.71649944  0.69847112  0.86114619  1
  Ti  Ti152  1  0.70575707  0.68395682  0.62844584  1
  Ti  Ti153  1  0.71447546  0.29842249  0.36814169  1
  Ti  Ti154  1  0.59634663  0.39324231  -0.01103572  1
  Ti  Ti155  1  0.18325926  0.59777328  0.49660848  1
  Ti  Ti156  1  0.01806146  0.80241631  0.49908717  1
  Ti  Ti157  1  0.78700855  0.22642535  0.76482693  1
  Ti  Ti158  1  0.89269759  0.49456989  0.62833714  1
  Ti  Ti159  1  0.61252343  0.39788557  0.48996528  1
  Mo  Mo160  1  0.10263412  0.50791611  0.61916528  1
  Mo  Mo161  1  0.30655031  0.90452250  0.87650414  1
  Mo  Mo162  1  0.51321271  0.68699473  0.63195574  1
  Mo  Mo163  1  0.50003586  0.89932863  0.11934529  1
  Mo  Mo164  1  -0.00809930  0.60877381  0.50755683  1
  Mo  Mo165  1  0.69849491  0.29630783  0.88390479  1
  Mo  Mo166  1  0.50396606  0.89864703  0.37358579  1
  Mo  Mo167  1  0.89571104  0.30942441  0.36938202  1
  Mo  Mo168  1  0.50597457  0.50057397  0.38110845  1
  Mo  Mo169  1  0.68904061  0.51010111  0.87599377  1
  Mo  Mo170  1  -0.00071442  0.00018303  0.75206749  1
  Mo  Mo171  1  0.91024596  0.90688482  0.61243514  1
  Mo  Mo172  1  0.91535922  0.68825186  0.38847423  1
  Mo  Mo173  1  0.29437719  0.89072837  0.62323479  1
  Mo  Mo174  1  0.09937893  0.09703342  0.37870773  1
  Mo  Mo175  1  0.81386948  -0.00313788  0.00274381  1
  Mo  Mo176  1  0.59971769  0.19913399  0.76136228  1
  Mo  Mo177  1  -0.00490737  0.40472448  0.74440577  1
  Mo  Mo178  1  0.70855115  0.88751215  0.85648863  1
  Mo  Mo179  1  0.10154021  0.70691263  0.38747236  1
  Mo  Mo180  1  0.80077000  0.61255201  0.73760955  1
  Mo  Mo181  1  0.20145737  0.79579597  0.49344790  1
  Mo  Mo182  1  0.09858140  0.70427696  0.12298904  1
  Mo  Mo183  1  0.20058731  -0.00025781  0.24470946  1
  Mo  Mo184  1  0.09720757  0.30723721  0.12211571  1
  Mo  Mo185  1  0.70015765  0.49336156  0.62313523  1
  Mo  Mo186  1  0.79311130  0.39028939  0.49674000  1
  Mo  Mo187  1  0.29754327  0.29113084  0.12503273  1
  Mo  Mo188  1  0.19431418  0.40296077  0.49397948  1
  Mo  Mo189  1  0.10154698  0.09426892  0.11950209  1
  Mo  Mo190  1  0.79301714  0.20695627  0.24913796  1
  Mo  Mo191  1  0.40921270  0.79728952  -0.00996146  1
  Mo  Mo192  1  0.09827054  0.89418162  0.61798031  1
  Mo  Mo193  1  0.79693884  0.59491583  0.24984498  1
  Mo  Mo194  1  0.31887383  0.70229884  0.85669392  1
  Mo  Mo195  1  0.80582065  -0.01523192  0.74549366  1
  Mo  Mo196  1  0.50082966  0.28568289  0.11531734  1
  Mo  Mo197  1  -0.00203809  0.60378528  0.01477328  1
  Mo  Mo198  1  0.51380690  0.89826509  0.63665519  1
  Mo  Mo199  1  0.90451901  0.71567101  0.87070318  1
