# generated using pymatgen
data_HfZrTaTiMo
_symmetry_space_group_name_H-M   'P 1'
_cell_length_a   15.21136775
_cell_length_b   15.20206125
_cell_length_c   16.86699137
_cell_angle_alpha   90.00779105
_cell_angle_beta   90.06039371
_cell_angle_gamma   89.91285453
_symmetry_Int_Tables_number   1
_chemical_formula_structural   HfZrTaTiMo
_chemical_formula_sum   'Hf40 Zr40 Ta40 Ti40 Mo40'
_cell_volume   3900.38627144
_cell_formula_units_Z   40
loop_
 _symmetry_equiv_pos_site_id
 _symmetry_equiv_pos_as_xyz
  1  'x, y, z'
loop_
 _atom_site_type_symbol
 _atom_site_label
 _atom_site_symmetry_multiplicity
 _atom_site_fract_x
 _atom_site_fract_y
 _atom_site_fract_z
 _atom_site_occupancy
  Hf  Hf0  1  0.80940118  0.20213790  -0.00412680  1
  Hf  Hf1  1  0.18483369  0.37522807  0.49871153  1
  Hf  Hf2  1  0.11419377  0.11500010  0.61008236  1
  Hf  Hf3  1  0.89505200  0.52027335  0.36473461  1
  Hf  Hf4  1  0.90597061  0.31464033  0.87661204  1
  Hf  Hf5  1  0.67460778  0.71076257  0.88192107  1
  Hf  Hf6  1  0.59111321  0.81673197  0.49212855  1
  Hf  Hf7  1  0.70254021  0.90055150  0.61417629  1
  Hf  Hf8  1  0.12063344  0.10911302  0.38072434  1
  Hf  Hf9  1  0.19317761  0.79011323  0.73779937  1
  Hf  Hf10  1  0.39281599  0.78338459  0.24900344  1
  Hf  Hf11  1  0.89943870  0.29716710  0.13758176  1
  Hf  Hf12  1  0.40222746  0.00732341  0.24718022  1
  Hf  Hf13  1  0.78683761  0.20830652  0.26280920  1
  Hf  Hf14  1  0.42374054  -0.00997694  0.74729466  1
  Hf  Hf15  1  0.32448732  0.09362164  0.38713152  1
  Hf  Hf16  1  0.29884461  0.50061928  0.36569004  1
  Hf  Hf17  1  0.90823248  0.11488582  0.38171964  1
  Hf  Hf18  1  0.50099738  0.70696543  0.60619993  1
  Hf  Hf19  1  0.59835734  0.19803707  -0.01847701  1
  Hf  Hf20  1  0.00161365  0.40951861  0.02226732  1
  Hf  Hf21  1  0.29843938  0.69241321  0.61145449  1
  Hf  Hf22  1  0.01756486  0.21341043  0.74686670  1
  Hf  Hf23  1  0.48946080  0.29051995  0.63976181  1
  Hf  Hf24  1  0.58904082  0.18498399  0.77195934  1
  Hf  Hf25  1  0.49749494  0.09491393  0.11216707  1
  Hf  Hf26  1  0.20235506  0.58562328  0.73678615  1
  Hf  Hf27  1  0.50911412  0.88895062  0.12863257  1
  Hf  Hf28  1  0.30775975  0.68096746  0.86756357  1
  Hf  Hf29  1  0.91078454  0.09813512  0.13905214  1
  Hf  Hf30  1  0.79430744  0.39238383  0.48841138  1
  Hf  Hf31  1  0.38247122  0.41054343  0.01772917  1
  Hf  Hf32  1  0.70153255  0.10302536  0.11916959  1
  Hf  Hf33  1  0.90155834  0.90869133  0.87183796  1
  Hf  Hf34  1  0.31767848  0.09648670  0.62227039  1
  Hf  Hf35  1  0.71773229  0.08399208  0.87725903  1
  Hf  Hf36  1  0.59106946  0.40318350  0.74829116  1
  Hf  Hf37  1  0.29254655  0.48180342  0.87360727  1
  Hf  Hf38  1  0.21518266  0.79494305  -0.00295516  1
  Hf  Hf39  1  0.69354058  0.50528822  0.87553027  1
  Zr  Zr40  1  0.90999395  0.10640736  0.61307177  1
  Zr  Zr41  1  0.71464896  0.89033483  0.12342794  1
  Zr  Zr42  1  0.68576487  0.50341221  0.61724117  1
  Zr  Zr43  1  0.49115407  0.90392573  0.36868578  1
  Zr  Zr44  1  -0.00398536  0.80425629  0.00344858  1
  Zr  Zr45  1  -0.00816373  0.59553558  0.22802593  1
  Zr  Zr46  1  0.78881231  0.60897324  0.00491729  1
  Zr  Zr47  1  -0.00374499  0.80714219  0.25027312  1
  Zr  Zr48  1  0.09152790  0.69653569  0.37786039  1
  Zr  Zr49  1  0.09319215  0.49015080  0.86914148  1
  Zr  Zr50  1  0.11236473  0.90976731  0.86901481  1
  Zr  Zr51  1  0.49678922  0.48706534  0.36490142  1
  Zr  Zr52  1  0.09764669  0.49017748  0.35656010  1
  Zr  Zr53  1  0.48137022  0.32158506  0.87370555  1
  Zr  Zr54  1  0.88783766  0.51240182  0.63413347  1
  Zr  Zr55  1  -0.00980423  0.82149720  0.73797304  1
  Zr  Zr56  1  0.58617379  0.61849557  0.74232981  1
  Zr  Zr57  1  0.69832702  0.69467871  0.38978863  1
  Zr  Zr58  1  0.57794518  0.38974416  0.50715657  1
  Zr  Zr59  1  0.80934996  -0.00259685  0.26121031  1
  Zr  Zr60  1  -0.00308608  0.62107942  0.74303377  1
  Zr  Zr61  1  0.31863540  0.88120371  0.86622433  1
  Zr  Zr62  1  -0.00870375  0.41441243  0.49245007  1
  Zr  Zr63  1  0.39549765  0.38100424  0.23745819  1
  Zr  Zr64  1  0.48563273  0.53142238  0.87903552  1
  Zr  Zr65  1  0.11316718  0.10130707  0.13925140  1
  Zr  Zr66  1  0.57809435  0.19908538  0.24923014  1
  Zr  Zr67  1  0.59837108  0.41304929  0.00698748  1
  Zr  Zr68  1  0.87843574  0.71917115  0.12057175  1
  Zr  Zr69  1  0.11271198  0.90481687  0.13145150  1
  Zr  Zr70  1  0.29873048  0.08128199  0.87130520  1
  Zr  Zr71  1  0.12296656  0.69567649  0.12933222  1
  Zr  Zr72  1  0.89911116  0.30658544  0.62299206  1
  Zr  Zr73  1  0.79810488  0.20326893  0.75728857  1
  Zr  Zr74  1  0.80201185  0.00071553  0.49472565  1
  Zr  Zr75  1  0.39433164  0.19330310  -0.01415398  1
  Zr  Zr76  1  0.01837148  0.00930251  0.00347256  1
  Zr  Zr77  1  0.18876591  0.58302610  0.50825616  1
  Zr  Zr78  1  0.69167886  0.49797207  0.37393250  1
  Zr  Zr79  1  0.89713988  0.51534598  0.87220467  1
  Ta  Ta80  1  0.49980504  0.29765274  0.11350300  1
  Ta  Ta81  1  0.38070513  0.39308678  0.50954564  1
  Ta  Ta82  1  0.19977677  0.58558093  0.00238586  1
  Ta  Ta83  1  0.91944556  0.10145238  0.86996016  1
  Ta  Ta84  1  0.00310487  0.60050489  0.01290567  1
  Ta  Ta85  1  0.10980238  0.10946643  0.86924094  1
  Ta  Ta86  1  0.79800766  0.79895175  0.26782824  1
  Ta  Ta87  1  0.51900613  0.09334666  0.62070743  1
  Ta  Ta88  1  0.49615351  0.51326527  0.13927977  1
  Ta  Ta89  1  0.81774754  -0.00694886  0.00763038  1
  Ta  Ta90  1  0.49168959  0.68777266  0.38494930  1
  Ta  Ta91  1  0.60879993  -0.00035023  0.25307425  1
  Ta  Ta92  1  0.69060006  0.51752522  0.13168843  1
  Ta  Ta93  1  0.40434897  0.58154295  0.50523299  1
  Ta  Ta94  1  0.10090808  0.29440566  0.14257960  1
  Ta  Ta95  1  0.09682652  0.69441859  0.88178951  1
  Ta  Ta96  1  0.22248870  0.19393549  0.25064101  1
  Ta  Ta97  1  0.79866437  0.41236624  0.24167098  1
  Ta  Ta98  1  0.69705816  0.90735032  0.37858221  1
  Ta  Ta99  1  0.60405471  0.78839253  0.25879306  1
  Ta  Ta100  1  0.01036401  -0.00195266  0.49176424  1
  Ta  Ta101  1  0.30963343  0.89006476  0.61805207  1
  Ta  Ta102  1  0.21101874  -0.00842762  0.50524181  1
  Ta  Ta103  1  0.70228352  0.70379394  0.60909153  1
  Ta  Ta104  1  0.62014258  -0.01544610  0.75295505  1
  Ta  Ta105  1  0.78280035  0.80535065  0.74845619  1
  Ta  Ta106  1  0.41495372  0.20611255  0.50165868  1
  Ta  Ta107  1  0.29666094  0.69895054  0.39290429  1
  Ta  Ta108  1  0.08727085  0.48467397  0.63359802  1
  Ta  Ta109  1  0.01113146  0.00007741  0.27130943  1
  Ta  Ta110  1  0.60375321  0.39524644  0.23790669  1
  Ta  Ta111  1  0.79409156  0.40571695  0.75038189  1
  Ta  Ta112  1  0.18401047  0.37485198  0.73997564  1
  Ta  Ta113  1  0.82060771  -0.00529308  0.73738947  1
  Ta  Ta114  1  0.00889387  0.20663914  0.00169401  1
  Ta  Ta115  1  0.10975540  0.89621489  0.38618512  1
  Ta  Ta116  1  0.80595786  0.60450671  0.50047348  1
  Ta  Ta117  1  0.29935008  0.29375862  0.37322589  1
  Ta  Ta118  1  0.70232491  0.10430838  0.62894587  1
  Ta  Ta119  1  0.27807458  0.29086167  0.87221147  1
  Ti  Ti120  1  0.69569490  0.30364215  0.12075330  1
  Ti  Ti121  1  0.41630996  0.78406775  0.74264969  1
  Ti  Ti122  1  0.70373181  0.31050281  0.87788294  1
  Ti  Ti123  1  0.78160398  0.20269297  0.48984230  1
  Ti  Ti124  1  -0.00630238  0.61167304  0.51252930  1
  Ti  Ti125  1  0.71003536  0.89476682  0.88304115  1
  Ti  Ti126  1  -0.00356249  0.80055256  0.50762215  1
  Ti  Ti127  1  0.19642728  0.00030396  0.73323826  1
  Ti  Ti128  1  0.19363559  0.39231876  0.01747928  1
  Ti  Ti129  1  0.52211988  0.10528203  0.38834312  1
  Ti  Ti130  1  0.39393619  0.60905485  0.01677186  1
  Ti  Ti131  1  0.40452452  -0.01667039  -0.00632726  1
  Ti  Ti132  1  0.52011274  0.88275226  0.87560338  1
  Ti  Ti133  1  0.39304533  0.19551588  0.76224189  1
  Ti  Ti134  1  0.29073230  0.52452637  0.14419265  1
  Ti  Ti135  1  0.19397246  0.19206509  0.00372659  1
  Ti  Ti136  1  0.20511028  0.79626139  0.25758146  1
  Ti  Ti137  1  0.88887029  0.71163803  0.87855970  1
  Ti  Ti138  1  0.42105758  0.78735449  0.00465695  1
  Ti  Ti139  1  0.91716788  0.31516636  0.35295960  1
  Ti  Ti140  1  0.30376633  0.89604391  0.12219466  1
  Ti  Ti141  1  0.30009654  0.08570449  0.11502760  1
  Ti  Ti142  1  0.28396144  0.28447940  0.62717408  1
  Ti  Ti143  1  0.21118977  -0.01177679  0.26256627  1
  Ti  Ti144  1  0.29810843  0.88851638  0.39157787  1
  Ti  Ti145  1  0.29911467  0.27947134  0.12205981  1
  Ti  Ti146  1  0.80090535  0.40918040  0.01395083  1
  Ti  Ti147  1  0.90669373  0.88958447  0.38605638  1
  Ti  Ti148  1  0.78398181  0.61397837  0.24362361  1
  Ti  Ti149  1  0.42124068  -0.01330694  0.50869437  1
  Ti  Ti150  1  0.01943607  0.22374171  0.48669429  1
  Ti  Ti151  1  0.67135443  0.29563551  0.37565572  1
  Ti  Ti152  1  0.19825717  0.39957540  0.23891119  1
  Ti  Ti153  1  0.69568362  0.29317698  0.62874473  1
  Ti  Ti154  1  0.60364773  -0.01015056  -0.00663519  1
  Ti  Ti155  1  0.88622732  0.72304683  0.62048941  1
  Ti  Ti156  1  0.78899221  0.61444554  0.75011313  1
  Ti  Ti157  1  0.37936731  0.40849368  0.73538839  1
  Ti  Ti158  1  0.09978238  0.30082466  0.88400032  1
  Ti  Ti159  1  0.09784600  0.90385749  0.61572742  1
  Mo  Mo160  1  0.21841720  0.20104831  0.49255507  1
  Mo  Mo161  1  -0.00431461  0.40423326  0.75002466  1
  Mo  Mo162  1  0.18918266  0.80269254  0.50924833  1
  Mo  Mo163  1  0.90534462  0.90605481  0.61587126  1
  Mo  Mo164  1  0.20842136  0.19240308  0.74931920  1
  Mo  Mo165  1  0.00987639  0.01335149  0.74428385  1
  Mo  Mo166  1  0.09306881  0.29533750  0.61902947  1
  Mo  Mo167  1  0.49979777  0.90478781  0.62489120  1
  Mo  Mo168  1  0.48380198  0.71366463  0.87345306  1
  Mo  Mo169  1  0.69806024  0.10345884  0.37364578  1
  Mo  Mo170  1  0.88845194  0.50536955  0.12625088  1
  Mo  Mo171  1  0.60523651  0.01265889  0.49814165  1
  Mo  Mo172  1  0.39630535  0.60317865  0.25462284  1
  Mo  Mo173  1  0.48426169  0.29086323  0.37712667  1
  Mo  Mo174  1  0.39097337  0.79889919  0.49463222  1
  Mo  Mo175  1  0.09059396  0.70029956  0.61521115  1
  Mo  Mo176  1  0.00667970  0.20001969  0.26159178  1
  Mo  Mo177  1  0.39751749  0.19143617  0.24358130  1
  Mo  Mo178  1  0.21337512  0.61342709  0.25727031  1
  Mo  Mo179  1  0.21798813  0.00126896  -0.00046746  1
  Mo  Mo180  1  0.50926210  0.07115248  0.88034311  1
  Mo  Mo181  1  0.59812087  0.81110984  0.74195471  1
  Mo  Mo182  1  0.79877973  0.80923792  -0.00776209  1
  Mo  Mo183  1  0.89967274  0.70263856  0.37965738  1
  Mo  Mo184  1  0.50920685  0.69393677  0.13184280  1
  Mo  Mo185  1  0.10403887  0.29701280  0.34906754  1
  Mo  Mo186  1  0.10737734  0.49705637  0.13008555  1
  Mo  Mo187  1  0.68298331  0.70711575  0.12912360  1
  Mo  Mo188  1  -0.00332505  0.40111401  0.23415900  1
  Mo  Mo189  1  0.90532974  0.90981034  0.13388872  1
  Mo  Mo190  1  0.60024543  0.80118151  0.00353110  1
  Mo  Mo191  1  0.80721270  0.79868411  0.48930811  1
  Mo  Mo192  1  0.57979816  0.61320982  0.00865166  1
  Mo  Mo193  1  0.39473675  0.59417599  0.73328754  1
  Mo  Mo194  1  0.29043823  0.48015382  0.62243450  1
  Mo  Mo195  1  0.59422999  0.60317510  0.25280354  1
  Mo  Mo196  1  0.48097477  0.50115751  0.62797596  1
  Mo  Mo197  1  0.59422911  0.59807099  0.50523675  1
  Mo  Mo198  1  0.31074290  0.70509165  0.12219270  1
  Mo  Mo199  1  0.60703669  0.20156118  0.50668622  1
