# generated using pymatgen
data_HfZrTaTiMo
_symmetry_space_group_name_H-M   'P 1'
_cell_length_a   15.21525268
_cell_length_b   15.20065874
_cell_length_c   16.85276128
_cell_angle_alpha   90.02191549
_cell_angle_beta   89.92943837
_cell_angle_gamma   90.03905537
_symmetry_Int_Tables_number   1
_chemical_formula_structural   HfZrTaTiMo
_chemical_formula_sum   'Hf40 Zr40 Ta40 Ti40 Mo40'
_cell_volume   3897.73388948
_cell_formula_units_Z   40
loop_
 _symmetry_equiv_pos_site_id
 _symmetry_equiv_pos_as_xyz
  1  'x, y, z'
loop_
 _atom_site_type_symbol
 _atom_site_label
 _atom_site_symmetry_multiplicity
 _atom_site_fract_x
 _atom_site_fract_y
 _atom_site_fract_z
 _atom_site_occupancy
  Hf  Hf0  1  0.32313701  0.89397674  0.37318824  1
  Hf  Hf1  1  0.90534195  0.89314934  0.38142824  1
  Hf  Hf2  1  0.40508790  0.79074711  0.75584489  1
  Hf  Hf3  1  0.39831456  0.01322331  -0.01426542  1
  Hf  Hf4  1  0.90595981  0.31930148  0.39066817  1
  Hf  Hf5  1  0.10100705  0.28395944  0.64000770  1
  Hf  Hf6  1  0.81934214  0.00304031  0.73497349  1
  Hf  Hf7  1  0.79905985  0.38244617  -0.01364725  1
  Hf  Hf8  1  0.48485294  0.50860429  0.12421767  1
  Hf  Hf9  1  0.10015427  0.91167179  0.88624985  1
  Hf  Hf10  1  -0.01260405  0.39674452  0.75807814  1
  Hf  Hf11  1  0.90185067  0.28689351  0.11793637  1
  Hf  Hf12  1  0.10898691  0.89697306  0.37536948  1
  Hf  Hf13  1  0.49915931  0.50224140  0.37668833  1
  Hf  Hf14  1  0.10691920  0.49156898  0.11668806  1
  Hf  Hf15  1  0.60001134  0.40009873  0.00599081  1
  Hf  Hf16  1  0.21392469  -0.00104306  0.50570381  1
  Hf  Hf17  1  0.28145253  0.10315322  0.65124977  1
  Hf  Hf18  1  0.19800830  0.40035708  0.51359945  1
  Hf  Hf19  1  0.20620617  0.58661027  -0.01449555  1
  Hf  Hf20  1  0.09688151  0.69264563  0.37650932  1
  Hf  Hf21  1  0.79249992  0.60379112  -0.00160969  1
  Hf  Hf22  1  0.59808778  0.40405119  0.24189988  1
  Hf  Hf23  1  0.70291762  0.29815536  0.38075553  1
  Hf  Hf24  1  0.10604198  0.70514169  0.86114070  1
  Hf  Hf25  1  0.39179794  0.59794891  0.50219601  1
  Hf  Hf26  1  0.92169234  0.89115246  0.61006521  1
  Hf  Hf27  1  0.59140989  0.20845827  0.51848828  1
  Hf  Hf28  1  0.69654842  0.89925797  0.63403666  1
  Hf  Hf29  1  0.20882001  0.20041550  -0.01837908  1
  Hf  Hf30  1  0.89536285  0.09394078  0.87227558  1
  Hf  Hf31  1  0.49990069  0.70128391  0.62032518  1
  Hf  Hf32  1  0.89804704  0.70266209  0.87660629  1
  Hf  Hf33  1  0.28648786  0.68778641  0.63903802  1
  Hf  Hf34  1  0.79956962  0.58815252  0.75694583  1
  Hf  Hf35  1  0.48750512  0.10301482  0.63256129  1
  Hf  Hf36  1  0.69088843  0.49146834  0.87261205  1
  Hf  Hf37  1  0.20504962  0.80226750  0.23998365  1
  Hf  Hf38  1  0.80617762  0.79324334  0.74594015  1
  Hf  Hf39  1  -0.00217233  0.79958297  0.00550033  1
  Zr  Zr40  1  0.60825041  0.18830936  0.25315056  1
  Zr  Zr41  1  0.59424212  0.60895494  0.00729904  1
  Zr  Zr42  1  0.89741402  0.69863389  0.11988685  1
  Zr  Zr43  1  0.48935020  0.29604200  0.11472393  1
  Zr  Zr44  1  0.92123703  0.11014547  0.60990364  1
  Zr  Zr45  1  0.20495723  0.59016091  0.24831485  1
  Zr  Zr46  1  0.51501804  0.09324483  0.11686348  1
  Zr  Zr47  1  0.40649021  0.00668371  0.77085622  1
  Zr  Zr48  1  0.20172965  0.78557516  0.50376564  1
  Zr  Zr49  1  0.59471833  0.82768956  0.25131454  1
  Zr  Zr50  1  0.90292183  0.48949471  0.11337915  1
  Zr  Zr51  1  0.79400810  0.01561263  0.26115216  1
  Zr  Zr52  1  0.29569254  0.09861882  0.12217410  1
  Zr  Zr53  1  0.08894806  0.10002197  0.39171772  1
  Zr  Zr54  1  0.60453229  0.80498008  0.01335869  1
  Zr  Zr55  1  0.01451435  0.39302967  -0.02000347  1
  Zr  Zr56  1  0.30505482  0.48789698  0.64167099  1
  Zr  Zr57  1  0.41418784  -0.01655731  0.24164182  1
  Zr  Zr58  1  -0.02180676  0.20048213  0.25326745  1
  Zr  Zr59  1  0.18460753  0.19617622  0.24859805  1
  Zr  Zr60  1  0.30585674  0.89714010  0.63626796  1
  Zr  Zr61  1  0.49487266  0.70972319  0.37262698  1
  Zr  Zr62  1  0.62228833  0.01295928  -0.01348596  1
  Zr  Zr63  1  0.88960127  0.11353908  0.39960461  1
  Zr  Zr64  1  0.00931594  -0.00136712  0.24493946  1
  Zr  Zr65  1  0.78909295  -0.00581179  0.50759347  1
  Zr  Zr66  1  0.39540396  0.20234349  0.24854785  1
  Zr  Zr67  1  0.70009960  0.69101627  0.62390743  1
  Zr  Zr68  1  0.10047940  0.51164998  0.64319995  1
  Zr  Zr69  1  0.80790644  0.42481970  0.50636939  1
  Zr  Zr70  1  0.29728513  0.29338334  0.38289433  1
  Zr  Zr71  1  0.48400947  0.09259894  0.39048805  1
  Zr  Zr72  1  0.51297860  0.89369334  0.87821998  1
  Zr  Zr73  1  0.80209268  0.59931154  0.24187412  1
  Zr  Zr74  1  0.60864448  0.81050493  0.48833036  1
  Zr  Zr75  1  0.70909383  0.50829309  0.36919138  1
  Zr  Zr76  1  0.29152100  0.89100225  0.88147585  1
  Zr  Zr77  1  0.08901493  0.10571030  0.10892486  1
  Zr  Zr78  1  0.38138832  0.39834503  -0.01517840  1
  Zr  Zr79  1  0.49753546  0.30458592  0.38063061  1
  Ta  Ta80  1  -0.00546152  0.59376637  0.50079670  1
  Ta  Ta81  1  0.59497404  0.61308270  0.23921691  1
  Ta  Ta82  1  0.59402742  0.60425773  0.75643458  1
  Ta  Ta83  1  0.00650604  0.59783997  -0.01115520  1
  Ta  Ta84  1  0.59383776  0.21664150  0.74053869  1
  Ta  Ta85  1  0.02441146  0.01148106  0.74857617  1
  Ta  Ta86  1  0.09026379  0.70514541  0.63748485  1
  Ta  Ta87  1  0.00408076  0.59286076  0.24890321  1
  Ta  Ta88  1  0.40726285  0.59455532  0.75978879  1
  Ta  Ta89  1  0.90029134  0.69114676  0.37447015  1
  Ta  Ta90  1  0.40482698  0.79210793  0.00988087  1
  Ta  Ta91  1  0.60090830  0.40649520  0.51713123  1
  Ta  Ta92  1  0.90187377  0.49875338  0.87587525  1
  Ta  Ta93  1  0.78650864  0.18525126  -0.00999946  1
  Ta  Ta94  1  0.70158803  0.92714674  0.12993173  1
  Ta  Ta95  1  0.10317963  0.69360103  0.12028729  1
  Ta  Ta96  1  0.00670890  0.39986129  0.24980683  1
  Ta  Ta97  1  0.80790581  0.78481262  0.49842808  1
  Ta  Ta98  1  0.71487657  0.90740231  0.85995384  1
  Ta  Ta99  1  0.90378774  0.90087209  0.87309479  1
  Ta  Ta100  1  0.09627010  0.30402773  0.38651934  1
  Ta  Ta101  1  0.70610848  0.28841736  0.12687316  1
  Ta  Ta102  1  0.29952514  0.69435358  0.37510126  1
  Ta  Ta103  1  0.28664873  0.30720256  0.11786336  1
  Ta  Ta104  1  0.69702121  0.11004756  0.84516805  1
  Ta  Ta105  1  0.09251795  0.49223766  0.38424777  1
  Ta  Ta106  1  0.29382886  0.49696020  0.38308417  1
  Ta  Ta107  1  0.50473213  0.90745786  0.62582717  1
  Ta  Ta108  1  0.38526998  0.40631629  0.24918448  1
  Ta  Ta109  1  0.28817131  0.08716503  0.36838770  1
  Ta  Ta110  1  0.30547595  0.68559617  0.11624995  1
  Ta  Ta111  1  0.19666104  0.39428863  0.25438795  1
  Ta  Ta112  1  -0.00345436  0.79223312  0.24169657  1
  Ta  Ta113  1  0.60007584  0.40630023  0.73545578  1
  Ta  Ta114  1  0.68209183  0.08977936  0.39048526  1
  Ta  Ta115  1  0.50867366  0.30351819  0.87120603  1
  Ta  Ta116  1  0.10464635  0.90220136  0.11772110  1
  Ta  Ta117  1  0.90693348  0.68867757  0.62393517  1
  Ta  Ta118  1  0.89162779  0.90063703  0.12916829  1
  Ta  Ta119  1  0.69566002  0.10585023  0.64073046  1
  Ti  Ti120  1  0.19481857  0.19750359  0.50681180  1
  Ti  Ti121  1  0.30034785  0.90204039  0.11462336  1
  Ti  Ti122  1  0.79391344  0.81817781  -0.00177365  1
  Ti  Ti123  1  0.59858442  0.79928662  0.75288929  1
  Ti  Ti124  1  0.70391222  0.50082506  0.62853060  1
  Ti  Ti125  1  0.00416350  0.81165682  0.74960890  1
  Ti  Ti126  1  0.49656992  0.50214636  0.87271437  1
  Ti  Ti127  1  0.29995041  0.29231345  0.85276371  1
  Ti  Ti128  1  0.10485691  0.50168354  0.85532084  1
  Ti  Ti129  1  0.70321863  0.49704899  0.12687877  1
  Ti  Ti130  1  -0.01101278  0.00167113  0.00406082  1
  Ti  Ti131  1  0.10633502  0.29611061  0.86073639  1
  Ti  Ti132  1  0.80843944  0.39038896  0.24852251  1
  Ti  Ti133  1  0.40525042  0.38985588  0.51321019  1
  Ti  Ti134  1  0.50490997  0.50643551  0.62486968  1
  Ti  Ti135  1  0.87795294  0.09432537  0.11622928  1
  Ti  Ti136  1  0.79168393  0.38005055  0.75453047  1
  Ti  Ti137  1  0.78840942  0.21254185  0.51842546  1
  Ti  Ti138  1  0.10225622  0.30134546  0.11444051  1
  Ti  Ti139  1  0.10800363  0.90409355  0.62475438  1
  Ti  Ti140  1  0.89805581  0.30937746  0.62090878  1
  Ti  Ti141  1  0.30353681  0.69541019  0.87125852  1
  Ti  Ti142  1  0.39679507  0.59917927  0.25280988  1
  Ti  Ti143  1  -0.00805929  0.20203591  -0.01868039  1
  Ti  Ti144  1  -0.01127860  0.19781673  0.75975855  1
  Ti  Ti145  1  0.90341368  0.50523765  0.63365622  1
  Ti  Ti146  1  0.40243714  0.60425585  -0.01331268  1
  Ti  Ti147  1  0.40357638  0.80945507  0.50386809  1
  Ti  Ti148  1  0.70997806  0.71428962  0.36119950  1
  Ti  Ti149  1  0.60163401  0.20515755  -0.01253784  1
  Ti  Ti150  1  0.68946330  0.70864859  0.87483598  1
  Ti  Ti151  1  0.29556401  0.49169771  0.11887286  1
  Ti  Ti152  1  0.20380176  0.79305880  0.00861303  1
  Ti  Ti153  1  0.61508939  0.60099405  0.49373414  1
  Ti  Ti154  1  0.70543978  0.72188667  0.13849483  1
  Ti  Ti155  1  0.30293710  0.29067892  0.64870340  1
  Ti  Ti156  1  0.29259582  0.48814191  0.85330857  1
  Ti  Ti157  1  0.40098552  0.78787642  0.22618386  1
  Ti  Ti158  1  0.41478278  0.39133492  0.74954748  1
  Ti  Ti159  1  0.38128757  0.19316138  0.51028288  1
  Mo  Mo160  1  0.01235856  -0.00677210  0.49998999  1
  Mo  Mo161  1  0.40545931  0.20203350  -0.02625645  1
  Mo  Mo162  1  0.19829147  0.59465325  0.49694531  1
  Mo  Mo163  1  0.70211382  0.30783260  0.62412121  1
  Mo  Mo164  1  0.70609553  0.90388546  0.37713802  1
  Mo  Mo165  1  -0.00755873  0.60486968  0.75663504  1
  Mo  Mo166  1  0.19333821  0.80611173  0.74785447  1
  Mo  Mo167  1  0.19612281  -0.00491649  0.00460389  1
  Mo  Mo168  1  0.79814900  0.21098692  0.25706339  1
  Mo  Mo169  1  0.60275581  0.00517695  0.25337114  1
  Mo  Mo170  1  0.69535502  0.29216198  0.86590448  1
  Mo  Mo171  1  0.49692427  0.69935754  0.13252853  1
  Mo  Mo172  1  0.80535462  0.80801312  0.25151666  1
  Mo  Mo173  1  0.80356039  -0.00585050  -0.00661515  1
  Mo  Mo174  1  0.80450285  0.20856211  0.73460554  1
  Mo  Mo175  1  0.60522549  0.00056117  0.75173169  1
  Mo  Mo176  1  0.00221278  0.78896145  0.50168225  1
  Mo  Mo177  1  0.49584799  0.90152406  0.11197276  1
  Mo  Mo178  1  0.50467418  0.11538121  0.86923805  1
  Mo  Mo179  1  0.89254528  0.29089892  0.87164428  1
  Mo  Mo180  1  0.39945607  0.20487001  0.76406211  1
  Mo  Mo181  1  0.20409142  -0.00781029  0.24754347  1
  Mo  Mo182  1  0.20015389  0.38994196  0.75189574  1
  Mo  Mo183  1  0.00543983  0.40539678  0.51550245  1
  Mo  Mo184  1  0.79939493  0.60903861  0.49497617  1
  Mo  Mo185  1  0.28821067  0.09996295  0.86428240  1
  Mo  Mo186  1  0.09858869  0.09176757  0.61732904  1
  Mo  Mo187  1  0.48839956  0.31066161  0.62796330  1
  Mo  Mo188  1  0.49972768  0.69427058  0.87492498  1
  Mo  Mo189  1  0.19398104  -0.01097133  0.75342301  1
  Mo  Mo190  1  0.00504153  0.21908888  0.50699262  1
  Mo  Mo191  1  0.09283157  0.10058160  0.88577010  1
  Mo  Mo192  1  0.18095727  0.18125656  0.76814268  1
  Mo  Mo193  1  0.91475461  0.50746443  0.36932327  1
  Mo  Mo194  1  0.20584089  0.60196858  0.76468111  1
  Mo  Mo195  1  0.51602914  0.91836881  0.39403226  1
  Mo  Mo196  1  0.39743225  0.00120109  0.50998572  1
  Mo  Mo197  1  0.59550048  0.00627251  0.51335827  1
  Mo  Mo198  1  0.70975859  0.11074256  0.12163038  1
  Mo  Mo199  1  0.20140175  0.39617366  -0.01570898  1
