# generated using pymatgen
data_HfZrTaTiMo
_symmetry_space_group_name_H-M   'P 1'
_cell_length_a   15.17549564
_cell_length_b   15.17605136
_cell_length_c   16.80267303
_cell_angle_alpha   90.01998531
_cell_angle_beta   89.96048528
_cell_angle_gamma   90.07803130
_symmetry_Int_Tables_number   1
_chemical_formula_structural   HfZrTaTiMo
_chemical_formula_sum   'Hf40 Zr40 Ta40 Ti40 Mo40'
_cell_volume   3869.71976683
_cell_formula_units_Z   40
loop_
 _symmetry_equiv_pos_site_id
 _symmetry_equiv_pos_as_xyz
  1  'x, y, z'
loop_
 _atom_site_type_symbol
 _atom_site_label
 _atom_site_symmetry_multiplicity
 _atom_site_fract_x
 _atom_site_fract_y
 _atom_site_fract_z
 _atom_site_occupancy
  Hf  Hf0  1  0.69564069  0.68982852  0.63166136  1
  Hf  Hf1  1  0.29410916  0.47996879  0.62786729  1
  Hf  Hf2  1  0.32617837  0.08893187  0.11710469  1
  Hf  Hf3  1  0.19820369  -0.00793192  -0.01097717  1
  Hf  Hf4  1  0.69883288  0.70524155  0.87147394  1
  Hf  Hf5  1  0.39358614  0.80309627  0.25628847  1
  Hf  Hf6  1  0.28852255  0.90526267  0.62674771  1
  Hf  Hf7  1  0.00229739  0.00182677  0.24429815  1
  Hf  Hf8  1  0.87974194  0.50194798  0.61568064  1
  Hf  Hf9  1  0.49639064  0.70428887  0.63328972  1
  Hf  Hf10  1  0.89295427  0.89275479  0.38370376  1
  Hf  Hf11  1  0.69458811  0.71531327  0.37185436  1
  Hf  Hf12  1  0.88857024  0.69901165  0.12231246  1
  Hf  Hf13  1  0.28689882  0.47131295  0.87588407  1
  Hf  Hf14  1  0.39404330  0.59365849  0.49059055  1
  Hf  Hf15  1  0.09353231  0.49972937  0.37635282  1
  Hf  Hf16  1  0.01511770  0.21939026  0.74597193  1
  Hf  Hf17  1  0.38708855  0.59259824  0.26425885  1
  Hf  Hf18  1  -0.00780111  0.58135876  0.00004428  1
  Hf  Hf19  1  0.50658839  0.90414971  0.38245933  1
  Hf  Hf20  1  0.89655877  0.09200510  0.38493740  1
  Hf  Hf21  1  0.49086652  0.68800154  0.12829915  1
  Hf  Hf22  1  0.22774022  0.19131587  0.48625437  1
  Hf  Hf23  1  0.79908228  0.00282160  0.74225144  1
  Hf  Hf24  1  0.02262292  0.19171711  0.50379968  1
  Hf  Hf25  1  0.81062263  0.19933766  0.51514445  1
  Hf  Hf26  1  0.69012211  0.11062475  0.62183842  1
  Hf  Hf27  1  0.88791821  0.69261580  0.88480009  1
  Hf  Hf28  1  0.68415318  0.10529963  0.39947417  1
  Hf  Hf29  1  0.78974244  0.39023414  0.24112198  1
  Hf  Hf30  1  0.18401321  0.58101022  0.75067715  1
  Hf  Hf31  1  -0.02270081  0.59429596  0.74864039  1
  Hf  Hf32  1  0.30519287  0.50065507  0.11745483  1
  Hf  Hf33  1  0.78576680  0.00580514  -0.01104342  1
  Hf  Hf34  1  0.09865144  0.10887112  0.87303913  1
  Hf  Hf35  1  0.00732562  0.19999707  0.24144590  1
  Hf  Hf36  1  0.67868057  0.90316558  0.85903198  1
  Hf  Hf37  1  0.32763202  0.28568744  0.62425676  1
  Hf  Hf38  1  0.32556590  0.30691609  0.12562229  1
  Hf  Hf39  1  0.39515761  0.80389490  0.49532201  1
  Zr  Zr40  1  0.88834445  0.10150974  0.12269048  1
  Zr  Zr41  1  0.42804533  0.20913431  -0.01213663  1
  Zr  Zr42  1  0.59783413  0.81099412  0.00640478  1
  Zr  Zr43  1  0.19051193  0.59734525  0.50928948  1
  Zr  Zr44  1  0.53048900  0.29928667  0.37809923  1
  Zr  Zr45  1  0.58872856  0.02588444  0.25072670  1
  Zr  Zr46  1  0.89749959  0.69678841  0.36727916  1
  Zr  Zr47  1  0.69404052  0.89810946  0.61936009  1
  Zr  Zr48  1  0.21390668  0.20091928  0.00239288  1
  Zr  Zr49  1  0.60287879  0.80868234  0.24574911  1
  Zr  Zr50  1  0.13140446  0.30522865  0.61494783  1
  Zr  Zr51  1  0.89063099  0.89697020  0.11793007  1
  Zr  Zr52  1  0.00157565  0.79719345  -0.00152668  1
  Zr  Zr53  1  0.92281956  0.30064771  0.38076087  1
  Zr  Zr54  1  0.00084319  0.79543729  0.24241668  1
  Zr  Zr55  1  0.01578772  0.21484391  0.01377791  1
  Zr  Zr56  1  0.42420342  0.19342032  0.25833391  1
  Zr  Zr57  1  0.77650310  0.59597451  0.49292786  1
  Zr  Zr58  1  0.41979248  0.39321187  0.76037299  1
  Zr  Zr59  1  0.40093993  0.39256708  0.48196546  1
  Zr  Zr60  1  0.58725474  0.59425442  -0.00172420  1
  Zr  Zr61  1  0.69685347  0.90779072  0.12023869  1
  Zr  Zr62  1  0.21155218  0.19743964  0.24813485  1
  Zr  Zr63  1  0.38865756  0.59928748  0.76311456  1
  Zr  Zr64  1  0.70645379  0.49608795  0.88350098  1
  Zr  Zr65  1  0.39620692  0.00467026  0.74880054  1
  Zr  Zr66  1  -0.01121292  0.60447430  0.50798002  1
  Zr  Zr67  1  0.92046162  0.31396185  0.61274550  1
  Zr  Zr68  1  0.69173040  0.11245149  0.85861191  1
  Zr  Zr69  1  0.10596165  0.90165349  0.37429394  1
  Zr  Zr70  1  0.89776535  0.11068368  0.86853964  1
  Zr  Zr71  1  0.01258282  0.39969627  0.23618833  1
  Zr  Zr72  1  0.78700323  -0.00816197  0.25896678  1
  Zr  Zr73  1  0.29150452  0.89540476  0.11897717  1
  Zr  Zr74  1  0.29213932  0.70062295  0.62950170  1
  Zr  Zr75  1  0.92033451  0.32197085  0.88264100  1
  Zr  Zr76  1  0.49969680  0.71662637  0.86410168  1
  Zr  Zr77  1  0.71973561  0.31080962  0.39214243  1
  Zr  Zr78  1  0.28510593  0.69369454  0.12252479  1
  Zr  Zr79  1  0.39709187  0.79642255  -0.00342938  1
  Ta  Ta80  1  0.70091899  0.69486025  0.12598399  1
  Ta  Ta81  1  0.28420933  0.70393615  0.37821369  1
  Ta  Ta82  1  0.07951584  0.47855458  0.87481550  1
  Ta  Ta83  1  0.48486541  0.92416997  0.12599549  1
  Ta  Ta84  1  0.19404377  0.78862362  -0.02094424  1
  Ta  Ta85  1  0.19258304  0.59629900  -0.01662541  1
  Ta  Ta86  1  0.11416378  0.09132572  0.63498763  1
  Ta  Ta87  1  0.08530447  0.71257411  0.64339563  1
  Ta  Ta88  1  0.41570820  0.40404515  0.26388371  1
  Ta  Ta89  1  0.50009717  0.69596622  0.37298670  1
  Ta  Ta90  1  0.09133149  0.69162259  0.86363353  1
  Ta  Ta91  1  0.78391818  0.59546583  0.24939367  1
  Ta  Ta92  1  0.22173659  0.20041957  0.75976025  1
  Ta  Ta93  1  0.81430482  0.40365583  0.75127105  1
  Ta  Ta94  1  0.56515755  0.01113221  0.51987150  1
  Ta  Ta95  1  0.91127132  0.09508533  0.62960827  1
  Ta  Ta96  1  0.10361617  0.09770058  0.37474016  1
  Ta  Ta97  1  0.39018950  0.00048677  0.26694481  1
  Ta  Ta98  1  0.80733649  0.79490401  0.74320795  1
  Ta  Ta99  1  0.80099509  0.40360139  0.01011162  1
  Ta  Ta100  1  0.30522348  0.89460285  0.87499891  1
  Ta  Ta101  1  0.88657326  0.50353309  0.12903742  1
  Ta  Ta102  1  0.08940949  0.89813155  0.86669578  1
  Ta  Ta103  1  0.68051558  0.49123810  0.12156197  1
  Ta  Ta104  1  0.20156948  0.79650713  0.76478637  1
  Ta  Ta105  1  0.88956744  0.89639474  0.87544259  1
  Ta  Ta106  1  0.18957850  0.80768568  0.50389043  1
  Ta  Ta107  1  0.00289325  0.79889375  0.50881057  1
  Ta  Ta108  1  0.18907022  0.39320065  0.00684533  1
  Ta  Ta109  1  0.80390407  0.21606208  0.73407179  1
  Ta  Ta110  1  0.88849000  0.49284997  0.37170770  1
  Ta  Ta111  1  0.09703683  0.70167189  0.37546410  1
  Ta  Ta112  1  -0.00162953  0.00215144  -0.00294506  1
  Ta  Ta113  1  0.59078246  0.58711402  0.75522186  1
  Ta  Ta114  1  0.39450834  0.58676556  -0.02007097  1
  Ta  Ta115  1  0.41546135  0.19937085  0.76405352  1
  Ta  Ta116  1  0.10215885  0.89597504  0.11949081  1
  Ta  Ta117  1  0.53035799  0.30723096  0.13369364  1
  Ta  Ta118  1  0.19897061  -0.00004756  0.76389679  1
  Ta  Ta119  1  0.00593852  -0.00714852  0.51083512  1
  Ti  Ti120  1  -0.00462188  0.59631516  0.24451336  1
  Ti  Ti121  1  0.40447157  0.81312377  0.75046524  1
  Ti  Ti122  1  0.09777611  0.90034823  0.64095446  1
  Ti  Ti123  1  0.58597800  0.59768292  0.49868106  1
  Ti  Ti124  1  0.10012244  0.69563875  0.12073058  1
  Ti  Ti125  1  0.10515902  0.50242097  0.12417892  1
  Ti  Ti126  1  0.21797020  0.40399543  0.25527438  1
  Ti  Ti127  1  0.61539067  0.39773666  0.75287862  1
  Ti  Ti128  1  0.80243448  0.20688133  -0.00048120  1
  Ti  Ti129  1  0.59874869  0.21113727  0.74108246  1
  Ti  Ti130  1  0.68216358  0.49953123  0.37019840  1
  Ti  Ti131  1  0.12286389  0.30531786  0.38056872  1
  Ti  Ti132  1  0.20366488  -0.00410720  0.24854227  1
  Ti  Ti133  1  0.50973068  0.09198045  0.86921866  1
  Ti  Ti134  1  0.30217383  0.09841158  0.62545574  1
  Ti  Ti135  1  0.57910075  -0.00310572  0.72746782  1
  Ti  Ti136  1  0.18939696  0.59900894  0.25444423  1
  Ti  Ti137  1  0.78738578  0.59211101  0.74960522  1
  Ti  Ti138  1  0.70930905  0.32466042  0.61432292  1
  Ti  Ti139  1  0.42177324  0.18386585  0.48592454  1
  Ti  Ti140  1  0.59377041  0.79661620  0.50576248  1
  Ti  Ti141  1  0.61651630  0.20485491  -0.00274580  1
  Ti  Ti142  1  0.10927987  0.09204558  0.12078279  1
  Ti  Ti143  1  0.70255851  0.91119630  0.40722895  1
  Ti  Ti144  1  0.68863264  0.11807232  0.12544479  1
  Ti  Ti145  1  0.58786184  0.39148220  -0.00763896  1
  Ti  Ti146  1  0.19720085  0.79710559  0.25135284  1
  Ti  Ti147  1  0.50517113  0.49474670  0.62311826  1
  Ti  Ti148  1  0.58124972  0.01461570  0.00295402  1
  Ti  Ti149  1  0.80832191  0.79653111  0.51565189  1
  Ti  Ti150  1  0.90075484  0.30246302  0.12165368  1
  Ti  Ti151  1  0.08682348  0.48607496  0.62171785  1
  Ti  Ti152  1  0.31086420  0.09726771  0.88245966  1
  Ti  Ti153  1  0.51954994  0.30217251  0.61451060  1
  Ti  Ti154  1  0.90919517  0.89367737  0.62958145  1
  Ti  Ti155  1  -0.00250024  -0.00212360  0.75298002  1
  Ti  Ti156  1  0.37342818  0.00405461  0.48547719  1
  Ti  Ti157  1  0.79572100  0.19471956  0.25183575  1
  Ti  Ti158  1  0.71494940  0.30021191  0.87186302  1
  Ti  Ti159  1  0.58689048  0.58716067  0.24746225  1
  Mo  Mo160  1  0.01079320  0.40652296  0.48945328  1
  Mo  Mo161  1  0.78972573  0.79270688  0.25279978  1
  Mo  Mo162  1  0.28913761  0.49533629  0.37133785  1
  Mo  Mo163  1  0.60551755  0.40814168  0.24766942  1
  Mo  Mo164  1  0.50611274  0.11080504  0.12063316  1
  Mo  Mo165  1  0.80618086  0.41086629  0.49372514  1
  Mo  Mo166  1  0.89256111  0.70732464  0.62840873  1
  Mo  Mo167  1  0.18761093  0.00259583  0.50616760  1
  Mo  Mo168  1  0.59511218  0.80347513  0.73891976  1
  Mo  Mo169  1  0.11887766  0.30863635  0.13487295  1
  Mo  Mo170  1  0.60055473  0.20842060  0.51564574  1
  Mo  Mo171  1  0.19745310  0.38350054  0.74959736  1
  Mo  Mo172  1  0.53019502  0.29275293  0.87113065  1
  Mo  Mo173  1  0.68478758  0.49534966  0.63235873  1
  Mo  Mo174  1  0.49734153  0.91378959  0.87273573  1
  Mo  Mo175  1  0.71173024  0.29724304  0.11585324  1
  Mo  Mo176  1  0.00303117  0.40296373  0.02220220  1
  Mo  Mo177  1  -0.00543519  0.80433269  0.75712734  1
  Mo  Mo178  1  0.12287483  0.30877425  0.87297387  1
  Mo  Mo179  1  0.00824079  0.41034602  0.74451160  1
  Mo  Mo180  1  0.80870895  -0.00525176  0.51732762  1
  Mo  Mo181  1  0.31046432  0.29731966  0.36341596  1
  Mo  Mo182  1  0.48808319  0.48737978  0.12298652  1
  Mo  Mo183  1  0.29562600  0.09226121  0.37095162  1
  Mo  Mo184  1  0.89048164  0.49779662  0.87931990  1
  Mo  Mo185  1  0.50405618  0.49309257  0.87216938  1
  Mo  Mo186  1  0.79239470  0.80346277  -0.00931867  1
  Mo  Mo187  1  0.31010365  0.29041283  0.87835698  1
  Mo  Mo188  1  0.48183288  0.11753120  0.62668489  1
  Mo  Mo189  1  0.20958871  0.39862012  0.48637306  1
  Mo  Mo190  1  0.50533648  0.50704830  0.37641661  1
  Mo  Mo191  1  0.62493785  0.21155202  0.24984396  1
  Mo  Mo192  1  0.50235297  0.09615623  0.38175586  1
  Mo  Mo193  1  0.29026746  0.69203421  0.87099286  1
  Mo  Mo194  1  0.78825394  0.59749669  0.01317975  1
  Mo  Mo195  1  0.60868578  0.41952759  0.50804484  1
  Mo  Mo196  1  0.29050689  0.89520023  0.37572297  1
  Mo  Mo197  1  0.40759438  -0.00114275  -0.01284744  1
  Mo  Mo198  1  0.41097563  0.40227491  -0.00580569  1
  Mo  Mo199  1  0.48500870  0.90083007  0.61525310  1
