# generated using pymatgen
data_HfZrTaTiMo
_symmetry_space_group_name_H-M   'P 1'
_cell_length_a   15.20697528
_cell_length_b   15.21895637
_cell_length_c   16.82567552
_cell_angle_alpha   89.96838401
_cell_angle_beta   90.05663770
_cell_angle_gamma   90.06214364
_symmetry_Int_Tables_number   1
_chemical_formula_structural   HfZrTaTiMo
_chemical_formula_sum   'Hf40 Zr40 Ta40 Ti40 Mo40'
_cell_volume   3894.03354060
_cell_formula_units_Z   40
loop_
 _symmetry_equiv_pos_site_id
 _symmetry_equiv_pos_as_xyz
  1  'x, y, z'
loop_
 _atom_site_type_symbol
 _atom_site_label
 _atom_site_symmetry_multiplicity
 _atom_site_fract_x
 _atom_site_fract_y
 _atom_site_fract_z
 _atom_site_occupancy
  Hf  Hf0  1  0.68607155  0.89697292  0.62773140  1
  Hf  Hf1  1  0.50685202  0.70043460  0.63503043  1
  Hf  Hf2  1  0.09575313  0.88386209  0.12834119  1
  Hf  Hf3  1  0.90752167  0.51044223  0.14131211  1
  Hf  Hf4  1  0.60547476  0.39329442  -0.00529828  1
  Hf  Hf5  1  0.81794735  0.19914498  0.74155971  1
  Hf  Hf6  1  0.10458657  0.27418565  0.87583046  1
  Hf  Hf7  1  0.79766341  0.01261264  -0.01358322  1
  Hf  Hf8  1  0.19436630  0.81497198  0.73938211  1
  Hf  Hf9  1  0.59224204  0.79525798  0.01175920  1
  Hf  Hf10  1  0.68997743  0.69916486  0.87175800  1
  Hf  Hf11  1  0.31472745  0.51412704  0.88025116  1
  Hf  Hf12  1  0.88039145  0.89005298  0.62233776  1
  Hf  Hf13  1  0.00664667  0.61111339  0.50250272  1
  Hf  Hf14  1  0.28697246  0.90756806  0.37168072  1
  Hf  Hf15  1  -0.01259432  0.59208760  -0.01345861  1
  Hf  Hf16  1  0.40849662  0.39437418  -0.00230714  1
  Hf  Hf17  1  0.12102732  0.52245117  0.36958970  1
  Hf  Hf18  1  0.91908315  0.10401228  0.87121091  1
  Hf  Hf19  1  0.21269294  0.40952957  0.49815733  1
  Hf  Hf20  1  0.30127353  0.71773555  0.87561253  1
  Hf  Hf21  1  0.18338413  0.80025735  0.51909620  1
  Hf  Hf22  1  0.89925541  0.71176775  0.12414895  1
  Hf  Hf23  1  0.39343370  -0.00508991  0.01884122  1
  Hf  Hf24  1  0.10116034  0.09261686  0.14744277  1
  Hf  Hf25  1  0.26589609  0.70052642  0.10836965  1
  Hf  Hf26  1  0.70052159  0.90420015  0.13181369  1
  Hf  Hf27  1  0.19108612  0.00916587  -0.00065613  1
  Hf  Hf28  1  0.49768499  0.49260009  0.36043672  1
  Hf  Hf29  1  0.20041922  -0.00433371  0.51138120  1
  Hf  Hf30  1  0.51109858  0.30455815  0.62844183  1
  Hf  Hf31  1  0.49170982  0.69134940  0.86511865  1
  Hf  Hf32  1  0.80312919  0.59459989  0.74628584  1
  Hf  Hf33  1  0.31116286  0.50507661  0.64260185  1
  Hf  Hf34  1  0.91264342  0.08339907  0.60054151  1
  Hf  Hf35  1  0.69769590  0.70087375  0.35756397  1
  Hf  Hf36  1  0.50999334  0.49480038  0.13461369  1
  Hf  Hf37  1  0.37392492  0.59201249  0.24833372  1
  Hf  Hf38  1  0.00540841  0.40438877  0.49987401  1
  Hf  Hf39  1  0.80384723  0.60540842  0.50751678  1
  Zr  Zr40  1  0.40149731  0.00795610  0.23911372  1
  Zr  Zr41  1  0.60064493  0.79627807  0.49501684  1
  Zr  Zr42  1  0.29672322  0.92066898  0.86503312  1
  Zr  Zr43  1  0.60364665  0.20779194  0.50377942  1
  Zr  Zr44  1  0.30223151  0.30063823  0.62189942  1
  Zr  Zr45  1  0.81217214  0.41060212  0.00410156  1
  Zr  Zr46  1  0.69892983  0.49780404  0.35525368  1
  Zr  Zr47  1  0.91105105  0.30738929  0.88339709  1
  Zr  Zr48  1  0.90644578  0.28685417  0.11924598  1
  Zr  Zr49  1  0.61844863  0.19681110  0.74881308  1
  Zr  Zr50  1  0.48948374  0.70230948  0.36387218  1
  Zr  Zr51  1  0.19872343  0.38812388  0.75962412  1
  Zr  Zr52  1  0.31950818  0.28920381  0.38061829  1
  Zr  Zr53  1  0.37944643  0.80738835  0.22698945  1
  Zr  Zr54  1  0.81341256  0.38006720  0.24954133  1
  Zr  Zr55  1  0.39951130  0.19876542  0.75325749  1
  Zr  Zr56  1  0.49354679  0.90452300  0.37479469  1
  Zr  Zr57  1  -0.00380698  -0.01246831  0.00256492  1
  Zr  Zr58  1  0.71451135  0.09576641  0.60802798  1
  Zr  Zr59  1  0.30473235  0.50451312  0.10040531  1
  Zr  Zr60  1  0.90101283  0.50358340  0.36777149  1
  Zr  Zr61  1  0.59700994  0.00388190  -0.00408002  1
  Zr  Zr62  1  0.49142258  0.88787827  0.87091941  1
  Zr  Zr63  1  0.39697100  0.59892162  0.50169495  1
  Zr  Zr64  1  0.80258595  0.39295437  0.74023291  1
  Zr  Zr65  1  0.10910374  0.51541607  0.12728077  1
  Zr  Zr66  1  0.22738526  0.40867105  0.25427578  1
  Zr  Zr67  1  0.18981487  0.60723060  0.76519852  1
  Zr  Zr68  1  0.69203041  0.28971226  0.12414853  1
  Zr  Zr69  1  0.49405874  0.09348737  0.87233747  1
  Zr  Zr70  1  0.27934243  0.69920116  0.38134123  1
  Zr  Zr71  1  0.60524647  0.58423546  0.50313826  1
  Zr  Zr72  1  0.80229034  0.80454394  -0.00644532  1
  Zr  Zr73  1  0.09816813  0.49513703  0.63655355  1
  Zr  Zr74  1  0.12036515  0.08855941  0.36546162  1
  Zr  Zr75  1  -0.00899159  0.20010523  0.26384903  1
  Zr  Zr76  1  0.70745517  0.10213724  0.13117156  1
  Zr  Zr77  1  0.11979220  0.29710725  0.13789951  1
  Zr  Zr78  1  0.70512851  0.50621894  0.14391782  1
  Zr  Zr79  1  0.10824252  0.29939951  0.37078342  1
  Ta  Ta80  1  0.50165004  0.09453019  0.62183538  1
  Ta  Ta81  1  0.39518901  0.80085998  0.01857057  1
  Ta  Ta82  1  0.41460316  0.40479685  0.76357219  1
  Ta  Ta83  1  0.69855084  0.30150741  0.37738275  1
  Ta  Ta84  1  0.40051275  0.80792479  0.73036112  1
  Ta  Ta85  1  0.89606790  0.29445692  0.39719341  1
  Ta  Ta86  1  -0.01226611  0.80701273  0.25566367  1
  Ta  Ta87  1  0.01565382  0.62400665  0.25498591  1
  Ta  Ta88  1  0.90658198  0.08898254  0.39994827  1
  Ta  Ta89  1  0.19842845  0.60501749  0.51685908  1
  Ta  Ta90  1  0.51029724  0.11363356  0.12232257  1
  Ta  Ta91  1  0.79424017  0.79797485  0.75673792  1
  Ta  Ta92  1  0.69525766  0.69676716  0.14195364  1
  Ta  Ta93  1  0.20993817  0.20729057  0.00579925  1
  Ta  Ta94  1  0.70752802  0.49789046  0.87782909  1
  Ta  Ta95  1  0.69232539  0.90294474  0.86401849  1
  Ta  Ta96  1  0.79606624  0.00359432  0.75606177  1
  Ta  Ta97  1  0.48740427  0.10980849  0.38265896  1
  Ta  Ta98  1  0.71103185  0.70286677  0.63107016  1
  Ta  Ta99  1  0.50811474  0.49582073  0.63744909  1
  Ta  Ta100  1  0.79575832  0.18461547  0.27560780  1
  Ta  Ta101  1  0.17857431  0.61030672  -0.02662643  1
  Ta  Ta102  1  0.08762566  0.91203086  0.85729936  1
  Ta  Ta103  1  0.59607102  0.59685945  0.00432778  1
  Ta  Ta104  1  0.18215906  0.02660725  0.74027752  1
  Ta  Ta105  1  0.39495010  0.00824707  0.50790852  1
  Ta  Ta106  1  0.61267384  0.39877198  0.76018867  1
  Ta  Ta107  1  0.40669252  0.19908015  0.00260690  1
  Ta  Ta108  1  -0.01707360  0.80384212  0.50394304  1
  Ta  Ta109  1  0.29454923  0.11147808  0.13002515  1
  Ta  Ta110  1  0.89909389  0.70874186  0.37437198  1
  Ta  Ta111  1  0.07588925  0.91605351  0.63423267  1
  Ta  Ta112  1  0.38804409  0.81530717  0.52283288  1
  Ta  Ta113  1  0.19855116  0.40093538  -0.01260046  1
  Ta  Ta114  1  0.51014152  0.30151354  0.37730716  1
  Ta  Ta115  1  0.89595276  0.09405484  0.13298437  1
  Ta  Ta116  1  0.90661753  0.28420198  0.60020401  1
  Ta  Ta117  1  0.02021544  0.19074258  0.73486764  1
  Ta  Ta118  1  0.59296769  -0.00463500  0.74585211  1
  Ta  Ta119  1  0.80214630  -0.00258340  0.27229880  1
  Ti  Ti120  1  0.69417311  0.09381986  0.38731738  1
  Ti  Ti121  1  0.09937386  0.11566876  0.60614929  1
  Ti  Ti122  1  0.01120693  0.40518934  0.25737778  1
  Ti  Ti123  1  0.00732843  0.78992382  -0.01664084  1
  Ti  Ti124  1  -0.00773968  -0.00817587  0.26072524  1
  Ti  Ti125  1  -0.00560457  0.38472769  0.73745579  1
  Ti  Ti126  1  0.40270558  0.20199510  0.24213709  1
  Ti  Ti127  1  -0.01179214  0.79601138  0.75091389  1
  Ti  Ti128  1  0.39169668  -0.00239233  0.73019946  1
  Ti  Ti129  1  0.60181782  0.00764900  0.25748002  1
  Ti  Ti130  1  0.89355435  0.91022665  0.13004590  1
  Ti  Ti131  1  0.79016532  0.60519145  -0.00007457  1
  Ti  Ti132  1  0.18965105  0.81268895  -0.01389469  1
  Ti  Ti133  1  0.08085927  0.48514609  0.86842999  1
  Ti  Ti134  1  0.41712794  0.40140675  0.50177241  1
  Ti  Ti135  1  0.51097917  0.50360690  0.87311543  1
  Ti  Ti136  1  0.78225292  0.39791828  0.51028082  1
  Ti  Ti137  1  0.01056276  0.18484880  0.00939730  1
  Ti  Ti138  1  0.71188922  0.28243599  0.88789950  1
  Ti  Ti139  1  0.89793680  0.49845414  0.62192514  1
  Ti  Ti140  1  0.41196381  0.38261923  0.23784247  1
  Ti  Ti141  1  0.29702912  0.69873317  0.63566070  1
  Ti  Ti142  1  0.08854417  0.88999687  0.37560867  1
  Ti  Ti143  1  0.58844930  0.81097265  0.24194548  1
  Ti  Ti144  1  0.30781474  0.29982621  0.87621466  1
  Ti  Ti145  1  0.79802667  0.81144482  0.25555955  1
  Ti  Ti146  1  0.21236191  0.19687054  0.49544670  1
  Ti  Ti147  1  0.89743839  0.89794781  0.86423687  1
  Ti  Ti148  1  0.51046002  0.29452707  0.87418067  1
  Ti  Ti149  1  0.60591721  0.59214471  0.74709921  1
  Ti  Ti150  1  0.29949661  0.10693085  0.62500819  1
  Ti  Ti151  1  0.49446798  0.69188413  0.13112806  1
  Ti  Ti152  1  0.01508755  0.39648307  0.00720154  1
  Ti  Ti153  1  0.08148949  0.70286156  0.63734516  1
  Ti  Ti154  1  0.17751719  0.78327463  0.25048819  1
  Ti  Ti155  1  0.28575103  0.11358109  0.87129309  1
  Ti  Ti156  1  0.59476122  0.20211995  0.25938100  1
  Ti  Ti157  1  -0.00843989  0.59614590  0.75772415  1
  Ti  Ti158  1  0.89587090  0.69497850  0.87277275  1
  Ti  Ti159  1  0.59314880  -0.00555982  0.49589322  1
  Mo  Mo160  1  0.28981594  0.91045107  0.63326792  1
  Mo  Mo161  1  0.20070842  0.60877787  0.24708237  1
  Mo  Mo162  1  0.90304131  0.69793882  0.63348874  1
  Mo  Mo163  1  0.59116213  0.60757417  0.24592511  1
  Mo  Mo164  1  -0.01030831  0.00146819  0.74562669  1
  Mo  Mo165  1  0.00961528  -0.01396297  0.49476483  1
  Mo  Mo166  1  0.20278971  0.20000550  0.74191304  1
  Mo  Mo167  1  0.60347463  0.19797330  -0.01189533  1
  Mo  Mo168  1  0.50483417  0.90237736  0.12893046  1
  Mo  Mo169  1  0.49611841  0.90599937  0.62088059  1
  Mo  Mo170  1  0.69507857  0.49608409  0.63010154  1
  Mo  Mo171  1  0.60056922  0.40559576  0.50138633  1
  Mo  Mo172  1  0.28410046  0.90439808  0.12375629  1
  Mo  Mo173  1  0.09608313  0.29181554  0.61604647  1
  Mo  Mo174  1  0.59891781  0.38483163  0.25039034  1
  Mo  Mo175  1  0.50177597  0.28978826  0.12314542  1
  Mo  Mo176  1  0.70640577  0.09941924  0.86638596  1
  Mo  Mo177  1  0.40338863  0.19497250  0.50767582  1
  Mo  Mo178  1  0.81329715  0.62135020  0.25052464  1
  Mo  Mo179  1  0.80112983  0.19595276  0.48616752  1
  Mo  Mo180  1  0.60212658  0.79942312  0.74818914  1
  Mo  Mo181  1  0.69150427  0.90129971  0.36740927  1
  Mo  Mo182  1  0.22273831  0.19095116  0.25278178  1
  Mo  Mo183  1  0.01466018  0.19737109  0.49137465  1
  Mo  Mo184  1  0.40471247  0.59945976  0.74764959  1
  Mo  Mo185  1  0.30930347  0.49926165  0.38495366  1
  Mo  Mo186  1  0.08469764  0.70005580  0.11446922  1
  Mo  Mo187  1  0.81127654  0.19433164  -0.00239470  1
  Mo  Mo188  1  0.30879917  0.09682140  0.37556792  1
  Mo  Mo189  1  0.41171225  0.61389896  0.00337055  1
  Mo  Mo190  1  0.89481062  0.89628982  0.38097978  1
  Mo  Mo191  1  0.09446180  0.71388041  0.38330490  1
  Mo  Mo192  1  0.10704001  0.09777612  0.87535546  1
  Mo  Mo193  1  0.71145612  0.30581276  0.61935307  1
  Mo  Mo194  1  0.79254861  0.79177916  0.49587939  1
  Mo  Mo195  1  0.31022737  0.29747688  0.11873829  1
  Mo  Mo196  1  0.20515953  -0.02070445  0.24513166  1
  Mo  Mo197  1  0.08699397  0.71313991  0.86492012  1
  Mo  Mo198  1  0.79095456  -0.02013202  0.47908109  1
  Mo  Mo199  1  0.89881795  0.50007140  0.87012844  1
