# generated using pymatgen
data_HfZrTaTiMo
_symmetry_space_group_name_H-M   'P 1'
_cell_length_a   15.20951979
_cell_length_b   15.22809852
_cell_length_c   16.86823206
_cell_angle_alpha   89.92580002
_cell_angle_beta   90.05927585
_cell_angle_gamma   89.83061704
_symmetry_Int_Tables_number   1
_chemical_formula_structural   HfZrTaTiMo
_chemical_formula_sum   'Hf40 Zr40 Ta40 Ti40 Mo40'
_cell_volume   3906.86361910
_cell_formula_units_Z   40
loop_
 _symmetry_equiv_pos_site_id
 _symmetry_equiv_pos_as_xyz
  1  'x, y, z'
loop_
 _atom_site_type_symbol
 _atom_site_label
 _atom_site_symmetry_multiplicity
 _atom_site_fract_x
 _atom_site_fract_y
 _atom_site_fract_z
 _atom_site_occupancy
  Hf  Hf0  1  0.39343980  0.59225704  0.24988026  1
  Hf  Hf1  1  0.80370162  0.59351647  0.00364198  1
  Hf  Hf2  1  0.60149969  0.80827663  0.75950478  1
  Hf  Hf3  1  0.19256608  0.39958967  0.51718904  1
  Hf  Hf4  1  0.18815809  0.62665216  0.73514755  1
  Hf  Hf5  1  0.48055641  0.29933121  0.12619459  1
  Hf  Hf6  1  0.79513160  0.59945646  0.49996711  1
  Hf  Hf7  1  0.10658015  0.90185591  0.64137836  1
  Hf  Hf8  1  0.79389002  0.20246903  0.25369728  1
  Hf  Hf9  1  0.10298205  0.89305454  0.87748160  1
  Hf  Hf10  1  0.88841123  0.09976683  0.62444316  1
  Hf  Hf11  1  0.31188210  0.29677010  0.64096118  1
  Hf  Hf12  1  0.80011213  0.80769437  0.00332592  1
  Hf  Hf13  1  0.30253719  0.47652155  0.10760193  1
  Hf  Hf14  1  0.49159978  0.90175598  0.63716338  1
  Hf  Hf15  1  0.50476318  0.69353870  0.12869311  1
  Hf  Hf16  1  0.69720064  0.49363176  0.12848357  1
  Hf  Hf17  1  0.79311070  0.82211469  0.24738105  1
  Hf  Hf18  1  0.89891192  0.89450154  0.62835660  1
  Hf  Hf19  1  0.09313110  0.10523059  0.64242279  1
  Hf  Hf20  1  0.59739751  0.80108325  -0.00683944  1
  Hf  Hf21  1  0.30866631  0.11265418  0.11561818  1
  Hf  Hf22  1  0.51811989  0.69246032  0.63165895  1
  Hf  Hf23  1  0.67916670  0.08622347  0.35979324  1
  Hf  Hf24  1  0.20373382  0.19590655  0.51416781  1
  Hf  Hf25  1  0.89292815  0.29192509  0.12726237  1
  Hf  Hf26  1  0.30163088  0.70122371  0.10420363  1
  Hf  Hf27  1  0.40431805  0.20589736  -0.02033349  1
  Hf  Hf28  1  0.39636024  0.80712460  0.24877959  1
  Hf  Hf29  1  0.41841471  0.00367099  -0.01723158  1
  Hf  Hf30  1  0.79438128  0.39725602  0.74396465  1
  Hf  Hf31  1  0.50862703  0.69781587  0.36336660  1
  Hf  Hf32  1  0.51557935  0.49728155  0.85548615  1
  Hf  Hf33  1  0.19674764  0.59539138  0.23931222  1
  Hf  Hf34  1  0.58292247  -0.00470104  0.50521339  1
  Hf  Hf35  1  0.54250694  0.90540694  0.34873839  1
  Hf  Hf36  1  0.08474822  0.09740249  0.12245147  1
  Hf  Hf37  1  -0.00726188  0.39148099  0.00167887  1
  Hf  Hf38  1  0.90162627  0.70037627  0.13231502  1
  Hf  Hf39  1  0.21060685  -0.00317815  0.23889096  1
  Zr  Zr40  1  0.68772274  0.31177294  0.36779984  1
  Zr  Zr41  1  0.29354179  0.31258510  0.86530608  1
  Zr  Zr42  1  0.19873009  0.78998765  0.23984914  1
  Zr  Zr43  1  0.19854596  0.41981913  0.73745167  1
  Zr  Zr44  1  0.08859777  0.10962249  0.86762050  1
  Zr  Zr45  1  -0.01076974  0.39881609  0.50011239  1
  Zr  Zr46  1  0.41216282  0.38283544  0.50672478  1
  Zr  Zr47  1  0.60228120  0.40487663  0.51250054  1
  Zr  Zr48  1  0.42005800  0.82119587  0.49281161  1
  Zr  Zr49  1  0.09782391  0.29723454  0.37130092  1
  Zr  Zr50  1  0.41387274  0.59569997  0.49885555  1
  Zr  Zr51  1  0.42468659  0.02489680  0.24380673  1
  Zr  Zr52  1  -0.00591245  0.19344702  0.49044221  1
  Zr  Zr53  1  0.10516247  0.49907127  0.88241994  1
  Zr  Zr54  1  0.00451152  0.79045102  0.75208943  1
  Zr  Zr55  1  0.00149162  0.38686713  0.73820484  1
  Zr  Zr56  1  0.20498481  0.01298701  -0.00926703  1
  Zr  Zr57  1  0.30797294  0.28991660  0.38371084  1
  Zr  Zr58  1  0.88440742  0.49748017  0.36945228  1
  Zr  Zr59  1  0.89470811  0.49208488  0.87484172  1
  Zr  Zr60  1  0.09673949  0.69554898  0.88980790  1
  Zr  Zr61  1  0.29550500  0.70375711  0.38220551  1
  Zr  Zr62  1  0.10713744  0.89429141  0.37231666  1
  Zr  Zr63  1  0.70132120  0.68876795  0.86806466  1
  Zr  Zr64  1  0.31773830  0.92302948  0.37927127  1
  Zr  Zr65  1  0.19847800  0.39862162  0.25241759  1
  Zr  Zr66  1  0.19961172  0.81131816  0.50469294  1
  Zr  Zr67  1  0.60238679  0.19940264  0.51113151  1
  Zr  Zr68  1  0.30978530  0.72004421  0.62113145  1
  Zr  Zr69  1  0.61523404  0.01128743  0.00876213  1
  Zr  Zr70  1  0.58564874  0.39890797  -0.00248922  1
  Zr  Zr71  1  0.51087674  0.90036801  0.12975332  1
  Zr  Zr72  1  0.10237399  0.89084395  0.11055702  1
  Zr  Zr73  1  0.29381259  0.69727117  0.89343748  1
  Zr  Zr74  1  0.39196434  0.60080262  0.75778147  1
  Zr  Zr75  1  0.70498678  0.69982081  0.36095716  1
  Zr  Zr76  1  0.78797437  0.00869535  0.49821998  1
  Zr  Zr77  1  0.80750206  0.80550151  0.49326456  1
  Zr  Zr78  1  0.00192762  0.59488264  0.25401424  1
  Zr  Zr79  1  0.29881763  0.49850938  0.38824705  1
  Ta  Ta80  1  0.09027816  0.30250207  0.87570754  1
  Ta  Ta81  1  0.19773347  0.00838435  0.50875062  1
  Ta  Ta82  1  0.60653737  0.20502383  0.00843227  1
  Ta  Ta83  1  -0.01781143  0.00384323  0.76183773  1
  Ta  Ta84  1  0.79926276  0.19608477  0.74946883  1
  Ta  Ta85  1  0.79136360  0.39475448  0.50769314  1
  Ta  Ta86  1  0.78652187  -0.00018350  0.74951758  1
  Ta  Ta87  1  0.09592344  0.08596601  0.36894936  1
  Ta  Ta88  1  -0.01080968  0.18477148  0.25909549  1
  Ta  Ta89  1  0.41789736  0.58679212  -0.00429002  1
  Ta  Ta90  1  0.79408868  0.19686234  -0.00044624  1
  Ta  Ta91  1  0.51328357  0.29238571  0.65278372  1
  Ta  Ta92  1  0.30497623  0.89059314  0.88791474  1
  Ta  Ta93  1  0.70299454  0.91238124  0.87339993  1
  Ta  Ta94  1  0.91408458  0.68772136  0.62064306  1
  Ta  Ta95  1  0.08836634  0.49209403  0.11869411  1
  Ta  Ta96  1  0.07917526  0.52057454  0.61531819  1
  Ta  Ta97  1  0.30316937  0.50916657  0.61905844  1
  Ta  Ta98  1  0.51516434  0.48500326  0.36408206  1
  Ta  Ta99  1  0.88883420  0.50158453  0.62226247  1
  Ta  Ta100  1  0.19586306  0.19411871  0.24629335  1
  Ta  Ta101  1  0.40855809  -0.00248029  0.77616438  1
  Ta  Ta102  1  0.00236812  -0.00650518  0.50171392  1
  Ta  Ta103  1  0.69117686  0.51156287  0.63383320  1
  Ta  Ta104  1  0.19207094  0.21627655  -0.00161487  1
  Ta  Ta105  1  0.61495298  0.79936504  0.50100843  1
  Ta  Ta106  1  0.78679244  0.38679172  -0.00060593  1
  Ta  Ta107  1  0.60498893  0.59664912  -0.00086542  1
  Ta  Ta108  1  0.80828442  0.01045790  0.00295864  1
  Ta  Ta109  1  0.09963716  0.29596593  0.12921400  1
  Ta  Ta110  1  0.18733719  0.60824721  0.51123852  1
  Ta  Ta111  1  -0.00765031  0.59373166  0.74980496  1
  Ta  Ta112  1  0.90255800  0.69690260  0.87916378  1
  Ta  Ta113  1  0.49871191  0.49308733  0.64672076  1
  Ta  Ta114  1  0.69715216  0.30296534  0.87004132  1
  Ta  Ta115  1  -0.00005581  0.80584927  0.24853872  1
  Ta  Ta116  1  0.90830049  0.91756595  0.36940952  1
  Ta  Ta117  1  0.49933907  0.49736726  0.13098041  1
  Ta  Ta118  1  0.40140339  0.18716633  0.76645079  1
  Ta  Ta119  1  0.51025684  0.29724773  0.85386736  1
  Ti  Ti120  1  0.49815467  0.09798359  0.63883536  1
  Ti  Ti121  1  0.58863173  0.18750886  0.23076402  1
  Ti  Ti122  1  0.39078867  0.80395600  0.76291909  1
  Ti  Ti123  1  0.30336114  0.49717888  0.89382620  1
  Ti  Ti124  1  0.69811130  0.70123781  0.13429208  1
  Ti  Ti125  1  0.18977288  0.20892898  0.75113279  1
  Ti  Ti126  1  0.49655616  0.70187304  0.87551951  1
  Ti  Ti127  1  0.30486560  0.09679616  0.64094099  1
  Ti  Ti128  1  -0.01075654  -0.00030458  -0.01341660  1
  Ti  Ti129  1  0.47629387  0.10694596  0.39358817  1
  Ti  Ti130  1  0.29114375  0.10546472  0.38010574  1
  Ti  Ti131  1  0.50088243  0.28845939  0.36483479  1
  Ti  Ti132  1  0.21201179  0.00335053  0.76822998  1
  Ti  Ti133  1  0.00387984  0.79445569  0.49888049  1
  Ti  Ti134  1  0.09542855  0.69492125  0.37859298  1
  Ti  Ti135  1  0.80116373  0.60339002  0.74835933  1
  Ti  Ti136  1  0.71123931  0.70664314  0.63085226  1
  Ti  Ti137  1  0.18579995  0.59348489  0.01427489  1
  Ti  Ti138  1  0.90939381  0.91411603  0.12505365  1
  Ti  Ti139  1  0.60958522  0.58525285  0.25156610  1
  Ti  Ti140  1  0.90078677  0.29193622  0.62364870  1
  Ti  Ti141  1  -0.00979923  0.38663966  0.25305226  1
  Ti  Ti142  1  0.69660367  0.10859008  0.87072715  1
  Ti  Ti143  1  0.69366883  0.90658890  0.63218734  1
  Ti  Ti144  1  0.81798103  0.01484261  0.24057694  1
  Ti  Ti145  1  0.30211664  0.91510967  0.63713307  1
  Ti  Ti146  1  0.89535940  0.89788210  0.87428333  1
  Ti  Ti147  1  0.80553176  0.79930510  0.75330205  1
  Ti  Ti148  1  0.90551474  0.70673663  0.36710915  1
  Ti  Ti149  1  0.39904769  0.39619237  0.25419251  1
  Ti  Ti150  1  0.31010302  0.89897723  0.10172633  1
  Ti  Ti151  1  0.89620137  0.28058616  0.87249072  1
  Ti  Ti152  1  0.79938583  0.20699433  0.48576662  1
  Ti  Ti153  1  -0.00316121  0.78975579  0.00393121  1
  Ti  Ti154  1  0.09677254  0.50495665  0.38706428  1
  Ti  Ti155  1  0.60463234  0.59893703  0.49489349  1
  Ti  Ti156  1  0.78653499  0.40445127  0.25017521  1
  Ti  Ti157  1  0.38839070  0.20531235  0.24954586  1
  Ti  Ti158  1  0.89520006  0.49506548  0.13259690  1
  Ti  Ti159  1  -0.01252261  0.19046044  -0.00282142  1
  Mo  Mo160  1  -0.00562717  0.60887024  0.48681067  1
  Mo  Mo161  1  0.50633362  0.89530403  0.87260181  1
  Mo  Mo162  1  0.79816471  0.59983562  0.24213499  1
  Mo  Mo163  1  0.90493723  0.10013876  0.11961028  1
  Mo  Mo164  1  0.60049461  0.00621772  0.75274426  1
  Mo  Mo165  1  0.19246344  0.39310287  0.00285174  1
  Mo  Mo166  1  -0.00628604  0.59573456  0.01309687  1
  Mo  Mo167  1  0.29687339  0.10379623  0.86816622  1
  Mo  Mo168  1  0.51711838  0.10509601  0.86955124  1
  Mo  Mo169  1  0.09655164  0.30032668  0.62839884  1
  Mo  Mo170  1  0.21335539  0.81411874  0.75357445  1
  Mo  Mo171  1  0.69313701  0.29949249  0.12686957  1
  Mo  Mo172  1  0.63707086  -0.00371142  0.21870338  1
  Mo  Mo173  1  0.09392846  0.70772828  0.62088481  1
  Mo  Mo174  1  0.89057641  0.30005075  0.36537868  1
  Mo  Mo175  1  0.61084200  0.60331856  0.74782038  1
  Mo  Mo176  1  0.71741977  0.89895105  0.11570815  1
  Mo  Mo177  1  0.60649557  0.79408439  0.23681649  1
  Mo  Mo178  1  0.71404752  0.90644170  0.37147296  1
  Mo  Mo179  1  0.61124582  0.39630683  0.74315694  1
  Mo  Mo180  1  0.28955174  0.29401162  0.12395946  1
  Mo  Mo181  1  0.89800187  0.09838802  0.37690406  1
  Mo  Mo182  1  0.40112716  0.39916843  0.74685343  1
  Mo  Mo183  1  0.38483699  0.02308456  0.51705414  1
  Mo  Mo184  1  0.61284837  0.19092362  0.74420487  1
  Mo  Mo185  1  0.09248237  0.68935713  0.11558824  1
  Mo  Mo186  1  0.40085332  0.40000042  -0.00954709  1
  Mo  Mo187  1  0.50403233  0.10854769  0.12033329  1
  Mo  Mo188  1  0.00178429  -0.00384885  0.24893658  1
  Mo  Mo189  1  0.59054471  0.39103038  0.24269616  1
  Mo  Mo190  1  0.40675403  0.19030879  0.51719334  1
  Mo  Mo191  1  0.70383696  0.49306042  0.87650037  1
  Mo  Mo192  1  0.69224382  0.50307120  0.37116122  1
  Mo  Mo193  1  0.40769467  0.79699859  -0.00634044  1
  Mo  Mo194  1  -0.01144474  0.19952070  0.75152863  1
  Mo  Mo195  1  0.69185767  0.10050665  0.63065880  1
  Mo  Mo196  1  0.71473960  0.29436860  0.62345935  1
  Mo  Mo197  1  0.19985089  0.80082525  0.00733353  1
  Mo  Mo198  1  0.71266119  0.10949278  0.12802160  1
  Mo  Mo199  1  0.88307562  0.09237078  0.87223448  1
