# generated using pymatgen
data_HfZrTaTiMo
_symmetry_space_group_name_H-M   'P 1'
_cell_length_a   15.19498146
_cell_length_b   15.19669929
_cell_length_c   16.88026709
_cell_angle_alpha   89.98351150
_cell_angle_beta   90.04023067
_cell_angle_gamma   90.22700570
_symmetry_Int_Tables_number   1
_chemical_formula_structural   HfZrTaTiMo
_chemical_formula_sum   'Hf40 Zr40 Ta40 Ti40 Mo40'
_cell_volume   3897.85092135
_cell_formula_units_Z   40
loop_
 _symmetry_equiv_pos_site_id
 _symmetry_equiv_pos_as_xyz
  1  'x, y, z'
loop_
 _atom_site_type_symbol
 _atom_site_label
 _atom_site_symmetry_multiplicity
 _atom_site_fract_x
 _atom_site_fract_y
 _atom_site_fract_z
 _atom_site_occupancy
  Hf  Hf0  1  0.91409287  0.49958968  0.86691817  1
  Hf  Hf1  1  0.20623419  0.20010430  0.74479819  1
  Hf  Hf2  1  0.78603729  0.81013819  0.00199976  1
  Hf  Hf3  1  0.11101765  0.88962564  0.38310064  1
  Hf  Hf4  1  0.80562257  0.60538877  0.50346145  1
  Hf  Hf5  1  0.50682435  0.30440512  0.88518952  1
  Hf  Hf6  1  0.59575715  -0.02040316  0.00565060  1
  Hf  Hf7  1  0.09001295  0.50696291  0.61933479  1
  Hf  Hf8  1  0.39872081  0.77690116  0.24589865  1
  Hf  Hf9  1  -0.00614148  0.80130239  0.00236342  1
  Hf  Hf10  1  0.49648773  0.87438803  0.12087526  1
  Hf  Hf11  1  0.10340258  0.69653799  0.11827664  1
  Hf  Hf12  1  -0.00972943  0.79160558  0.24936996  1
  Hf  Hf13  1  -0.01697675  0.38115221  0.26166123  1
  Hf  Hf14  1  0.20205050  0.80718877  0.23798927  1
  Hf  Hf15  1  0.09953918  0.49504426  0.38531870  1
  Hf  Hf16  1  0.00499385  0.59016614  0.00203686  1
  Hf  Hf17  1  -0.00865285  -0.00355404  0.49007174  1
  Hf  Hf18  1  0.58511477  0.60754661  0.25654624  1
  Hf  Hf19  1  0.22009616  0.81273609  0.01072434  1
  Hf  Hf20  1  0.79136774  0.80351368  0.74601014  1
  Hf  Hf21  1  0.18725086  -0.00233032  0.73935918  1
  Hf  Hf22  1  0.18785490  0.61651315  0.49719020  1
  Hf  Hf23  1  0.39104364  0.19021024  0.00497314  1
  Hf  Hf24  1  0.09820098  0.70061127  0.64382367  1
  Hf  Hf25  1  0.48309120  0.89394224  0.62184203  1
  Hf  Hf26  1  0.00343475  0.01326140  0.00975828  1
  Hf  Hf27  1  0.59813862  0.19440612  0.75079587  1
  Hf  Hf28  1  0.61367071  0.20321236  0.48890997  1
  Hf  Hf29  1  0.40879246  0.62145975  -0.00065009  1
  Hf  Hf30  1  0.29713358  0.50016552  0.61986179  1
  Hf  Hf31  1  0.00707052  0.19511097  0.50753672  1
  Hf  Hf32  1  0.30806856  0.72473987  0.86655317  1
  Hf  Hf33  1  0.20411262  0.01086852  0.25296376  1
  Hf  Hf34  1  0.00213114  0.59797889  0.25014476  1
  Hf  Hf35  1  0.18709241  0.38926198  0.25037971  1
  Hf  Hf36  1  0.69160340  0.91254694  0.61923841  1
  Hf  Hf37  1  0.69068578  0.69472012  0.87423466  1
  Hf  Hf38  1  0.49118165  0.08579273  0.88133626  1
  Hf  Hf39  1  0.80504276  0.20231530  0.74571869  1
  Zr  Zr40  1  0.11060364  0.31011989  0.62358643  1
  Zr  Zr41  1  0.88419695  0.88902558  0.37122623  1
  Zr  Zr42  1  0.70871626  0.71196696  0.37588104  1
  Zr  Zr43  1  0.90153602  0.91603783  0.87408449  1
  Zr  Zr44  1  0.80545530  0.40107353  0.00222076  1
  Zr  Zr45  1  0.79967825  0.00429981  0.24878344  1
  Zr  Zr46  1  0.71958376  0.30418961  0.14165761  1
  Zr  Zr47  1  0.41026989  0.19143377  0.49557356  1
  Zr  Zr48  1  0.59684679  0.58654936  0.74604749  1
  Zr  Zr49  1  0.31525513  0.10487347  0.37251898  1
  Zr  Zr50  1  0.70319099  0.10865743  0.61995396  1
  Zr  Zr51  1  0.60141514  -0.00283807  0.23421376  1
  Zr  Zr52  1  0.69431572  0.49334673  0.88300274  1
  Zr  Zr53  1  0.59158761  0.79759243  0.49971503  1
  Zr  Zr54  1  0.82398589  0.20029337  -0.00065937  1
  Zr  Zr55  1  0.21016748  0.60336475  0.25217378  1
  Zr  Zr56  1  0.80055570  0.00720906  0.01207100  1
  Zr  Zr57  1  0.50240472  0.29134333  0.62589313  1
  Zr  Zr58  1  0.20678251  0.01218524  0.50577062  1
  Zr  Zr59  1  0.60399997  0.19899019  0.01566866  1
  Zr  Zr60  1  0.70266642  0.30067157  0.88056215  1
  Zr  Zr61  1  0.50573792  0.50075550  0.61329314  1
  Zr  Zr62  1  0.40010818  0.40100274  0.00718987  1
  Zr  Zr63  1  0.69254382  0.69349417  0.62499730  1
  Zr  Zr64  1  0.19202582  0.39504117  -0.00298207  1
  Zr  Zr65  1  0.80523017  0.61267693  0.00836844  1
  Zr  Zr66  1  0.09734514  0.69922051  0.87029428  1
  Zr  Zr67  1  0.31533818  0.10251721  0.62608093  1
  Zr  Zr68  1  0.70457719  0.09363897  0.87646222  1
  Zr  Zr69  1  0.88580910  0.50316230  0.37334917  1
  Zr  Zr70  1  0.09807358  0.89522778  0.61429465  1
  Zr  Zr71  1  0.39548979  0.38852257  0.49299742  1
  Zr  Zr72  1  0.00900947  0.00258908  0.25474467  1
  Zr  Zr73  1  0.29951076  0.72154181  0.63129460  1
  Zr  Zr74  1  0.89407171  0.49309902  0.13435453  1
  Zr  Zr75  1  0.09247260  0.30010355  0.86757043  1
  Zr  Zr76  1  0.39116840  0.39690567  0.24855915  1
  Zr  Zr77  1  0.40792616  0.40045321  0.75596864  1
  Zr  Zr78  1  0.20584428  0.40915270  0.76141207  1
  Zr  Zr79  1  -0.00083967  0.76631118  0.48894750  1
  Ta  Ta80  1  0.68436615  0.89458442  0.86904687  1
  Ta  Ta81  1  0.30162765  0.50452185  0.38302094  1
  Ta  Ta82  1  0.00243851  0.18589810  0.73359793  1
  Ta  Ta83  1  0.10124804  0.48781272  0.12640633  1
  Ta  Ta84  1  0.39159910  -0.01489782  0.75759458  1
  Ta  Ta85  1  0.90622481  0.69712509  0.63871808  1
  Ta  Ta86  1  0.00209448  0.81461733  0.75496243  1
  Ta  Ta87  1  -0.00933335  0.39526278  0.49496741  1
  Ta  Ta88  1  0.40188013  0.60615748  0.75791240  1
  Ta  Ta89  1  0.59644843  0.40082918  0.25232831  1
  Ta  Ta90  1  0.30926247  0.89638580  0.37832429  1
  Ta  Ta91  1  0.69401325  0.50109099  0.36633767  1
  Ta  Ta92  1  0.11343706  0.11820446  0.37949839  1
  Ta  Ta93  1  0.89422557  0.30335435  0.62168150  1
  Ta  Ta94  1  0.79744002  0.62206401  0.23972788  1
  Ta  Ta95  1  0.50322915  0.28854544  0.35968922  1
  Ta  Ta96  1  0.80318175  0.80892846  0.51080287  1
  Ta  Ta97  1  0.51616881  0.08705403  0.36593985  1
  Ta  Ta98  1  0.80418802  0.00330163  0.74877622  1
  Ta  Ta99  1  0.11326445  0.90594134  0.87895618  1
  Ta  Ta100  1  0.91400406  0.12033876  0.14156486  1
  Ta  Ta101  1  0.48714995  0.69519762  0.38193976  1
  Ta  Ta102  1  0.29123518  0.70792413  0.38306787  1
  Ta  Ta103  1  0.20680104  0.59910460  -0.00305117  1
  Ta  Ta104  1  0.89767693  0.89883355  0.13110246  1
  Ta  Ta105  1  0.89841298  0.49916773  0.62381890  1
  Ta  Ta106  1  0.68618407  0.91849311  0.38530507  1
  Ta  Ta107  1  0.29643340  0.08748947  0.12091128  1
  Ta  Ta108  1  0.08699860  0.09657784  0.87239621  1
  Ta  Ta109  1  0.40046178  -0.01243744  0.24451687  1
  Ta  Ta110  1  0.79998500  0.39997214  0.74344837  1
  Ta  Ta111  1  0.67918821  0.71121443  0.12204502  1
  Ta  Ta112  1  0.49730089  0.89505456  0.37245382  1
  Ta  Ta113  1  0.59233948  -0.01081938  0.75484554  1
  Ta  Ta114  1  0.30277948  0.28858408  0.88125159  1
  Ta  Ta115  1  0.68792394  0.50706563  0.13022323  1
  Ta  Ta116  1  0.49821718  0.50433995  0.12766666  1
  Ta  Ta117  1  0.29763835  0.50913034  0.12340672  1
  Ta  Ta118  1  0.80352932  0.59255988  0.74583607  1
  Ta  Ta119  1  0.28057145  0.28508973  0.12449959  1
  Ti  Ti120  1  0.61034481  0.39187913  0.74368788  1
  Ti  Ti121  1  0.49065035  0.69586666  0.62259120  1
  Ti  Ti122  1  0.80916543  0.20796431  0.49539821  1
  Ti  Ti123  1  0.38303146  -0.02050198  -0.00189366  1
  Ti  Ti124  1  0.90480729  0.11455796  0.36751508  1
  Ti  Ti125  1  0.60314118  0.19801917  0.24643438  1
  Ti  Ti126  1  0.20000571  0.60003811  0.76060195  1
  Ti  Ti127  1  0.57788753  0.79484891  0.75154089  1
  Ti  Ti128  1  0.01207928  0.20764172  0.00301589  1
  Ti  Ti129  1  0.59916217  0.59156871  0.49054482  1
  Ti  Ti130  1  0.71047958  0.10598143  0.13250137  1
  Ti  Ti131  1  0.10713006  0.91608140  0.12114787  1
  Ti  Ti132  1  0.11440664  0.12242305  0.12475011  1
  Ti  Ti133  1  0.30345225  0.50575854  0.88060042  1
  Ti  Ti134  1  0.89906207  0.89926223  0.62628363  1
  Ti  Ti135  1  0.02255622  0.20446999  0.25912572  1
  Ti  Ti136  1  -0.00251431  0.39308743  0.00380175  1
  Ti  Ti137  1  0.40019702  0.19418171  0.75813784  1
  Ti  Ti138  1  0.49348453  0.09282976  0.12281468  1
  Ti  Ti139  1  0.79453199  0.01130558  0.49220047  1
  Ti  Ti140  1  0.21183035  0.21989512  0.51000691  1
  Ti  Ti141  1  0.49482363  0.49491380  0.37619963  1
  Ti  Ti142  1  0.79136441  0.39400997  0.49695595  1
  Ti  Ti143  1  0.39851492  0.19018572  0.24044309  1
  Ti  Ti144  1  0.70897152  0.11140767  0.36636917  1
  Ti  Ti145  1  0.89867869  0.70231529  0.86170766  1
  Ti  Ti146  1  0.50900706  0.08543798  0.62631594  1
  Ti  Ti147  1  0.50632782  0.50780546  0.88812798  1
  Ti  Ti148  1  0.41213267  -0.00975850  0.49461890  1
  Ti  Ti149  1  -0.00235260  0.40160547  0.74399462  1
  Ti  Ti150  1  0.28570204  0.29842041  0.37091200  1
  Ti  Ti151  1  0.71347811  0.30505068  0.35700242  1
  Ti  Ti152  1  0.50090178  0.29991797  0.13138439  1
  Ti  Ti153  1  0.60368604  0.39505866  0.48435199  1
  Ti  Ti154  1  0.60421484  0.80349811  0.25621404  1
  Ti  Ti155  1  0.39928138  0.60514699  0.49876445  1
  Ti  Ti156  1  0.28321412  0.09074119  0.88028351  1
  Ti  Ti157  1  0.90625405  0.29401434  0.86426300  1
  Ti  Ti158  1  0.90392964  0.08993171  0.62154671  1
  Ti  Ti159  1  0.70290336  0.48518247  0.61725358  1
  Mo  Mo160  1  0.39354050  0.79720780  0.49297773  1
  Mo  Mo161  1  0.82214496  0.20989598  0.26022630  1
  Mo  Mo162  1  0.09593795  0.10356065  0.61820005  1
  Mo  Mo163  1  0.50062021  0.68584931  0.12924961  1
  Mo  Mo164  1  0.89053271  0.69699694  0.36975314  1
  Mo  Mo165  1  0.91648119  0.29597558  0.12939571  1
  Mo  Mo166  1  0.10298532  0.29607425  0.38821892  1
  Mo  Mo167  1  0.59646075  0.00905175  0.49322192  1
  Mo  Mo168  1  -0.00815946  0.00210046  0.74398937  1
  Mo  Mo169  1  0.19628967  0.01212848  0.00148458  1
  Mo  Mo170  1  0.78594663  0.80656318  0.23758367  1
  Mo  Mo171  1  0.40930347  0.80703649  -0.00146728  1
  Mo  Mo172  1  0.10708437  0.50472591  0.87685548  1
  Mo  Mo173  1  -0.00418740  0.59788991  0.75296087  1
  Mo  Mo174  1  0.30238958  0.90298944  0.62060445  1
  Mo  Mo175  1  0.09015099  0.29515065  0.12372932  1
  Mo  Mo176  1  0.20096358  0.81346425  0.75614134  1
  Mo  Mo177  1  0.89672706  0.29416482  0.38756863  1
  Mo  Mo178  1  0.30728001  0.69517766  0.12055119  1
  Mo  Mo179  1  0.30050471  0.90344667  0.12916495  1
  Mo  Mo180  1  0.69872859  0.89462461  0.12469067  1
  Mo  Mo181  1  0.31013053  0.30509763  0.63213712  1
  Mo  Mo182  1  0.60018217  0.59359121  0.00629906  1
  Mo  Mo183  1  0.39522896  0.59044952  0.25844457  1
  Mo  Mo184  1  0.79175742  0.40968192  0.25331963  1
  Mo  Mo185  1  0.29736457  0.91238394  0.87399048  1
  Mo  Mo186  1  0.20836681  0.20275390  0.25023823  1
  Mo  Mo187  1  0.09819329  0.69711842  0.36829706  1
  Mo  Mo188  1  0.20399649  0.80501810  0.49686120  1
  Mo  Mo189  1  0.20283649  0.40020429  0.49494490  1
  Mo  Mo190  1  0.50460838  0.69774314  0.86885381  1
  Mo  Mo191  1  0.48996774  0.88746392  0.87570723  1
  Mo  Mo192  1  0.59396588  0.40435476  0.02155410  1
  Mo  Mo193  1  0.89250133  0.70692495  0.12269972  1
  Mo  Mo194  1  0.19588754  0.19219471  -0.00658790  1
  Mo  Mo195  1  0.58570429  0.78207988  -0.00927878  1
  Mo  Mo196  1  -0.00793757  0.59143409  0.50101063  1
  Mo  Mo197  1  0.70623849  0.31089850  0.61690847  1
  Mo  Mo198  1  0.40392126  0.80304583  0.74954779  1
  Mo  Mo199  1  0.91147055  0.11085044  0.86818938  1
