# generated using pymatgen
data_HfZrTaTiMo
_symmetry_space_group_name_H-M   'P 1'
_cell_length_a   15.20939510
_cell_length_b   15.20661061
_cell_length_c   16.81262534
_cell_angle_alpha   90.01484358
_cell_angle_beta   89.95602017
_cell_angle_gamma   90.05784160
_symmetry_Int_Tables_number   1
_chemical_formula_structural   HfZrTaTiMo
_chemical_formula_sum   'Hf40 Zr40 Ta40 Ti40 Mo40'
_cell_volume   3888.47703586
_cell_formula_units_Z   40
loop_
 _symmetry_equiv_pos_site_id
 _symmetry_equiv_pos_as_xyz
  1  'x, y, z'
loop_
 _atom_site_type_symbol
 _atom_site_label
 _atom_site_symmetry_multiplicity
 _atom_site_fract_x
 _atom_site_fract_y
 _atom_site_fract_z
 _atom_site_occupancy
  Hf  Hf0  1  0.50412821  0.49942785  0.37446896  1
  Hf  Hf1  1  0.79906091  0.41278281  0.22951365  1
  Hf  Hf2  1  -0.00661786  0.60945640  0.75437700  1
  Hf  Hf3  1  0.08392890  0.50329265  0.87847419  1
  Hf  Hf4  1  0.19657347  0.60303257  0.48015337  1
  Hf  Hf5  1  0.50572577  0.89991472  0.85866834  1
  Hf  Hf6  1  0.51159255  0.31404288  0.61737004  1
  Hf  Hf7  1  0.09123358  0.90270460  0.87996041  1
  Hf  Hf8  1  0.31119776  0.89745502  0.88599512  1
  Hf  Hf9  1  0.41073910  0.20763365  0.25040995  1
  Hf  Hf10  1  0.89979603  0.29370484  0.12163192  1
  Hf  Hf11  1  0.49932819  0.29613887  0.39160467  1
  Hf  Hf12  1  0.31079240  0.30924535  0.11547990  1
  Hf  Hf13  1  0.88790015  0.31142500  0.36564751  1
  Hf  Hf14  1  0.78477389  0.20177747  0.25211523  1
  Hf  Hf15  1  0.10574825  0.10915451  0.61690385  1
  Hf  Hf16  1  -0.00194608  0.81436857  0.74401316  1
  Hf  Hf17  1  0.19703500  0.20334827  0.25400333  1
  Hf  Hf18  1  0.19262784  0.39799310  0.76400538  1
  Hf  Hf19  1  0.89865177  0.09250504  0.87119409  1
  Hf  Hf20  1  0.79451868  0.59622521  0.51360463  1
  Hf  Hf21  1  0.60895153  0.59283198  0.24265393  1
  Hf  Hf22  1  0.50447353  0.08766267  0.13481836  1
  Hf  Hf23  1  0.21581269  0.00564760  0.49748681  1
  Hf  Hf24  1  0.90048380  0.30159088  0.89004455  1
  Hf  Hf25  1  0.51072905  0.09735923  0.38043250  1
  Hf  Hf26  1  0.50211482  0.09956949  0.85663691  1
  Hf  Hf27  1  0.71126795  0.49472042  0.37765921  1
  Hf  Hf28  1  0.20183421  0.20251849  -0.00016020  1
  Hf  Hf29  1  0.19693528  -0.00850036  0.74300611  1
  Hf  Hf30  1  0.89592589  0.89408489  0.38719639  1
  Hf  Hf31  1  0.30800199  0.09877581  0.37046364  1
  Hf  Hf32  1  0.38582548  0.18401327  0.51394930  1
  Hf  Hf33  1  0.38761007  0.40943504  0.50151296  1
  Hf  Hf34  1  0.19902832  0.19883774  0.75818518  1
  Hf  Hf35  1  0.58950928  -0.00568978  -0.00291174  1
  Hf  Hf36  1  0.87673886  0.50717821  0.88842495  1
  Hf  Hf37  1  0.19690665  0.40435632  0.25633401  1
  Hf  Hf38  1  0.49449984  0.50969023  0.62680042  1
  Hf  Hf39  1  0.48862397  0.49275001  0.11687098  1
  Zr  Zr40  1  0.20673731  -0.01135627  0.25718365  1
  Zr  Zr41  1  0.27822967  0.50152580  0.10748782  1
  Zr  Zr42  1  0.70416956  0.09845094  0.12480167  1
  Zr  Zr43  1  0.50947986  0.10413335  0.62994670  1
  Zr  Zr44  1  0.70046326  0.71471747  0.37195491  1
  Zr  Zr45  1  0.09618764  0.10473453  0.13214768  1
  Zr  Zr46  1  0.61576369  0.22332039  0.74791872  1
  Zr  Zr47  1  0.29467537  0.70844164  0.12305798  1
  Zr  Zr48  1  0.17229226  0.60438720  0.26348220  1
  Zr  Zr49  1  0.41187503  0.19267875  -0.00195933  1
  Zr  Zr50  1  -0.02834994  -0.00363080  0.02244386  1
  Zr  Zr51  1  0.89717052  0.71200178  0.88412481  1
  Zr  Zr52  1  0.20923748  0.78080949  0.76305812  1
  Zr  Zr53  1  0.40159281  0.40407502  0.75452242  1
  Zr  Zr54  1  0.00516687  -0.00770795  0.25683509  1
  Zr  Zr55  1  0.09250037  0.49381275  0.63736762  1
  Zr  Zr56  1  0.70497224  0.68616067  0.86530264  1
  Zr  Zr57  1  0.51528522  0.89283267  0.38215560  1
  Zr  Zr58  1  0.00195434  0.59748801  0.50178074  1
  Zr  Zr59  1  0.70545000  0.89346162  0.12299278  1
  Zr  Zr60  1  0.78358072  0.39285229  0.74870136  1
  Zr  Zr61  1  0.70738613  0.09100576  0.86308471  1
  Zr  Zr62  1  0.10276683  0.89417224  0.60646577  1
  Zr  Zr63  1  0.39606941  0.62021581  0.49370477  1
  Zr  Zr64  1  0.60534732  0.79173274  0.52121799  1
  Zr  Zr65  1  0.11883957  0.69585064  0.62417522  1
  Zr  Zr66  1  -0.00461418  0.20662308  0.75184810  1
  Zr  Zr67  1  0.60534414  0.79026348  -0.00588134  1
  Zr  Zr68  1  -0.02346580  0.39641984  0.50345543  1
  Zr  Zr69  1  0.71234644  0.89246559  0.86235672  1
  Zr  Zr70  1  0.30195011  0.09397114  0.87631299  1
  Zr  Zr71  1  0.28541592  0.52073292  0.63350535  1
  Zr  Zr72  1  0.27949156  0.30241273  0.61845523  1
  Zr  Zr73  1  0.38985749  0.59819135  0.24683078  1
  Zr  Zr74  1  0.19206289  -0.00427321  0.00983798  1
  Zr  Zr75  1  0.70680621  0.30271308  0.89418340  1
  Zr  Zr76  1  0.90343711  0.69836798  0.38061962  1
  Zr  Zr77  1  0.61341206  -0.00258999  0.51498995  1
  Zr  Zr78  1  0.39075134  -0.00362593  0.72406471  1
  Zr  Zr79  1  0.59836560  0.37772499  0.24446934  1
  Ta  Ta80  1  0.00317084  0.78501538  0.24379679  1
  Ta  Ta81  1  0.31616105  0.89345060  0.38934100  1
  Ta  Ta82  1  0.00637951  0.79987850  0.00824946  1
  Ta  Ta83  1  0.10717689  0.31372816  0.11824741  1
  Ta  Ta84  1  0.08421781  0.29988500  0.61686346  1
  Ta  Ta85  1  0.40545852  0.80821821  0.24730154  1
  Ta  Ta86  1  0.18823298  0.61047684  -0.01672949  1
  Ta  Ta87  1  -0.00168623  0.41009224  0.01386782  1
  Ta  Ta88  1  0.18144948  0.40434573  0.48581656  1
  Ta  Ta89  1  0.40161179  0.61313094  -0.00304831  1
  Ta  Ta90  1  0.29973026  0.50163013  0.88827212  1
  Ta  Ta91  1  0.80573828  0.20281153  0.49687647  1
  Ta  Ta92  1  0.80357059  0.79276421  0.72654568  1
  Ta  Ta93  1  0.81328725  0.60448799  0.23938331  1
  Ta  Ta94  1  0.09289204  0.68514024  0.11758793  1
  Ta  Ta95  1  0.61320515  -0.01190634  0.25884397  1
  Ta  Ta96  1  0.29494673  0.30285275  0.38152835  1
  Ta  Ta97  1  0.30745999  0.09837488  0.13041637  1
  Ta  Ta98  1  0.50113049  0.70293083  0.36506435  1
  Ta  Ta99  1  0.49734881  0.69941211  0.86572355  1
  Ta  Ta100  1  0.00239726  0.19816257  0.00544558  1
  Ta  Ta101  1  0.80790805  -0.00089000  0.25524777  1
  Ta  Ta102  1  0.09181176  0.09924211  0.88101135  1
  Ta  Ta103  1  0.89411708  0.70466315  0.11247948  1
  Ta  Ta104  1  0.31544201  0.90657071  0.11889674  1
  Ta  Ta105  1  0.90481864  0.10784297  0.37825004  1
  Ta  Ta106  1  0.59930001  0.59779351  0.50361549  1
  Ta  Ta107  1  0.49967585  0.50404951  0.88053066  1
  Ta  Ta108  1  0.50623145  0.70814280  0.13290510  1
  Ta  Ta109  1  0.00682060  0.00970115  0.48691736  1
  Ta  Ta110  1  0.70510208  0.69721525  0.12395099  1
  Ta  Ta111  1  0.60136867  0.79092599  0.73158872  1
  Ta  Ta112  1  0.59852953  0.58995954  0.74728911  1
  Ta  Ta113  1  0.00265243  0.41826923  0.23409041  1
  Ta  Ta114  1  0.60273493  0.19410308  -0.00701702  1
  Ta  Ta115  1  0.39509568  0.20741807  0.74245893  1
  Ta  Ta116  1  0.08358772  0.30133839  0.37248203  1
  Ta  Ta117  1  0.81825645  -0.00683090  0.72397907  1
  Ta  Ta118  1  0.69713219  0.29859990  0.10695039  1
  Ta  Ta119  1  0.80688066  0.00320936  0.51258987  1
  Ti  Ti120  1  0.68943764  0.48428877  0.62371652  1
  Ti  Ti121  1  0.29968161  0.71354838  0.36797349  1
  Ti  Ti122  1  0.20297926  0.79639363  -0.00243471  1
  Ti  Ti123  1  0.39627606  0.39934936  0.25486129  1
  Ti  Ti124  1  0.59423800  0.60150315  0.00287905  1
  Ti  Ti125  1  0.70503067  0.50322247  0.10604204  1
  Ti  Ti126  1  0.89560924  0.90428412  0.87376315  1
  Ti  Ti127  1  0.71939192  0.11473388  0.63394638  1
  Ti  Ti128  1  0.39960567  0.79823574  0.74425311  1
  Ti  Ti129  1  0.10514002  0.88451975  0.12801321  1
  Ti  Ti130  1  0.40751243  -0.00718706  0.25311812  1
  Ti  Ti131  1  0.59261842  0.39813781  0.00194915  1
  Ti  Ti132  1  0.50261215  0.30733097  0.87522890  1
  Ti  Ti133  1  0.09743385  0.30211761  0.89025066  1
  Ti  Ti134  1  0.61407728  0.20211218  0.50943470  1
  Ti  Ti135  1  0.50820282  0.29068025  0.11833874  1
  Ti  Ti136  1  0.30864954  0.87605897  0.60355348  1
  Ti  Ti137  1  -0.00312114  0.20319962  0.24878881  1
  Ti  Ti138  1  0.10656290  0.88279320  0.38726634  1
  Ti  Ti139  1  0.91234115  0.10771938  0.61509472  1
  Ti  Ti140  1  0.88301378  0.29600123  0.62491670  1
  Ti  Ti141  1  0.80070108  0.80533036  0.52191406  1
  Ti  Ti142  1  -0.01141835  0.39665674  0.75224861  1
  Ti  Ti143  1  0.00333611  0.00623033  0.74111072  1
  Ti  Ti144  1  0.90818453  0.70185992  0.62006373  1
  Ti  Ti145  1  0.68926083  0.49666998  0.88394245  1
  Ti  Ti146  1  0.70656185  0.09388942  0.37980128  1
  Ti  Ti147  1  0.30915216  0.30455526  0.88481529  1
  Ti  Ti148  1  0.80889555  0.17818455  0.00785131  1
  Ti  Ti149  1  0.90590509  0.50236001  0.36852167  1
  Ti  Ti150  1  0.29797867  0.49942205  0.37151705  1
  Ti  Ti151  1  0.38330682  0.61146071  0.76294598  1
  Ti  Ti152  1  0.20090851  0.80222579  0.25246993  1
  Ti  Ti153  1  0.41537665  0.80819408  0.00597566  1
  Ti  Ti154  1  0.18189910  0.20297908  0.48354785  1
  Ti  Ti155  1  0.69226515  0.29818934  0.38570908  1
  Ti  Ti156  1  0.79984301  0.80483847  0.24944427  1
  Ti  Ti157  1  0.88817166  0.49727346  0.63508985  1
  Ti  Ti158  1  0.61218198  -0.01124571  0.72890163  1
  Ti  Ti159  1  0.48608733  0.70053637  0.63196693  1
  Mo  Mo160  1  0.70306145  0.30024310  0.61192761  1
  Mo  Mo161  1  0.90210834  0.89164627  0.13962417  1
  Mo  Mo162  1  0.09721760  0.50383867  0.11267683  1
  Mo  Mo163  1  0.71251722  0.90730361  0.37643051  1
  Mo  Mo164  1  0.81206759  0.81560825  0.00342630  1
  Mo  Mo165  1  0.09586855  0.10600001  0.37475282  1
  Mo  Mo166  1  0.70871028  0.89932999  0.63343322  1
  Mo  Mo167  1  -0.00577117  0.60597003  -0.00187560  1
  Mo  Mo168  1  0.20259713  0.60072238  0.77784258  1
  Mo  Mo169  1  0.81061057  0.19404159  0.74378671  1
  Mo  Mo170  1  0.49933989  0.89155177  0.62862659  1
  Mo  Mo171  1  0.09660590  0.70707062  0.88386316  1
  Mo  Mo172  1  0.78899828  0.39814855  0.50573029  1
  Mo  Mo173  1  0.59502046  0.40913309  0.75790641  1
  Mo  Mo174  1  0.00206100  0.80103981  0.50331315  1
  Mo  Mo175  1  0.20972840  0.79171961  0.48787449  1
  Mo  Mo176  1  0.40648765  0.79600287  0.49916737  1
  Mo  Mo177  1  0.60509407  0.79552238  0.24913923  1
  Mo  Mo178  1  0.40341807  -0.00483203  0.00561028  1
  Mo  Mo179  1  0.69952247  0.68298429  0.63276583  1
  Mo  Mo180  1  0.19531896  0.39887234  -0.01483656  1
  Mo  Mo181  1  0.09590394  0.71073630  0.37282764  1
  Mo  Mo182  1  0.31220724  0.70394936  0.89122543  1
  Mo  Mo183  1  0.40583162  0.40329517  -0.01082326  1
  Mo  Mo184  1  0.89614613  0.09871406  0.13828270  1
  Mo  Mo185  1  0.40573593  -0.00925901  0.51484134  1
  Mo  Mo186  1  0.60202276  0.40838455  0.49550021  1
  Mo  Mo187  1  0.79632937  0.40168611  0.01319997  1
  Mo  Mo188  1  0.60413913  0.19333355  0.25612445  1
  Mo  Mo189  1  0.50200689  0.89503529  0.13414717  1
  Mo  Mo190  1  0.30401809  0.69725278  0.62845269  1
  Mo  Mo191  1  0.78428501  0.60880793  0.00465093  1
  Mo  Mo192  1  0.79572298  -0.00806980  -0.00058292  1
  Mo  Mo193  1  -0.00596963  0.20178943  0.49488538  1
  Mo  Mo194  1  0.29368485  0.10265366  0.62716641  1
  Mo  Mo195  1  0.89806236  0.51292586  0.10901513  1
  Mo  Mo196  1  0.90938357  0.90385496  0.60627380  1
  Mo  Mo197  1  0.79756384  0.59795827  0.73254241  1
  Mo  Mo198  1  0.08503401  0.49389977  0.37282035  1
  Mo  Mo199  1  -0.01199316  0.59824950  0.24386043  1
