# generated using pymatgen
data_HfZrTaTiMo
_symmetry_space_group_name_H-M   'P 1'
_cell_length_a   15.19131152
_cell_length_b   15.18135807
_cell_length_c   16.79281261
_cell_angle_alpha   90.05051407
_cell_angle_beta   89.96219219
_cell_angle_gamma   89.88455148
_symmetry_Int_Tables_number   1
_chemical_formula_structural   HfZrTaTiMo
_chemical_formula_sum   'Hf40 Zr40 Ta40 Ti40 Mo40'
_cell_volume   3872.82782293
_cell_formula_units_Z   40
loop_
 _symmetry_equiv_pos_site_id
 _symmetry_equiv_pos_as_xyz
  1  'x, y, z'
loop_
 _atom_site_type_symbol
 _atom_site_label
 _atom_site_symmetry_multiplicity
 _atom_site_fract_x
 _atom_site_fract_y
 _atom_site_fract_z
 _atom_site_occupancy
  Hf  Hf0  1  0.49074903  0.69429253  0.36960562  1
  Hf  Hf1  1  0.40259598  0.37402163  0.73952430  1
  Hf  Hf2  1  0.19291279  0.79638235  0.77657211  1
  Hf  Hf3  1  0.79698154  0.00305142  -0.00513268  1
  Hf  Hf4  1  0.29238278  0.08906130  0.36299381  1
  Hf  Hf5  1  0.89594077  0.50500807  0.63149299  1
  Hf  Hf6  1  0.69827263  0.90474850  0.38365368  1
  Hf  Hf7  1  0.11137554  0.51698732  0.37258174  1
  Hf  Hf8  1  0.18897819  0.39850706  -0.00112606  1
  Hf  Hf9  1  0.08782247  0.69448391  0.11096165  1
  Hf  Hf10  1  0.29304567  0.67983408  0.36853815  1
  Hf  Hf11  1  0.40346861  0.19489467  0.01697116  1
  Hf  Hf12  1  0.39715542  0.78002910  0.23387706  1
  Hf  Hf13  1  0.90019470  0.90385760  0.62328901  1
  Hf  Hf14  1  -0.00557797  0.61904218  0.76389164  1
  Hf  Hf15  1  0.20074646  0.19760134  0.00643737  1
  Hf  Hf16  1  0.30518390  0.08862676  0.88079032  1
  Hf  Hf17  1  0.80528608  0.40197449  -0.00221143  1
  Hf  Hf18  1  0.20576137  -0.00611876  0.75343271  1
  Hf  Hf19  1  0.20676120  0.60612950  0.51284672  1
  Hf  Hf20  1  0.19926031  0.80284785  0.23559262  1
  Hf  Hf21  1  0.49742719  0.09608876  0.61663722  1
  Hf  Hf22  1  0.80299341  0.20746802  0.50653060  1
  Hf  Hf23  1  -0.00840750  0.19593702  0.26032094  1
  Hf  Hf24  1  0.40352174  -0.02782552  0.24477624  1
  Hf  Hf25  1  0.17711778  0.39538820  0.76775299  1
  Hf  Hf26  1  0.29069045  0.29366023  0.14848499  1
  Hf  Hf27  1  0.91560291  0.51230484  0.14147432  1
  Hf  Hf28  1  0.20850657  0.44940235  0.23554667  1
  Hf  Hf29  1  0.70070919  0.49266009  0.13539971  1
  Hf  Hf30  1  0.68799901  0.52457186  0.87420430  1
  Hf  Hf31  1  0.09941941  0.90084238  0.63269158  1
  Hf  Hf32  1  0.40726613  0.39707868  0.50181271  1
  Hf  Hf33  1  0.59726494  0.41149726  -0.00019919  1
  Hf  Hf34  1  0.68704419  0.09403797  0.87226349  1
  Hf  Hf35  1  0.00823936  0.20793168  0.48948542  1
  Hf  Hf36  1  0.59299228  0.59813274  0.49183771  1
  Hf  Hf37  1  -0.00128568  0.60546988  0.50423286  1
  Hf  Hf38  1  0.51625076  0.89579054  0.88356444  1
  Hf  Hf39  1  0.40826157  -0.00431273  0.00358192  1
  Zr  Zr40  1  0.51703648  0.30383498  0.14381028  1
  Zr  Zr41  1  0.50334863  0.87094974  0.62671942  1
  Zr  Zr42  1  0.49511410  0.29620448  0.87540358  1
  Zr  Zr43  1  0.70648783  0.70111090  0.12323603  1
  Zr  Zr44  1  0.89738464  0.88880065  0.11170920  1
  Zr  Zr45  1  0.09736754  0.12049755  0.87208931  1
  Zr  Zr46  1  0.79601079  0.60230581  0.49255919  1
  Zr  Zr47  1  0.88598644  0.31084779  0.14499580  1
  Zr  Zr48  1  0.43011393  0.58898144  0.75518590  1
  Zr  Zr49  1  0.60474960  0.19779394  0.00196919  1
  Zr  Zr50  1  0.91003323  0.90490851  0.38246256  1
  Zr  Zr51  1  0.50825777  0.07949079  0.38288991  1
  Zr  Zr52  1  0.30223106  0.31739802  0.35499213  1
  Zr  Zr53  1  0.19778198  0.00045039  0.50153551  1
  Zr  Zr54  1  0.10457558  0.10786577  0.13586466  1
  Zr  Zr55  1  0.70041364  0.10427365  0.12761837  1
  Zr  Zr56  1  0.59034033  0.59720438  0.25287163  1
  Zr  Zr57  1  0.30253252  0.70430227  0.64551283  1
  Zr  Zr58  1  0.00020506  0.01537186  -0.00199293  1
  Zr  Zr59  1  0.09908324  0.72218619  0.37393895  1
  Zr  Zr60  1  0.29251043  0.28651044  0.61649908  1
  Zr  Zr61  1  0.59120906  0.20183948  0.73647631  1
  Zr  Zr62  1  -0.00737595  0.22590070  0.00651279  1
  Zr  Zr63  1  0.39461200  0.78283552  0.50226401  1
  Zr  Zr64  1  0.30890267  0.48910047  0.87708031  1
  Zr  Zr65  1  0.41481164  0.18852136  0.25488975  1
  Zr  Zr66  1  0.08676787  0.32434879  0.14666673  1
  Zr  Zr67  1  0.90041070  0.70519096  0.36922592  1
  Zr  Zr68  1  0.70890837  0.30445265  0.86378082  1
  Zr  Zr69  1  0.39613700  0.39494692  0.01819234  1
  Zr  Zr70  1  0.29718744  0.49573624  0.63842972  1
  Zr  Zr71  1  0.39548881  0.19506359  0.48537467  1
  Zr  Zr72  1  0.40540456  -0.00732213  0.75008882  1
  Zr  Zr73  1  0.20679991  0.19937306  0.74739276  1
  Zr  Zr74  1  0.80223212  -0.00092401  0.24773757  1
  Zr  Zr75  1  0.89378841  0.11545653  0.86385184  1
  Zr  Zr76  1  0.79906154  -0.00003322  0.75301081  1
  Zr  Zr77  1  0.80008258  0.40756239  0.49064553  1
  Zr  Zr78  1  0.91128816  0.10825942  0.62963921  1
  Zr  Zr79  1  0.09470656  0.49973328  0.63023594  1
  Ta  Ta80  1  0.59941200  0.40307712  0.47969488  1
  Ta  Ta81  1  0.19277369  0.60292132  0.77385387  1
  Ta  Ta82  1  0.70761840  0.88474758  0.88467820  1
  Ta  Ta83  1  -0.00136262  0.80174101  0.23847157  1
  Ta  Ta84  1  0.09579436  0.09121260  0.36633585  1
  Ta  Ta85  1  0.90938038  0.88454254  0.87700793  1
  Ta  Ta86  1  -0.02678701  0.61560430  -0.01380185  1
  Ta  Ta87  1  0.20197494  0.79448994  -0.01549183  1
  Ta  Ta88  1  0.00680869  -0.00062962  0.75900961  1
  Ta  Ta89  1  0.79653057  0.80398596  0.50299593  1
  Ta  Ta90  1  0.00569051  -0.01115116  0.24403092  1
  Ta  Ta91  1  0.60671129  -0.01434002  0.74381074  1
  Ta  Ta92  1  0.59254773  0.41781299  0.74685598  1
  Ta  Ta93  1  0.38599453  0.57674072  0.23256715  1
  Ta  Ta94  1  0.59707312  0.80832077  0.24534370  1
  Ta  Ta95  1  0.59981704  0.21167282  0.49503157  1
  Ta  Ta96  1  0.68874125  0.71026588  0.61866545  1
  Ta  Ta97  1  0.91462324  0.31214876  0.85565312  1
  Ta  Ta98  1  0.00399123  0.40052457  0.48535435  1
  Ta  Ta99  1  0.89617059  0.10668156  0.13004944  1
  Ta  Ta100  1  0.71027534  0.09886591  0.38915163  1
  Ta  Ta101  1  0.69403678  0.71224797  0.37131734  1
  Ta  Ta102  1  0.10585122  0.90225820  0.10403681  1
  Ta  Ta103  1  0.79578338  0.79729130  0.75011914  1
  Ta  Ta104  1  0.80039060  0.60276286  0.26085290  1
  Ta  Ta105  1  0.30066397  0.88828116  0.10393363  1
  Ta  Ta106  1  0.19644311  0.39935552  0.49283079  1
  Ta  Ta107  1  0.10287718  0.90936216  0.89027199  1
  Ta  Ta108  1  0.50978572  0.88828327  0.11201431  1
  Ta  Ta109  1  0.88763907  0.50541950  0.86414762  1
  Ta  Ta110  1  0.61812839  0.19984721  0.27234559  1
  Ta  Ta111  1  -0.00189933  0.42457794  -0.00799702  1
  Ta  Ta112  1  0.09495573  0.70872281  0.63512128  1
  Ta  Ta113  1  0.40562735  0.79062440  0.77474989  1
  Ta  Ta114  1  0.60096744  -0.00475029  0.25031049  1
  Ta  Ta115  1  0.39545008  -0.01664410  0.50052158  1
  Ta  Ta116  1  0.29952132  0.08491609  0.13522286  1
  Ta  Ta117  1  0.70100042  0.89975258  0.61944668  1
  Ta  Ta118  1  0.69019884  0.31683677  0.62215106  1
  Ta  Ta119  1  0.29578872  0.68286970  0.09993674  1
  Ti  Ti120  1  0.00365103  0.00478359  0.49973984  1
  Ti  Ti121  1  0.10572683  0.30781539  0.35651428  1
  Ti  Ti122  1  0.69287217  0.89981333  0.11045818  1
  Ti  Ti123  1  0.60119764  0.78150463  0.75862911  1
  Ti  Ti124  1  0.70454810  0.29616842  0.13901140  1
  Ti  Ti125  1  0.30050763  0.89368455  0.62933144  1
  Ti  Ti126  1  0.81026203  0.77365197  -0.00339322  1
  Ti  Ti127  1  0.78653026  0.39920344  0.27237673  1
  Ti  Ti128  1  0.59013087  0.40224263  0.27809442  1
  Ti  Ti129  1  0.79867609  0.21080497  0.73466306  1
  Ti  Ti130  1  0.50348064  0.69076966  0.11389532  1
  Ti  Ti131  1  0.89641700  0.09616301  0.38015219  1
  Ti  Ti132  1  0.80323002  0.20599546  -0.00206643  1
  Ti  Ti133  1  0.41039611  0.78544945  -0.01027684  1
  Ti  Ti134  1  0.89741857  0.71055155  0.62718084  1
  Ti  Ti135  1  0.90670448  0.31219840  0.63241391  1
  Ti  Ti136  1  0.19480039  0.20465206  0.48685300  1
  Ti  Ti137  1  0.00475880  0.80542409  0.50458204  1
  Ti  Ti138  1  0.42219191  0.58652175  -0.00475040  1
  Ti  Ti139  1  0.68891311  0.50987963  0.62518451  1
  Ti  Ti140  1  0.79230603  0.40932081  0.74485747  1
  Ti  Ti141  1  0.49906595  0.09955020  0.86984890  1
  Ti  Ti142  1  0.78586968  0.61240209  0.74427931  1
  Ti  Ti143  1  0.89763262  0.30121963  0.36901846  1
  Ti  Ti144  1  0.30080415  0.09154600  0.62124160  1
  Ti  Ti145  1  0.18036771  0.59407047  -0.02367884  1
  Ti  Ti146  1  0.19667496  -0.01206115  0.24615457  1
  Ti  Ti147  1  0.19668493  0.80525508  0.50403386  1
  Ti  Ti148  1  0.90919664  0.50248730  0.36171236  1
  Ti  Ti149  1  0.10350376  0.10849216  0.62738667  1
  Ti  Ti150  1  0.79654917  0.80392478  0.24645272  1
  Ti  Ti151  1  0.50960864  0.08794598  0.13177373  1
  Ti  Ti152  1  0.29831670  0.28467169  0.87610489  1
  Ti  Ti153  1  0.31047912  0.69013353  0.88359809  1
  Ti  Ti154  1  0.09136257  0.30402485  0.62138127  1
  Ti  Ti155  1  0.40404307  0.58719391  0.51291571  1
  Ti  Ti156  1  0.29517937  0.88671940  0.37547442  1
  Ti  Ti157  1  0.60337520  -0.00797980  0.50790356  1
  Ti  Ti158  1  0.70242749  0.09828911  0.61659690  1
  Ti  Ti159  1  0.50124461  0.88671053  0.38168649  1
  Mo  Mo160  1  0.20720549  -0.00055794  0.00366617  1
  Mo  Mo161  1  -0.00674075  0.81090937  0.75167103  1
  Mo  Mo162  1  0.70074990  0.70642704  0.88080463  1
  Mo  Mo163  1  0.60872365  0.60800387  0.74245047  1
  Mo  Mo164  1  0.30783829  0.88797759  0.89137061  1
  Mo  Mo165  1  -0.01125174  0.40823992  0.74844924  1
  Mo  Mo166  1  0.00621311  0.21307937  0.73856329  1
  Mo  Mo167  1  0.50242630  0.49273742  0.87529236  1
  Mo  Mo168  1  0.60319860  0.79607056  0.49537145  1
  Mo  Mo169  1  0.19808755  0.18580088  0.25601603  1
  Mo  Mo170  1  0.01194375  0.60396321  0.24988879  1
  Mo  Mo171  1  0.89418269  0.69765586  0.13631541  1
  Mo  Mo172  1  0.79963649  0.00586057  0.50588627  1
  Mo  Mo173  1  0.20534264  0.62402732  0.23526900  1
  Mo  Mo174  1  0.08112826  0.71364980  0.88634099  1
  Mo  Mo175  1  0.51811441  0.68734840  0.88784468  1
  Mo  Mo176  1  0.09442483  0.30592402  0.87980076  1
  Mo  Mo177  1  0.29531078  0.50936583  0.09865964  1
  Mo  Mo178  1  0.69880642  0.50818926  0.36595555  1
  Mo  Mo179  1  0.50959079  0.29706789  0.61741423  1
  Mo  Mo180  1  0.50278380  0.50294331  0.12768759  1
  Mo  Mo181  1  0.00151085  0.40810794  0.26949806  1
  Mo  Mo182  1  0.87512566  0.70284381  0.86936360  1
  Mo  Mo183  1  0.79910909  0.19848322  0.26471783  1
  Mo  Mo184  1  0.60468925  0.79537198  0.00222841  1
  Mo  Mo185  1  0.39846940  0.18624050  0.74656029  1
  Mo  Mo186  1  0.47950317  0.49747735  0.37330884  1
  Mo  Mo187  1  0.50701512  0.68834572  0.62778963  1
  Mo  Mo188  1  0.40753011  0.40681521  0.23696273  1
  Mo  Mo189  1  0.10482352  0.90759958  0.37303533  1
  Mo  Mo190  1  0.60273914  -0.00304336  0.00292180  1
  Mo  Mo191  1  0.80193239  0.58618016  0.00392392  1
  Mo  Mo192  1  0.30675447  0.50620274  0.38004381  1
  Mo  Mo193  1  0.51627771  0.48501121  0.61845867  1
  Mo  Mo194  1  0.70372709  0.29944825  0.37992913  1
  Mo  Mo195  1  0.50315814  0.29733422  0.36835712  1
  Mo  Mo196  1  0.10179439  0.51784371  0.11060326  1
  Mo  Mo197  1  0.60064294  0.60340125  0.00891626  1
  Mo  Mo198  1  0.08374872  0.50455173  0.87601538  1
  Mo  Mo199  1  -0.00326115  0.80193734  -0.00163760  1
