# generated using pymatgen
data_HfZrTaTiMo
_symmetry_space_group_name_H-M   'P 1'
_cell_length_a   15.22452203
_cell_length_b   15.20540626
_cell_length_c   16.86168341
_cell_angle_alpha   89.98464559
_cell_angle_beta   90.03067053
_cell_angle_gamma   89.94492554
_symmetry_Int_Tables_number   1
_chemical_formula_structural   HfZrTaTiMo
_chemical_formula_sum   'Hf40 Zr40 Ta40 Ti40 Mo40'
_cell_volume   3903.39361488
_cell_formula_units_Z   40
loop_
 _symmetry_equiv_pos_site_id
 _symmetry_equiv_pos_as_xyz
  1  'x, y, z'
loop_
 _atom_site_type_symbol
 _atom_site_label
 _atom_site_symmetry_multiplicity
 _atom_site_fract_x
 _atom_site_fract_y
 _atom_site_fract_z
 _atom_site_occupancy
  Hf  Hf0  1  0.69991648  0.09818711  0.37177324  1
  Hf  Hf1  1  0.89683725  0.11571359  0.88577730  1
  Hf  Hf2  1  0.20709160  0.18716101  0.24227906  1
  Hf  Hf3  1  0.19892393  0.59618695  0.51205438  1
  Hf  Hf4  1  0.01127112  0.62447795  0.26204715  1
  Hf  Hf5  1  0.19491146  0.18607442  0.50684333  1
  Hf  Hf6  1  0.10950998  0.51548027  0.13920975  1
  Hf  Hf7  1  0.88975101  0.71996936  0.87303441  1
  Hf  Hf8  1  0.30633356  0.69027546  0.87478845  1
  Hf  Hf9  1  0.79514525  0.81708918  0.00570446  1
  Hf  Hf10  1  0.81101991  0.60359806  0.26454330  1
  Hf  Hf11  1  0.79606626  0.80773882  0.48466115  1
  Hf  Hf12  1  -0.00987425  0.20180894  0.23685659  1
  Hf  Hf13  1  -0.00114525  0.60623030  0.49315280  1
  Hf  Hf14  1  0.00270640  0.41624870  0.01268086  1
  Hf  Hf15  1  0.30130223  0.49861187  0.37732395  1
  Hf  Hf16  1  0.41819846  -0.00954125  0.25278824  1
  Hf  Hf17  1  0.10909414  0.30615787  0.13135547  1
  Hf  Hf18  1  -0.01176932  0.61220552  0.00485212  1
  Hf  Hf19  1  0.11252365  0.92929140  0.62433366  1
  Hf  Hf20  1  0.90845476  0.12676897  0.62599503  1
  Hf  Hf21  1  0.87799872  0.51415674  0.87850994  1
  Hf  Hf22  1  0.70582668  0.69332144  0.12486821  1
  Hf  Hf23  1  0.77890076  0.60357111  0.73905917  1
  Hf  Hf24  1  0.88763129  0.30623907  0.11995192  1
  Hf  Hf25  1  0.40413168  0.60126998  0.25651339  1
  Hf  Hf26  1  0.68363751  0.91027945  0.13654710  1
  Hf  Hf27  1  0.10371473  0.88679443  0.36884007  1
  Hf  Hf28  1  0.20280431  0.58892991  -0.00501269  1
  Hf  Hf29  1  0.59783058  0.19946771  0.75129638  1
  Hf  Hf30  1  0.31660493  0.27627231  0.62561399  1
  Hf  Hf31  1  0.60181476  0.38119147  0.24935965  1
  Hf  Hf32  1  0.00132569  0.01991662  0.48763286  1
  Hf  Hf33  1  0.41005307  0.38879075  0.26177397  1
  Hf  Hf34  1  0.49997621  0.70471340  0.11494225  1
  Hf  Hf35  1  0.59905546  -0.00404459  0.50971111  1
  Hf  Hf36  1  0.49983622  0.11127956  0.38426588  1
  Hf  Hf37  1  0.09541986  0.10356941  0.89212357  1
  Hf  Hf38  1  -0.00287482  0.80793197  0.49850266  1
  Hf  Hf39  1  0.50386738  0.49532785  0.12145771  1
  Zr  Zr40  1  0.89041229  0.31977913  0.36276112  1
  Zr  Zr41  1  0.21814794  0.80012555  0.51422447  1
  Zr  Zr42  1  0.80212143  0.00743185  0.74280241  1
  Zr  Zr43  1  0.70728286  0.88421825  0.63084981  1
  Zr  Zr44  1  0.78526443  0.43335696  0.01840588  1
  Zr  Zr45  1  0.58401564  0.80354131  0.25685025  1
  Zr  Zr46  1  0.30622569  0.27104055  0.37920008  1
  Zr  Zr47  1  -0.00488976  0.82283059  0.74821510  1
  Zr  Zr48  1  0.38101095  -0.00072705  0.74512505  1
  Zr  Zr49  1  0.61286898  0.40517836  0.75255251  1
  Zr  Zr50  1  0.71060528  0.47890190  0.60338749  1
  Zr  Zr51  1  0.29510527  0.70437466  0.37714165  1
  Zr  Zr52  1  0.41089776  0.39234247  0.49208331  1
  Zr  Zr53  1  0.21416935  0.80861630  0.74459485  1
  Zr  Zr54  1  0.09518163  0.29261370  0.87607127  1
  Zr  Zr55  1  0.10075896  0.50110663  0.86340577  1
  Zr  Zr56  1  0.89778719  0.30859825  0.89538041  1
  Zr  Zr57  1  0.29872562  0.69148821  0.11984243  1
  Zr  Zr58  1  0.09664040  0.49360268  0.36656866  1
  Zr  Zr59  1  0.40181907  -0.01593152  0.00427110  1
  Zr  Zr60  1  0.51130743  0.89327765  0.86928018  1
  Zr  Zr61  1  0.30548567  0.49161379  0.62541184  1
  Zr  Zr62  1  0.30737332  0.26490471  0.86463512  1
  Zr  Zr63  1  0.39800956  0.39036592  -0.00364746  1
  Zr  Zr64  1  0.48717809  0.10052695  0.87207932  1
  Zr  Zr65  1  0.09450910  0.70146593  0.63326355  1
  Zr  Zr66  1  0.70263401  0.48162398  0.38631611  1
  Zr  Zr67  1  0.60063400  0.59217293  0.26379619  1
  Zr  Zr68  1  0.80416694  0.00997535  0.50259155  1
  Zr  Zr69  1  -0.01346536  0.60185999  0.74634749  1
  Zr  Zr70  1  0.81003002  0.59860544  0.48844369  1
  Zr  Zr71  1  0.41318146  0.78745811  0.74694550  1
  Zr  Zr72  1  0.19440582  0.16564207  0.73714458  1
  Zr  Zr73  1  0.18398656  0.38619220  0.50188879  1
  Zr  Zr74  1  0.20156468  0.38803485  0.74517555  1
  Zr  Zr75  1  0.20873654  0.38732963  -0.00375837  1
  Zr  Zr76  1  0.89975827  0.92231233  0.88126667  1
  Zr  Zr77  1  0.10132248  0.70996850  0.87406620  1
  Zr  Zr78  1  0.20871074  -0.00064356  0.47768211  1
  Zr  Zr79  1  0.00411460  0.01080881  0.24726092  1
  Ta  Ta80  1  -0.00675354  0.80865913  0.24747361  1
  Ta  Ta81  1  0.69939726  0.09433367  0.87428592  1
  Ta  Ta82  1  0.59586951  0.19382228  -0.00668955  1
  Ta  Ta83  1  0.70112922  0.30060584  0.88549915  1
  Ta  Ta84  1  0.10105267  0.71303563  0.11870809  1
  Ta  Ta85  1  0.50596077  0.28216271  0.11956105  1
  Ta  Ta86  1  0.41897339  0.39117464  0.74518813  1
  Ta  Ta87  1  0.89296476  0.90909282  0.12974013  1
  Ta  Ta88  1  0.50057150  0.88587562  0.61991133  1
  Ta  Ta89  1  0.51053369  0.08494224  0.12420479  1
  Ta  Ta90  1  0.52075345  0.29721147  0.61409355  1
  Ta  Ta91  1  0.68954340  0.28562606  0.38120828  1
  Ta  Ta92  1  0.19402210  0.78582432  0.24848815  1
  Ta  Ta93  1  0.69590222  0.10695456  0.12698632  1
  Ta  Ta94  1  0.39656415  -0.00972770  0.49700688  1
  Ta  Ta95  1  0.87906026  0.71405244  0.62648231  1
  Ta  Ta96  1  0.30292144  0.48969255  0.13566640  1
  Ta  Ta97  1  0.21568505  -0.01135456  0.25700375  1
  Ta  Ta98  1  0.77992561  0.21205399  0.23960958  1
  Ta  Ta99  1  0.67600211  0.68966269  0.60381172  1
  Ta  Ta100  1  0.40962013  0.59165058  0.74113211  1
  Ta  Ta101  1  0.01186446  0.02665472  0.75054348  1
  Ta  Ta102  1  0.51460484  0.50553456  0.60947527  1
  Ta  Ta103  1  -0.01653041  0.39420878  0.74869224  1
  Ta  Ta104  1  0.50991233  0.68323130  0.88204390  1
  Ta  Ta105  1  0.59864265  0.39437457  -0.00091088  1
  Ta  Ta106  1  0.69760617  0.69662601  0.88086455  1
  Ta  Ta107  1  0.31254542  0.49102785  0.85839532  1
  Ta  Ta108  1  0.78875678  0.41130999  0.23129514  1
  Ta  Ta109  1  0.10849012  0.90351215  0.13125818  1
  Ta  Ta110  1  0.59536160  -0.00373142  0.73834838  1
  Ta  Ta111  1  -0.00179367  0.00957470  0.02256982  1
  Ta  Ta112  1  0.08467831  0.48945162  0.63070376  1
  Ta  Ta113  1  -0.00505655  0.22126317  0.48951216  1
  Ta  Ta114  1  0.50153651  0.29915475  0.87610899  1
  Ta  Ta115  1  0.07772472  0.28838471  0.63027709  1
  Ta  Ta116  1  0.80029374  0.21761552  0.75352373  1
  Ta  Ta117  1  0.80096145  0.80577081  0.25912390  1
  Ta  Ta118  1  0.00548869  0.81774326  0.00799928  1
  Ta  Ta119  1  0.11074172  0.91531728  0.88430419  1
  Ti  Ti120  1  0.00185918  0.19970109  0.02451998  1
  Ti  Ti121  1  0.79479799  0.21387144  0.50370007  1
  Ti  Ti122  1  0.78786898  0.19623560  0.00996734  1
  Ti  Ti123  1  0.20841194  0.39749573  0.25299557  1
  Ti  Ti124  1  0.50470595  0.49780370  0.87670350  1
  Ti  Ti125  1  0.39366994  0.80292032  0.25296645  1
  Ti  Ti126  1  0.20690813  0.80947487  -0.00148049  1
  Ti  Ti127  1  0.41222752  0.19166542  0.24517892  1
  Ti  Ti128  1  0.20325678  0.18148174  0.01957835  1
  Ti  Ti129  1  0.40404356  0.61091515  0.50798475  1
  Ti  Ti130  1  0.69288355  0.70460406  0.38197175  1
  Ti  Ti131  1  0.90576469  0.91135078  0.62395192  1
  Ti  Ti132  1  0.48486638  0.10329419  0.62092923  1
  Ti  Ti133  1  0.59130565  0.59870994  0.74742311  1
  Ti  Ti134  1  0.61416364  0.58847308  -0.00151011  1
  Ti  Ti135  1  0.88919099  0.32172789  0.62311236  1
  Ti  Ti136  1  0.59737096  0.80240712  -0.00194338  1
  Ti  Ti137  1  -0.01677268  0.41935884  0.23702338  1
  Ti  Ti138  1  0.30448984  0.88811076  0.12703236  1
  Ti  Ti139  1  0.89320927  0.11970283  0.37127192  1
  Ti  Ti140  1  0.09414732  0.29908521  0.36117815  1
  Ti  Ti141  1  0.61055422  0.78450992  0.74819169  1
  Ti  Ti142  1  0.68506655  0.90524385  0.36588105  1
  Ti  Ti143  1  0.90124453  0.71054193  0.12673345  1
  Ti  Ti144  1  0.80063633  0.01138702  0.24766783  1
  Ti  Ti145  1  0.40235660  0.79386734  -0.00808852  1
  Ti  Ti146  1  0.39744833  0.18949852  0.00735457  1
  Ti  Ti147  1  0.89278028  0.91349627  0.36594557  1
  Ti  Ti148  1  0.30250840  0.08303177  0.12558466  1
  Ti  Ti149  1  0.69548541  0.11191556  0.62624114  1
  Ti  Ti150  1  0.49764562  0.70771357  0.39075656  1
  Ti  Ti151  1  -0.01641090  0.41158585  0.50132230  1
  Ti  Ti152  1  0.20977285  0.59859716  0.73866002  1
  Ti  Ti153  1  0.28124664  0.06319951  0.89003500  1
  Ti  Ti154  1  0.79981544  0.40519280  0.75416094  1
  Ti  Ti155  1  0.31063673  0.29382447  0.12935132  1
  Ti  Ti156  1  0.70512880  0.89673169  0.86281789  1
  Ti  Ti157  1  0.10454863  0.11048842  0.36629314  1
  Ti  Ti158  1  0.40290401  0.58769054  -0.00338019  1
  Ti  Ti159  1  0.61302878  -0.00422895  -0.00475241  1
  Mo  Mo160  1  0.68689987  0.29873444  0.11243233  1
  Mo  Mo161  1  0.89863463  0.52190489  0.13255413  1
  Mo  Mo162  1  0.20799236  0.59770591  0.24865222  1
  Mo  Mo163  1  0.09232464  0.10503041  0.61483277  1
  Mo  Mo164  1  0.78942617  0.00982783  0.00392894  1
  Mo  Mo165  1  0.40468655  0.18207238  0.50653054  1
  Mo  Mo166  1  0.10745873  0.09781846  0.12649590  1
  Mo  Mo167  1  0.50148437  0.89750607  0.38680043  1
  Mo  Mo168  1  0.90333806  0.50184816  0.36606786  1
  Mo  Mo169  1  0.60513861  0.00591457  0.25180040  1
  Mo  Mo170  1  0.79610373  0.62153294  0.00410303  1
  Mo  Mo171  1  0.19055004  -0.00849662  0.75586420  1
  Mo  Mo172  1  0.59260332  0.59500798  0.48432508  1
  Mo  Mo173  1  0.60626526  0.38756982  0.49642073  1
  Mo  Mo174  1  0.10209744  0.70571593  0.37933177  1
  Mo  Mo175  1  0.30490782  0.09381723  0.36446494  1
  Mo  Mo176  1  0.31345682  0.89388377  0.36571488  1
  Mo  Mo177  1  0.68608313  0.51035859  0.87481136  1
  Mo  Mo178  1  0.81311079  0.38696826  0.49661335  1
  Mo  Mo179  1  0.71104403  0.28762839  0.62667529  1
  Mo  Mo180  1  0.29642926  0.07759967  0.61955828  1
  Mo  Mo181  1  0.90260478  0.72179292  0.37251679  1
  Mo  Mo182  1  0.31140367  0.90297139  0.62235636  1
  Mo  Mo183  1  0.49959641  0.50235566  0.39021665  1
  Mo  Mo184  1  -0.01113541  0.20825486  0.75330151  1
  Mo  Mo185  1  0.59134624  0.19330142  0.24632220  1
  Mo  Mo186  1  0.19580685  -0.01085599  0.01604366  1
  Mo  Mo187  1  0.49552636  0.89389541  0.11660225  1
  Mo  Mo188  1  0.90400814  0.50546779  0.62807628  1
  Mo  Mo189  1  0.40834769  0.80197490  0.50514765  1
  Mo  Mo190  1  0.31239424  0.69243879  0.62817883  1
  Mo  Mo191  1  0.51221583  0.29704256  0.38508984  1
  Mo  Mo192  1  0.59667545  0.80116353  0.48875130  1
  Mo  Mo193  1  0.29744505  0.88823588  0.88324952  1
  Mo  Mo194  1  0.88838550  0.10073454  0.12222148  1
  Mo  Mo195  1  0.50541726  0.69384404  0.61814729  1
  Mo  Mo196  1  0.69250654  0.50681745  0.13305393  1
  Mo  Mo197  1  0.40876293  0.20160791  0.74073350  1
  Mo  Mo198  1  0.79234235  0.79536327  0.74583097  1
  Mo  Mo199  1  0.60440107  0.19389481  0.51141523  1
