# generated using pymatgen
data_HfZrTaTiMo
_symmetry_space_group_name_H-M   'P 1'
_cell_length_a   15.21579677
_cell_length_b   15.21759985
_cell_length_c   16.84193726
_cell_angle_alpha   90.00229841
_cell_angle_beta   90.04578221
_cell_angle_gamma   89.93454225
_symmetry_Int_Tables_number   1
_chemical_formula_structural   HfZrTaTiMo
_chemical_formula_sum   'Hf40 Zr40 Ta40 Ti40 Mo40'
_cell_volume   3899.71152551
_cell_formula_units_Z   40
loop_
 _symmetry_equiv_pos_site_id
 _symmetry_equiv_pos_as_xyz
  1  'x, y, z'
loop_
 _atom_site_type_symbol
 _atom_site_label
 _atom_site_symmetry_multiplicity
 _atom_site_fract_x
 _atom_site_fract_y
 _atom_site_fract_z
 _atom_site_occupancy
  Hf  Hf0  1  0.29624610  0.09997372  0.61641588  1
  Hf  Hf1  1  0.10844247  0.70224122  0.36656865  1
  Hf  Hf2  1  0.50425271  0.68878962  0.37699893  1
  Hf  Hf3  1  0.91364692  0.10151821  0.11731559  1
  Hf  Hf4  1  0.29954023  0.69830132  0.88115367  1
  Hf  Hf5  1  -0.00809901  0.21687147  0.49378392  1
  Hf  Hf6  1  0.59787696  -0.00442132  0.49222981  1
  Hf  Hf7  1  0.50529156  0.48995996  0.63541338  1
  Hf  Hf8  1  0.10033218  0.90366129  0.62382544  1
  Hf  Hf9  1  0.30065501  0.90123673  0.62080914  1
  Hf  Hf10  1  0.21490358  0.21080544  -0.00021227  1
  Hf  Hf11  1  0.39990812  0.80009827  0.75025148  1
  Hf  Hf12  1  0.39117864  0.00691254  0.01273049  1
  Hf  Hf13  1  -0.00165887  0.82849840  0.25148335  1
  Hf  Hf14  1  0.69627089  0.49552494  0.13728983  1
  Hf  Hf15  1  0.00797353  0.60807813  0.24835833  1
  Hf  Hf16  1  0.48516946  0.49171191  0.37475159  1
  Hf  Hf17  1  -0.00152094  0.80760566  0.50078503  1
  Hf  Hf18  1  0.80797729  0.57641703  -0.00289375  1
  Hf  Hf19  1  0.81474679  -0.01834081  0.23841992  1
  Hf  Hf20  1  0.88735984  0.71384136  0.12986797  1
  Hf  Hf21  1  0.00062466  0.21791196  0.75533064  1
  Hf  Hf22  1  0.29076081  0.90570521  0.87825891  1
  Hf  Hf23  1  0.10047402  0.12072378  0.61994499  1
  Hf  Hf24  1  0.02579927  0.60103362  0.73898071  1
  Hf  Hf25  1  0.49843021  0.28920099  0.11262098  1
  Hf  Hf26  1  -0.00283365  0.01219514  0.50230471  1
  Hf  Hf27  1  0.90751862  0.89528291  0.88490973  1
  Hf  Hf28  1  0.20258404  0.21266646  0.76592516  1
  Hf  Hf29  1  0.68998663  0.69143348  0.10401309  1
  Hf  Hf30  1  0.10163359  0.09995836  0.88832666  1
  Hf  Hf31  1  0.30879776  0.69251136  0.37194943  1
  Hf  Hf32  1  0.20297429  0.80451374  0.01598861  1
  Hf  Hf33  1  0.89755285  0.69695908  0.63439521  1
  Hf  Hf34  1  0.79558273  0.00809445  0.50520629  1
  Hf  Hf35  1  0.63643329  0.38712589  -0.00789380  1
  Hf  Hf36  1  0.00449338  0.60368323  0.50049696  1
  Hf  Hf37  1  0.18961616  0.41288114  0.76190886  1
  Hf  Hf38  1  0.39908939  0.39620953  0.50878016  1
  Hf  Hf39  1  0.41172029  0.20299927  0.74435542  1
  Zr  Zr40  1  0.78812673  0.79347988  0.75610566  1
  Zr  Zr41  1  0.29691519  0.49731950  0.88882812  1
  Zr  Zr42  1  0.69146674  0.49815092  0.36392167  1
  Zr  Zr43  1  0.48992525  0.68522667  0.10569349  1
  Zr  Zr44  1  0.70634874  0.29779106  0.14684442  1
  Zr  Zr45  1  0.79176607  0.22552945  0.74593877  1
  Zr  Zr46  1  0.67588765  0.89397140  0.87308679  1
  Zr  Zr47  1  0.78032882  0.01545963  0.75702093  1
  Zr  Zr48  1  0.29069936  0.49922634  0.37575379  1
  Zr  Zr49  1  0.81631138  0.39647747  0.49482720  1
  Zr  Zr50  1  0.88451421  0.71443193  0.36684342  1
  Zr  Zr51  1  0.19528055  0.00440409  0.25507518  1
  Zr  Zr52  1  0.19528186  0.00090136  0.75374266  1
  Zr  Zr53  1  0.20063349  0.79820439  0.49387141  1
  Zr  Zr54  1  0.61135084  0.38016346  0.50057170  1
  Zr  Zr55  1  0.08511059  0.92139589  0.11254395  1
  Zr  Zr56  1  0.50009699  0.28124092  0.89350145  1
  Zr  Zr57  1  0.51404071  0.70499312  0.89056789  1
  Zr  Zr58  1  0.70846717  0.88508552  0.37052342  1
  Zr  Zr59  1  0.02664363  0.41026240  0.47673692  1
  Zr  Zr60  1  0.89371833  0.49700008  0.15309258  1
  Zr  Zr61  1  0.79450504  0.80675568  0.51578152  1
  Zr  Zr62  1  0.29298350  0.30288213  0.62546638  1
  Zr  Zr63  1  0.50875766  0.49498034  0.88787540  1
  Zr  Zr64  1  0.40333848  0.59017210  0.75362079  1
  Zr  Zr65  1  0.50145492  0.10095780  0.35620254  1
  Zr  Zr66  1  0.39627913  -0.00982001  0.48370501  1
  Zr  Zr67  1  -0.00774564  0.00937464  0.74984142  1
  Zr  Zr68  1  0.09857769  0.70757046  0.88546677  1
  Zr  Zr69  1  0.51471817  0.08697148  0.87111583  1
  Zr  Zr70  1  0.41009954  0.19603277  0.49708401  1
  Zr  Zr71  1  0.59205107  -0.00194565  0.01421111  1
  Zr  Zr72  1  0.79111755  0.00803442  -0.00521248  1
  Zr  Zr73  1  -0.00617553  0.41322018  0.01065311  1
  Zr  Zr74  1  0.79408014  0.60004421  0.49729162  1
  Zr  Zr75  1  0.28602680  0.68936922  0.62997377  1
  Zr  Zr76  1  0.49592620  0.48923963  0.10061088  1
  Zr  Zr77  1  0.61126721  0.37461813  0.75551420  1
  Zr  Zr78  1  0.89318232  0.11776158  0.88398181  1
  Zr  Zr79  1  0.60885735  0.78164927  0.24805457  1
  Ta  Ta80  1  0.68557432  0.11382994  0.62198714  1
  Ta  Ta81  1  0.70709186  0.88522059  0.11916881  1
  Ta  Ta82  1  0.89608743  0.10499760  0.36760536  1
  Ta  Ta83  1  0.59610330  0.59217620  0.50888222  1
  Ta  Ta84  1  0.90072193  0.29758378  0.35495641  1
  Ta  Ta85  1  0.69759495  0.09912508  0.13708179  1
  Ta  Ta86  1  0.90267813  0.50458715  0.35876249  1
  Ta  Ta87  1  0.20621531  0.40354738  0.24509502  1
  Ta  Ta88  1  0.49374065  0.09877090  0.14128557  1
  Ta  Ta89  1  0.57830484  0.38990458  0.24983587  1
  Ta  Ta90  1  0.70909627  0.49525165  0.63640555  1
  Ta  Ta91  1  0.59916587  0.78953408  0.50174444  1
  Ta  Ta92  1  0.19966307  0.59746970  0.02195751  1
  Ta  Ta93  1  0.89882035  0.68389965  0.86583217  1
  Ta  Ta94  1  0.39599673  0.78673085  0.24198998  1
  Ta  Ta95  1  0.08966599  0.11402401  0.36350377  1
  Ta  Ta96  1  0.60358229  -0.01112798  0.24266633  1
  Ta  Ta97  1  0.09531881  0.71146862  0.12653769  1
  Ta  Ta98  1  0.88933541  0.11919910  0.62422606  1
  Ta  Ta99  1  0.00134447  0.61271536  0.01207704  1
  Ta  Ta100  1  0.40849574  0.79296781  0.50176383  1
  Ta  Ta101  1  0.79291106  0.21686241  0.00718461  1
  Ta  Ta102  1  0.70378355  0.09596104  0.35776923  1
  Ta  Ta103  1  0.69542551  0.28543863  0.35668232  1
  Ta  Ta104  1  0.00453993  0.21936074  0.00147249  1
  Ta  Ta105  1  0.20250675  0.80293494  0.24094548  1
  Ta  Ta106  1  0.19254662  0.00800378  0.47917350  1
  Ta  Ta107  1  0.50229199  0.08329892  0.62785151  1
  Ta  Ta108  1  0.00102586  0.80533809  0.74705745  1
  Ta  Ta109  1  0.31430110  0.10941153  0.87786226  1
  Ta  Ta110  1  0.78850400  0.20520054  0.49281342  1
  Ta  Ta111  1  0.68953687  0.69301666  0.63335753  1
  Ta  Ta112  1  0.21350170  0.60530206  0.22983236  1
  Ta  Ta113  1  0.88928991  0.32741071  0.88171549  1
  Ta  Ta114  1  -0.00471181  0.40668782  0.75392855  1
  Ta  Ta115  1  0.50037613  0.89126197  0.13317587  1
  Ta  Ta116  1  0.50212515  0.89126300  0.62652218  1
  Ta  Ta117  1  0.50312292  0.69502505  0.62786903  1
  Ta  Ta118  1  0.73347752  0.48838146  0.85950561  1
  Ta  Ta119  1  0.39858624  0.00036710  0.74884283  1
  Ti  Ti120  1  0.39533815  0.39167449  0.75852671  1
  Ti  Ti121  1  0.48800828  0.89651598  0.87561434  1
  Ti  Ti122  1  0.29742573  0.29637338  0.13279270  1
  Ti  Ti123  1  0.49572886  0.88732281  0.36270095  1
  Ti  Ti124  1  0.39625153  -0.00597474  0.24973261  1
  Ti  Ti125  1  0.49787120  0.29480788  0.36927177  1
  Ti  Ti126  1  0.09646702  0.32458474  0.62157309  1
  Ti  Ti127  1  0.39863272  0.59798129  0.51341956  1
  Ti  Ti128  1  0.29337499  0.11238907  0.36858362  1
  Ti  Ti129  1  0.18652540  0.39679871  0.00148438  1
  Ti  Ti130  1  0.90583751  0.30243245  0.14323352  1
  Ti  Ti131  1  0.79218789  0.78624474  -0.01875068  1
  Ti  Ti132  1  0.19130894  0.58351662  0.50307634  1
  Ti  Ti133  1  0.68437784  0.90271312  0.63723572  1
  Ti  Ti134  1  0.09927923  0.30188461  0.13656652  1
  Ti  Ti135  1  0.09293499  0.50943989  0.88672237  1
  Ti  Ti136  1  0.18741708  0.79094182  0.74888080  1
  Ti  Ti137  1  0.61702000  0.60181310  0.76129733  1
  Ti  Ti138  1  0.30266677  0.90406757  0.13319496  1
  Ti  Ti139  1  0.29716815  0.89183415  0.36765445  1
  Ti  Ti140  1  0.77826715  0.61626986  0.25849645  1
  Ti  Ti141  1  0.19397135  0.21742152  0.48588955  1
  Ti  Ti142  1  0.01341967  0.39855921  0.26294471  1
  Ti  Ti143  1  0.30154887  0.30420263  0.36834830  1
  Ti  Ti144  1  0.10802208  0.11858874  0.13141603  1
  Ti  Ti145  1  0.89178719  0.91061355  0.63526237  1
  Ti  Ti146  1  0.37765996  0.37865161  -0.00416554  1
  Ti  Ti147  1  0.28898499  0.49528561  0.62830233  1
  Ti  Ti148  1  0.20285795  0.01381309  0.01124646  1
  Ti  Ti149  1  0.57763015  0.59110204  0.24471972  1
  Ti  Ti150  1  0.90054946  0.89855730  0.09803051  1
  Ti  Ti151  1  0.30816265  0.49749402  0.12043737  1
  Ti  Ti152  1  0.80840505  0.19040399  0.24691704  1
  Ti  Ti153  1  0.40026073  0.80602503  0.00827876  1
  Ti  Ti154  1  0.52963579  0.27522814  0.62133305  1
  Ti  Ti155  1  0.90959072  0.91550521  0.37697003  1
  Ti  Ti156  1  0.10166709  0.49920227  0.13057758  1
  Ti  Ti157  1  0.39278943  0.20879933  0.24715957  1
  Ti  Ti158  1  0.09524239  0.90080475  0.88921146  1
  Ti  Ti159  1  0.91217888  0.48978982  0.62433109  1
  Mo  Mo160  1  0.10912215  0.50864822  0.35855112  1
  Mo  Mo161  1  0.30095852  0.10640291  0.13718057  1
  Mo  Mo162  1  0.59259207  0.78888056  0.74345982  1
  Mo  Mo163  1  0.69132822  0.69162378  0.38068756  1
  Mo  Mo164  1  0.20445683  0.60172919  0.75359877  1
  Mo  Mo165  1  0.20205296  0.21089944  0.25280960  1
  Mo  Mo166  1  0.10155824  0.91024656  0.37577078  1
  Mo  Mo167  1  0.59471310  0.19331208  0.24819512  1
  Mo  Mo168  1  0.29971565  0.70338671  0.12471487  1
  Mo  Mo169  1  0.38959402  0.59794126  -0.00306300  1
  Mo  Mo170  1  0.59023454  -0.01123221  0.74340054  1
  Mo  Mo171  1  -0.00868426  0.79607088  -0.00094966  1
  Mo  Mo172  1  0.81440923  0.40384912  0.73889784  1
  Mo  Mo173  1  0.80941649  0.58849284  0.74276336  1
  Mo  Mo174  1  0.39489696  0.39752711  0.24327940  1
  Mo  Mo175  1  0.40160045  0.19004078  0.01128521  1
  Mo  Mo176  1  0.70476735  0.68522499  0.88070030  1
  Mo  Mo177  1  0.79792049  0.39937431  0.26525269  1
  Mo  Mo178  1  0.91906871  0.50978629  0.87130668  1
  Mo  Mo179  1  0.00647483  0.01255458  -0.00542024  1
  Mo  Mo180  1  0.61251420  0.58978674  -0.01902257  1
  Mo  Mo181  1  0.91274661  0.30218619  0.61859021  1
  Mo  Mo182  1  0.71037771  0.29952234  0.61593418  1
  Mo  Mo183  1  0.29977654  0.29895751  0.87639666  1
  Mo  Mo184  1  0.70878813  0.29162848  0.87760826  1
  Mo  Mo185  1  0.39843238  0.58871140  0.24253836  1
  Mo  Mo186  1  0.09691152  0.70671842  0.62282682  1
  Mo  Mo187  1  0.80116770  0.79913413  0.24324416  1
  Mo  Mo188  1  0.11264883  0.50228711  0.62292658  1
  Mo  Mo189  1  0.20475409  0.39616703  0.49745092  1
  Mo  Mo190  1  0.00165190  0.20477884  0.24469124  1
  Mo  Mo191  1  -0.00233249  0.01506301  0.25289906  1
  Mo  Mo192  1  0.09212167  0.31207875  0.88527444  1
  Mo  Mo193  1  0.69036002  0.11472229  0.87925179  1
  Mo  Mo194  1  0.81576424  0.39433204  0.01008968  1
  Mo  Mo195  1  0.61257083  0.18515704  0.01008136  1
  Mo  Mo196  1  0.59804857  0.80508877  0.00589207  1
  Mo  Mo197  1  0.60775983  0.18720177  0.49016098  1
  Mo  Mo198  1  0.60577145  0.18472596  0.74689283  1
  Mo  Mo199  1  0.11382947  0.30195237  0.36092818  1
