# generated using pymatgen
data_HfZrTaTiMo
_symmetry_space_group_name_H-M   'P 1'
_cell_length_a   15.20798294
_cell_length_b   15.21500619
_cell_length_c   16.87166367
_cell_angle_alpha   90.03234005
_cell_angle_beta   90.04544869
_cell_angle_gamma   90.03383911
_symmetry_Int_Tables_number   1
_chemical_formula_structural   HfZrTaTiMo
_chemical_formula_sum   'Hf40 Zr40 Ta40 Ti40 Mo40'
_cell_volume   3903.92421029
_cell_formula_units_Z   40
loop_
 _symmetry_equiv_pos_site_id
 _symmetry_equiv_pos_as_xyz
  1  'x, y, z'
loop_
 _atom_site_type_symbol
 _atom_site_label
 _atom_site_symmetry_multiplicity
 _atom_site_fract_x
 _atom_site_fract_y
 _atom_site_fract_z
 _atom_site_occupancy
  Hf  Hf0  1  0.78882828  0.01889572  0.73123162  1
  Hf  Hf1  1  0.40491786  0.61098911  0.50430089  1
  Hf  Hf2  1  -0.00705393  0.19596978  0.25895488  1
  Hf  Hf3  1  0.60474194  0.41674261  0.75553788  1
  Hf  Hf4  1  0.28277363  0.69446975  0.37885226  1
  Hf  Hf5  1  0.19751293  -0.00580846  0.00702210  1
  Hf  Hf6  1  -0.02918417  0.37162796  0.74584146  1
  Hf  Hf7  1  0.50288296  0.70086930  0.12649222  1
  Hf  Hf8  1  0.60730998  0.18642850  -0.00865784  1
  Hf  Hf9  1  0.31066123  0.30971135  0.13287424  1
  Hf  Hf10  1  0.70667314  0.71813848  0.89307493  1
  Hf  Hf11  1  0.51039330  0.30908025  0.62978706  1
  Hf  Hf12  1  0.49488099  0.90939474  0.13528395  1
  Hf  Hf13  1  0.69129761  0.51901858  0.11333130  1
  Hf  Hf14  1  -0.00689193  0.59327371  -0.00664726  1
  Hf  Hf15  1  0.69724895  0.31344784  0.37325514  1
  Hf  Hf16  1  0.37862496  0.59410060  0.24405569  1
  Hf  Hf17  1  0.80937338  0.39997336  0.01758154  1
  Hf  Hf18  1  0.80915619  0.20576902  0.00158775  1
  Hf  Hf19  1  0.79358517  0.60953390  0.25225650  1
  Hf  Hf20  1  0.19818523  0.79353175  0.00842146  1
  Hf  Hf21  1  0.42593506  0.19539239  0.24193254  1
  Hf  Hf22  1  0.00677383  0.40248693  0.25612991  1
  Hf  Hf23  1  0.61943541  0.18826340  0.73879408  1
  Hf  Hf24  1  0.00475284  0.18824168  0.00779675  1
  Hf  Hf25  1  0.40861990  0.40099638  0.50493303  1
  Hf  Hf26  1  0.20373476  0.18328917  0.73733232  1
  Hf  Hf27  1  0.31359032  0.09349793  0.36383442  1
  Hf  Hf28  1  0.39267369  0.80592955  -0.00215095  1
  Hf  Hf29  1  0.69382515  0.52007308  0.89723627  1
  Hf  Hf30  1  0.68802350  0.90412730  0.38440335  1
  Hf  Hf31  1  0.11584683  0.88725093  0.64758661  1
  Hf  Hf32  1  0.09381702  0.29010436  0.61003443  1
  Hf  Hf33  1  0.89260794  0.70885998  0.11393053  1
  Hf  Hf34  1  0.21315794  0.18059639  0.50567944  1
  Hf  Hf35  1  0.90670067  0.71579662  0.37515738  1
  Hf  Hf36  1  0.30931827  0.10409339  0.87410722  1
  Hf  Hf37  1  0.18881550  0.38776531  0.73956547  1
  Hf  Hf38  1  0.90106339  0.92057148  0.12243580  1
  Hf  Hf39  1  0.50956939  0.28590051  0.38217888  1
  Zr  Zr40  1  0.09060811  0.69421330  0.64072027  1
  Zr  Zr41  1  0.79661305  0.81602313  0.25225421  1
  Zr  Zr42  1  0.20047258  0.58879058  0.00455279  1
  Zr  Zr43  1  0.80006719  0.00422877  0.51281271  1
  Zr  Zr44  1  0.28568282  0.90003086  0.86413260  1
  Zr  Zr45  1  0.69975841  0.28196359  0.13668008  1
  Zr  Zr46  1  0.73155771  0.30918064  0.63439151  1
  Zr  Zr47  1  0.09066060  0.08019920  0.12764830  1
  Zr  Zr48  1  0.09427298  0.47797293  0.87312160  1
  Zr  Zr49  1  0.60403117  0.61666121  0.74560455  1
  Zr  Zr50  1  0.89552751  0.49466255  0.62031096  1
  Zr  Zr51  1  0.10358096  0.70694066  0.86244896  1
  Zr  Zr52  1  0.80216476  0.40361861  0.24540435  1
  Zr  Zr53  1  0.39834798  0.00055367  0.50370355  1
  Zr  Zr54  1  0.30089487  0.49909610  0.63068549  1
  Zr  Zr55  1  0.29749471  0.71972953  0.63040812  1
  Zr  Zr56  1  0.29743678  0.49596641  0.86425088  1
  Zr  Zr57  1  -0.01185500  0.58502472  0.76005949  1
  Zr  Zr58  1  0.11072334  0.29508959  0.38084371  1
  Zr  Zr59  1  0.79537381  0.60678707  0.48734641  1
  Zr  Zr60  1  0.91319318  0.90614134  0.63818744  1
  Zr  Zr61  1  0.50880623  0.49547931  0.37150796  1
  Zr  Zr62  1  0.79714319  -0.00026566  -0.00672742  1
  Zr  Zr63  1  0.48515984  0.48236365  0.13124019  1
  Zr  Zr64  1  0.59523816  0.83190922  -0.00480359  1
  Zr  Zr65  1  0.00907935  0.60582306  0.25107146  1
  Zr  Zr66  1  0.49432735  0.28691470  0.85881125  1
  Zr  Zr67  1  0.59090300  0.38794080  0.00035506  1
  Zr  Zr68  1  0.73199138  0.30824331  0.85930094  1
  Zr  Zr69  1  0.49204966  0.09900193  0.63406083  1
  Zr  Zr70  1  0.40453624  0.19587313  0.00799325  1
  Zr  Zr71  1  0.29432642  0.89774345  0.36537417  1
  Zr  Zr72  1  0.88641336  0.70609848  0.63316693  1
  Zr  Zr73  1  0.90504290  0.10972429  0.86205041  1
  Zr  Zr74  1  -0.00675765  -0.01004217  0.26440435  1
  Zr  Zr75  1  -0.00305705  0.82200538  -0.01171153  1
  Zr  Zr76  1  0.19357832  0.78247870  0.23627125  1
  Zr  Zr77  1  0.39322948  0.59988712  0.00805753  1
  Zr  Zr78  1  0.30986640  0.30485512  0.37039609  1
  Zr  Zr79  1  0.20313160  0.19007368  0.24516145  1
  Ta  Ta80  1  0.00242896  0.40879868  0.48944337  1
  Ta  Ta81  1  0.69855900  0.71541550  0.10767562  1
  Ta  Ta82  1  0.10053566  0.29946969  0.13077079  1
  Ta  Ta83  1  0.79316832  0.40975171  0.48829079  1
  Ta  Ta84  1  0.19340018  0.60279049  0.50774521  1
  Ta  Ta85  1  0.69876757  0.50923637  0.62040387  1
  Ta  Ta86  1  0.10614018  0.07701492  0.38399544  1
  Ta  Ta87  1  0.60085107  0.60205918  0.50041033  1
  Ta  Ta88  1  0.88513105  0.49041111  0.88114523  1
  Ta  Ta89  1  0.20375686  0.40247698  0.50718209  1
  Ta  Ta90  1  0.69141193  0.91576128  0.85934726  1
  Ta  Ta91  1  0.60592617  0.19983373  0.51325521  1
  Ta  Ta92  1  0.68818194  0.10348186  0.39193429  1
  Ta  Ta93  1  0.78635262  0.02128024  0.26008572  1
  Ta  Ta94  1  0.49427712  0.89038400  0.63043095  1
  Ta  Ta95  1  0.89094368  0.89978239  0.85202378  1
  Ta  Ta96  1  0.29076114  0.29624148  0.87080697  1
  Ta  Ta97  1  0.79287150  0.80234389  0.50339822  1
  Ta  Ta98  1  0.00933266  0.80519742  0.50402283  1
  Ta  Ta99  1  0.09038689  0.07873031  0.61599823  1
  Ta  Ta100  1  0.49702733  0.71004037  0.36860972  1
  Ta  Ta101  1  0.38827467  0.39473105  -0.00830382  1
  Ta  Ta102  1  0.41080741  0.60507330  0.74758416  1
  Ta  Ta103  1  0.50217496  0.70187548  0.88151568  1
  Ta  Ta104  1  0.49391999  0.50719459  0.87893760  1
  Ta  Ta105  1  0.58963646  0.79620643  0.50597021  1
  Ta  Ta106  1  0.11257768  0.51106806  0.38034643  1
  Ta  Ta107  1  0.00259251  0.60464003  0.49490552  1
  Ta  Ta108  1  0.70340360  0.10270818  0.86584053  1
  Ta  Ta109  1  0.20968938  0.41650458  0.24822426  1
  Ta  Ta110  1  0.59929489  0.60529749  0.25168581  1
  Ta  Ta111  1  0.31286029  0.28645496  0.62688919  1
  Ta  Ta112  1  0.00007695  0.38491699  0.00670076  1
  Ta  Ta113  1  0.52391152  0.09644657  0.12346551  1
  Ta  Ta114  1  0.59826035  0.80633182  0.75101382  1
  Ta  Ta115  1  0.90207733  0.30228768  0.38492153  1
  Ta  Ta116  1  0.80186862  0.20680011  0.49320434  1
  Ta  Ta117  1  0.10639007  0.08328284  0.87423861  1
  Ta  Ta118  1  0.39438515  0.80650947  0.49865530  1
  Ta  Ta119  1  0.09850648  0.27715058  0.87584479  1
  Ti  Ti120  1  0.09467686  0.49734044  0.62199967  1
  Ti  Ti121  1  0.19488120  -0.01304226  0.24383829  1
  Ti  Ti122  1  0.09916479  0.88006780  0.37962253  1
  Ti  Ti123  1  0.39855845  0.39875851  0.74964867  1
  Ti  Ti124  1  0.19890923  -0.02686849  0.50657960  1
  Ti  Ti125  1  0.10278818  0.49220650  0.12252833  1
  Ti  Ti126  1  0.41921877  -0.00230770  -0.00721841  1
  Ti  Ti127  1  0.89997795  0.12104491  0.62177299  1
  Ti  Ti128  1  0.89627722  0.09818730  0.38313577  1
  Ti  Ti129  1  0.20496082  0.59817395  0.74697817  1
  Ti  Ti130  1  0.62061708  0.18421925  0.25498285  1
  Ti  Ti131  1  0.09464175  0.69377544  0.11831736  1
  Ti  Ti132  1  0.29933303  0.49858610  0.38134785  1
  Ti  Ti133  1  0.90655145  0.50380291  0.12592670  1
  Ti  Ti134  1  0.31791827  0.08316418  0.13155060  1
  Ti  Ti135  1  0.39907412  0.80083736  0.24993485  1
  Ti  Ti136  1  0.51071758  0.07857511  0.85725781  1
  Ti  Ti137  1  0.59099764  0.00486568  0.25904208  1
  Ti  Ti138  1  0.00273364  0.18640861  0.49064319  1
  Ti  Ti139  1  0.29851489  0.89604366  0.13151626  1
  Ti  Ti140  1  0.89802259  0.50373969  0.37297128  1
  Ti  Ti141  1  0.40699021  0.19437637  0.50072482  1
  Ti  Ti142  1  0.68864799  0.70280315  0.37506330  1
  Ti  Ti143  1  0.50540938  0.50835565  0.62390221  1
  Ti  Ti144  1  0.89946585  0.90672347  0.38876736  1
  Ti  Ti145  1  0.60252091  0.80155238  0.24870928  1
  Ti  Ti146  1  0.00536289  0.18795274  0.74102987  1
  Ti  Ti147  1  0.49451133  0.90699499  0.37245549  1
  Ti  Ti148  1  0.69240685  0.89624806  0.62644240  1
  Ti  Ti149  1  0.00244911  0.80366975  0.24319662  1
  Ti  Ti150  1  0.20400671  0.19786304  0.00829593  1
  Ti  Ti151  1  0.30560288  0.69424551  0.86641042  1
  Ti  Ti152  1  0.88224866  0.11555784  0.13806569  1
  Ti  Ti153  1  0.79055915  0.60732964  0.75382622  1
  Ti  Ti154  1  0.19707532  0.38548799  0.00255919  1
  Ti  Ti155  1  0.69371596  0.91902687  0.12739874  1
  Ti  Ti156  1  0.59015635  0.39285327  0.24201509  1
  Ti  Ti157  1  0.89003014  0.70318291  0.87663067  1
  Ti  Ti158  1  0.40419459  0.79856156  0.75520703  1
  Ti  Ti159  1  0.39051899  0.00063206  0.74419438  1
  Mo  Mo160  1  0.30719207  0.90541797  0.63395380  1
  Mo  Mo161  1  0.82150860  0.21443000  0.73968125  1
  Mo  Mo162  1  0.20879332  0.79366975  0.75893714  1
  Mo  Mo163  1  0.78766610  0.79863572  0.75009680  1
  Mo  Mo164  1  0.69367320  0.50883253  0.36813875  1
  Mo  Mo165  1  0.09542465  0.89247246  0.12588368  1
  Mo  Mo166  1  0.29305483  0.08925388  0.62352726  1
  Mo  Mo167  1  0.59626698  -0.00596883  0.74141868  1
  Mo  Mo168  1  0.91677042  0.30415814  0.87952900  1
  Mo  Mo169  1  0.09656863  0.70095848  0.38335211  1
  Mo  Mo170  1  0.91202206  0.30044426  0.13509255  1
  Mo  Mo171  1  0.18902073  0.59157276  0.24285773  1
  Mo  Mo172  1  0.91270211  0.29811630  0.59182337  1
  Mo  Mo173  1  -0.00776069  0.79890962  0.76684609  1
  Mo  Mo174  1  0.40148323  -0.00176211  0.24428390  1
  Mo  Mo175  1  0.30186524  0.70287998  0.12965883  1
  Mo  Mo176  1  0.00851982  -0.00434525  0.49341386  1
  Mo  Mo177  1  0.00054480  0.00035106  -0.00903460  1
  Mo  Mo178  1  0.50544064  0.29091437  0.12706958  1
  Mo  Mo179  1  0.49333204  0.90429307  0.85871105  1
  Mo  Mo180  1  0.79974992  0.81395438  -0.00291094  1
  Mo  Mo181  1  0.80552447  0.60728564  0.00575098  1
  Mo  Mo182  1  0.69330202  0.70998818  0.61879384  1
  Mo  Mo183  1  0.20013526  0.00260082  0.74536337  1
  Mo  Mo184  1  0.70482704  0.08861074  0.12993566  1
  Mo  Mo185  1  0.19924043  0.79668261  0.50103564  1
  Mo  Mo186  1  0.00264664  0.00714477  0.74803462  1
  Mo  Mo187  1  0.59335267  -0.00779473  0.50380067  1
  Mo  Mo188  1  0.70017041  0.10276222  0.60805325  1
  Mo  Mo189  1  0.79802324  0.42877161  0.75614348  1
  Mo  Mo190  1  0.80376421  0.19754463  0.27286471  1
  Mo  Mo191  1  0.28776316  0.49170779  0.12134168  1
  Mo  Mo192  1  0.60831955  0.40934866  0.50992520  1
  Mo  Mo193  1  0.58997497  0.61049558  0.00077619  1
  Mo  Mo194  1  0.08969643  0.90818274  0.85698633  1
  Mo  Mo195  1  0.51187775  0.09178221  0.38053247  1
  Mo  Mo196  1  0.39861112  0.20350475  0.75137505  1
  Mo  Mo197  1  0.49988335  0.70531177  0.62344153  1
  Mo  Mo198  1  0.59676074  0.00824720  -0.00822059  1
  Mo  Mo199  1  0.40116433  0.39627971  0.25894491  1
