# generated using pymatgen
data_HfZrTaTiMo
_symmetry_space_group_name_H-M   'P 1'
_cell_length_a   15.21354522
_cell_length_b   15.22308805
_cell_length_c   16.81920439
_cell_angle_alpha   89.99597113
_cell_angle_beta   90.03247639
_cell_angle_gamma   90.09659135
_symmetry_Int_Tables_number   1
_chemical_formula_structural   HfZrTaTiMo
_chemical_formula_sum   'Hf40 Zr40 Ta40 Ti40 Mo40'
_cell_volume   3895.27343604
_cell_formula_units_Z   40
loop_
 _symmetry_equiv_pos_site_id
 _symmetry_equiv_pos_as_xyz
  1  'x, y, z'
loop_
 _atom_site_type_symbol
 _atom_site_label
 _atom_site_symmetry_multiplicity
 _atom_site_fract_x
 _atom_site_fract_y
 _atom_site_fract_z
 _atom_site_occupancy
  Hf  Hf0  1  0.00546019  0.78324576  0.50580926  1
  Hf  Hf1  1  0.49376168  0.29889039  0.12906489  1
  Hf  Hf2  1  0.90515222  0.89787775  0.38389413  1
  Hf  Hf3  1  -0.01689188  0.59942095  0.73232858  1
  Hf  Hf4  1  0.58002723  0.40606950  0.74504989  1
  Hf  Hf5  1  0.40206511  0.58098258  0.75668826  1
  Hf  Hf6  1  0.41040866  0.00343607  0.51684437  1
  Hf  Hf7  1  0.40562591  0.79296958  0.25250872  1
  Hf  Hf8  1  0.59407011  0.40260678  0.00909558  1
  Hf  Hf9  1  0.19466991  0.79508916  0.25239823  1
  Hf  Hf10  1  0.51631196  0.68673536  0.87842470  1
  Hf  Hf11  1  0.31711246  0.10456352  0.87638004  1
  Hf  Hf12  1  0.08951303  0.28507381  0.14320347  1
  Hf  Hf13  1  0.40075082  0.78920049  0.76029357  1
  Hf  Hf14  1  -0.01311949  0.57986305  0.23859395  1
  Hf  Hf15  1  0.71658587  0.10692037  0.39577981  1
  Hf  Hf16  1  0.79435497  0.41496656  0.01041365  1
  Hf  Hf17  1  0.60846486  0.19818138  0.25213707  1
  Hf  Hf18  1  0.80503648  0.20454834  0.73031788  1
  Hf  Hf19  1  0.80959131  0.01059312  0.26263061  1
  Hf  Hf20  1  0.28735243  0.29842349  0.87694887  1
  Hf  Hf21  1  0.20320834  0.18971511  0.26610329  1
  Hf  Hf22  1  0.30268519  0.90323985  0.12574201  1
  Hf  Hf23  1  0.48606665  0.30004313  0.61349409  1
  Hf  Hf24  1  0.10781376  0.11802712  0.87900783  1
  Hf  Hf25  1  0.60200796  0.19893960  0.72749256  1
  Hf  Hf26  1  0.51299241  0.68902218  0.62953093  1
  Hf  Hf27  1  0.88423152  0.48444115  0.61177288  1
  Hf  Hf28  1  0.19788598  0.58931651  0.23688493  1
  Hf  Hf29  1  0.90678790  0.30788766  0.88212582  1
  Hf  Hf30  1  0.59647680  0.79931529  0.49349540  1
  Hf  Hf31  1  0.09920984  0.89659345  0.63823781  1
  Hf  Hf32  1  0.81174588  0.21693595  0.24987785  1
  Hf  Hf33  1  0.81797085  0.78256485  0.72855766  1
  Hf  Hf34  1  0.79582742  0.77924325  0.50026039  1
  Hf  Hf35  1  0.08600972  0.70364963  0.12718642  1
  Hf  Hf36  1  0.19121677  0.61193453  0.74098426  1
  Hf  Hf37  1  0.19926559  0.79449727  0.00519346  1
  Hf  Hf38  1  0.92255059  0.10303065  0.60393561  1
  Hf  Hf39  1  0.89449162  0.67599068  0.37314200  1
  Zr  Zr40  1  0.91267575  0.90211021  0.14282924  1
  Zr  Zr41  1  0.60715488  0.40696600  0.49273770  1
  Zr  Zr42  1  0.10274719  0.69096618  0.88145807  1
  Zr  Zr43  1  0.30781336  0.11813543  0.61862422  1
  Zr  Zr44  1  0.19738286  0.79618743  0.49451435  1
  Zr  Zr45  1  0.00737985  -0.00094924  -0.00475748  1
  Zr  Zr46  1  0.71590788  0.88094557  0.87170098  1
  Zr  Zr47  1  0.90096643  0.71165135  0.87828709  1
  Zr  Zr48  1  0.71346071  0.89375354  0.12602366  1
  Zr  Zr49  1  0.81144357  0.00254805  0.73634204  1
  Zr  Zr50  1  0.17771570  0.41260757  0.49586911  1
  Zr  Zr51  1  0.88282802  0.70728439  0.13161303  1
  Zr  Zr52  1  0.50642573  0.90360745  0.87380527  1
  Zr  Zr53  1  0.20788989  0.00305187  -0.00179561  1
  Zr  Zr54  1  0.17963004  0.20228188  0.48450218  1
  Zr  Zr55  1  0.60080276  0.40252530  0.25384559  1
  Zr  Zr56  1  0.28920669  0.50773915  0.88369059  1
  Zr  Zr57  1  0.51184123  0.89387202  0.11822275  1
  Zr  Zr58  1  0.78843624  0.40604593  0.75005666  1
  Zr  Zr59  1  0.40958288  0.21354614  0.26740380  1
  Zr  Zr60  1  0.40017945  0.79858516  0.49665385  1
  Zr  Zr61  1  0.09208682  0.88700249  0.85390660  1
  Zr  Zr62  1  0.07972957  0.48905636  0.88009879  1
  Zr  Zr63  1  0.29170925  0.31066876  0.61523091  1
  Zr  Zr64  1  0.30448660  0.69600543  0.61984938  1
  Zr  Zr65  1  0.61228788  0.00306033  0.73828623  1
  Zr  Zr66  1  0.71173554  0.10386484  0.87757227  1
  Zr  Zr67  1  0.19960458  -0.00330664  0.51043904  1
  Zr  Zr68  1  0.70625605  0.10283602  0.12290470  1
  Zr  Zr69  1  0.69035352  0.30229127  0.87750089  1
  Zr  Zr70  1  0.18987435  0.40473869  0.74373417  1
  Zr  Zr71  1  0.28926312  0.91104312  0.36508079  1
  Zr  Zr72  1  0.92180955  0.10877380  0.12962212  1
  Zr  Zr73  1  0.49949111  0.91356903  0.37787108  1
  Zr  Zr74  1  0.30230369  0.89361212  0.87211801  1
  Zr  Zr75  1  0.39590675  0.40625708  0.47645998  1
  Zr  Zr76  1  0.20607045  0.01091857  0.74772526  1
  Zr  Zr77  1  0.18342143  0.38684120  0.00979924  1
  Zr  Zr78  1  0.41411966  0.01645347  0.24174966  1
  Zr  Zr79  1  0.60708970  0.00098475  -0.00443486  1
  Ta  Ta80  1  0.00171853  0.58053961  0.50552913  1
  Ta  Ta81  1  0.59602693  0.20261765  0.00900231  1
  Ta  Ta82  1  0.60103168  0.80402443  0.26410386  1
  Ta  Ta83  1  0.29505358  0.30050154  0.13156088  1
  Ta  Ta84  1  0.18888761  0.20797949  0.74194458  1
  Ta  Ta85  1  0.68580784  0.51749114  0.87460384  1
  Ta  Ta86  1  0.30113908  0.50151569  0.61919444  1
  Ta  Ta87  1  0.60982773  0.00335867  0.25628231  1
  Ta  Ta88  1  0.29846396  0.68883066  0.37455628  1
  Ta  Ta89  1  0.48901476  0.50129227  0.61545989  1
  Ta  Ta90  1  0.30825693  0.11297387  0.12162557  1
  Ta  Ta91  1  0.00222560  0.20257633  0.75035614  1
  Ta  Ta92  1  0.49001451  0.50662799  0.13195369  1
  Ta  Ta93  1  0.68928742  0.70405833  0.13822104  1
  Ta  Ta94  1  -0.01315302  0.59001286  0.01412587  1
  Ta  Ta95  1  0.38943314  0.40909755  0.25896174  1
  Ta  Ta96  1  0.81365711  0.22407415  0.50698547  1
  Ta  Ta97  1  0.78448188  0.61790094  0.00314031  1
  Ta  Ta98  1  0.88281905  0.51479227  0.87633929  1
  Ta  Ta99  1  0.31390946  0.10046035  0.38743009  1
  Ta  Ta100  1  -0.00652605  0.39356501  0.74243469  1
  Ta  Ta101  1  0.39775647  0.59901966  0.25229354  1
  Ta  Ta102  1  0.60976696  0.00522158  0.51961044  1
  Ta  Ta103  1  0.70604691  0.89227617  0.61824942  1
  Ta  Ta104  1  0.81627411  -0.00225841  -0.00243329  1
  Ta  Ta105  1  0.19235072  0.59180082  0.01992158  1
  Ta  Ta106  1  0.51495505  0.11131406  0.39406118  1
  Ta  Ta107  1  0.10045986  0.90267076  0.13760323  1
  Ta  Ta108  1  0.70353652  0.90717098  0.38723898  1
  Ta  Ta109  1  0.60315200  0.60819515  0.48380498  1
  Ta  Ta110  1  0.50559690  0.89313012  0.63532201  1
  Ta  Ta111  1  0.68791157  0.52170378  0.62332138  1
  Ta  Ta112  1  -0.01607234  0.37457991  0.48768437  1
  Ta  Ta113  1  0.79359151  0.79607243  0.26942513  1
  Ta  Ta114  1  0.30576804  0.89551255  0.64151754  1
  Ta  Ta115  1  0.11431734  0.09114393  0.13597270  1
  Ta  Ta116  1  0.50197188  0.69552895  0.12183991  1
  Ta  Ta117  1  0.41548107  0.01242230  0.73885022  1
  Ta  Ta118  1  0.80599251  0.20991335  0.01070189  1
  Ta  Ta119  1  0.39427936  0.40012179  0.00691219  1
  Ti  Ti120  1  0.40037239  0.20437396  0.00352202  1
  Ti  Ti121  1  -0.01128933  0.40098579  0.01940285  1
  Ti  Ti122  1  0.48766846  0.29792554  0.87753376  1
  Ti  Ti123  1  0.39640239  0.59786792  0.00100395  1
  Ti  Ti124  1  -0.01619242  0.38595670  0.24739853  1
  Ti  Ti125  1  0.01583173  0.00239751  0.48615002  1
  Ti  Ti126  1  0.59523844  0.59654041  0.00936826  1
  Ti  Ti127  1  0.62097720  0.78320306  -0.00334361  1
  Ti  Ti128  1  0.09550796  0.68862987  0.36832633  1
  Ti  Ti129  1  0.59408644  0.61165113  0.25778514  1
  Ti  Ti130  1  0.30841247  0.69437074  0.12205177  1
  Ti  Ti131  1  0.90392524  0.90537806  0.86494267  1
  Ti  Ti132  1  0.61683843  0.78317452  0.74788253  1
  Ti  Ti133  1  0.18951169  0.60212896  0.50536019  1
  Ti  Ti134  1  0.60958332  0.20779555  0.51407115  1
  Ti  Ti135  1  0.69360753  0.51469507  0.13359034  1
  Ti  Ti136  1  0.01167106  0.20817091  0.00279809  1
  Ti  Ti137  1  0.29254087  0.30684534  0.37549840  1
  Ti  Ti138  1  0.28319861  0.50707892  0.37206985  1
  Ti  Ti139  1  0.50927522  0.11167733  0.87268846  1
  Ti  Ti140  1  0.80177897  0.40838811  0.23087001  1
  Ti  Ti141  1  0.41411620  0.01114418  0.00757996  1
  Ti  Ti142  1  0.49782214  0.50746709  0.36714844  1
  Ti  Ti143  1  0.90654847  0.89707942  0.61181283  1
  Ti  Ti144  1  0.01905092  -0.00267942  0.27043883  1
  Ti  Ti145  1  0.71053131  0.51348340  0.36554870  1
  Ti  Ti146  1  0.07640317  0.28997192  0.61655482  1
  Ti  Ti147  1  0.90496363  0.10843497  0.87903647  1
  Ti  Ti148  1  0.00204172  0.18847999  0.28375618  1
  Ti  Ti149  1  0.30043983  0.49297234  0.12413598  1
  Ti  Ti150  1  0.18899306  0.39914593  0.25027243  1
  Ti  Ti151  1  -0.00918946  0.80658281  0.00258711  1
  Ti  Ti152  1  0.88949843  0.48196392  0.37815840  1
  Ti  Ti153  1  0.40067515  0.20910215  0.74970798  1
  Ti  Ti154  1  0.00043820  0.01028977  0.74812207  1
  Ti  Ti155  1  0.70844956  0.31072800  0.37758232  1
  Ti  Ti156  1  0.49260248  0.48753210  0.88203984  1
  Ti  Ti157  1  0.08446831  0.49451447  0.36822901  1
  Ti  Ti158  1  0.40159762  0.60111764  0.48801838  1
  Ti  Ti159  1  0.40371223  0.79015407  -0.00628636  1
  Mo  Mo160  1  -0.00019316  0.79479053  0.26600303  1
  Mo  Mo161  1  0.71040535  0.68959640  0.87294445  1
  Mo  Mo162  1  0.09325862  0.48954451  0.61871776  1
  Mo  Mo163  1  0.88944016  0.50438802  0.12128187  1
  Mo  Mo164  1  0.79165228  0.40490428  0.49451392  1
  Mo  Mo165  1  0.89804109  0.30148705  0.11927725  1
  Mo  Mo166  1  0.90303586  0.29878769  0.62412626  1
  Mo  Mo167  1  0.78999538  0.58612237  0.49071678  1
  Mo  Mo168  1  0.50506691  0.10599553  0.61618332  1
  Mo  Mo169  1  0.20309963  0.19824189  0.01250573  1
  Mo  Mo170  1  0.30453296  0.69398313  0.89146362  1
  Mo  Mo171  1  0.40477584  0.20772597  0.48040023  1
  Mo  Mo172  1  0.08843426  0.29774165  0.87479000  1
  Mo  Mo173  1  0.89100164  0.30118805  0.36885121  1
  Mo  Mo174  1  0.69798381  0.69606734  0.62042323  1
  Mo  Mo175  1  0.09790035  0.10497301  0.62867764  1
  Mo  Mo176  1  0.89312370  0.68307476  0.60727177  1
  Mo  Mo177  1  0.09328389  0.49200231  0.12730456  1
  Mo  Mo178  1  0.69514267  0.70076199  0.36455276  1
  Mo  Mo179  1  0.49947216  0.10267760  0.12198486  1
  Mo  Mo180  1  0.20795334  0.00010382  0.24611546  1
  Mo  Mo181  1  0.71277998  0.10631477  0.60460786  1
  Mo  Mo182  1  0.09445245  0.69128986  0.62085813  1
  Mo  Mo183  1  0.80532327  -0.00589521  0.50848998  1
  Mo  Mo184  1  0.20507734  0.79479468  0.74789016  1
  Mo  Mo185  1  0.70069002  0.30475003  0.12131768  1
  Mo  Mo186  1  0.00729456  0.78800032  0.72850215  1
  Mo  Mo187  1  0.59937353  0.59556556  0.75001005  1
  Mo  Mo188  1  0.00341834  0.19659426  0.47784687  1
  Mo  Mo189  1  0.51009475  0.30047311  0.37935889  1
  Mo  Mo190  1  0.70407443  0.31687589  0.61873920  1
  Mo  Mo191  1  0.09442643  0.30948651  0.35656810  1
  Mo  Mo192  1  0.49455051  0.69411195  0.37135137  1
  Mo  Mo193  1  0.80314870  0.80867692  0.00072732  1
  Mo  Mo194  1  0.78592461  0.59334277  0.24650806  1
  Mo  Mo195  1  0.39699268  0.39591930  0.75123019  1
  Mo  Mo196  1  0.90596339  0.09913547  0.39154579  1
  Mo  Mo197  1  0.11413262  0.08184890  0.36960326  1
  Mo  Mo198  1  0.78849971  0.59977912  0.74989296  1
  Mo  Mo199  1  0.09593276  0.88604906  0.36875124  1
