# generated using pymatgen
data_HfZrTaTiMo
_symmetry_space_group_name_H-M   'P 1'
_cell_length_a   15.18996241
_cell_length_b   15.18742709
_cell_length_c   16.77807990
_cell_angle_alpha   90.10739093
_cell_angle_beta   90.03898096
_cell_angle_gamma   89.93796439
_symmetry_Int_Tables_number   1
_chemical_formula_structural   HfZrTaTiMo
_chemical_formula_sum   'Hf40 Zr40 Ta40 Ti40 Mo40'
_cell_volume   3870.63345607
_cell_formula_units_Z   40
loop_
 _symmetry_equiv_pos_site_id
 _symmetry_equiv_pos_as_xyz
  1  'x, y, z'
loop_
 _atom_site_type_symbol
 _atom_site_label
 _atom_site_symmetry_multiplicity
 _atom_site_fract_x
 _atom_site_fract_y
 _atom_site_fract_z
 _atom_site_occupancy
  Hf  Hf0  1  0.78417387  0.79375157  0.49459953  1
  Hf  Hf1  1  0.20505336  0.40784401  0.52956249  1
  Hf  Hf2  1  0.90437898  0.89343946  0.87651873  1
  Hf  Hf3  1  0.70178248  0.09436951  0.13652851  1
  Hf  Hf4  1  0.00621898  0.59814527  -0.00670043  1
  Hf  Hf5  1  0.61176208  0.60138281  0.00067710  1
  Hf  Hf6  1  0.61656332  0.79198453  0.76450347  1
  Hf  Hf7  1  0.29783386  0.10992611  0.37270442  1
  Hf  Hf8  1  0.39493396  0.81098271  0.74194654  1
  Hf  Hf9  1  0.80787147  0.39104529  0.24917228  1
  Hf  Hf10  1  0.89521756  0.89251024  0.13371130  1
  Hf  Hf11  1  0.10397495  0.49940892  0.85606633  1
  Hf  Hf12  1  0.70045345  0.89270819  0.14511214  1
  Hf  Hf13  1  0.79947768  0.38181018  0.50789755  1
  Hf  Hf14  1  0.00407385  0.39855305  -0.00862456  1
  Hf  Hf15  1  0.70659334  0.48912524  0.38434826  1
  Hf  Hf16  1  0.58890727  0.40200187  0.00804573  1
  Hf  Hf17  1  0.30505239  0.69627205  0.13418386  1
  Hf  Hf18  1  0.40075406  0.21201650  0.01052611  1
  Hf  Hf19  1  0.01418507  0.59051042  0.25456620  1
  Hf  Hf20  1  0.30060242  0.30324014  0.85177199  1
  Hf  Hf21  1  0.38788164  0.01438812  0.02026727  1
  Hf  Hf22  1  0.08875084  0.11732042  0.38804123  1
  Hf  Hf23  1  0.00362481  0.79419042  0.26363541  1
  Hf  Hf24  1  0.49337231  0.11114997  0.87041960  1
  Hf  Hf25  1  0.28874688  0.89468953  0.13544567  1
  Hf  Hf26  1  0.60598265  0.80078389  -0.00247075  1
  Hf  Hf27  1  0.69729368  0.07652560  0.35254124  1
  Hf  Hf28  1  0.18384639  0.21391070  0.25005307  1
  Hf  Hf29  1  -0.01401693  0.61799891  0.74352607  1
  Hf  Hf30  1  0.00267832  0.39497081  0.52253370  1
  Hf  Hf31  1  0.29217840  0.90308709  0.87774944  1
  Hf  Hf32  1  0.20106200  0.61277168  0.73164022  1
  Hf  Hf33  1  0.28674524  0.10475766  0.86437244  1
  Hf  Hf34  1  0.91121206  0.49154201  0.38416626  1
  Hf  Hf35  1  0.10935813  0.70045122  0.13347983  1
  Hf  Hf36  1  0.18739478  -0.00489437  0.73791654  1
  Hf  Hf37  1  0.19896085  -0.00122500  0.25762908  1
  Hf  Hf38  1  0.20921067  0.60261998  -0.00656950  1
  Hf  Hf39  1  0.08185151  0.10444249  0.61650410  1
  Zr  Zr40  1  0.40441042  0.61144428  0.72662524  1
  Zr  Zr41  1  0.52061209  0.49503718  0.85444574  1
  Zr  Zr42  1  0.60970984  0.61130194  0.48893759  1
  Zr  Zr43  1  0.49423592  0.90658724  0.87757454  1
  Zr  Zr44  1  0.19705392  0.62233446  0.49967829  1
  Zr  Zr45  1  -0.00719494  0.19165489  -0.00855001  1
  Zr  Zr46  1  0.40639135  0.59751309  0.26780590  1
  Zr  Zr47  1  0.29433868  0.31386711  0.37617522  1
  Zr  Zr48  1  0.81691920  0.78808945  0.75238828  1
  Zr  Zr49  1  0.58738898  0.40165374  0.25163213  1
  Zr  Zr50  1  0.40213717  0.40830039  0.51791429  1
  Zr  Zr51  1  0.49860829  0.69449262  0.86878211  1
  Zr  Zr52  1  0.88049335  0.89915579  0.37153215  1
  Zr  Zr53  1  0.69944194  0.09508734  0.62747079  1
  Zr  Zr54  1  0.90702260  0.89591112  0.61486323  1
  Zr  Zr55  1  0.89230656  0.28244406  0.85821982  1
  Zr  Zr56  1  0.19859757  0.19981444  0.00222834  1
  Zr  Zr57  1  0.68657192  0.30583538  0.87507100  1
  Zr  Zr58  1  0.80156170  0.39600344  0.00193083  1
  Zr  Zr59  1  0.09216683  0.10372401  0.13210248  1
  Zr  Zr60  1  0.41110382  0.81931504  0.49336635  1
  Zr  Zr61  1  0.28956641  0.31407446  0.13274220  1
  Zr  Zr62  1  0.89988681  0.27008377  0.63430006  1
  Zr  Zr63  1  0.10464202  0.28694536  0.84899576  1
  Zr  Zr64  1  0.51390493  0.29297828  0.62461307  1
  Zr  Zr65  1  0.01174229  0.38792035  0.25080016  1
  Zr  Zr66  1  0.49835747  0.08796788  0.62654093  1
  Zr  Zr67  1  -0.00203936  0.00480455  0.26002620  1
  Zr  Zr68  1  0.59553863  0.00506216  0.00763265  1
  Zr  Zr69  1  0.78594562  0.39524601  0.74112652  1
  Zr  Zr70  1  0.60864841  0.60504477  0.26266181  1
  Zr  Zr71  1  -0.00035626  0.79424552  0.00321960  1
  Zr  Zr72  1  0.39839074  0.79642319  0.00670243  1
  Zr  Zr73  1  0.70564067  0.50043728  0.13158587  1
  Zr  Zr74  1  0.50089892  0.29915060  0.38173771  1
  Zr  Zr75  1  0.38963465  0.19481053  0.50749960  1
  Zr  Zr76  1  0.30713123  0.50554935  0.86144564  1
  Zr  Zr77  1  0.39530508  0.40502367  0.72236311  1
  Zr  Zr78  1  0.70587819  0.10241516  0.87899068  1
  Zr  Zr79  1  0.59225048  -0.02396951  0.48702119  1
  Ta  Ta80  1  -0.00285163  0.40401394  0.73467993  1
  Ta  Ta81  1  0.41093560  0.59375641  0.00182011  1
  Ta  Ta82  1  0.11801677  0.49824933  0.12250429  1
  Ta  Ta83  1  0.31146087  0.50266732  0.12878196  1
  Ta  Ta84  1  0.69688473  0.89414368  0.62847049  1
  Ta  Ta85  1  0.10601983  0.50171150  0.39190592  1
  Ta  Ta86  1  0.49763076  0.89852835  0.13961169  1
  Ta  Ta87  1  0.69719941  0.29004125  0.13019556  1
  Ta  Ta88  1  0.60415963  -0.00804622  0.75948825  1
  Ta  Ta89  1  0.89141708  0.50247622  0.86447073  1
  Ta  Ta90  1  0.51607079  0.71214514  0.62029316  1
  Ta  Ta91  1  0.90783316  0.28751937  0.38253410  1
  Ta  Ta92  1  0.29499821  0.70680820  0.87067032  1
  Ta  Ta93  1  0.10354123  0.90247156  0.39389660  1
  Ta  Ta94  1  0.71101390  0.28012344  0.37005461  1
  Ta  Ta95  1  0.20287247  0.42357045  0.25821470  1
  Ta  Ta96  1  0.79695279  -0.00775658  0.75739825  1
  Ta  Ta97  1  0.78895229  0.59643182  0.74175832  1
  Ta  Ta98  1  0.21106370  0.01040152  0.50071722  1
  Ta  Ta99  1  0.49319912  0.30189948  0.86153360  1
  Ta  Ta100  1  0.39721409  0.40661688  -0.00579017  1
  Ta  Ta101  1  0.18883010  -0.00063200  0.00635105  1
  Ta  Ta102  1  -0.00989577  0.00702496  0.75336080  1
  Ta  Ta103  1  0.69452558  0.49265924  0.61309272  1
  Ta  Ta104  1  0.81613968  0.59574903  0.51337424  1
  Ta  Ta105  1  -0.00247911  -0.00116327  0.00196927  1
  Ta  Ta106  1  0.39926240  0.20578884  0.24052579  1
  Ta  Ta107  1  0.79605427  0.78901859  -0.00842145  1
  Ta  Ta108  1  0.71271390  0.70106103  0.13132741  1
  Ta  Ta109  1  0.40480812  0.61404327  0.50162037  1
  Ta  Ta110  1  0.91414258  0.49849624  0.12465732  1
  Ta  Ta111  1  0.80244422  -0.00927035  0.00040858  1
  Ta  Ta112  1  0.20372351  0.40342680  -0.00663368  1
  Ta  Ta113  1  0.49244947  0.09252879  0.36889330  1
  Ta  Ta114  1  0.20424629  0.79485235  0.27968749  1
  Ta  Ta115  1  0.81040560  0.60053073  -0.00350298  1
  Ta  Ta116  1  0.61285847  0.19001877  0.48814748  1
  Ta  Ta117  1  0.88576526  0.10860946  0.37333039  1
  Ta  Ta118  1  0.59109024  0.19599831  0.24650034  1
  Ta  Ta119  1  0.19479764  0.80229366  -0.00145855  1
  Ti  Ti120  1  0.90137834  0.68737628  0.37879905  1
  Ti  Ti121  1  0.09060578  0.71809513  0.61654572  1
  Ti  Ti122  1  0.31295223  0.91176563  0.37616971  1
  Ti  Ti123  1  0.39750391  0.00511226  0.74777826  1
  Ti  Ti124  1  0.08958566  0.51655305  0.62665671  1
  Ti  Ti125  1  0.19900672  0.80529853  0.74227645  1
  Ti  Ti126  1  0.10083301  0.90689787  0.87606774  1
  Ti  Ti127  1  0.49093010  0.31780330  0.13291877  1
  Ti  Ti128  1  0.09999538  0.71325434  0.86725905  1
  Ti  Ti129  1  0.29960233  0.72266812  0.61091243  1
  Ti  Ti130  1  -0.01135642  0.00320544  0.49085484  1
  Ti  Ti131  1  0.20736451  0.60687612  0.27063713  1
  Ti  Ti132  1  0.40138315  0.80128579  0.26068313  1
  Ti  Ti133  1  0.30373072  0.50673072  0.38802201  1
  Ti  Ti134  1  0.01342001  0.81333901  0.74276171  1
  Ti  Ti135  1  0.09619219  0.89636593  0.13027871  1
  Ti  Ti136  1  0.88768352  0.08788928  0.62014949  1
  Ti  Ti137  1  0.50714071  0.69624528  0.13167105  1
  Ti  Ti138  1  0.89918666  0.69278990  0.13080893  1
  Ti  Ti139  1  0.30669539  0.91545568  0.61267208  1
  Ti  Ti140  1  0.81243323  0.59740625  0.25416576  1
  Ti  Ti141  1  0.09217732  0.30892674  0.11998845  1
  Ti  Ti142  1  0.00152986  0.78486177  0.48867380  1
  Ti  Ti143  1  0.60532221  0.20110790  0.75110770  1
  Ti  Ti144  1  0.70166770  0.69783748  0.62483303  1
  Ti  Ti145  1  0.10682190  0.90030110  0.59950540  1
  Ti  Ti146  1  0.49923385  0.49405065  0.39064732  1
  Ti  Ti147  1  0.79777884  0.19087522  0.00648994  1
  Ti  Ti148  1  0.40022128  0.01362818  0.23579133  1
  Ti  Ti149  1  0.89318752  0.09831978  0.13720375  1
  Ti  Ti150  1  0.59414408  0.20597197  0.00966330  1
  Ti  Ti151  1  0.50893482  0.89880035  0.63113733  1
  Ti  Ti152  1  0.51601178  0.50880667  0.61896968  1
  Ti  Ti153  1  0.29499944  0.10749449  0.63402530  1
  Ti  Ti154  1  0.89870174  0.28914590  0.12667531  1
  Ti  Ti155  1  0.09871729  0.31040800  0.38825410  1
  Ti  Ti156  1  0.18974182  0.21420430  0.51792646  1
  Ti  Ti157  1  0.78693279  -0.00138587  0.49483310  1
  Ti  Ti158  1  0.51568032  0.72385936  0.37733442  1
  Ti  Ti159  1  0.69806021  0.28706066  0.62152922  1
  Mo  Mo160  1  0.71466141  0.69867622  0.36986501  1
  Mo  Mo161  1  0.40240258  0.19424090  0.74497536  1
  Mo  Mo162  1  0.61248782  0.59782618  0.73454408  1
  Mo  Mo163  1  -0.00539865  0.19898020  0.50020083  1
  Mo  Mo164  1  0.90408557  0.69993803  0.61494800  1
  Mo  Mo165  1  0.79961833  0.77923333  0.25647285  1
  Mo  Mo166  1  0.49745211  0.90744558  0.35095804  1
  Mo  Mo167  1  0.68188009  0.87514610  0.35041945  1
  Mo  Mo168  1  0.71291518  0.68202704  0.87462373  1
  Mo  Mo169  1  0.39445692  0.40792078  0.25858598  1
  Mo  Mo170  1  0.09710632  0.08278921  0.87417710  1
  Mo  Mo171  1  0.09648722  0.69898426  0.37922529  1
  Mo  Mo172  1  0.80139337  -0.00773760  0.24975610  1
  Mo  Mo173  1  0.58536799  -0.00207690  0.24425657  1
  Mo  Mo174  1  0.70512625  0.89752058  0.88048277  1
  Mo  Mo175  1  0.29496020  0.10185701  0.13558313  1
  Mo  Mo176  1  0.30048588  0.52241220  0.61445118  1
  Mo  Mo177  1  0.19539735  0.19221470  0.73624995  1
  Mo  Mo178  1  0.60258465  0.40154093  0.73875325  1
  Mo  Mo179  1  0.89556501  0.49921067  0.63049152  1
  Mo  Mo180  1  0.39616509  0.00713287  0.49678311  1
  Mo  Mo181  1  0.80152471  0.20017260  0.24472421  1
  Mo  Mo182  1  0.19275666  0.40889037  0.72441762  1
  Mo  Mo183  1  0.29394321  0.29361377  0.64169849  1
  Mo  Mo184  1  -0.00134667  0.60120178  0.50701572  1
  Mo  Mo185  1  0.90610251  0.69123686  0.87566464  1
  Mo  Mo186  1  -0.01175931  0.20918826  0.25085599  1
  Mo  Mo187  1  0.49960713  0.11426179  0.13010100  1
  Mo  Mo188  1  0.60399591  0.80093790  0.50128596  1
  Mo  Mo189  1  0.79546371  0.17945583  0.74952488  1
  Mo  Mo190  1  0.79617894  0.18385977  0.49460981  1
  Mo  Mo191  1  -0.00459607  0.18294726  0.75570395  1
  Mo  Mo192  1  0.70698695  0.50476423  0.87428414  1
  Mo  Mo193  1  0.30896480  0.70791962  0.38069326  1
  Mo  Mo194  1  0.09987613  0.29616945  0.64319593  1
  Mo  Mo195  1  0.60757983  0.39076392  0.49662570  1
  Mo  Mo196  1  0.20465525  0.81635855  0.48920152  1
  Mo  Mo197  1  0.59144313  0.78866081  0.24294525  1
  Mo  Mo198  1  0.49115888  0.50664511  0.12353990  1
  Mo  Mo199  1  0.89882165  0.08788419  0.88079361  1
