# generated using pymatgen
data_HfZrTaTiMo
_symmetry_space_group_name_H-M   'P 1'
_cell_length_a   15.18002435
_cell_length_b   15.17566897
_cell_length_c   16.82681757
_cell_angle_alpha   89.96712087
_cell_angle_beta   90.02846609
_cell_angle_gamma   90.02391002
_symmetry_Int_Tables_number   1
_chemical_formula_structural   HfZrTaTiMo
_chemical_formula_sum   'Hf40 Zr40 Ta40 Ti40 Mo40'
_cell_volume   3876.34244183
_cell_formula_units_Z   40
loop_
 _symmetry_equiv_pos_site_id
 _symmetry_equiv_pos_as_xyz
  1  'x, y, z'
loop_
 _atom_site_type_symbol
 _atom_site_label
 _atom_site_symmetry_multiplicity
 _atom_site_fract_x
 _atom_site_fract_y
 _atom_site_fract_z
 _atom_site_occupancy
  Hf  Hf0  1  0.90037668  0.90215655  0.88976251  1
  Hf  Hf1  1  0.29437846  0.09579408  0.37097195  1
  Hf  Hf2  1  0.10134073  0.30210462  0.63534132  1
  Hf  Hf3  1  0.89841843  0.29416875  0.88912315  1
  Hf  Hf4  1  0.00880143  0.80446679  0.75680401  1
  Hf  Hf5  1  0.40538104  0.17778265  0.24024473  1
  Hf  Hf6  1  0.88922052  0.09654750  0.11700574  1
  Hf  Hf7  1  0.80472337  0.80493274  0.74920992  1
  Hf  Hf8  1  0.60412065  0.21476017  0.76161899  1
  Hf  Hf9  1  0.39158265  0.19855632  0.50220497  1
  Hf  Hf10  1  0.39610709  0.59526669  0.24463742  1
  Hf  Hf11  1  0.58515450  0.00222669  0.26284044  1
  Hf  Hf12  1  0.50278616  0.71693021  0.12926703  1
  Hf  Hf13  1  0.80592775  0.59705365  0.50447449  1
  Hf  Hf14  1  0.10653646  0.50202033  0.64298389  1
  Hf  Hf15  1  0.60348070  0.19175477  0.49538674  1
  Hf  Hf16  1  0.49978341  0.08264525  0.86290787  1
  Hf  Hf17  1  0.47776986  0.70299742  0.87159340  1
  Hf  Hf18  1  0.32329614  0.89889874  0.38886421  1
  Hf  Hf19  1  0.09424722  0.10936829  0.14234429  1
  Hf  Hf20  1  0.10595276  0.70602607  0.62020706  1
  Hf  Hf21  1  0.10022033  0.91247012  0.38530532  1
  Hf  Hf22  1  0.61813574  0.80497450  0.51665904  1
  Hf  Hf23  1  -0.00248436  0.39972608  0.50164645  1
  Hf  Hf24  1  0.58998829  0.79727265  0.73362114  1
  Hf  Hf25  1  0.01206639  0.59889152  -0.01300435  1
  Hf  Hf26  1  0.60399903  0.40605140  0.48891135  1
  Hf  Hf27  1  0.89420916  0.28763142  0.62487566  1
  Hf  Hf28  1  0.30903263  0.30799073  0.11350299  1
  Hf  Hf29  1  0.30918740  0.51076085  0.86831647  1
  Hf  Hf30  1  0.89026813  0.69244692  0.11023519  1
  Hf  Hf31  1  0.18358900  0.20166870  0.00874029  1
  Hf  Hf32  1  0.60107511  0.00172463  0.72808425  1
  Hf  Hf33  1  0.61308358  0.18510656  -0.01993740  1
  Hf  Hf34  1  0.18743364  0.60740653  0.25046455  1
  Hf  Hf35  1  0.68390232  0.09725400  0.12862256  1
  Hf  Hf36  1  0.29864982  0.50598108  0.63625375  1
  Hf  Hf37  1  0.60884394  0.19992348  0.26560787  1
  Hf  Hf38  1  0.48847828  0.29559882  0.37647480  1
  Hf  Hf39  1  0.51582037  0.28706870  0.12049096  1
  Zr  Zr40  1  0.40500817  -0.01477631  0.00580958  1
  Zr  Zr41  1  0.02755233  0.39125445  -0.00298420  1
  Zr  Zr42  1  0.61251569  0.60783464  0.24753176  1
  Zr  Zr43  1  0.11701706  0.49831687  0.86197031  1
  Zr  Zr44  1  0.29312453  0.71087039  0.13512031  1
  Zr  Zr45  1  0.19660411  0.20803533  0.49154217  1
  Zr  Zr46  1  0.72433643  0.29786759  0.38634646  1
  Zr  Zr47  1  0.90338210  0.49829171  0.36795037  1
  Zr  Zr48  1  0.50012888  0.48295094  0.12094835  1
  Zr  Zr49  1  0.60455849  0.60475515  0.49890983  1
  Zr  Zr50  1  0.00055977  0.61109203  0.50272210  1
  Zr  Zr51  1  0.09214811  0.72352289  0.11638658  1
  Zr  Zr52  1  -0.00557650  0.79697606  0.25930374  1
  Zr  Zr53  1  0.28208258  0.08573732  0.87669142  1
  Zr  Zr54  1  0.90034506  0.49609708  0.63767769  1
  Zr  Zr55  1  0.49417467  0.72098844  0.38576187  1
  Zr  Zr56  1  0.59897964  0.80993449  0.26112345  1
  Zr  Zr57  1  -0.00204659  0.18976466  0.75203111  1
  Zr  Zr58  1  0.20106828  0.40238734  0.49613273  1
  Zr  Zr59  1  0.77774565  0.79439949  -0.00452881  1
  Zr  Zr60  1  0.70706890  0.29986933  0.61722098  1
  Zr  Zr61  1  0.29696585  0.88147907  0.86967108  1
  Zr  Zr62  1  0.00259130  0.60810646  0.76271263  1
  Zr  Zr63  1  0.41592400  0.39639985  0.75821084  1
  Zr  Zr64  1  0.90674042  0.09755870  0.89403401  1
  Zr  Zr65  1  0.40181459  0.18530300  0.00245837  1
  Zr  Zr66  1  0.10835265  0.09252502  0.61523061  1
  Zr  Zr67  1  0.68461550  0.69959516  0.86496170  1
  Zr  Zr68  1  0.08882198  0.11389877  0.36128467  1
  Zr  Zr69  1  0.71127512  0.49809474  0.12413860  1
  Zr  Zr70  1  0.69765971  0.49524839  0.63522012  1
  Zr  Zr71  1  0.49359054  0.50773380  0.37409436  1
  Zr  Zr72  1  0.90875549  0.29147767  0.10933354  1
  Zr  Zr73  1  0.19631527  0.41223031  0.23630826  1
  Zr  Zr74  1  0.81334944  0.38967539  0.24447180  1
  Zr  Zr75  1  0.50453913  0.30411565  0.62215589  1
  Zr  Zr76  1  0.08226114  0.89838156  0.60212894  1
  Zr  Zr77  1  0.90229915  0.89562210  0.11197118  1
  Zr  Zr78  1  0.39388416  0.59313547  0.01007459  1
  Zr  Zr79  1  0.60852933  0.60952808  0.00548824  1
  Ta  Ta80  1  0.51023777  0.49848727  0.87988178  1
  Ta  Ta81  1  0.20182957  0.79024029  0.48779664  1
  Ta  Ta82  1  0.02554719  -0.00196038  0.01149000  1
  Ta  Ta83  1  0.30002902  0.30152182  0.88664968  1
  Ta  Ta84  1  0.68772902  0.89695966  0.12346334  1
  Ta  Ta85  1  0.20444280  0.59808881  0.49282848  1
  Ta  Ta86  1  0.37827324  0.79444507  0.72547679  1
  Ta  Ta87  1  0.70819178  0.50356971  0.36771743  1
  Ta  Ta88  1  0.79440412  0.79634382  0.24310817  1
  Ta  Ta89  1  0.20669883  0.18469293  0.75242931  1
  Ta  Ta90  1  0.72543109  0.70857036  0.37954960  1
  Ta  Ta91  1  0.10661484  0.91528434  0.87764283  1
  Ta  Ta92  1  0.39714447  0.38917060  0.25038752  1
  Ta  Ta93  1  0.48505247  0.90003375  0.61186904  1
  Ta  Ta94  1  0.79441978  0.38904698  0.76429279  1
  Ta  Ta95  1  0.68305896  0.91322206  0.86689052  1
  Ta  Ta96  1  0.29990826  0.69583041  0.37208381  1
  Ta  Ta97  1  0.30153862  0.29432443  0.63264972  1
  Ta  Ta98  1  0.49805670  0.50034225  0.62165002  1
  Ta  Ta99  1  0.27960521  0.90729810  0.60428972  1
  Ta  Ta100  1  0.88384801  0.88782597  0.38576499  1
  Ta  Ta101  1  0.39517927  0.19845887  0.75731138  1
  Ta  Ta102  1  0.49331366  0.69225022  0.61945245  1
  Ta  Ta103  1  0.80741585  0.00315530  0.74984422  1
  Ta  Ta104  1  0.70542521  0.29387772  0.12024941  1
  Ta  Ta105  1  0.60357960  0.39661510  0.25720389  1
  Ta  Ta106  1  0.72004424  0.09671639  0.62166861  1
  Ta  Ta107  1  -0.00188136  -0.00341859  0.74714009  1
  Ta  Ta108  1  0.80265584  0.59950875  0.76318843  1
  Ta  Ta109  1  0.79285223  -0.01275975  0.25248845  1
  Ta  Ta110  1  0.60152000  0.00220109  0.51465170  1
  Ta  Ta111  1  0.80406753  0.58842344  -0.01382290  1
  Ta  Ta112  1  -0.01176805  -0.00381787  0.25060130  1
  Ta  Ta113  1  0.91786100  0.49622430  0.11863757  1
  Ta  Ta114  1  0.39107777  0.40309411  0.50118737  1
  Ta  Ta115  1  0.57927679  0.81981265  -0.00455363  1
  Ta  Ta116  1  0.77103456  0.00658040  -0.00577231  1
  Ta  Ta117  1  0.37906858  -0.00223184  0.73036442  1
  Ta  Ta118  1  0.90211796  0.70231866  0.88486926  1
  Ta  Ta119  1  -0.02374043  0.01161098  0.49225225  1
  Ti  Ti120  1  0.91275239  0.29420538  0.37789654  1
  Ti  Ti121  1  0.79514477  0.39680323  -0.00410475  1
  Ti  Ti122  1  0.21088283  0.38272227  0.75646232  1
  Ti  Ti123  1  0.21032688  0.64383987  0.75908362  1
  Ti  Ti124  1  0.29800631  0.49266046  0.37313577  1
  Ti  Ti125  1  0.00114870  0.20098312  0.49852469  1
  Ti  Ti126  1  0.70016078  0.49271876  0.87098437  1
  Ti  Ti127  1  0.38330029  0.79609684  0.00408481  1
  Ti  Ti128  1  0.39028056  0.60084420  0.50231046  1
  Ti  Ti129  1  0.90062972  0.49421315  0.87482381  1
  Ti  Ti130  1  0.89411592  0.09369215  0.36538593  1
  Ti  Ti131  1  0.80337967  0.18885931  0.25117384  1
  Ti  Ti132  1  0.48891327  0.07742007  0.38984196  1
  Ti  Ti133  1  0.20407598  0.62252229  -0.00533367  1
  Ti  Ti134  1  -0.00140606  0.59390123  0.24253326  1
  Ti  Ti135  1  0.49383335  0.91108748  0.13280684  1
  Ti  Ti136  1  0.49117342  0.10670258  0.62794565  1
  Ti  Ti137  1  0.79901065  0.19153918  0.75718251  1
  Ti  Ti138  1  0.88474292  0.90036482  0.61043440  1
  Ti  Ti139  1  0.10265024  0.31348607  0.36129129  1
  Ti  Ti140  1  0.21530838  0.42382269  0.00953482  1
  Ti  Ti141  1  0.48978088  0.89428204  0.85682182  1
  Ti  Ti142  1  0.70764307  0.08726999  0.38275452  1
  Ti  Ti143  1  -0.00284233  0.39254208  0.76060004  1
  Ti  Ti144  1  0.20438811  0.00185766  0.24419081  1
  Ti  Ti145  1  0.10519515  0.28206058  0.86929957  1
  Ti  Ti146  1  -0.00468402  0.21991281  0.24792157  1
  Ti  Ti147  1  0.69703186  0.90070635  0.38511436  1
  Ti  Ti148  1  0.71615021  0.69727051  0.63373259  1
  Ti  Ti149  1  0.20801613  -0.00204439  0.02171029  1
  Ti  Ti150  1  0.59432987  0.59100005  0.74719312  1
  Ti  Ti151  1  0.20926198  0.21443597  0.24354437  1
  Ti  Ti152  1  0.09715199  0.50401769  0.37265796  1
  Ti  Ti153  1  0.40291094  0.60663184  0.74400001  1
  Ti  Ti154  1  0.29890374  0.89944750  0.13927579  1
  Ti  Ti155  1  0.20260669  0.81047216  0.26617199  1
  Ti  Ti156  1  0.60126620  0.38912870  -0.01280377  1
  Ti  Ti157  1  0.09263005  0.70167307  0.37960549  1
  Ti  Ti158  1  0.80713888  0.60616813  0.24585266  1
  Ti  Ti159  1  0.81774935  0.17783459  0.49828204  1
  Mo  Mo160  1  0.10348831  0.51759147  0.11574141  1
  Mo  Mo161  1  0.79020729  -0.00641305  0.49501934  1
  Mo  Mo162  1  0.00734686  0.80645131  -0.01094660  1
  Mo  Mo163  1  0.70611388  0.09390762  0.86122445  1
  Mo  Mo164  1  0.49554318  0.29879813  0.88260437  1
  Mo  Mo165  1  0.90084264  0.70903107  0.63150666  1
  Mo  Mo166  1  0.39760915  -0.01385906  0.25135060  1
  Mo  Mo167  1  0.19704819  0.82117668  0.00671699  1
  Mo  Mo168  1  0.11245077  0.72479698  0.88604795  1
  Mo  Mo169  1  0.59262367  -0.00761643  -0.00455322  1
  Mo  Mo170  1  0.10107806  0.30910774  0.13229424  1
  Mo  Mo171  1  0.60467530  0.40764859  0.76157900  1
  Mo  Mo172  1  0.70506885  0.30303837  0.87696848  1
  Mo  Mo173  1  0.90009879  0.69792865  0.36634709  1
  Mo  Mo174  1  0.70092312  0.70778935  0.12085484  1
  Mo  Mo175  1  0.39566191  0.00720134  0.51871450  1
  Mo  Mo176  1  0.80876358  0.39512821  0.49443001  1
  Mo  Mo177  1  0.00777123  0.19070740  0.00084202  1
  Mo  Mo178  1  0.19447425  0.00476755  0.49042007  1
  Mo  Mo179  1  0.19872393  0.81802312  0.73981068  1
  Mo  Mo180  1  0.80964512  0.79071775  0.51217765  1
  Mo  Mo181  1  0.10645966  0.90951685  0.13944928  1
  Mo  Mo182  1  0.29989387  0.50531671  0.12068939  1
  Mo  Mo183  1  0.29851930  0.30306886  0.36301097  1
  Mo  Mo184  1  0.29566554  0.69913764  0.61520857  1
  Mo  Mo185  1  0.10170825  0.09242395  0.87745080  1
  Mo  Mo186  1  0.29954956  0.10328357  0.62884063  1
  Mo  Mo187  1  0.50609373  0.90715793  0.40369033  1
  Mo  Mo188  1  0.90326268  0.08999381  0.62323211  1
  Mo  Mo189  1  -0.00908787  0.80015237  0.48928484  1
  Mo  Mo190  1  0.50313162  0.09170191  0.12581480  1
  Mo  Mo191  1  0.29872486  0.70417288  0.87610424  1
  Mo  Mo192  1  0.00861643  0.40638543  0.24226219  1
  Mo  Mo193  1  0.39502092  0.79194254  0.51600419  1
  Mo  Mo194  1  0.40679685  0.39474092  -0.01369073  1
  Mo  Mo195  1  0.70129541  0.90299728  0.63159589  1
  Mo  Mo196  1  0.39771145  0.81038993  0.25453618  1
  Mo  Mo197  1  0.18816529  -0.00890901  0.74381510  1
  Mo  Mo198  1  0.29665104  0.09231332  0.13601412  1
  Mo  Mo199  1  0.79349463  0.20049360  0.00045654  1
