# generated using pymatgen
data_HfZrTaTiMo
_symmetry_space_group_name_H-M   'P 1'
_cell_length_a   15.21511807
_cell_length_b   15.21694304
_cell_length_c   16.83079576
_cell_angle_alpha   89.95460574
_cell_angle_beta   89.94084499
_cell_angle_gamma   90.00974325
_symmetry_Int_Tables_number   1
_chemical_formula_structural   HfZrTaTiMo
_chemical_formula_sum   'Hf40 Zr40 Ta40 Ti40 Mo40'
_cell_volume   3896.79014094
_cell_formula_units_Z   40
loop_
 _symmetry_equiv_pos_site_id
 _symmetry_equiv_pos_as_xyz
  1  'x, y, z'
loop_
 _atom_site_type_symbol
 _atom_site_label
 _atom_site_symmetry_multiplicity
 _atom_site_fract_x
 _atom_site_fract_y
 _atom_site_fract_z
 _atom_site_occupancy
  Hf  Hf0  1  0.90114662  0.51828536  0.12573843  1
  Hf  Hf1  1  0.08012183  0.70773774  0.13183784  1
  Hf  Hf2  1  0.29784464  0.30992050  0.13326064  1
  Hf  Hf3  1  0.01216627  0.40309430  0.00709552  1
  Hf  Hf4  1  -0.00169391  0.39486219  0.51372592  1
  Hf  Hf5  1  0.70926505  0.30813156  0.37099136  1
  Hf  Hf6  1  0.50319369  0.10135644  0.10529616  1
  Hf  Hf7  1  0.08506302  0.70889927  0.86968668  1
  Hf  Hf8  1  0.50650447  0.68607456  0.89256815  1
  Hf  Hf9  1  0.49674424  0.89510210  0.10859129  1
  Hf  Hf10  1  0.59720207  0.19033234  0.75310062  1
  Hf  Hf11  1  0.89284969  0.70867682  0.85860808  1
  Hf  Hf12  1  0.10314030  0.10054062  0.86075139  1
  Hf  Hf13  1  0.77925785  0.59569678  0.51230168  1
  Hf  Hf14  1  0.29214564  0.30293492  0.62445973  1
  Hf  Hf15  1  0.87560922  0.30223167  0.13426286  1
  Hf  Hf16  1  0.10374966  0.50979897  0.13789825  1
  Hf  Hf17  1  0.42688744  0.78227621  0.50052462  1
  Hf  Hf18  1  0.30481394  0.89499817  0.36818715  1
  Hf  Hf19  1  0.68821350  0.30663659  0.86947812  1
  Hf  Hf20  1  0.29301621  0.50329978  0.35318952  1
  Hf  Hf21  1  0.79778328  0.60526000  -0.00827543  1
  Hf  Hf22  1  0.80165325  0.20330095  0.75340274  1
  Hf  Hf23  1  0.49750100  0.30402661  0.36949100  1
  Hf  Hf24  1  0.60487608  0.60357487  0.23417712  1
  Hf  Hf25  1  0.19253192  0.40789961  0.49115870  1
  Hf  Hf26  1  0.19440424  0.59337998  0.74704031  1
  Hf  Hf27  1  0.79901532  0.40212887  -0.00931161  1
  Hf  Hf28  1  0.31906884  0.69572192  0.35779418  1
  Hf  Hf29  1  0.68647240  0.89094422  0.62833123  1
  Hf  Hf30  1  0.90553402  0.87945554  0.12996236  1
  Hf  Hf31  1  0.39723090  -0.01250034  0.77408388  1
  Hf  Hf32  1  0.40439436  0.19599061  0.24158199  1
  Hf  Hf33  1  0.20216958  0.78506955  0.50089820  1
  Hf  Hf34  1  0.31389767  0.69645808  0.62976469  1
  Hf  Hf35  1  0.00437106  0.00231725  0.49674658  1
  Hf  Hf36  1  0.20500233  0.80673805  0.75970732  1
  Hf  Hf37  1  0.49940237  0.88551015  0.36098638  1
  Hf  Hf38  1  0.01143828  0.21249565  0.23927458  1
  Hf  Hf39  1  0.80376150  -0.00041531  0.49656101  1
  Zr  Zr40  1  0.49655159  0.52596031  0.37320572  1
  Zr  Zr41  1  0.18578369  0.81117751  -0.00409961  1
  Zr  Zr42  1  0.49889389  0.31319025  0.62260016  1
  Zr  Zr43  1  0.59509717  -0.01022705  0.49317675  1
  Zr  Zr44  1  0.09616418  0.89923015  0.63507959  1
  Zr  Zr45  1  0.51017528  0.09843925  0.89601825  1
  Zr  Zr46  1  0.30968341  0.90260610  0.62834597  1
  Zr  Zr47  1  0.78274963  0.60079391  0.73186762  1
  Zr  Zr48  1  0.19890868  0.22293218  0.00783483  1
  Zr  Zr49  1  0.70735482  0.89120624  0.87894430  1
  Zr  Zr50  1  0.29957636  0.11188211  0.88576622  1
  Zr  Zr51  1  0.90290560  0.09302014  0.86772598  1
  Zr  Zr52  1  0.30619336  0.09542078  0.36781124  1
  Zr  Zr53  1  0.11656827  0.32196111  0.86861354  1
  Zr  Zr54  1  0.90614228  0.09334556  0.63564026  1
  Zr  Zr55  1  0.40357608  0.59638175  0.76576147  1
  Zr  Zr56  1  0.50367873  0.52896176  0.61772267  1
  Zr  Zr57  1  0.70939469  0.10371455  0.36483565  1
  Zr  Zr58  1  0.39707766  0.40546791  0.49126811  1
  Zr  Zr59  1  0.60594619  -0.00011151  0.24111864  1
  Zr  Zr60  1  0.17986520  0.38696291  0.25295222  1
  Zr  Zr61  1  0.71500840  0.10889470  0.12204710  1
  Zr  Zr62  1  0.10203062  0.90899629  0.36814863  1
  Zr  Zr63  1  0.00734120  -0.02464205  -0.01079511  1
  Zr  Zr64  1  0.69844231  0.30484035  0.63086082  1
  Zr  Zr65  1  0.59530440  0.79460514  0.23098559  1
  Zr  Zr66  1  0.39802085  0.19018169  0.49848297  1
  Zr  Zr67  1  -0.00315880  0.19913610  0.00601063  1
  Zr  Zr68  1  0.59811146  0.40407831  0.24164498  1
  Zr  Zr69  1  0.60313121  0.20126654  0.49805059  1
  Zr  Zr70  1  0.00334310  0.20093715  0.50813626  1
  Zr  Zr71  1  0.20441375  0.00734659  0.50288194  1
  Zr  Zr72  1  0.59935880  0.58422054  0.01989212  1
  Zr  Zr73  1  0.79372377  0.79170730  0.26966982  1
  Zr  Zr74  1  0.90838529  0.08424299  0.13317198  1
  Zr  Zr75  1  0.79071555  -0.00606466  0.75264460  1
  Zr  Zr76  1  0.90884037  0.50550786  0.86308187  1
  Zr  Zr77  1  0.40047649  0.20211299  0.75389319  1
  Zr  Zr78  1  -0.01207356  0.79623806  0.27442802  1
  Zr  Zr79  1  0.50106395  0.07956388  0.63308819  1
  Ta  Ta80  1  0.50208644  0.29748584  0.11289767  1
  Ta  Ta81  1  0.29887133  0.50055068  0.62232306  1
  Ta  Ta82  1  0.11487156  0.10419239  0.64453467  1
  Ta  Ta83  1  0.79449778  0.79719896  0.49726997  1
  Ta  Ta84  1  0.38801940  -0.01178423  -0.00617007  1
  Ta  Ta85  1  0.71487044  0.89915291  0.11612725  1
  Ta  Ta86  1  0.39289981  0.40109355  0.75910363  1
  Ta  Ta87  1  0.19562434  0.20509050  0.50217167  1
  Ta  Ta88  1  0.00497903  0.21372463  0.74167119  1
  Ta  Ta89  1  0.01749137  0.60196431  0.51478146  1
  Ta  Ta90  1  0.60710505  0.20509374  0.24049347  1
  Ta  Ta91  1  0.38930812  0.79186819  -0.00536595  1
  Ta  Ta92  1  0.39942797  -0.00910414  0.23416141  1
  Ta  Ta93  1  0.61302141  0.78824754  0.01261052  1
  Ta  Ta94  1  0.80111156  0.39341917  0.50870904  1
  Ta  Ta95  1  0.28916099  0.29112976  0.36338981  1
  Ta  Ta96  1  0.01471176  0.40838360  0.72971446  1
  Ta  Ta97  1  0.72654179  0.69732317  0.12465494  1
  Ta  Ta98  1  0.20187275  0.80020339  0.24520073  1
  Ta  Ta99  1  0.29007868  0.69544705  0.12807158  1
  Ta  Ta100  1  0.09765318  0.91003222  0.13957023  1
  Ta  Ta101  1  0.91186963  0.10226981  0.36231323  1
  Ta  Ta102  1  0.50819317  0.88846755  0.89007166  1
  Ta  Ta103  1  0.00087415  0.60855849  0.72267885  1
  Ta  Ta104  1  -0.00445490  0.79840152  0.49313578  1
  Ta  Ta105  1  0.89684191  0.49775649  0.62170890  1
  Ta  Ta106  1  0.69845600  0.09559340  0.62471568  1
  Ta  Ta107  1  0.90884130  0.30567388  0.86683703  1
  Ta  Ta108  1  0.81092605  0.59321562  0.26237442  1
  Ta  Ta109  1  0.11089311  0.68851726  0.37265345  1
  Ta  Ta110  1  0.79604757  0.20454998  -0.01282897  1
  Ta  Ta111  1  0.11011859  0.11515773  0.36270570  1
  Ta  Ta112  1  0.80464827  0.40296293  0.74601329  1
  Ta  Ta113  1  0.89758113  0.89254229  0.62563077  1
  Ta  Ta114  1  0.81011161  0.20266952  0.50491434  1
  Ta  Ta115  1  0.40516183  -0.00994822  0.49857037  1
  Ta  Ta116  1  0.61217473  0.42281044  0.49740623  1
  Ta  Ta117  1  0.68744782  0.50578952  0.86944253  1
  Ta  Ta118  1  -0.02127045  0.41336853  0.25536122  1
  Ta  Ta119  1  0.28708850  0.48936680  0.88205773  1
  Ti  Ti120  1  -0.00450749  0.61484721  -0.00216302  1
  Ti  Ti121  1  0.29340758  0.69400469  0.88348762  1
  Ti  Ti122  1  0.49081394  0.29518225  0.89320449  1
  Ti  Ti123  1  0.29399470  0.89744752  0.12348377  1
  Ti  Ti124  1  0.29892915  0.50527825  0.14172502  1
  Ti  Ti125  1  0.30194329  0.09773841  0.11640739  1
  Ti  Ti126  1  0.19166489  0.59773283  0.00145542  1
  Ti  Ti127  1  0.11020235  0.10296550  0.12946689  1
  Ti  Ti128  1  0.81823814  0.80051764  -0.00420811  1
  Ti  Ti129  1  0.49989207  0.88568716  0.64092677  1
  Ti  Ti130  1  0.38599732  0.39370966  -0.00158189  1
  Ti  Ti131  1  0.79303689  0.79443110  0.73861252  1
  Ti  Ti132  1  0.40777266  0.79387883  0.77364578  1
  Ti  Ti133  1  0.89853027  0.70711707  0.61654091  1
  Ti  Ti134  1  0.09036797  0.30031346  0.37687433  1
  Ti  Ti135  1  0.61545273  -0.00714515  0.00345268  1
  Ti  Ti136  1  0.20347417  0.00779869  0.24217165  1
  Ti  Ti137  1  0.59270641  0.41743564  0.75034791  1
  Ti  Ti138  1  0.48368379  0.69304539  0.11471893  1
  Ti  Ti139  1  0.38180320  0.58776240  0.00478864  1
  Ti  Ti140  1  0.60232757  0.39346533  0.00785551  1
  Ti  Ti141  1  0.08802041  0.50804216  0.37103306  1
  Ti  Ti142  1  0.20662759  0.21609818  0.75277849  1
  Ti  Ti143  1  0.19737694  0.00111134  -0.00023507  1
  Ti  Ti144  1  0.70261461  0.50447512  0.37334891  1
  Ti  Ti145  1  0.71381122  0.48673558  0.13155326  1
  Ti  Ti146  1  0.89692526  0.29757854  0.36895789  1
  Ti  Ti147  1  0.67866473  0.69508666  0.38077068  1
  Ti  Ti148  1  0.09722400  0.50988962  0.87336112  1
  Ti  Ti149  1  0.50208754  0.09296944  0.36619283  1
  Ti  Ti150  1  0.81539318  -0.01078714  0.25958668  1
  Ti  Ti151  1  0.49715404  0.48545329  0.88607697  1
  Ti  Ti152  1  0.30150766  0.09736742  0.63313741  1
  Ti  Ti153  1  0.90039063  0.68437495  0.39469885  1
  Ti  Ti154  1  0.69241727  0.70012161  0.87167112  1
  Ti  Ti155  1  0.47986607  0.48892129  0.12716327  1
  Ti  Ti156  1  0.81155777  -0.00357396  -0.00643493  1
  Ti  Ti157  1  0.69875153  0.89584063  0.37735311  1
  Ti  Ti158  1  0.69736079  0.09699858  0.88227333  1
  Ti  Ti159  1  0.89590200  0.49370465  0.38916357  1
  Mo  Mo160  1  0.39961193  0.39751674  0.24818945  1
  Mo  Mo161  1  0.59463255  0.59888271  0.76131497  1
  Mo  Mo162  1  -0.00516725  0.79647581  -0.00235478  1
  Mo  Mo163  1  0.79942418  0.40744590  0.25849048  1
  Mo  Mo164  1  0.89793364  0.69570657  0.12783686  1
  Mo  Mo165  1  0.69580008  0.30115543  0.12084433  1
  Mo  Mo166  1  0.80205162  0.19997046  0.25635847  1
  Mo  Mo167  1  0.00719220  0.00348259  0.25512638  1
  Mo  Mo168  1  0.59440854  -0.00951402  0.75982647  1
  Mo  Mo169  1  -0.00857794  0.79755171  0.73608680  1
  Mo  Mo170  1  0.08785116  0.30883810  0.12312061  1
  Mo  Mo171  1  0.20247486  0.19235640  0.23846227  1
  Mo  Mo172  1  0.89273053  0.90245957  0.38733724  1
  Mo  Mo173  1  0.38334786  0.60384517  0.49955709  1
  Mo  Mo174  1  0.20789488  0.59839184  0.49808570  1
  Mo  Mo175  1  0.67950594  0.69887077  0.62408437  1
  Mo  Mo176  1  0.10148632  0.70248366  0.62217231  1
  Mo  Mo177  1  0.19198707  0.60683642  0.24698656  1
  Mo  Mo178  1  0.20714409  0.40689358  0.74671299  1
  Mo  Mo179  1  0.20695196  0.00843092  0.75177938  1
  Mo  Mo180  1  0.29781003  0.89606051  0.88410275  1
  Mo  Mo181  1  0.91254080  0.88547111  0.85778604  1
  Mo  Mo182  1  -0.00735735  0.59945557  0.26957974  1
  Mo  Mo183  1  0.31008628  0.30991439  0.87944347  1
  Mo  Mo184  1  0.61098258  0.20800233  -0.00013575  1
  Mo  Mo185  1  0.50822761  0.71576178  0.64162420  1
  Mo  Mo186  1  0.69258553  0.49621719  0.62663641  1
  Mo  Mo187  1  0.59568121  0.79384577  0.76084535  1
  Mo  Mo188  1  0.39332275  0.80160844  0.22719834  1
  Mo  Mo189  1  0.58816037  0.62079402  0.49850902  1
  Mo  Mo190  1  0.60955942  0.79408962  0.49704545  1
  Mo  Mo191  1  0.20647694  0.42494974  0.00960425  1
  Mo  Mo192  1  0.40021424  0.20264973  0.01040249  1
  Mo  Mo193  1  0.00416048  -0.00316708  0.74977227  1
  Mo  Mo194  1  0.10899418  0.50255160  0.61993537  1
  Mo  Mo195  1  0.10756349  0.29837396  0.63043728  1
  Mo  Mo196  1  0.40459614  0.60072442  0.22883258  1
  Mo  Mo197  1  0.50216299  0.70089642  0.36068209  1
  Mo  Mo198  1  0.09453645  0.90587892  0.85475216  1
  Mo  Mo199  1  0.89935614  0.30205383  0.63413880  1
