# generated using pymatgen
data_HfZrTaTiMo
_symmetry_space_group_name_H-M   'P 1'
_cell_length_a   15.21493022
_cell_length_b   15.20513289
_cell_length_c   16.86312139
_cell_angle_alpha   90.01264665
_cell_angle_beta   90.04560281
_cell_angle_gamma   90.04050186
_symmetry_Int_Tables_number   1
_chemical_formula_structural   HfZrTaTiMo
_chemical_formula_sum   'Hf40 Zr40 Ta40 Ti40 Mo40'
_cell_volume   3901.19711833
_cell_formula_units_Z   40
loop_
 _symmetry_equiv_pos_site_id
 _symmetry_equiv_pos_as_xyz
  1  'x, y, z'
loop_
 _atom_site_type_symbol
 _atom_site_label
 _atom_site_symmetry_multiplicity
 _atom_site_fract_x
 _atom_site_fract_y
 _atom_site_fract_z
 _atom_site_occupancy
  Hf  Hf0  1  0.39111085  0.79496253  0.00214546  1
  Hf  Hf1  1  0.78104262  -0.00085911  0.50617827  1
  Hf  Hf2  1  0.89066298  0.31528317  0.12116969  1
  Hf  Hf3  1  0.82234425  0.61824799  0.50261328  1
  Hf  Hf4  1  0.01662516  0.60235445  0.01700234  1
  Hf  Hf5  1  0.49754736  0.50233846  0.60411813  1
  Hf  Hf6  1  0.69838854  0.90344191  0.36468766  1
  Hf  Hf7  1  0.09847315  0.29790443  0.87253951  1
  Hf  Hf8  1  0.29539689  0.50380820  0.60464225  1
  Hf  Hf9  1  0.60029797  0.62350426  0.49974716  1
  Hf  Hf10  1  0.09506091  0.89615150  0.37914600  1
  Hf  Hf11  1  0.30847176  0.49740801  0.87132517  1
  Hf  Hf12  1  0.88201144  0.89369523  0.62373255  1
  Hf  Hf13  1  0.30592000  0.70010432  0.37981025  1
  Hf  Hf14  1  0.80639933  0.20021853  0.75496005  1
  Hf  Hf15  1  0.20323839  0.20559712  0.50648715  1
  Hf  Hf16  1  0.08412614  0.10902933  0.62668640  1
  Hf  Hf17  1  0.29714703  0.90203769  0.13558608  1
  Hf  Hf18  1  0.09248220  0.10157430  0.37317266  1
  Hf  Hf19  1  0.48397172  0.89859460  0.63597808  1
  Hf  Hf20  1  0.60875281  0.59968689  0.74298371  1
  Hf  Hf21  1  0.92736909  0.51192548  0.62245134  1
  Hf  Hf22  1  0.81126510  0.00810986  0.23911766  1
  Hf  Hf23  1  0.39135964  0.20385432  0.00219604  1
  Hf  Hf24  1  0.68967883  0.89987141  0.88488718  1
  Hf  Hf25  1  0.19758421  0.00109934  0.25458514  1
  Hf  Hf26  1  0.79400103  0.39768027  0.74783015  1
  Hf  Hf27  1  0.69650896  0.69999130  0.12495577  1
  Hf  Hf28  1  0.40321825  0.39055167  0.73784302  1
  Hf  Hf29  1  0.20409347  0.00046495  0.51089664  1
  Hf  Hf30  1  0.09339333  0.69876985  0.37635156  1
  Hf  Hf31  1  0.60475587  0.58921543  -0.00301622  1
  Hf  Hf32  1  0.90019410  0.29869671  0.61953690  1
  Hf  Hf33  1  0.19131815  0.19091123  0.00344897  1
  Hf  Hf34  1  0.68778084  0.10906729  0.12242624  1
  Hf  Hf35  1  0.70658706  0.71108330  0.36496131  1
  Hf  Hf36  1  0.37896885  0.19487135  0.25277640  1
  Hf  Hf37  1  0.11180103  0.50480614  0.87898289  1
  Hf  Hf38  1  0.70603062  0.49794905  0.61631788  1
  Hf  Hf39  1  0.57768080  0.20118720  0.25717973  1
  Zr  Zr40  1  0.89048725  0.30734278  0.37285568  1
  Zr  Zr41  1  0.11437154  0.48621673  0.13971645  1
  Zr  Zr42  1  0.77854377  0.21163594  0.50129208  1
  Zr  Zr43  1  0.90495806  0.50031236  0.88723618  1
  Zr  Zr44  1  0.20196098  0.20810940  0.73907014  1
  Zr  Zr45  1  0.31975261  0.47854663  0.13672919  1
  Zr  Zr46  1  0.08880568  0.08536930  0.13128956  1
  Zr  Zr47  1  -0.01276947  0.00553601  0.74765677  1
  Zr  Zr48  1  0.80877101  0.58582597  0.23272960  1
  Zr  Zr49  1  0.09165328  0.09261372  0.87055086  1
  Zr  Zr50  1  0.78881860  0.00777944  0.75434539  1
  Zr  Zr51  1  0.29984768  0.70340750  0.14602078  1
  Zr  Zr52  1  0.48612928  0.90082548  0.86218193  1
  Zr  Zr53  1  0.20446438  0.78896889  0.51454554  1
  Zr  Zr54  1  0.69026712  0.10036138  0.37021633  1
  Zr  Zr55  1  0.52463305  0.49241121  0.13588546  1
  Zr  Zr56  1  0.08976951  0.89046192  0.61946816  1
  Zr  Zr57  1  -0.00042333  0.77797869  0.74547155  1
  Zr  Zr58  1  0.21811287  0.60109723  0.01423172  1
  Zr  Zr59  1  0.48674587  0.30186616  0.12811894  1
  Zr  Zr60  1  0.71191600  0.50076475  0.38273093  1
  Zr  Zr61  1  0.50735457  0.69496749  0.87137579  1
  Zr  Zr62  1  0.11226863  0.71781947  0.88099130  1
  Zr  Zr63  1  0.49321876  0.28178791  0.61393911  1
  Zr  Zr64  1  0.00083721  0.62016161  0.23624198  1
  Zr  Zr65  1  0.41573454  0.59437941  0.27120442  1
  Zr  Zr66  1  0.31085770  0.29485976  0.86913997  1
  Zr  Zr67  1  0.30542776  0.89992783  0.37635333  1
  Zr  Zr68  1  0.82044998  0.60744968  0.74993159  1
  Zr  Zr69  1  0.30723148  0.69236028  0.86471865  1
  Zr  Zr70  1  0.91392299  0.90305040  0.89089479  1
  Zr  Zr71  1  0.32102010  0.10273582  0.63189764  1
  Zr  Zr72  1  0.89885873  0.11407896  0.10693711  1
  Zr  Zr73  1  0.00247284  0.40088501  0.75452728  1
  Zr  Zr74  1  0.18875045  0.40063225  0.49198398  1
  Zr  Zr75  1  0.79279562  0.80229857  0.76123780  1
  Zr  Zr76  1  0.28032636  0.88788977  0.86221854  1
  Zr  Zr77  1  0.81666546  0.80381488  0.23388043  1
  Zr  Zr78  1  0.50230460  0.69883433  0.12785547  1
  Zr  Zr79  1  0.38680880  0.00225807  -0.00407487  1
  Ta  Ta80  1  0.50169262  0.89987588  0.12415754  1
  Ta  Ta81  1  0.80442011  0.59184294  0.01514151  1
  Ta  Ta82  1  0.71153889  0.69418408  0.88724320  1
  Ta  Ta83  1  0.17834007  -0.02615499  -0.00197178  1
  Ta  Ta84  1  0.01181999  0.39245136  0.00959560  1
  Ta  Ta85  1  0.89960899  0.29627036  0.89260128  1
  Ta  Ta86  1  0.91685191  0.72058208  0.10490226  1
  Ta  Ta87  1  0.20641788  0.59704819  0.25729866  1
  Ta  Ta88  1  0.70186835  0.49793607  0.87430061  1
  Ta  Ta89  1  -0.00238772  0.20525257  0.49227899  1
  Ta  Ta90  1  -0.01267485  0.00022337  0.50044494  1
  Ta  Ta91  1  0.42088294  0.80865575  0.26040921  1
  Ta  Ta92  1  0.40393627  0.59835340  0.73730659  1
  Ta  Ta93  1  0.59677959  0.00701035  0.75281288  1
  Ta  Ta94  1  0.68877561  0.31640622  0.13906525  1
  Ta  Ta95  1  0.50749993  0.49330003  0.39443914  1
  Ta  Ta96  1  0.60242501  0.20643522  0.75456778  1
  Ta  Ta97  1  0.48915557  0.09307267  0.12335648  1
  Ta  Ta98  1  0.90635614  0.70167636  0.90173048  1
  Ta  Ta99  1  0.41433806  0.00316169  0.49679774  1
  Ta  Ta100  1  0.58899954  0.20595775  -0.00277737  1
  Ta  Ta101  1  0.09381979  0.31005930  0.62422365  1
  Ta  Ta102  1  -0.01367710  0.40697784  0.24697846  1
  Ta  Ta103  1  0.89995793  0.89599546  0.37769462  1
  Ta  Ta104  1  0.69355131  0.10668795  0.88636774  1
  Ta  Ta105  1  0.10088060  0.49624222  0.36060559  1
  Ta  Ta106  1  0.68438431  0.30957117  0.36122491  1
  Ta  Ta107  1  0.40896742  0.38876198  0.27591202  1
  Ta  Ta108  1  0.09423238  0.29890029  0.35625001  1
  Ta  Ta109  1  0.20093873  -0.00976520  0.73380506  1
  Ta  Ta110  1  0.60933132  0.37989428  0.50124636  1
  Ta  Ta111  1  0.21193910  0.38683918  0.00630637  1
  Ta  Ta112  1  0.60707361  0.82188229  0.51216423  1
  Ta  Ta113  1  0.19404930  0.60044295  0.73637414  1
  Ta  Ta114  1  0.79307250  0.21037500  0.24839973  1
  Ta  Ta115  1  0.58993923  -0.00710915  0.24253399  1
  Ta  Ta116  1  0.78998839  0.00366401  0.00235876  1
  Ta  Ta117  1  0.29768240  0.09081254  0.86098620  1
  Ta  Ta118  1  0.49454792  0.11118054  0.86799259  1
  Ta  Ta119  1  -0.01891371  0.78208001  0.50164684  1
  Ti  Ti120  1  0.78399891  0.21542834  0.00184033  1
  Ti  Ti121  1  0.51054988  0.90171195  0.37884982  1
  Ti  Ti122  1  0.80466975  0.40445745  0.50190312  1
  Ti  Ti123  1  0.89500736  0.09701140  0.37762546  1
  Ti  Ti124  1  0.70732228  0.71682430  0.62668556  1
  Ti  Ti125  1  0.40581246  0.00398611  0.25508129  1
  Ti  Ti126  1  0.10450639  0.28979429  0.14456316  1
  Ti  Ti127  1  0.59730082  0.79789761  0.74319134  1
  Ti  Ti128  1  0.40983607  0.58892489  0.00116335  1
  Ti  Ti129  1  0.89866996  0.11181142  0.89671040  1
  Ti  Ti130  1  0.41392668  0.39818713  -0.00701376  1
  Ti  Ti131  1  0.09635561  0.88085372  0.13549001  1
  Ti  Ti132  1  0.39652034  0.37879051  0.48994772  1
  Ti  Ti133  1  0.32462950  0.69696253  0.61455084  1
  Ti  Ti134  1  0.79287566  0.80388912  0.49890859  1
  Ti  Ti135  1  0.50572265  0.49110782  0.86572765  1
  Ti  Ti136  1  0.59771833  0.80045912  0.00077040  1
  Ti  Ti137  1  0.89267759  0.10519679  0.61725150  1
  Ti  Ti138  1  -0.01369651  0.19175126  0.25230529  1
  Ti  Ti139  1  0.08776646  0.66790277  0.61076723  1
  Ti  Ti140  1  0.69661886  0.30392074  0.87705170  1
  Ti  Ti141  1  0.30011926  0.49786675  0.38423597  1
  Ti  Ti142  1  0.20942327  0.79131716  0.72226441  1
  Ti  Ti143  1  0.28895851  0.10342039  0.12739554  1
  Ti  Ti144  1  0.50544803  0.09357419  0.63352985  1
  Ti  Ti145  1  0.29905371  0.09904213  0.38101191  1
  Ti  Ti146  1  0.79866269  0.80405050  0.00586085  1
  Ti  Ti147  1  0.91630331  0.91453541  0.10891303  1
  Ti  Ti148  1  0.61052545  0.39544971  -0.00377675  1
  Ti  Ti149  1  0.58970283  0.00522905  0.00042560  1
  Ti  Ti150  1  0.42005105  0.79142664  0.49802513  1
  Ti  Ti151  1  0.60440294  0.60045200  0.26297453  1
  Ti  Ti152  1  0.68708684  0.10864040  0.62424939  1
  Ti  Ti153  1  0.28826008  0.29428736  0.37048034  1
  Ti  Ti154  1  0.60022319  0.39578438  0.74313177  1
  Ti  Ti155  1  0.69354842  0.90345101  0.11936257  1
  Ti  Ti156  1  0.57566914  0.18328355  0.48587324  1
  Ti  Ti157  1  0.20467183  0.40702288  0.73637681  1
  Ti  Ti158  1  0.91066153  0.51631137  0.37577342  1
  Ti  Ti159  1  -0.00040752  0.40385596  0.49065718  1
  Mo  Mo160  1  0.01269160  0.60297148  0.75811207  1
  Mo  Mo161  1  0.19910357  0.79392900  0.25560933  1
  Mo  Mo162  1  0.59592940  0.40958170  0.26431234  1
  Mo  Mo163  1  -0.00019827  0.81781422  0.24851274  1
  Mo  Mo164  1  0.89988212  0.71007753  0.37066591  1
  Mo  Mo165  1  0.70957051  0.48828467  0.12463453  1
  Mo  Mo166  1  0.28687994  0.30051513  0.13181643  1
  Mo  Mo167  1  0.51310027  0.71386526  0.37497135  1
  Mo  Mo168  1  -0.01328832  0.20588600  0.75013683  1
  Mo  Mo169  1  0.60215261  0.80603911  0.24375900  1
  Mo  Mo170  1  0.59275279  0.00159736  0.50690246  1
  Mo  Mo171  1  -0.00037163  0.00388401  -0.00367525  1
  Mo  Mo172  1  0.20140115  0.80067861  0.00797270  1
  Mo  Mo173  1  0.48794129  0.08587104  0.37087660  1
  Mo  Mo174  1  0.19137304  0.19850507  0.24981183  1
  Mo  Mo175  1  0.69313582  0.29759559  0.62626980  1
  Mo  Mo176  1  0.51387880  0.30477468  0.87432909  1
  Mo  Mo177  1  0.02295034  0.81490502  0.00298513  1
  Mo  Mo178  1  0.68613577  0.90898077  0.63291269  1
  Mo  Mo179  1  0.00276287  0.21105065  0.00412799  1
  Mo  Mo180  1  0.79928365  0.40049449  0.25187821  1
  Mo  Mo181  1  -0.01203054  -0.00472368  0.25614248  1
  Mo  Mo182  1  0.10510407  0.90052575  0.85854232  1
  Mo  Mo183  1  0.90195553  0.70339465  0.62291994  1
  Mo  Mo184  1  0.50580114  0.69863179  0.62729028  1
  Mo  Mo185  1  0.39723579  0.78715163  0.73789778  1
  Mo  Mo186  1  0.79090140  0.40208968  -0.00506564  1
  Mo  Mo187  1  0.20690843  0.39429640  0.26514328  1
  Mo  Mo188  1  0.10999083  0.70768010  0.13605256  1
  Mo  Mo189  1  0.30187673  0.89577236  0.62243043  1
  Mo  Mo190  1  0.49261817  0.29446344  0.38591458  1
  Mo  Mo191  1  0.39656693  0.00175447  0.75631285  1
  Mo  Mo192  1  0.01149918  0.59071467  0.48678195  1
  Mo  Mo193  1  0.39097839  0.19119266  0.48670681  1
  Mo  Mo194  1  0.90710828  0.49930828  0.11326215  1
  Mo  Mo195  1  0.40340439  0.60157580  0.48581268  1
  Mo  Mo196  1  0.29918695  0.30479143  0.62251807  1
  Mo  Mo197  1  0.20045392  0.59636884  0.48939894  1
  Mo  Mo198  1  0.10394079  0.49593772  0.62275530  1
  Mo  Mo199  1  0.41268537  0.19605559  0.75331548  1
