# generated using pymatgen
data_HfZrTaTiMo
_symmetry_space_group_name_H-M   'P 1'
_cell_length_a   15.19529484
_cell_length_b   15.21609469
_cell_length_c   16.83760198
_cell_angle_alpha   90.00612848
_cell_angle_beta   90.01193402
_cell_angle_gamma   89.93243592
_symmetry_Int_Tables_number   1
_chemical_formula_structural   HfZrTaTiMo
_chemical_formula_sum   'Hf40 Zr40 Ta40 Ti40 Mo40'
_cell_volume   3893.07041121
_cell_formula_units_Z   40
loop_
 _symmetry_equiv_pos_site_id
 _symmetry_equiv_pos_as_xyz
  1  'x, y, z'
loop_
 _atom_site_type_symbol
 _atom_site_label
 _atom_site_symmetry_multiplicity
 _atom_site_fract_x
 _atom_site_fract_y
 _atom_site_fract_z
 _atom_site_occupancy
  Hf  Hf0  1  0.80658745  -0.00046991  0.49687887  1
  Hf  Hf1  1  0.59430693  0.40464645  0.26435338  1
  Hf  Hf2  1  0.49570217  0.49708264  0.63406528  1
  Hf  Hf3  1  0.80450314  0.61476538  0.74213540  1
  Hf  Hf4  1  0.39310207  0.18193853  0.24288914  1
  Hf  Hf5  1  0.58692382  0.61437098  0.74891766  1
  Hf  Hf6  1  0.29775195  0.70073323  0.87099081  1
  Hf  Hf7  1  0.61693983  0.60111015  0.24690905  1
  Hf  Hf8  1  -0.00417018  0.59072622  0.00362886  1
  Hf  Hf9  1  0.79612403  0.79851508  0.25105485  1
  Hf  Hf10  1  0.39680453  -0.00363965  0.00912290  1
  Hf  Hf11  1  0.00360576  0.79663340  -0.01296773  1
  Hf  Hf12  1  0.50409615  0.09602140  0.63724130  1
  Hf  Hf13  1  0.20968647  0.60589264  0.50242902  1
  Hf  Hf14  1  0.50732410  0.48588455  0.11814100  1
  Hf  Hf15  1  0.40071212  0.59629635  0.00921060  1
  Hf  Hf16  1  0.11190371  0.09841823  0.12418015  1
  Hf  Hf17  1  0.90897500  0.71225235  0.62070954  1
  Hf  Hf18  1  0.28688980  0.49756219  0.13252556  1
  Hf  Hf19  1  0.59022245  0.00323718  0.23876338  1
  Hf  Hf20  1  0.19524352  0.00125074  -0.01253618  1
  Hf  Hf21  1  0.19640901  0.40734001  0.75130876  1
  Hf  Hf22  1  0.90357702  0.49702987  0.85922208  1
  Hf  Hf23  1  0.60013689  0.79703335  -0.00289914  1
  Hf  Hf24  1  0.29093529  0.29721928  0.12341789  1
  Hf  Hf25  1  0.20218729  0.20362070  0.76207984  1
  Hf  Hf26  1  0.49226292  0.29910235  0.62214977  1
  Hf  Hf27  1  0.70270406  0.31842546  0.11811006  1
  Hf  Hf28  1  0.70317752  0.49996766  0.86495726  1
  Hf  Hf29  1  0.40412625  -0.01498611  0.52024127  1
  Hf  Hf30  1  0.60606185  -0.00630874  0.50568242  1
  Hf  Hf31  1  0.79659859  0.41039063  0.24984655  1
  Hf  Hf32  1  0.41331713  0.59506776  0.48606214  1
  Hf  Hf33  1  0.69817911  0.90686943  0.36801120  1
  Hf  Hf34  1  0.79234490  0.19678347  0.49721819  1
  Hf  Hf35  1  0.69638807  0.70044298  0.38702563  1
  Hf  Hf36  1  0.30771862  0.09722282  0.38921623  1
  Hf  Hf37  1  0.09405036  0.31476685  0.62939817  1
  Hf  Hf38  1  0.19074167  0.39791335  0.48876135  1
  Hf  Hf39  1  0.59221689  -0.00247692  0.00623660  1
  Zr  Zr40  1  0.29391819  0.50741049  0.87619212  1
  Zr  Zr41  1  0.00636318  0.80152742  0.76088811  1
  Zr  Zr42  1  0.91590209  0.90163633  0.12118357  1
  Zr  Zr43  1  0.89876472  0.70140714  0.37915956  1
  Zr  Zr44  1  0.09638140  0.70572717  0.13256884  1
  Zr  Zr45  1  0.27717618  0.90892097  0.12633252  1
  Zr  Zr46  1  0.09452478  0.10278810  0.61970082  1
  Zr  Zr47  1  0.41594846  0.59565997  0.25398021  1
  Zr  Zr48  1  0.08856316  0.30326128  0.11889923  1
  Zr  Zr49  1  0.01112555  0.82036054  0.48446124  1
  Zr  Zr50  1  0.88328938  0.69022165  0.12177303  1
  Zr  Zr51  1  0.01365292  -0.00311371  0.26070574  1
  Zr  Zr52  1  0.40618032  0.19327628  0.00183549  1
  Zr  Zr53  1  0.40057435  0.80110900  0.00646902  1
  Zr  Zr54  1  0.70545755  0.89451215  0.12287624  1
  Zr  Zr55  1  0.69833362  0.11585129  0.12088892  1
  Zr  Zr56  1  0.18061904  -0.00684369  0.74428391  1
  Zr  Zr57  1  0.11837463  0.72417569  0.62169307  1
  Zr  Zr58  1  0.00644823  0.20954214  0.49151013  1
  Zr  Zr59  1  0.59143027  0.40039424  0.48801190  1
  Zr  Zr60  1  0.89933675  0.10398126  0.63177289  1
  Zr  Zr61  1  0.92318131  0.49891328  0.64270919  1
  Zr  Zr62  1  0.60264076  0.19314905  0.76557718  1
  Zr  Zr63  1  0.11027377  0.69127931  0.36751601  1
  Zr  Zr64  1  0.19404966  -0.01643792  0.51115852  1
  Zr  Zr65  1  0.89974529  0.30354758  0.37261293  1
  Zr  Zr66  1  0.18886933  0.81802459  0.25466569  1
  Zr  Zr67  1  0.00423007  0.19282542  0.76786024  1
  Zr  Zr68  1  0.40350861  0.80007512  0.23551074  1
  Zr  Zr69  1  0.30055493  0.49577620  0.62674250  1
  Zr  Zr70  1  0.71313026  0.09048915  0.88465804  1
  Zr  Zr71  1  0.89000234  0.30443400  0.64198323  1
  Zr  Zr72  1  0.50728282  0.28658925  0.13237272  1
  Zr  Zr73  1  0.80044994  0.40122836  0.49929245  1
  Zr  Zr74  1  0.49378250  0.08117905  0.86261355  1
  Zr  Zr75  1  0.70292056  0.49192848  0.63394927  1
  Zr  Zr76  1  0.48961137  0.49067673  0.87453818  1
  Zr  Zr77  1  0.31446417  0.31283548  0.88513690  1
  Zr  Zr78  1  0.49094024  0.27992608  0.37267178  1
  Zr  Zr79  1  0.69168736  0.71914405  0.62082563  1
  Ta  Ta80  1  0.58451747  0.79883777  0.49695588  1
  Ta  Ta81  1  0.09575855  0.51380561  0.86963999  1
  Ta  Ta82  1  0.19574829  0.19958587  -0.01566061  1
  Ta  Ta83  1  0.29303444  0.69602438  0.12859343  1
  Ta  Ta84  1  0.69051553  0.29043897  0.62805177  1
  Ta  Ta85  1  0.80391624  0.20592996  0.24375090  1
  Ta  Ta86  1  0.79155280  0.82053151  0.75235246  1
  Ta  Ta87  1  0.90886409  0.11417798  0.12538454  1
  Ta  Ta88  1  0.62028996  0.59590745  0.00191824  1
  Ta  Ta89  1  0.31278720  0.70929673  0.37048648  1
  Ta  Ta90  1  0.19622758  0.79948002  -0.00513203  1
  Ta  Ta91  1  0.49016475  0.89047292  0.37552737  1
  Ta  Ta92  1  0.80831247  0.59996207  0.50901722  1
  Ta  Ta93  1  0.40393622  0.77866612  0.73863369  1
  Ta  Ta94  1  0.30129526  0.90066384  0.37595870  1
  Ta  Ta95  1  0.89481035  0.10019500  0.36354517  1
  Ta  Ta96  1  0.88596124  0.90406021  0.88071262  1
  Ta  Ta97  1  0.18056914  0.40580358  0.25679772  1
  Ta  Ta98  1  0.88873478  0.30474638  0.87216168  1
  Ta  Ta99  1  0.38934536  0.79193924  0.51474384  1
  Ta  Ta100  1  0.90830604  0.50890850  0.37597409  1
  Ta  Ta101  1  0.30085419  0.10473128  0.62853222  1
  Ta  Ta102  1  0.51514868  0.87959817  0.63755114  1
  Ta  Ta103  1  0.91034458  0.90883145  0.62928076  1
  Ta  Ta104  1  0.59720656  0.38359575  0.76141572  1
  Ta  Ta105  1  0.39916863  -0.00501912  0.24011104  1
  Ta  Ta106  1  0.39137213  -0.01709525  0.73452026  1
  Ta  Ta107  1  -0.00740322  0.39782743  0.24611991  1
  Ta  Ta108  1  0.00875356  0.58300356  0.24231754  1
  Ta  Ta109  1  0.59421855  0.79529561  0.24817380  1
  Ta  Ta110  1  0.38916348  0.39514248  0.26313782  1
  Ta  Ta111  1  0.29918763  0.09250981  0.86463950  1
  Ta  Ta112  1  0.59963533  0.18994671  0.50092208  1
  Ta  Ta113  1  0.70177353  0.09604693  0.63316432  1
  Ta  Ta114  1  0.29750129  0.29430971  0.62102543  1
  Ta  Ta115  1  0.28778061  0.50732966  0.36242483  1
  Ta  Ta116  1  0.30647848  0.89778789  0.86482362  1
  Ta  Ta117  1  0.70377801  0.70894989  0.87125872  1
  Ta  Ta118  1  -0.00060959  0.19763915  -0.01063076  1
  Ta  Ta119  1  0.01034247  0.59562969  0.50330344  1
  Ti  Ti120  1  0.79723000  0.78994625  -0.00488460  1
  Ti  Ti121  1  0.89708319  0.48704620  0.12156151  1
  Ti  Ti122  1  0.60314687  0.20266937  -0.01477393  1
  Ti  Ti123  1  0.69572714  0.29052561  0.37010664  1
  Ti  Ti124  1  0.80928045  0.21360375  0.00194861  1
  Ti  Ti125  1  0.90533017  0.09711576  0.87955683  1
  Ti  Ti126  1  -0.00915025  0.39530469  -0.00041765  1
  Ti  Ti127  1  0.19655057  0.61556688  0.74255420  1
  Ti  Ti128  1  0.59426026  0.39261314  -0.01312573  1
  Ti  Ti129  1  0.00121326  0.41198863  0.49491550  1
  Ti  Ti130  1  0.80699861  0.59739187  0.25037963  1
  Ti  Ti131  1  0.49852666  0.69320973  0.87858495  1
  Ti  Ti132  1  0.18946589  0.60637980  0.00392066  1
  Ti  Ti133  1  0.80670325  0.00338645  0.00741746  1
  Ti  Ti134  1  0.80515986  0.00420043  0.75276107  1
  Ti  Ti135  1  0.18927011  0.41041459  0.00008078  1
  Ti  Ti136  1  0.79650618  0.41659055  -0.00115568  1
  Ti  Ti137  1  0.50278623  0.88496292  0.85890765  1
  Ti  Ti138  1  -0.00216370  0.00602657  0.48204999  1
  Ti  Ti139  1  0.00781627  0.20278566  0.25461788  1
  Ti  Ti140  1  0.38916253  0.39695012  0.47892644  1
  Ti  Ti141  1  0.09328640  0.31339136  0.88035590  1
  Ti  Ti142  1  0.80704760  0.00666605  0.24429834  1
  Ti  Ti143  1  0.60126651  0.59892786  0.50028114  1
  Ti  Ti144  1  0.28048858  0.28833447  0.36819977  1
  Ti  Ti145  1  0.90240481  0.69610720  0.87099843  1
  Ti  Ti146  1  0.79764710  0.81119349  0.50063901  1
  Ti  Ti147  1  0.39767179  0.19680572  0.50393671  1
  Ti  Ti148  1  -0.00566752  0.80397498  0.26223093  1
  Ti  Ti149  1  0.69702854  0.10527519  0.36339485  1
  Ti  Ti150  1  0.39990543  0.20708654  0.75460873  1
  Ti  Ti151  1  0.00162228  0.00301047  -0.00441310  1
  Ti  Ti152  1  0.20969166  0.02309551  0.25842152  1
  Ti  Ti153  1  0.61809553  -0.02435011  0.75052313  1
  Ti  Ti154  1  0.51223165  0.69574769  0.12001874  1
  Ti  Ti155  1  0.09954870  0.90099546  0.87220367  1
  Ti  Ti156  1  0.79059840  0.20590987  0.76230845  1
  Ti  Ti157  1  0.11245727  0.11576470  0.37993699  1
  Ti  Ti158  1  0.70818041  0.50516103  0.38354046  1
  Ti  Ti159  1  0.50447100  0.08680132  0.37730815  1
  Mo  Mo160  1  0.19433007  0.20362617  0.25368671  1
  Mo  Mo161  1  0.39965001  0.40113581  0.01195334  1
  Mo  Mo162  1  0.70989300  0.90561427  0.62597688  1
  Mo  Mo163  1  0.71111360  0.51117419  0.11874244  1
  Mo  Mo164  1  0.80141233  0.60246414  -0.01343832  1
  Mo  Mo165  1  0.60107649  0.80024109  0.76064211  1
  Mo  Mo166  1  0.70006930  0.69539718  0.12058609  1
  Mo  Mo167  1  0.10778431  0.91231367  0.37344453  1
  Mo  Mo168  1  0.49933360  0.89370254  0.12790995  1
  Mo  Mo169  1  0.09250833  0.90134840  0.11275212  1
  Mo  Mo170  1  0.89561374  0.29617730  0.12040256  1
  Mo  Mo171  1  0.09862067  0.30201946  0.36711698  1
  Mo  Mo172  1  0.49938055  0.09517196  0.12500674  1
  Mo  Mo173  1  0.40186209  0.38792724  0.74610477  1
  Mo  Mo174  1  0.21060570  0.20360308  0.50429548  1
  Mo  Mo175  1  0.20388148  0.60122745  0.24832643  1
  Mo  Mo176  1  0.00619618  0.39630588  0.76458528  1
  Mo  Mo177  1  0.49834910  0.49695702  0.37322397  1
  Mo  Mo178  1  0.29137884  0.88382879  0.63575067  1
  Mo  Mo179  1  -0.01544492  -0.00715162  0.76297205  1
  Mo  Mo180  1  0.09824601  0.09992254  0.88066832  1
  Mo  Mo181  1  0.89414949  0.90955852  0.36808864  1
  Mo  Mo182  1  0.10542718  0.69576856  0.87579951  1
  Mo  Mo183  1  0.08736230  0.90130417  0.62665119  1
  Mo  Mo184  1  0.10138194  0.50946471  0.62901495  1
  Mo  Mo185  1  0.70396565  0.89901786  0.88502582  1
  Mo  Mo186  1  0.50475640  0.70586846  0.37700927  1
  Mo  Mo187  1  0.49993554  0.69207640  0.62014943  1
  Mo  Mo188  1  0.39429501  0.59694192  0.75030218  1
  Mo  Mo189  1  0.79047791  0.39107913  0.75197830  1
  Mo  Mo190  1  0.70296467  0.30382803  0.89118777  1
  Mo  Mo191  1  0.21340670  0.80138494  0.48953118  1
  Mo  Mo192  1  0.60884320  0.19682762  0.25707007  1
  Mo  Mo193  1  0.09255559  0.49960114  0.37304342  1
  Mo  Mo194  1  0.50196816  0.29668159  0.87792819  1
  Mo  Mo195  1  0.09397014  0.49781274  0.12060320  1
  Mo  Mo196  1  0.01272265  0.60497648  0.75121321  1
  Mo  Mo197  1  0.31145589  0.69257256  0.62989343  1
  Mo  Mo198  1  0.29455851  0.10576117  0.12249200  1
  Mo  Mo199  1  0.21166187  0.80635341  0.75581021  1
