# generated using pymatgen
data_HfZrTaTiMo
_symmetry_space_group_name_H-M   'P 1'
_cell_length_a   15.21124989
_cell_length_b   15.21148668
_cell_length_c   16.85675868
_cell_angle_alpha   89.99069376
_cell_angle_beta   90.02419053
_cell_angle_gamma   90.02366384
_symmetry_Int_Tables_number   1
_chemical_formula_structural   HfZrTaTiMo
_chemical_formula_sum   'Hf40 Zr40 Ta40 Ti40 Mo40'
_cell_volume   3900.41259735
_cell_formula_units_Z   40
loop_
 _symmetry_equiv_pos_site_id
 _symmetry_equiv_pos_as_xyz
  1  'x, y, z'
loop_
 _atom_site_type_symbol
 _atom_site_label
 _atom_site_symmetry_multiplicity
 _atom_site_fract_x
 _atom_site_fract_y
 _atom_site_fract_z
 _atom_site_occupancy
  Hf  Hf0  1  0.41217064  0.80332170  0.01169613  1
  Hf  Hf1  1  0.00160183  0.01025772  0.75621124  1
  Hf  Hf2  1  0.21004455  0.00304501  -0.00535205  1
  Hf  Hf3  1  0.78853490  0.59634800  0.50927111  1
  Hf  Hf4  1  0.20254607  0.40592826  -0.00979194  1
  Hf  Hf5  1  0.67364298  0.48907845  0.61879141  1
  Hf  Hf6  1  0.89370603  0.89354411  0.35821158  1
  Hf  Hf7  1  0.51233744  0.09971727  0.86473242  1
  Hf  Hf8  1  0.30720407  0.30968785  0.13485023  1
  Hf  Hf9  1  0.61327013  -0.01164236  0.75528916  1
  Hf  Hf10  1  0.89334278  0.69395358  0.38672077  1
  Hf  Hf11  1  0.41027267  0.78995431  0.24220591  1
  Hf  Hf12  1  0.79271328  0.60291233  0.74778456  1
  Hf  Hf13  1  -0.00298286  0.79882417  0.75446862  1
  Hf  Hf14  1  0.60650987  0.19366176  0.24540203  1
  Hf  Hf15  1  0.20208219  0.40258424  0.74066795  1
  Hf  Hf16  1  0.10716361  0.88799102  0.12289917  1
  Hf  Hf17  1  0.49926984  0.89936220  0.37197979  1
  Hf  Hf18  1  0.11310068  0.69685392  0.62210071  1
  Hf  Hf19  1  0.21277537  0.20509838  -0.01071156  1
  Hf  Hf20  1  0.79581698  0.61821531  0.24938229  1
  Hf  Hf21  1  0.50591708  0.09447417  0.37054766  1
  Hf  Hf22  1  0.17268883  0.59564206  0.01027169  1
  Hf  Hf23  1  0.20329782  0.79513964  -0.00656281  1
  Hf  Hf24  1  0.91775469  0.52367355  0.11984083  1
  Hf  Hf25  1  0.68867714  0.69974811  0.38374518  1
  Hf  Hf26  1  0.60951945  0.38978729  0.00235638  1
  Hf  Hf27  1  0.81945670  0.00278644  0.49940681  1
  Hf  Hf28  1  0.16685508  0.59188795  0.24541540  1
  Hf  Hf29  1  0.48956331  0.49452860  0.11812390  1
  Hf  Hf30  1  0.60597544  -0.01027693  -0.00666676  1
  Hf  Hf31  1  0.72128499  0.09983525  0.86880388  1
  Hf  Hf32  1  0.28894198  0.29377667  0.39641586  1
  Hf  Hf33  1  0.39585024  0.20629181  0.74657222  1
  Hf  Hf34  1  0.40942347  0.19333184  -0.00649551  1
  Hf  Hf35  1  0.59918992  0.00788460  0.50807589  1
  Hf  Hf36  1  -0.01307292  0.78297647  0.00467616  1
  Hf  Hf37  1  0.00282397  0.20409075  0.72992176  1
  Hf  Hf38  1  0.10650545  0.90518609  0.62557876  1
  Hf  Hf39  1  0.89782913  0.29933538  0.87743310  1
  Zr  Zr40  1  0.59808009  0.41182385  0.25520723  1
  Zr  Zr41  1  0.20362444  0.79860843  0.48635046  1
  Zr  Zr42  1  -0.00585219  0.81264103  0.50370670  1
  Zr  Zr43  1  -0.00663125  0.00421032  0.01312725  1
  Zr  Zr44  1  0.59460220  0.79019532  0.75870945  1
  Zr  Zr45  1  0.09242103  0.69036204  0.86761497  1
  Zr  Zr46  1  0.39022491  0.38991847  -0.01613733  1
  Zr  Zr47  1  0.28257043  0.70279737  0.13735041  1
  Zr  Zr48  1  0.91657002  0.09458986  0.36383517  1
  Zr  Zr49  1  0.69844784  0.90772000  0.37955799  1
  Zr  Zr50  1  0.38645771  0.57465663  0.24601710  1
  Zr  Zr51  1  0.19953949  0.02371347  0.25417419  1
  Zr  Zr52  1  0.39680116  0.80206024  0.49626229  1
  Zr  Zr53  1  0.10392391  0.30093257  0.12391131  1
  Zr  Zr54  1  0.79630876  0.19940842  0.50230818  1
  Zr  Zr55  1  -0.00781304  -0.00151497  0.22531484  1
  Zr  Zr56  1  0.91006486  0.29849436  0.37574435  1
  Zr  Zr57  1  0.09843787  0.29609660  0.87126662  1
  Zr  Zr58  1  0.69813763  0.89219958  0.62259885  1
  Zr  Zr59  1  0.80625628  0.41188687  0.25278813  1
  Zr  Zr60  1  0.58636027  0.58719251  0.75535010  1
  Zr  Zr61  1  0.50236369  0.29002947  0.13151092  1
  Zr  Zr62  1  0.70321407  0.51802248  0.11357890  1
  Zr  Zr63  1  0.51152528  0.10567168  0.63828776  1
  Zr  Zr64  1  0.89740702  0.91165894  0.63631922  1
  Zr  Zr65  1  0.30668282  0.30602707  0.61387679  1
  Zr  Zr66  1  -0.00465617  0.40120502  0.73625191  1
  Zr  Zr67  1  0.51417082  0.30014968  0.85998017  1
  Zr  Zr68  1  0.09099361  0.68555850  0.38637894  1
  Zr  Zr69  1  0.31115364  0.91642389  0.13785272  1
  Zr  Zr70  1  0.80605159  0.19974274  0.01635510  1
  Zr  Zr71  1  0.49978876  0.50704016  0.88850415  1
  Zr  Zr72  1  0.21053681  0.39673646  0.26644273  1
  Zr  Zr73  1  0.37824044  0.60165692  0.01023091  1
  Zr  Zr74  1  0.78423949  0.39426804  0.74719403  1
  Zr  Zr75  1  0.20413489  0.00140457  0.76248953  1
  Zr  Zr76  1  -0.00935733  0.76928889  0.23530911  1
  Zr  Zr77  1  0.61646439  0.80246015  0.24636475  1
  Zr  Zr78  1  0.01112149  0.40995588  0.25782861  1
  Zr  Zr79  1  0.42055618  0.19937126  0.50607471  1
  Ta  Ta80  1  0.48896759  0.68320011  0.62341605  1
  Ta  Ta81  1  0.79061379  0.80672867  0.76567592  1
  Ta  Ta82  1  0.09461297  0.90041931  0.88307178  1
  Ta  Ta83  1  0.30398094  0.90644547  0.36027028  1
  Ta  Ta84  1  0.89097269  0.91000592  0.87824366  1
  Ta  Ta85  1  0.49028076  0.89602344  0.62551693  1
  Ta  Ta86  1  0.40582433  0.42113275  0.74557126  1
  Ta  Ta87  1  0.10778219  0.09864605  0.61232349  1
  Ta  Ta88  1  0.70823622  0.10038942  0.36510135  1
  Ta  Ta89  1  0.70349024  0.72201225  0.10950244  1
  Ta  Ta90  1  0.20775717  -0.00424405  0.49318725  1
  Ta  Ta91  1  0.40374481  -0.01381812  0.75679979  1
  Ta  Ta92  1  0.59843164  0.39260968  0.48726480  1
  Ta  Ta93  1  0.49678528  0.68919548  0.37511916  1
  Ta  Ta94  1  0.71015818  0.30563420  0.13045227  1
  Ta  Ta95  1  0.38643758  0.19404869  0.25981645  1
  Ta  Ta96  1  -0.00316680  0.19721154  0.51170044  1
  Ta  Ta97  1  0.39123539  0.78642609  0.74697028  1
  Ta  Ta98  1  0.79417982  0.79873386  0.50610585  1
  Ta  Ta99  1  0.00340291  0.40855381  -0.00177790  1
  Ta  Ta100  1  0.48139261  0.70670385  0.87790103  1
  Ta  Ta101  1  0.89119622  0.70362132  0.62809170  1
  Ta  Ta102  1  0.19887457  0.19869252  0.74048934  1
  Ta  Ta103  1  0.81155647  0.40803639  0.00238177  1
  Ta  Ta104  1  0.20970525  0.60548221  0.74561954  1
  Ta  Ta105  1  0.29915811  0.69339608  0.36344663  1
  Ta  Ta106  1  0.20527573  0.79962289  0.76071087  1
  Ta  Ta107  1  0.71616169  0.09829826  0.63674056  1
  Ta  Ta108  1  0.29981773  0.52001577  0.61533972  1
  Ta  Ta109  1  0.79270631  0.39250521  0.50054241  1
  Ta  Ta110  1  0.80986225  0.19640442  0.23771332  1
  Ta  Ta111  1  0.30466485  0.08668708  0.61850156  1
  Ta  Ta112  1  0.52415533  0.31677216  0.63797444  1
  Ta  Ta113  1  -0.00123545  0.59446684  0.73259681  1
  Ta  Ta114  1  0.30022352  0.89622153  0.62936756  1
  Ta  Ta115  1  0.19124141  0.80164789  0.26256677  1
  Ta  Ta116  1  0.89349554  0.49479232  0.61753397  1
  Ta  Ta117  1  0.40667504  -0.00020460  -0.00882883  1
  Ta  Ta118  1  0.30912398  0.09493263  0.38819743  1
  Ta  Ta119  1  0.09387553  0.91478473  0.37078543  1
  Ti  Ti120  1  0.70428555  0.50159811  0.88563171  1
  Ti  Ti121  1  0.68987542  0.69675691  0.62226963  1
  Ti  Ti122  1  0.00168692  0.59155170  0.52074940  1
  Ti  Ti123  1  0.41092320  0.40962300  0.50415898  1
  Ti  Ti124  1  0.10072849  0.30959158  0.60252429  1
  Ti  Ti125  1  0.00061658  0.20243568  0.00816624  1
  Ti  Ti126  1  0.02147674  0.20134631  0.25108781  1
  Ti  Ti127  1  0.31291066  0.88822983  0.87638757  1
  Ti  Ti128  1  0.51813748  0.89700795  0.12746224  1
  Ti  Ti129  1  0.09897806  0.10184835  0.88066548  1
  Ti  Ti130  1  0.90942455  0.10574192  0.87778640  1
  Ti  Ti131  1  0.70371961  0.29468386  0.87833885  1
  Ti  Ti132  1  0.59150151  0.78772991  0.50585725  1
  Ti  Ti133  1  0.09183099  0.50121147  0.86445820  1
  Ti  Ti134  1  0.69300061  0.50427349  0.38141484  1
  Ti  Ti135  1  0.70198173  0.29878873  0.36443748  1
  Ti  Ti136  1  0.78251285  0.00073105  0.22933488  1
  Ti  Ti137  1  0.90829130  0.30738832  0.12927139  1
  Ti  Ti138  1  0.11338799  0.12084610  0.39172751  1
  Ti  Ti139  1  0.61049853  0.18896924  0.01308303  1
  Ti  Ti140  1  0.30501582  0.10485869  0.86813178  1
  Ti  Ti141  1  0.80062649  0.00370150  0.01616359  1
  Ti  Ti142  1  0.87382908  0.88005347  0.12503030  1
  Ti  Ti143  1  0.88909365  0.69471989  0.87233076  1
  Ti  Ti144  1  0.09801897  0.48367242  0.40528684  1
  Ti  Ti145  1  0.29430036  0.51183432  0.86508976  1
  Ti  Ti146  1  0.90094666  0.50539073  0.87457896  1
  Ti  Ti147  1  0.59661302  0.62209269  -0.00195115  1
  Ti  Ti148  1  0.10907230  0.10948614  0.12164530  1
  Ti  Ti149  1  0.58788221  0.61141623  0.23727470  1
  Ti  Ti150  1  0.78156795  0.80462362  -0.01919119  1
  Ti  Ti151  1  0.49886639  0.08415852  0.13280511  1
  Ti  Ti152  1  0.61081946  0.20781115  0.49625052  1
  Ti  Ti153  1  0.49716910  0.50372603  0.37741736  1
  Ti  Ti154  1  0.49575198  0.30252902  0.36826584  1
  Ti  Ti155  1  0.81091824  0.19917775  0.73707362  1
  Ti  Ti156  1  0.29582975  0.50124150  0.39409792  1
  Ti  Ti157  1  0.39830095  0.60533865  0.49661895  1
  Ti  Ti158  1  0.30732294  0.11020523  0.12749412  1
  Ti  Ti159  1  0.90166883  0.50174731  0.39239056  1
  Mo  Mo160  1  0.29572763  0.69774117  0.87706792  1
  Mo  Mo161  1  0.70004535  0.90411439  0.11501172  1
  Mo  Mo162  1  0.09734061  0.29431250  0.39660880  1
  Mo  Mo163  1  0.60051700  0.00252565  0.24297291  1
  Mo  Mo164  1  0.58390694  0.59396210  0.49758194  1
  Mo  Mo165  1  0.87931846  0.69698212  0.11090660  1
  Mo  Mo166  1  0.89407646  0.30185442  0.61609354  1
  Mo  Mo167  1  0.49380493  0.89829489  0.87244486  1
  Mo  Mo168  1  -0.00976788  0.39950522  0.50914079  1
  Mo  Mo169  1  0.07824822  0.68832111  0.12506500  1
  Mo  Mo170  1  0.90832126  0.10142955  0.62333927  1
  Mo  Mo171  1  0.39047664  0.60277045  0.75110404  1
  Mo  Mo172  1  0.69464940  0.10102691  0.12659239  1
  Mo  Mo173  1  0.90615221  0.11092391  0.13476129  1
  Mo  Mo174  1  0.20901161  0.59894955  0.49704418  1
  Mo  Mo175  1  0.79682326  0.60854477  -0.01584960  1
  Mo  Mo176  1  -0.01615786  0.58206043  0.26489997  1
  Mo  Mo177  1  0.29075873  0.48907237  0.12832982  1
  Mo  Mo178  1  0.40291450  0.39176050  0.26838757  1
  Mo  Mo179  1  0.20020088  0.40702560  0.50861953  1
  Mo  Mo180  1  0.10195439  0.49369646  0.12313368  1
  Mo  Mo181  1  0.81036460  0.00525572  0.75607454  1
  Mo  Mo182  1  0.30304435  0.70715363  0.62336665  1
  Mo  Mo183  1  0.39859637  -0.00501558  0.50531038  1
  Mo  Mo184  1  0.48764050  0.49476611  0.61794594  1
  Mo  Mo185  1  -0.01302587  0.59030905  -0.01469882  1
  Mo  Mo186  1  0.79766107  0.80462989  0.24578117  1
  Mo  Mo187  1  0.51226179  0.69516906  0.12114956  1
  Mo  Mo188  1  0.20265016  0.19436433  0.51384572  1
  Mo  Mo189  1  0.59578687  0.80023799  -0.01168914  1
  Mo  Mo190  1  0.69563126  0.29182430  0.62326077  1
  Mo  Mo191  1  0.19937884  0.19896180  0.25733939  1
  Mo  Mo192  1  0.60503194  0.40331543  0.76124396  1
  Mo  Mo193  1  0.30057677  0.30041267  0.85381215  1
  Mo  Mo194  1  0.40755479  0.00439211  0.24638869  1
  Mo  Mo195  1  0.69540118  0.69315790  0.88096507  1
  Mo  Mo196  1  0.70446388  0.90030250  0.87541119  1
  Mo  Mo197  1  0.01390679  0.00388306  0.49357938  1
  Mo  Mo198  1  0.62324324  0.20697231  0.74729089  1
  Mo  Mo199  1  0.10370272  0.50119943  0.61658674  1
