# generated using pymatgen
data_HfZrTaTiMo
_symmetry_space_group_name_H-M   'P 1'
_cell_length_a   15.17011994
_cell_length_b   15.18115610
_cell_length_c   16.81234776
_cell_angle_alpha   90.07563060
_cell_angle_beta   89.99226568
_cell_angle_gamma   89.97892971
_symmetry_Int_Tables_number   1
_chemical_formula_structural   HfZrTaTiMo
_chemical_formula_sum   'Hf40 Zr40 Ta40 Ti40 Mo40'
_cell_volume   3871.87932712
_cell_formula_units_Z   40
loop_
 _symmetry_equiv_pos_site_id
 _symmetry_equiv_pos_as_xyz
  1  'x, y, z'
loop_
 _atom_site_type_symbol
 _atom_site_label
 _atom_site_symmetry_multiplicity
 _atom_site_fract_x
 _atom_site_fract_y
 _atom_site_fract_z
 _atom_site_occupancy
  Hf  Hf0  1  0.79273182  0.19575524  0.49346677  1
  Hf  Hf1  1  0.22437295  -0.03302678  0.50704042  1
  Hf  Hf2  1  0.29712638  0.50255822  0.60757392  1
  Hf  Hf3  1  0.90604193  0.11000660  0.63463634  1
  Hf  Hf4  1  0.87840272  0.70501088  0.36598801  1
  Hf  Hf5  1  0.10028956  0.88820822  0.62321383  1
  Hf  Hf6  1  -0.00226247  0.38727094  0.00753749  1
  Hf  Hf7  1  -0.00487308  0.60067218  -0.00037169  1
  Hf  Hf8  1  0.40499992  0.40425873  0.74391791  1
  Hf  Hf9  1  0.50929661  0.48846689  0.87776522  1
  Hf  Hf10  1  0.40383939  -0.00505017  -0.00312184  1
  Hf  Hf11  1  0.89593687  0.70293523  0.62633913  1
  Hf  Hf12  1  0.29662016  0.29727315  0.61386197  1
  Hf  Hf13  1  0.60505294  0.20588217  0.76566170  1
  Hf  Hf14  1  0.50482825  0.28905281  0.37945789  1
  Hf  Hf15  1  0.10255544  0.48796501  0.87729411  1
  Hf  Hf16  1  0.59800889  0.60762897  0.26122466  1
  Hf  Hf17  1  0.59754901  0.59220521  0.74046079  1
  Hf  Hf18  1  0.60104861  0.80539127  0.25369740  1
  Hf  Hf19  1  0.79002800  0.18787476  0.23913878  1
  Hf  Hf20  1  0.00192244  0.40639560  0.48273003  1
  Hf  Hf21  1  0.89320474  0.09141008  0.36089810  1
  Hf  Hf22  1  0.19079341  0.80202055  0.24782797  1
  Hf  Hf23  1  0.27285372  0.70154243  0.38264614  1
  Hf  Hf24  1  0.69658748  0.69953585  0.61134504  1
  Hf  Hf25  1  0.09335909  0.29989604  0.61821187  1
  Hf  Hf26  1  0.79326240  0.79840656  -0.00209178  1
  Hf  Hf27  1  0.39611877  0.59525118  0.26961546  1
  Hf  Hf28  1  0.90020949  0.90195877  0.12455346  1
  Hf  Hf29  1  0.70228776  0.29705995  0.36860102  1
  Hf  Hf30  1  0.40107649  0.19908092  0.75906910  1
  Hf  Hf31  1  0.28137607  0.10660261  0.10454438  1
  Hf  Hf32  1  0.89459054  0.69630978  0.87410723  1
  Hf  Hf33  1  0.50520526  0.91578688  0.37150652  1
  Hf  Hf34  1  0.40569298  -0.00065065  0.23623953  1
  Hf  Hf35  1  0.30185632  0.29328272  0.38500419  1
  Hf  Hf36  1  0.59975253  0.79146605  -0.00058062  1
  Hf  Hf37  1  0.39202282  0.20048481  0.24209807  1
  Hf  Hf38  1  0.81375501  -0.01430665  0.50044401  1
  Hf  Hf39  1  0.70979979  0.50219690  0.37262050  1
  Zr  Zr40  1  0.31512225  0.07907785  0.37957999  1
  Zr  Zr41  1  0.18955297  0.18434798  0.48621075  1
  Zr  Zr42  1  0.71258628  0.10342714  0.64473544  1
  Zr  Zr43  1  0.10598136  0.50063594  0.13633832  1
  Zr  Zr44  1  0.28449474  0.48934422  0.39123928  1
  Zr  Zr45  1  0.92289592  0.10314094  0.12381871  1
  Zr  Zr46  1  0.61265158  0.02438676  0.49732501  1
  Zr  Zr47  1  0.21606061  0.59872999  -0.00776747  1
  Zr  Zr48  1  0.51121462  0.89597287  0.12174586  1
  Zr  Zr49  1  0.29588931  0.88461928  0.88474461  1
  Zr  Zr50  1  0.80106236  0.00204736  -0.00755168  1
  Zr  Zr51  1  0.90246859  0.29902325  0.87550061  1
  Zr  Zr52  1  0.50093600  0.88923726  0.87959707  1
  Zr  Zr53  1  0.00621401  0.60985102  0.48111885  1
  Zr  Zr54  1  0.50423684  0.49092008  0.38552035  1
  Zr  Zr55  1  0.58439145  0.80063930  0.73938383  1
  Zr  Zr56  1  0.20917100  0.60463723  0.75642580  1
  Zr  Zr57  1  0.50170725  0.10447426  0.10365954  1
  Zr  Zr58  1  -0.00149980  0.59726784  0.75877117  1
  Zr  Zr59  1  0.78823224  0.80500961  0.75850967  1
  Zr  Zr60  1  0.47339524  0.68515474  0.86493340  1
  Zr  Zr61  1  0.70202240  0.50286802  0.13076547  1
  Zr  Zr62  1  0.38568074  0.81200876  0.49384333  1
  Zr  Zr63  1  0.50512725  0.50270140  0.61050960  1
  Zr  Zr64  1  0.31196346  0.09758556  0.62768534  1
  Zr  Zr65  1  0.28966447  0.89372020  0.11005440  1
  Zr  Zr66  1  0.10616466  0.10358406  0.62784773  1
  Zr  Zr67  1  0.39082472  0.41521746  0.00719688  1
  Zr  Zr68  1  0.00790691  0.00095247  0.76125923  1
  Zr  Zr69  1  0.59118754  0.19568140  0.23443831  1
  Zr  Zr70  1  0.27979535  0.70876764  0.61059845  1
  Zr  Zr71  1  0.20860481  0.00442500  0.75998802  1
  Zr  Zr72  1  0.10549431  0.90251519  0.37789966  1
  Zr  Zr73  1  0.29180716  0.30946118  0.88245096  1
  Zr  Zr74  1  0.29800262  0.68893253  0.13377703  1
  Zr  Zr75  1  0.89731496  0.50039583  0.14298206  1
  Zr  Zr76  1  0.70582175  0.31293326  0.89029939  1
  Zr  Zr77  1  0.00976869  0.01236014  0.49678805  1
  Zr  Zr78  1  0.09255466  0.71505528  0.11573274  1
  Zr  Zr79  1  0.09792104  0.50152359  0.62271242  1
  Ta  Ta80  1  0.19364431  0.80221824  0.75577003  1
  Ta  Ta81  1  0.20635685  0.39050275  0.24761400  1
  Ta  Ta82  1  0.00641903  0.61212173  0.25699267  1
  Ta  Ta83  1  0.58989804  0.81634186  0.50657251  1
  Ta  Ta84  1  0.59285626  0.59699740  0.00388692  1
  Ta  Ta85  1  0.40351726  0.39186092  0.24379895  1
  Ta  Ta86  1  0.00354611  0.80068702  0.76080129  1
  Ta  Ta87  1  0.71265651  0.49376072  0.61351685  1
  Ta  Ta88  1  0.79251600  0.59041533  0.74862730  1
  Ta  Ta89  1  0.49762783  0.50244491  0.12949885  1
  Ta  Ta90  1  0.61430223  0.19232619  -0.00449127  1
  Ta  Ta91  1  0.41436334  -0.00746290  0.75609560  1
  Ta  Ta92  1  0.50118863  0.29696663  0.89513523  1
  Ta  Ta93  1  0.89639522  0.90228534  0.63892795  1
  Ta  Ta94  1  0.88913690  0.69850935  0.13468288  1
  Ta  Ta95  1  0.40052668  0.79562616  0.26328939  1
  Ta  Ta96  1  0.89967156  0.30434498  0.14105094  1
  Ta  Ta97  1  -0.01201435  0.21039474  0.48186647  1
  Ta  Ta98  1  0.19323376  0.19058930  0.25673321  1
  Ta  Ta99  1  0.42201841  -0.00798916  0.51540420  1
  Ta  Ta100  1  0.70158406  0.50241457  0.88245459  1
  Ta  Ta101  1  0.61429425  -0.00342351  0.76708591  1
  Ta  Ta102  1  0.79323403  0.59981225  0.00181797  1
  Ta  Ta103  1  0.89679217  0.30540794  0.62662649  1
  Ta  Ta104  1  0.09617222  0.28057300  0.13513903  1
  Ta  Ta105  1  0.88797592  0.49366402  0.88095610  1
  Ta  Ta106  1  -0.02654936  0.81262396  0.49214687  1
  Ta  Ta107  1  0.20114653  0.00303244  0.24672528  1
  Ta  Ta108  1  0.19788271  0.39580548  0.74909831  1
  Ta  Ta109  1  0.59569633  0.39538045  0.24056666  1
  Ta  Ta110  1  0.42348797  0.18332406  0.50357402  1
  Ta  Ta111  1  0.89942608  0.49516120  0.34969609  1
  Ta  Ta112  1  -0.00950609  0.81120985  0.25253214  1
  Ta  Ta113  1  0.29839136  0.10505393  0.89143394  1
  Ta  Ta114  1  0.49649534  0.69194050  0.12939815  1
  Ta  Ta115  1  0.60969882  0.39837088  0.74371060  1
  Ta  Ta116  1  0.50946325  0.29055170  0.62288208  1
  Ta  Ta117  1  0.79985716  0.40241640  0.74562010  1
  Ta  Ta118  1  0.91401455  0.10600832  0.88053306  1
  Ta  Ta119  1  0.68886614  0.71254272  0.39209887  1
  Ti  Ti120  1  0.50023619  0.30407969  0.10320039  1
  Ti  Ti121  1  0.40817330  0.38923509  0.50484701  1
  Ti  Ti122  1  0.68897127  0.69146634  0.87294126  1
  Ti  Ti123  1  0.48122458  0.70673611  0.62304973  1
  Ti  Ti124  1  0.71760240  0.90465806  0.37636095  1
  Ti  Ti125  1  0.39179796  0.77575641  0.00372879  1
  Ti  Ti126  1  0.19790490  0.20603238  0.75844613  1
  Ti  Ti127  1  0.70159584  0.30508597  0.11468476  1
  Ti  Ti128  1  0.72108555  0.10501433  0.86846812  1
  Ti  Ti129  1  0.01195236  0.00567188  0.25247879  1
  Ti  Ti130  1  0.78979463  0.80841171  0.24492517  1
  Ti  Ti131  1  0.59576439  0.60706060  0.49540878  1
  Ti  Ti132  1  0.09819183  0.90862996  0.88935674  1
  Ti  Ti133  1  0.50349541  0.10171082  0.88377967  1
  Ti  Ti134  1  0.61499914  -0.00747085  -0.01579965  1
  Ti  Ti135  1  0.29605795  0.29874188  0.11723003  1
  Ti  Ti136  1  0.89937507  0.30282116  0.34955677  1
  Ti  Ti137  1  -0.00608310  0.80941824  -0.00586242  1
  Ti  Ti138  1  0.09632033  0.92210081  0.11041540  1
  Ti  Ti139  1  0.31563212  0.51461524  0.86721026  1
  Ti  Ti140  1  -0.00130666  0.39810718  0.75187461  1
  Ti  Ti141  1  0.30189312  0.49830766  0.13733319  1
  Ti  Ti142  1  0.61381744  0.38947359  0.50562742  1
  Ti  Ti143  1  0.70097513  0.90607915  0.62669350  1
  Ti  Ti144  1  0.90076861  0.49931916  0.62418478  1
  Ti  Ti145  1  0.08829611  0.69866841  0.62585917  1
  Ti  Ti146  1  0.70523649  0.08403131  0.11589257  1
  Ti  Ti147  1  0.40172398  0.61019499  0.48677198  1
  Ti  Ti148  1  0.89701746  0.90508483  0.87226860  1
  Ti  Ti149  1  0.10706421  0.71249216  0.88633930  1
  Ti  Ti150  1  0.69721286  0.70304212  0.12849099  1
  Ti  Ti151  1  0.80474761  0.59621595  0.49753898  1
  Ti  Ti152  1  0.51588677  0.09589535  0.63954390  1
  Ti  Ti153  1  0.81349290  0.20729793  0.01143806  1
  Ti  Ti154  1  0.19143206  0.39474674  0.01000932  1
  Ti  Ti155  1  0.62217352  0.00616167  0.25201424  1
  Ti  Ti156  1  0.00803772  0.20878163  0.75678624  1
  Ti  Ti157  1  0.70715103  0.29765411  0.62767958  1
  Ti  Ti158  1  0.09866624  0.30621613  0.36467177  1
  Ti  Ti159  1  0.81125377  0.39618449  0.49555626  1
  Mo  Mo160  1  0.38435982  0.79766384  0.74107235  1
  Mo  Mo161  1  0.79844038  -0.00934536  0.24236035  1
  Mo  Mo162  1  0.10063555  0.49876781  0.35444413  1
  Mo  Mo163  1  0.18657165  0.80099919  0.00054415  1
  Mo  Mo164  1  0.00616488  0.19891120  0.00137606  1
  Mo  Mo165  1  0.29464898  0.70068191  0.87340118  1
  Mo  Mo166  1  0.79342851  0.61393050  0.25306059  1
  Mo  Mo167  1  0.40630030  0.59946226  0.00706638  1
  Mo  Mo168  1  0.81081138  0.21133000  0.75288412  1
  Mo  Mo169  1  0.31287734  0.89834632  0.64523160  1
  Mo  Mo170  1  0.70138197  0.89549967  0.87300120  1
  Mo  Mo171  1  0.00418017  0.19938591  0.26193942  1
  Mo  Mo172  1  0.60175363  0.40044481  0.01383730  1
  Mo  Mo173  1  0.10028955  0.10552700  0.36935747  1
  Mo  Mo174  1  0.60429220  0.20814773  0.50849403  1
  Mo  Mo175  1  0.19612848  0.59299778  0.25182450  1
  Mo  Mo176  1  0.18385996  0.59430713  0.49947310  1
  Mo  Mo177  1  0.18591889  0.21323944  -0.00233981  1
  Mo  Mo178  1  0.39940548  0.20378824  -0.00653567  1
  Mo  Mo179  1  0.00657098  0.39593361  0.25264139  1
  Mo  Mo180  1  0.70304406  0.90001674  0.12726021  1
  Mo  Mo181  1  0.08540364  0.70409266  0.36604209  1
  Mo  Mo182  1  0.10573315  0.11622947  0.87984867  1
  Mo  Mo183  1  0.89790688  0.89837065  0.36202802  1
  Mo  Mo184  1  0.79145124  0.39390349  0.24849837  1
  Mo  Mo185  1  0.79104061  0.80361132  0.50468773  1
  Mo  Mo186  1  0.40091592  0.60027669  0.73684853  1
  Mo  Mo187  1  0.10271249  0.09628535  0.12664848  1
  Mo  Mo188  1  0.80366770  0.40473631  0.00836662  1
  Mo  Mo189  1  0.00208917  -0.00045373  -0.01202747  1
  Mo  Mo190  1  0.18860888  0.00684347  -0.01224929  1
  Mo  Mo191  1  0.09918831  0.30055195  0.87144589  1
  Mo  Mo192  1  0.50861150  0.10236327  0.37161819  1
  Mo  Mo193  1  0.80596427  0.00458335  0.76442050  1
  Mo  Mo194  1  0.49958298  0.70681204  0.38573387  1
  Mo  Mo195  1  0.69327474  0.09631104  0.36893531  1
  Mo  Mo196  1  0.50755635  0.90832599  0.63094292  1
  Mo  Mo197  1  0.19088908  0.39212458  0.49447744  1
  Mo  Mo198  1  0.16171716  0.78066982  0.49449904  1
  Mo  Mo199  1  0.30499187  0.89908064  0.36312844  1
