# generated using pymatgen
data_HfZrTaTiMo
_symmetry_space_group_name_H-M   'P 1'
_cell_length_a   15.22190782
_cell_length_b   15.21167728
_cell_length_c   16.84242484
_cell_angle_alpha   90.00120763
_cell_angle_beta   89.96845704
_cell_angle_gamma   90.03814261
_symmetry_Int_Tables_number   1
_chemical_formula_structural   HfZrTaTiMo
_chemical_formula_sum   'Hf40 Zr40 Ta40 Ti40 Mo40'
_cell_volume   3899.87463865
_cell_formula_units_Z   40
loop_
 _symmetry_equiv_pos_site_id
 _symmetry_equiv_pos_as_xyz
  1  'x, y, z'
loop_
 _atom_site_type_symbol
 _atom_site_label
 _atom_site_symmetry_multiplicity
 _atom_site_fract_x
 _atom_site_fract_y
 _atom_site_fract_z
 _atom_site_occupancy
  Hf  Hf0  1  0.19194472  -0.01696189  0.74662126  1
  Hf  Hf1  1  0.30285931  0.49628293  0.61542552  1
  Hf  Hf2  1  0.21757802  0.60752186  0.26403587  1
  Hf  Hf3  1  0.28477803  0.88161186  0.61420284  1
  Hf  Hf4  1  -0.00583823  0.18875822  0.24723397  1
  Hf  Hf5  1  0.10503202  0.49835576  0.87848226  1
  Hf  Hf6  1  0.69565186  0.68880311  0.63249277  1
  Hf  Hf7  1  0.31192060  0.29549461  0.15072510  1
  Hf  Hf8  1  0.89759191  0.71522732  0.37252441  1
  Hf  Hf9  1  0.10754723  0.51681075  0.61443451  1
  Hf  Hf10  1  0.30479507  0.50334456  0.88693037  1
  Hf  Hf11  1  0.29491948  0.50126601  0.12429563  1
  Hf  Hf12  1  0.71049836  0.88623291  0.37728252  1
  Hf  Hf13  1  0.41627032  0.20188046  0.50225177  1
  Hf  Hf14  1  0.79672182  0.01308161  0.74554425  1
  Hf  Hf15  1  0.60038855  -0.00676652  0.25609095  1
  Hf  Hf16  1  0.09158898  0.09996941  0.62962247  1
  Hf  Hf17  1  0.89285808  0.29394700  0.37191731  1
  Hf  Hf18  1  0.31307231  0.69551898  0.11077294  1
  Hf  Hf19  1  0.69530935  0.11160169  0.61973524  1
  Hf  Hf20  1  0.69454573  0.10502257  0.88708212  1
  Hf  Hf21  1  0.20249109  0.61394762  0.75386027  1
  Hf  Hf22  1  0.69933776  0.08275411  0.11651259  1
  Hf  Hf23  1  0.51291349  0.29885442  0.87741006  1
  Hf  Hf24  1  0.48732934  0.69919163  0.61396149  1
  Hf  Hf25  1  0.09359233  0.89719825  0.87980913  1
  Hf  Hf26  1  0.50448588  0.49175508  0.61988586  1
  Hf  Hf27  1  0.80005623  0.40751926  0.24638973  1
  Hf  Hf28  1  0.59425216  0.00303110  0.49815666  1
  Hf  Hf29  1  0.30675762  0.29749364  0.86757733  1
  Hf  Hf30  1  0.10498966  0.29107406  0.37077355  1
  Hf  Hf31  1  0.78221050  0.61023119  0.26541427  1
  Hf  Hf32  1  0.09916152  0.90071515  0.37966039  1
  Hf  Hf33  1  0.11114870  0.69169358  0.12037805  1
  Hf  Hf34  1  0.39394894  0.79557430  0.24710230  1
  Hf  Hf35  1  0.58422136  0.80001891  0.74392211  1
  Hf  Hf36  1  0.48971611  0.89457175  0.38115556  1
  Hf  Hf37  1  0.89422958  0.10489961  0.11075394  1
  Hf  Hf38  1  0.40094849  0.59404899  0.74936154  1
  Hf  Hf39  1  0.19925829  0.39168800  0.00472509  1
  Zr  Zr40  1  0.50315085  0.49062708  0.88286151  1
  Zr  Zr41  1  -0.00539059  0.40238159  0.50405018  1
  Zr  Zr42  1  0.49723199  0.69287197  0.88144688  1
  Zr  Zr43  1  0.68830675  0.29870756  0.35543201  1
  Zr  Zr44  1  0.60139061  0.77982993  0.25665102  1
  Zr  Zr45  1  0.62116489  0.21473394  0.75131246  1
  Zr  Zr46  1  -0.01538591  0.21206988  0.75129606  1
  Zr  Zr47  1  0.29397888  0.10382976  0.62586238  1
  Zr  Zr48  1  0.41276968  0.19598441  0.73467824  1
  Zr  Zr49  1  0.89748044  0.10812111  0.88996628  1
  Zr  Zr50  1  0.58807168  -0.00828140  -0.00083883  1
  Zr  Zr51  1  0.00579721  -0.00586559  0.01008627  1
  Zr  Zr52  1  0.37436815  0.79162471  0.75552441  1
  Zr  Zr53  1  0.80130916  0.00846785  0.50381908  1
  Zr  Zr54  1  0.40339872  -0.01235894  0.73491295  1
  Zr  Zr55  1  -0.00077474  0.40747876  0.74135757  1
  Zr  Zr56  1  0.20641169  0.20415107  0.49775708  1
  Zr  Zr57  1  0.91019289  0.69984920  0.62294193  1
  Zr  Zr58  1  -0.00211638  0.80935487  0.23505372  1
  Zr  Zr59  1  0.68959322  0.90066718  0.86174964  1
  Zr  Zr60  1  0.80135860  0.59077358  0.49105892  1
  Zr  Zr61  1  0.10315262  0.50272593  0.38088693  1
  Zr  Zr62  1  0.80997740  0.00030560  0.25241130  1
  Zr  Zr63  1  0.79827049  0.37547929  0.76216560  1
  Zr  Zr64  1  0.60621243  0.59085064  0.48785911  1
  Zr  Zr65  1  0.28176906  0.91018858  0.11961015  1
  Zr  Zr66  1  0.70667953  0.29067993  0.13147752  1
  Zr  Zr67  1  0.00551049  0.40728781  0.24427692  1
  Zr  Zr68  1  0.12006880  0.09034173  0.12917531  1
  Zr  Zr69  1  -0.01449620  0.79231298  0.01050645  1
  Zr  Zr70  1  0.80078052  0.58791468  0.75532033  1
  Zr  Zr71  1  0.40573597  0.81060097  0.00119012  1
  Zr  Zr72  1  0.90073031  0.50010907  0.88809927  1
  Zr  Zr73  1  0.11305916  0.29754176  0.14044480  1
  Zr  Zr74  1  0.79890325  0.79994574  0.51132072  1
  Zr  Zr75  1  0.69865951  0.51632323  0.11341138  1
  Zr  Zr76  1  0.21386856  0.18943526  -0.00552437  1
  Zr  Zr77  1  0.00215290  0.61431834  0.75268954  1
  Zr  Zr78  1  0.69974371  0.71196721  0.11855970  1
  Zr  Zr79  1  0.39053325  0.02071584  -0.00086046  1
  Ta  Ta80  1  -0.00588081  0.19829915  0.50397977  1
  Ta  Ta81  1  0.10894960  0.30678253  0.62221280  1
  Ta  Ta82  1  0.60163090  0.79541434  -0.00151570  1
  Ta  Ta83  1  0.69626227  0.48047694  0.62679354  1
  Ta  Ta84  1  0.48855523  0.29258581  0.35634465  1
  Ta  Ta85  1  0.90619462  0.09912024  0.37964521  1
  Ta  Ta86  1  0.89355302  0.89865849  0.87064615  1
  Ta  Ta87  1  0.00056392  0.60294482  0.24928142  1
  Ta  Ta88  1  0.20550348  0.40086239  0.74791611  1
  Ta  Ta89  1  0.59339468  0.39660543  0.02124725  1
  Ta  Ta90  1  0.90975293  0.90659486  0.37860550  1
  Ta  Ta91  1  0.00641716  0.40072573  0.01392551  1
  Ta  Ta92  1  0.58730001  0.20043872  0.01713713  1
  Ta  Ta93  1  0.80683622  0.79770422  0.74982492  1
  Ta  Ta94  1  0.10233171  0.70155949  0.89142293  1
  Ta  Ta95  1  0.50124092  0.48931200  0.36765183  1
  Ta  Ta96  1  0.48293340  0.68359103  0.37911489  1
  Ta  Ta97  1  0.69323799  0.49478073  0.89283772  1
  Ta  Ta98  1  0.58398480  0.18663272  0.23726383  1
  Ta  Ta99  1  0.10597491  0.10166716  0.87031434  1
  Ta  Ta100  1  0.90315830  0.50807900  0.12119266  1
  Ta  Ta101  1  0.00070242  -0.00075540  0.50882631  1
  Ta  Ta102  1  0.10004434  0.09317432  0.37729765  1
  Ta  Ta103  1  0.50670166  0.89589712  0.13045760  1
  Ta  Ta104  1  0.40590584  0.00653053  0.25197759  1
  Ta  Ta105  1  0.90070897  0.29910945  0.11793006  1
  Ta  Ta106  1  0.39971682  -0.00159962  0.50790674  1
  Ta  Ta107  1  0.09907624  0.71048587  0.37728203  1
  Ta  Ta108  1  0.31218895  0.10233913  0.37513582  1
  Ta  Ta109  1  0.21552453  0.61263468  0.48172634  1
  Ta  Ta110  1  0.70384396  0.69508889  0.87301519  1
  Ta  Ta111  1  0.00540936  0.61380025  0.49520075  1
  Ta  Ta112  1  0.90702848  0.90643897  0.63306938  1
  Ta  Ta113  1  0.89072456  0.69470279  0.13358397  1
  Ta  Ta114  1  0.69200200  0.89758620  0.63159008  1
  Ta  Ta115  1  0.28963946  0.68976565  0.61609409  1
  Ta  Ta116  1  0.58367841  0.41029876  0.23021726  1
  Ta  Ta117  1  0.78798142  0.39588559  0.49009168  1
  Ta  Ta118  1  0.28593990  0.89661178  0.88339580  1
  Ta  Ta119  1  0.58604268  0.00769652  0.73534821  1
  Ti  Ti120  1  0.72232670  0.29860799  0.61652205  1
  Ti  Ti121  1  0.30496410  0.30761828  0.62710238  1
  Ti  Ti122  1  0.80877196  0.61719927  -0.00926841  1
  Ti  Ti123  1  0.41122255  0.39467795  0.74551523  1
  Ti  Ti124  1  0.89106229  0.12001512  0.62229852  1
  Ti  Ti125  1  0.01016674  0.20918224  0.00051852  1
  Ti  Ti126  1  0.40744669  0.20867867  0.00982488  1
  Ti  Ti127  1  0.89016444  0.49217587  0.61948637  1
  Ti  Ti128  1  0.21242949  0.40075739  0.48828060  1
  Ti  Ti129  1  0.48929819  0.90569264  0.87072030  1
  Ti  Ti130  1  0.38369715  0.78767986  0.49185085  1
  Ti  Ti131  1  0.30019090  0.09458535  0.85969759  1
  Ti  Ti132  1  0.40096262  0.39846723  0.48745494  1
  Ti  Ti133  1  0.79383804  0.80969022  -0.01061911  1
  Ti  Ti134  1  0.00722412  -0.00430898  0.24065827  1
  Ti  Ti135  1  0.70658294  0.10902971  0.36872227  1
  Ti  Ti136  1  0.21487050  0.40553944  0.26773194  1
  Ti  Ti137  1  0.80570946  0.39869508  0.00611300  1
  Ti  Ti138  1  0.59792856  0.38986457  0.48936963  1
  Ti  Ti139  1  0.60734983  0.20265272  0.48986113  1
  Ti  Ti140  1  -0.00657375  0.00287699  0.75091577  1
  Ti  Ti141  1  0.70942638  0.29863302  0.89923879  1
  Ti  Ti142  1  0.40592531  0.39595776  0.01314729  1
  Ti  Ti143  1  0.20515783  0.00168586  0.26021442  1
  Ti  Ti144  1  0.60208101  0.58573585  0.75397118  1
  Ti  Ti145  1  0.28863955  0.69983659  0.90172504  1
  Ti  Ti146  1  0.49596770  0.10351344  0.87107964  1
  Ti  Ti147  1  0.10874822  0.72569999  0.60985349  1
  Ti  Ti148  1  0.19517767  0.20799616  0.74937463  1
  Ti  Ti149  1  0.59447511  0.79691438  0.50041232  1
  Ti  Ti150  1  0.29529186  0.90198229  0.38077983  1
  Ti  Ti151  1  0.00429525  0.59435388  0.00801324  1
  Ti  Ti152  1  0.19763278  0.80624438  0.25078415  1
  Ti  Ti153  1  0.90061316  0.50302095  0.37381124  1
  Ti  Ti154  1  0.09417422  0.30085801  0.87281032  1
  Ti  Ti155  1  0.30876799  0.10642477  0.14198277  1
  Ti  Ti156  1  0.87231702  0.89786218  0.12091860  1
  Ti  Ti157  1  0.19893806  -0.00189753  0.50107967  1
  Ti  Ti158  1  0.00973685  0.80592254  0.75115888  1
  Ti  Ti159  1  0.52535795  0.30103927  0.62392987  1
  Mo  Mo160  1  0.30176924  0.71329866  0.37072725  1
  Mo  Mo161  1  0.41722471  0.59782751  0.24572638  1
  Mo  Mo162  1  0.49113370  0.51452665  0.11738433  1
  Mo  Mo163  1  0.49750004  0.89250861  0.60563948  1
  Mo  Mo164  1  0.90002134  0.71323935  0.87299502  1
  Mo  Mo165  1  0.40412794  0.59474257  0.00318220  1
  Mo  Mo166  1  0.60491787  0.40528444  0.75040254  1
  Mo  Mo167  1  0.49203232  0.09766984  0.12720225  1
  Mo  Mo168  1  0.39713435  0.41063169  0.25426373  1
  Mo  Mo169  1  0.59032331  0.59434317  0.25662810  1
  Mo  Mo170  1  0.19682404  0.80255473  0.49202027  1
  Mo  Mo171  1  0.50658108  0.10411804  0.61565672  1
  Mo  Mo172  1  0.09015239  0.90088987  0.62311547  1
  Mo  Mo173  1  0.79807684  -0.01216738  -0.00564933  1
  Mo  Mo174  1  0.18652139  0.78949051  0.75478553  1
  Mo  Mo175  1  0.40149322  0.19332521  0.25805799  1
  Mo  Mo176  1  0.19223244  0.80460770  0.00215463  1
  Mo  Mo177  1  0.49527579  0.30236229  0.13504731  1
  Mo  Mo178  1  0.50441390  0.68948233  0.11557020  1
  Mo  Mo179  1  0.19955065  0.00459006  -0.01444630  1
  Mo  Mo180  1  0.90379587  0.30168776  0.90434518  1
  Mo  Mo181  1  0.31785793  0.50769132  0.38073169  1
  Mo  Mo182  1  0.20594401  0.18890571  0.26857125  1
  Mo  Mo183  1  0.09892696  0.50385567  0.13276503  1
  Mo  Mo184  1  0.79966976  0.20484207  0.49171945  1
  Mo  Mo185  1  0.79869793  0.19290170  0.24998662  1
  Mo  Mo186  1  0.68832956  0.69904661  0.38149993  1
  Mo  Mo187  1  0.10316318  0.89699290  0.12734300  1
  Mo  Mo188  1  0.60701472  0.60248449  -0.00707676  1
  Mo  Mo189  1  0.69818427  0.89528537  0.12203336  1
  Mo  Mo190  1  0.80430215  0.20153757  0.75503216  1
  Mo  Mo191  1  0.79623500  0.20447269  0.00298501  1
  Mo  Mo192  1  0.80153860  0.80449355  0.25057047  1
  Mo  Mo193  1  0.19524200  0.59716242  -0.00052732  1
  Mo  Mo194  1  -0.00036187  0.80815016  0.50123070  1
  Mo  Mo195  1  0.39898733  0.59185742  0.49662544  1
  Mo  Mo196  1  0.30539999  0.30664560  0.36702577  1
  Mo  Mo197  1  0.69392370  0.48885195  0.36751405  1
  Mo  Mo198  1  0.50532815  0.10029946  0.37641962  1
  Mo  Mo199  1  0.89869945  0.30249415  0.61319639  1
