# generated using pymatgen
data_HfZrTaTiMo
_symmetry_space_group_name_H-M   'P 1'
_cell_length_a   15.20178855
_cell_length_b   15.21664011
_cell_length_c   16.85824920
_cell_angle_alpha   89.97091227
_cell_angle_beta   90.02874706
_cell_angle_gamma   89.99139651
_symmetry_Int_Tables_number   1
_chemical_formula_structural   HfZrTaTiMo
_chemical_formula_sum   'Hf40 Zr40 Ta40 Ti40 Mo40'
_cell_volume   3899.65161735
_cell_formula_units_Z   40
loop_
 _symmetry_equiv_pos_site_id
 _symmetry_equiv_pos_as_xyz
  1  'x, y, z'
loop_
 _atom_site_type_symbol
 _atom_site_label
 _atom_site_symmetry_multiplicity
 _atom_site_fract_x
 _atom_site_fract_y
 _atom_site_fract_z
 _atom_site_occupancy
  Hf  Hf0  1  -0.00519277  0.00364190  0.26312253  1
  Hf  Hf1  1  0.57828207  0.60934418  -0.01115353  1
  Hf  Hf2  1  0.51576386  0.31261341  0.37470609  1
  Hf  Hf3  1  0.38868704  0.81352699  0.74201007  1
  Hf  Hf4  1  0.02442038  0.00004598  0.74767078  1
  Hf  Hf5  1  0.90976184  0.09300637  0.12639958  1
  Hf  Hf6  1  0.49057335  0.71036539  0.37944823  1
  Hf  Hf7  1  0.50323991  0.10519988  0.13191635  1
  Hf  Hf8  1  0.90482152  0.50964350  0.64004780  1
  Hf  Hf9  1  0.68730118  0.49418709  0.39116920  1
  Hf  Hf10  1  0.81388911  0.19588656  -0.01456676  1
  Hf  Hf11  1  0.59090655  0.81107873  0.23900237  1
  Hf  Hf12  1  0.09339639  0.48559856  0.12586167  1
  Hf  Hf13  1  0.81400845  -0.00137927  -0.01410116  1
  Hf  Hf14  1  0.60399161  0.19704452  -0.00506608  1
  Hf  Hf15  1  0.70728381  0.90023288  0.61967087  1
  Hf  Hf16  1  0.89383884  0.49805939  0.12782046  1
  Hf  Hf17  1  0.10166759  0.48602811  0.87969570  1
  Hf  Hf18  1  0.90682154  0.71018531  0.11121436  1
  Hf  Hf19  1  0.81788977  0.18904818  0.26725043  1
  Hf  Hf20  1  0.20019476  0.78176036  0.24383778  1
  Hf  Hf21  1  0.69377174  0.08822524  0.85896876  1
  Hf  Hf22  1  0.20913761  0.19148779  0.25456360  1
  Hf  Hf23  1  0.48856683  0.49234071  0.62347455  1
  Hf  Hf24  1  0.80606187  0.20280413  0.49265964  1
  Hf  Hf25  1  0.50769670  0.10203158  0.36832236  1
  Hf  Hf26  1  0.20648573  0.39512346  0.74300444  1
  Hf  Hf27  1  0.09836044  0.69724089  0.39002094  1
  Hf  Hf28  1  0.58660700  0.58943221  0.25429790  1
  Hf  Hf29  1  -0.03973677  0.59822741  0.48665560  1
  Hf  Hf30  1  0.90178793  0.30067157  0.62118426  1
  Hf  Hf31  1  0.39663680  0.81480655  0.51772758  1
  Hf  Hf32  1  0.71166717  0.08621912  0.38692537  1
  Hf  Hf33  1  0.00128354  0.00379424  0.49579597  1
  Hf  Hf34  1  0.68624068  0.50060322  0.11999059  1
  Hf  Hf35  1  0.18564340  0.18456844  0.75629511  1
  Hf  Hf36  1  0.91000573  0.30245130  0.12924525  1
  Hf  Hf37  1  0.69745487  0.51133548  0.86218171  1
  Hf  Hf38  1  0.62066370  0.21335004  0.25373486  1
  Hf  Hf39  1  0.59512446  0.40569895  -0.01945719  1
  Zr  Zr40  1  0.12155348  0.09401894  0.61210665  1
  Zr  Zr41  1  0.30302745  0.28806043  0.62303094  1
  Zr  Zr42  1  0.79605047  0.81963534  0.24099816  1
  Zr  Zr43  1  0.88651073  0.90615160  0.39004902  1
  Zr  Zr44  1  0.59491927  -0.00111606  0.00599216  1
  Zr  Zr45  1  0.68908215  0.89694993  0.39708371  1
  Zr  Zr46  1  0.78366969  0.39728691  0.26292218  1
  Zr  Zr47  1  0.47742770  0.50967603  0.12359268  1
  Zr  Zr48  1  0.08912142  0.90056428  0.12060180  1
  Zr  Zr49  1  0.21502359  0.58483514  -0.00044530  1
  Zr  Zr50  1  0.30228239  0.89599852  0.36615729  1
  Zr  Zr51  1  0.69494857  0.70289781  0.38465429  1
  Zr  Zr52  1  0.69186002  0.70783119  0.86273162  1
  Zr  Zr53  1  0.08954154  0.69508298  0.88530259  1
  Zr  Zr54  1  0.38850951  0.59685895  0.50938113  1
  Zr  Zr55  1  0.30334303  0.30490089  0.12304741  1
  Zr  Zr56  1  0.28315866  0.70398364  0.62327478  1
  Zr  Zr57  1  0.79771214  0.61134689  0.25350078  1
  Zr  Zr58  1  0.79744698  0.39246376  0.75666244  1
  Zr  Zr59  1  0.01343173  0.20667582  0.48957450  1
  Zr  Zr60  1  -0.00520101  0.79778703  0.25674703  1
  Zr  Zr61  1  0.70820266  0.29796584  0.11644778  1
  Zr  Zr62  1  0.09829109  0.28231002  0.12350181  1
  Zr  Zr63  1  0.50123499  0.92386149  0.85953471  1
  Zr  Zr64  1  0.00839310  0.38390457  0.75192195  1
  Zr  Zr65  1  0.29918358  0.69539939  0.87073761  1
  Zr  Zr66  1  0.89551181  0.71187075  0.87511482  1
  Zr  Zr67  1  0.58960565  0.19222110  0.74739602  1
  Zr  Zr68  1  0.28475356  0.29360181  0.88038494  1
  Zr  Zr69  1  0.50265105  0.31478065  0.12799633  1
  Zr  Zr70  1  0.81316500  0.40478854  -0.01714699  1
  Zr  Zr71  1  0.07755309  0.69721232  0.61143024  1
  Zr  Zr72  1  0.00186419  0.59511565  0.25723659  1
  Zr  Zr73  1  0.70342616  0.49620589  0.62457643  1
  Zr  Zr74  1  0.48662002  0.71052152  0.12891152  1
  Zr  Zr75  1  0.38720522  0.42678079  -0.02087777  1
  Zr  Zr76  1  0.09006293  0.48394388  0.38166467  1
  Zr  Zr77  1  0.18146115  0.80523383  0.75129686  1
  Zr  Zr78  1  0.40858896  0.80936088  -0.00904639  1
  Zr  Zr79  1  0.50161786  0.90790135  0.38400510  1
  Ta  Ta80  1  0.49258149  0.29405628  0.87430310  1
  Ta  Ta81  1  0.39198521  0.39210504  0.49539471  1
  Ta  Ta82  1  0.90985633  0.89744468  0.61678420  1
  Ta  Ta83  1  0.81988767  -0.00449960  0.75232776  1
  Ta  Ta84  1  0.70614579  0.89644630  0.86430667  1
  Ta  Ta85  1  0.38718939  0.59148163  0.74015337  1
  Ta  Ta86  1  0.07775672  0.27156955  0.88896520  1
  Ta  Ta87  1  0.28969142  0.90681317  0.88101346  1
  Ta  Ta88  1  -0.00977208  0.81004083  0.74915208  1
  Ta  Ta89  1  0.11940361  0.08985378  0.37932664  1
  Ta  Ta90  1  0.60901430  0.80726122  0.00228399  1
  Ta  Ta91  1  0.90606156  0.09981958  0.62977256  1
  Ta  Ta92  1  0.19096357  0.17328997  0.00222745  1
  Ta  Ta93  1  0.19836913  0.79912495  0.00591992  1
  Ta  Ta94  1  0.10226890  0.68874869  0.11320963  1
  Ta  Ta95  1  0.31262110  0.89076557  0.12925476  1
  Ta  Ta96  1  0.58903986  0.39742236  0.75496100  1
  Ta  Ta97  1  0.40033855  0.39742637  0.75785809  1
  Ta  Ta98  1  0.39924063  0.41260943  0.26304874  1
  Ta  Ta99  1  0.48978336  0.92378488  0.63287966  1
  Ta  Ta100  1  0.29145690  0.69660487  0.38503824  1
  Ta  Ta101  1  0.88764504  0.69982046  0.63986677  1
  Ta  Ta102  1  0.31170584  0.08915999  0.87982139  1
  Ta  Ta103  1  0.61845735  0.00519269  0.23974091  1
  Ta  Ta104  1  0.49855492  0.29682879  0.62350237  1
  Ta  Ta105  1  0.79123024  0.60669917  -0.00189425  1
  Ta  Ta106  1  0.58765405  0.60325839  0.73680754  1
  Ta  Ta107  1  0.10607083  0.89438185  0.38594059  1
  Ta  Ta108  1  0.59209413  0.01369943  0.52002612  1
  Ta  Ta109  1  0.41008734  -0.00863209  0.23932659  1
  Ta  Ta110  1  0.91722757  0.32077230  0.37584911  1
  Ta  Ta111  1  0.79971539  0.80878509  0.00062532  1
  Ta  Ta112  1  0.39894902  0.19117086  -0.00031242  1
  Ta  Ta113  1  0.80844069  0.78229755  0.50801399  1
  Ta  Ta114  1  0.71097360  0.10159448  0.63157276  1
  Ta  Ta115  1  0.90586373  0.51474581  0.86022567  1
  Ta  Ta116  1  0.18666661  0.58948236  0.74240084  1
  Ta  Ta117  1  0.59177814  0.61361374  0.51717445  1
  Ta  Ta118  1  0.69826413  0.29472820  0.86878163  1
  Ta  Ta119  1  0.22465990  0.19343234  0.48538938  1
  Ti  Ti120  1  0.48978273  0.50632865  0.38740933  1
  Ti  Ti121  1  0.69706938  0.70188501  0.11839958  1
  Ti  Ti122  1  0.10191051  0.29362309  0.61607909  1
  Ti  Ti123  1  0.09564444  0.49083749  0.61583135  1
  Ti  Ti124  1  0.29023845  0.50480627  0.13913516  1
  Ti  Ti125  1  0.32528062  0.08764232  0.62109325  1
  Ti  Ti126  1  0.30060842  0.69232161  0.12013550  1
  Ti  Ti127  1  0.37831743  0.61065672  0.26092189  1
  Ti  Ti128  1  0.39401817  0.19455629  0.75372356  1
  Ti  Ti129  1  0.79936458  0.80607118  0.74707853  1
  Ti  Ti130  1  0.21041729  -0.00727031  0.00919586  1
  Ti  Ti131  1  0.30805095  0.30164765  0.37308366  1
  Ti  Ti132  1  0.41359964  0.19414329  0.49556690  1
  Ti  Ti133  1  0.20157699  0.39386210  0.50394275  1
  Ti  Ti134  1  0.09226933  0.89929179  0.88826719  1
  Ti  Ti135  1  0.19767858  0.40115557  0.25374826  1
  Ti  Ti136  1  0.81473405  0.19678085  0.75820789  1
  Ti  Ti137  1  -0.00837703  0.58599665  0.00041854  1
  Ti  Ti138  1  0.40416272  0.20630422  0.25076001  1
  Ti  Ti139  1  0.69747864  0.69812471  0.62993444  1
  Ti  Ti140  1  0.22318167  -0.00748439  0.74656310  1
  Ti  Ti141  1  0.60020494  0.39330001  0.50950898  1
  Ti  Ti142  1  0.93268071  0.10808668  0.86571855  1
  Ti  Ti143  1  0.11012539  0.89037571  0.60532034  1
  Ti  Ti144  1  0.01459272  0.01359734  -0.00471020  1
  Ti  Ti145  1  0.20107855  -0.00550445  0.24547364  1
  Ti  Ti146  1  0.11482950  0.29899898  0.37557010  1
  Ti  Ti147  1  0.31490978  0.09344953  0.36906584  1
  Ti  Ti148  1  0.71037664  0.91621336  0.11839214  1
  Ti  Ti149  1  0.69966560  0.29617033  0.62999961  1
  Ti  Ti150  1  0.19489060  0.58790857  0.50754187  1
  Ti  Ti151  1  0.81618009  0.41154587  0.49356083  1
  Ti  Ti152  1  0.60684287  0.20445867  0.50571590  1
  Ti  Ti153  1  0.22393334  -0.00906794  0.49707982  1
  Ti  Ti154  1  0.18819663  0.38561511  0.00059385  1
  Ti  Ti155  1  0.59422293  0.80699002  0.73402560  1
  Ti  Ti156  1  0.49632645  0.70351898  0.85834992  1
  Ti  Ti157  1  0.29000567  0.50027449  0.37423346  1
  Ti  Ti158  1  0.30020844  0.09380838  0.12672162  1
  Ti  Ti159  1  0.01369063  0.19841000  0.26583201  1
  Mo  Mo160  1  0.78338938  0.59873568  0.50655114  1
  Mo  Mo161  1  0.29390070  0.50055398  0.86156060  1
  Mo  Mo162  1  0.28864843  0.49150090  0.62327533  1
  Mo  Mo163  1  0.79711096  0.00270759  0.24620860  1
  Mo  Mo164  1  -0.00059390  0.19026226  0.74363695  1
  Mo  Mo165  1  0.90058654  0.29775426  0.87128316  1
  Mo  Mo166  1  0.88862262  0.70582440  0.37590477  1
  Mo  Mo167  1  0.50341640  0.90608304  0.12534048  1
  Mo  Mo168  1  0.49896241  0.70747566  0.63414152  1
  Mo  Mo169  1  0.20413025  0.59267654  0.25001297  1
  Mo  Mo170  1  -0.00153160  0.81227066  0.00005972  1
  Mo  Mo171  1  0.71186764  0.10015786  0.12840046  1
  Mo  Mo172  1  0.40299706  0.01513979  0.74992761  1
  Mo  Mo173  1  0.90429296  0.90633176  0.86909770  1
  Mo  Mo174  1  0.00262485  0.38625306  0.25358338  1
  Mo  Mo175  1  0.70607548  0.30095517  0.39265812  1
  Mo  Mo176  1  0.38976202  0.00686299  0.01206379  1
  Mo  Mo177  1  0.50260650  0.11354412  0.62106249  1
  Mo  Mo178  1  0.19824492  0.80059676  0.49721488  1
  Mo  Mo179  1  0.91295810  0.10508305  0.37588687  1
  Mo  Mo180  1  0.58986213  0.40760698  0.25860820  1
  Mo  Mo181  1  0.49344663  0.10741308  0.87795305  1
  Mo  Mo182  1  0.80396213  0.00541076  0.51893381  1
  Mo  Mo183  1  0.79782719  0.60839699  0.74993597  1
  Mo  Mo184  1  0.88814235  0.50074247  0.37060129  1
  Mo  Mo185  1  -0.00026797  0.18752131  0.00236465  1
  Mo  Mo186  1  0.00585406  0.60437179  0.75066607  1
  Mo  Mo187  1  -0.00482727  0.80002245  0.49921054  1
  Mo  Mo188  1  0.39983219  0.01717330  0.49644645  1
  Mo  Mo189  1  0.39803675  0.61316106  -0.01029258  1
  Mo  Mo190  1  0.00428559  0.40162251  0.50890612  1
  Mo  Mo191  1  0.89827244  0.90325210  0.11692884  1
  Mo  Mo192  1  -0.00295485  0.39608134  -0.00921726  1
  Mo  Mo193  1  0.49385769  0.51074107  0.85403550  1
  Mo  Mo194  1  0.59234864  0.79910178  0.52785008  1
  Mo  Mo195  1  0.60975502  -0.00186580  0.73356122  1
  Mo  Mo196  1  0.29137184  0.91378215  0.62340407  1
  Mo  Mo197  1  0.11150192  0.09218905  0.13253564  1
  Mo  Mo198  1  0.12108534  0.08097643  0.87692493  1
  Mo  Mo199  1  0.39282763  0.79849766  0.25064305  1
