# generated using pymatgen
data_HfZrTaTiMo
_symmetry_space_group_name_H-M   'P 1'
_cell_length_a   15.20745991
_cell_length_b   15.20920051
_cell_length_c   16.81850723
_cell_angle_alpha   90.03671344
_cell_angle_beta   89.95416444
_cell_angle_gamma   89.89543062
_symmetry_Int_Tables_number   1
_chemical_formula_structural   HfZrTaTiMo
_chemical_formula_sum   'Hf40 Zr40 Ta40 Ti40 Mo40'
_cell_volume   3889.99963081
_cell_formula_units_Z   40
loop_
 _symmetry_equiv_pos_site_id
 _symmetry_equiv_pos_as_xyz
  1  'x, y, z'
loop_
 _atom_site_type_symbol
 _atom_site_label
 _atom_site_symmetry_multiplicity
 _atom_site_fract_x
 _atom_site_fract_y
 _atom_site_fract_z
 _atom_site_occupancy
  Hf  Hf0  1  0.91183116  0.29444798  0.86451450  1
  Hf  Hf1  1  0.57967131  0.40279994  0.75434592  1
  Hf  Hf2  1  0.58683610  0.00227718  0.24562721  1
  Hf  Hf3  1  0.09096774  0.50935943  0.13902019  1
  Hf  Hf4  1  -0.00773074  0.80625043  0.76601355  1
  Hf  Hf5  1  0.19815598  0.00668511  0.74718208  1
  Hf  Hf6  1  0.08746518  0.70419794  0.62580235  1
  Hf  Hf7  1  0.70868084  0.89919035  0.62759787  1
  Hf  Hf8  1  0.30562939  0.09539545  0.36887551  1
  Hf  Hf9  1  0.40767799  0.18939103  0.24017988  1
  Hf  Hf10  1  0.20340584  0.39321017  0.49683404  1
  Hf  Hf11  1  0.21275958  0.38761331  0.73803822  1
  Hf  Hf12  1  0.79949664  0.39635412  0.50822657  1
  Hf  Hf13  1  0.42324683  0.59952891  0.26965512  1
  Hf  Hf14  1  0.59542572  0.80475871  0.48889906  1
  Hf  Hf15  1  0.69114627  0.69320878  0.62016876  1
  Hf  Hf16  1  0.69500862  0.51776057  0.12838056  1
  Hf  Hf17  1  0.59454809  0.79595411  0.75341853  1
  Hf  Hf18  1  0.62179819  0.20365433  0.51514486  1
  Hf  Hf19  1  0.09283662  0.50340519  0.37212469  1
  Hf  Hf20  1  0.19881217  0.39340880  0.24651985  1
  Hf  Hf21  1  0.69417069  0.29712571  0.87283049  1
  Hf  Hf22  1  0.80122100  0.18101709  0.73561905  1
  Hf  Hf23  1  0.58265358  0.79341332  0.25909162  1
  Hf  Hf24  1  0.59623855  0.20225611  0.73856562  1
  Hf  Hf25  1  0.01057552  0.20574432  0.23948129  1
  Hf  Hf26  1  0.59414131  0.20058580  0.00400290  1
  Hf  Hf27  1  0.59191460  0.00213714  0.49803898  1
  Hf  Hf28  1  0.90565244  0.49878716  0.62973560  1
  Hf  Hf29  1  0.90347846  0.88571316  0.36891901  1
  Hf  Hf30  1  0.91323865  0.89409659  0.62230162  1
  Hf  Hf31  1  0.30729172  0.51319697  0.13034607  1
  Hf  Hf32  1  0.71596178  0.29941421  0.36995854  1
  Hf  Hf33  1  0.39930306  0.59668192  0.74801371  1
  Hf  Hf34  1  0.01219665  0.20243170  0.74011895  1
  Hf  Hf35  1  0.79473349  0.00258494  0.49334618  1
  Hf  Hf36  1  0.37765172  0.79573813  0.24178502  1
  Hf  Hf37  1  0.11153039  0.09700388  0.37126087  1
  Hf  Hf38  1  0.88815811  0.50616967  0.85898714  1
  Hf  Hf39  1  0.20305873  0.79524203  0.74831317  1
  Zr  Zr40  1  -0.01934793  0.00579318  -0.00744448  1
  Zr  Zr41  1  0.60315583  0.59355957  0.76095370  1
  Zr  Zr42  1  0.70119037  0.10203118  0.13598467  1
  Zr  Zr43  1  0.50036351  0.68757680  0.11430781  1
  Zr  Zr44  1  0.00477069  0.58948125  -0.01189107  1
  Zr  Zr45  1  0.01655984  -0.01633454  0.49228686  1
  Zr  Zr46  1  0.80428743  0.58441752  0.27162553  1
  Zr  Zr47  1  0.48889017  0.31724062  0.61703983  1
  Zr  Zr48  1  0.80018914  0.62376848  -0.00428794  1
  Zr  Zr49  1  0.10647256  0.50321426  0.62344036  1
  Zr  Zr50  1  0.88442202  0.69479247  0.63609342  1
  Zr  Zr51  1  0.71876171  0.08696375  0.88175753  1
  Zr  Zr52  1  0.39639853  0.38820085  0.00978189  1
  Zr  Zr53  1  0.21206449  0.21282371  0.02096302  1
  Zr  Zr54  1  0.20508108  0.62303751  0.25302538  1
  Zr  Zr55  1  0.78687673  0.39568090  0.73802360  1
  Zr  Zr56  1  0.20057214  0.00765880  0.00318612  1
  Zr  Zr57  1  0.89399070  0.49200562  0.12555898  1
  Zr  Zr58  1  0.89567485  0.70050230  0.14197598  1
  Zr  Zr59  1  0.10159744  0.71211125  0.12179568  1
  Zr  Zr60  1  0.31034781  0.91166284  0.87775649  1
  Zr  Zr61  1  0.50652050  0.49414626  0.12294908  1
  Zr  Zr62  1  -0.02133349  0.79550303  -0.01597248  1
  Zr  Zr63  1  0.40286928  0.19881692  0.49902956  1
  Zr  Zr64  1  0.01103271  0.20927627  0.01053222  1
  Zr  Zr65  1  0.28603012  0.50400593  0.87557495  1
  Zr  Zr66  1  0.48707869  0.10453467  0.87858935  1
  Zr  Zr67  1  0.79542400  0.40635307  -0.00969817  1
  Zr  Zr68  1  0.31483777  0.29734339  0.87535996  1
  Zr  Zr69  1  0.19960740  -0.00862745  0.23378496  1
  Zr  Zr70  1  0.11104099  0.68447580  0.87146120  1
  Zr  Zr71  1  0.60136051  0.42285553  0.27358291  1
  Zr  Zr72  1  0.29224481  0.70815153  0.38741203  1
  Zr  Zr73  1  0.81343947  0.19398533  0.00913113  1
  Zr  Zr74  1  0.69875723  0.10615761  0.36095434  1
  Zr  Zr75  1  0.70765642  0.31645171  0.13732747  1
  Zr  Zr76  1  0.40133876  0.80454455  0.74638550  1
  Zr  Zr77  1  0.90366376  0.10804044  0.37390094  1
  Zr  Zr78  1  0.18341469  0.81512320  0.51596747  1
  Zr  Zr79  1  0.60317751  0.00134204  0.75101083  1
  Ta  Ta80  1  0.00287107  -0.00839907  0.24864360  1
  Ta  Ta81  1  0.28595778  0.90442723  0.37612332  1
  Ta  Ta82  1  0.91437339  0.30456945  0.38907164  1
  Ta  Ta83  1  0.89221589  0.89564754  0.13310029  1
  Ta  Ta84  1  0.20614814  0.19402863  0.50969349  1
  Ta  Ta85  1  0.10047234  0.11071489  0.87226989  1
  Ta  Ta86  1  0.59925806  0.40541861  0.48983004  1
  Ta  Ta87  1  0.60429058  0.59149086  -0.01894003  1
  Ta  Ta88  1  -0.01045683  0.60519614  0.48997566  1
  Ta  Ta89  1  0.38737219  0.20971654  0.73568981  1
  Ta  Ta90  1  0.49842766  0.70042427  0.88727119  1
  Ta  Ta91  1  0.90075415  0.09440921  0.61330444  1
  Ta  Ta92  1  0.20827906  0.20220653  0.22965502  1
  Ta  Ta93  1  0.39794420  -0.01014882  0.23310814  1
  Ta  Ta94  1  0.49526127  0.09547981  0.62474370  1
  Ta  Ta95  1  0.49374846  0.69891830  0.61117036  1
  Ta  Ta96  1  0.30900902  0.69949989  0.88420661  1
  Ta  Ta97  1  0.30008310  0.49563757  0.37446250  1
  Ta  Ta98  1  0.70250325  0.70499974  0.36869436  1
  Ta  Ta99  1  0.39204010  0.80690895  0.50726091  1
  Ta  Ta100  1  0.39407053  -0.00374291  0.50519413  1
  Ta  Ta101  1  0.18690338  0.40477841  0.01215827  1
  Ta  Ta102  1  0.51169755  0.29547801  0.14116741  1
  Ta  Ta103  1  0.80553702  0.79150754  0.48991780  1
  Ta  Ta104  1  0.10071722  0.09296521  0.62364633  1
  Ta  Ta105  1  -0.01546885  0.40029430  0.25589539  1
  Ta  Ta106  1  0.39866667  0.80032807  0.00432782  1
  Ta  Ta107  1  0.50208510  0.51272258  0.60700701  1
  Ta  Ta108  1  0.01119197  0.20029611  0.50560680  1
  Ta  Ta109  1  0.61159771  0.79185171  -0.00064971  1
  Ta  Ta110  1  0.69875068  0.89197618  0.87771794  1
  Ta  Ta111  1  0.10386146  0.29381410  0.37756946  1
  Ta  Ta112  1  0.09820356  0.90902413  0.87549193  1
  Ta  Ta113  1  0.90852692  0.29742794  0.61758419  1
  Ta  Ta114  1  0.70338516  0.89183435  0.13225609  1
  Ta  Ta115  1  0.19697324  0.80174559  -0.01009753  1
  Ta  Ta116  1  0.00469730  0.59657237  0.75592889  1
  Ta  Ta117  1  -0.01060703  0.00931822  0.75736125  1
  Ta  Ta118  1  0.31485498  0.49292392  0.61801397  1
  Ta  Ta119  1  0.60516897  -0.00905071  0.00796251  1
  Ti  Ti120  1  0.50285877  0.89958712  0.88769316  1
  Ti  Ti121  1  0.50632831  0.29217448  0.37073433  1
  Ti  Ti122  1  0.19784012  0.59955177  0.49602097  1
  Ti  Ti123  1  0.87714346  0.90870189  0.87094784  1
  Ti  Ti124  1  0.40169002  0.01009729  0.74496341  1
  Ti  Ti125  1  0.47719965  0.90154217  0.37401599  1
  Ti  Ti126  1  0.50291503  0.89215040  0.11803714  1
  Ti  Ti127  1  0.09742069  0.09501199  0.12459829  1
  Ti  Ti128  1  0.69936778  0.70707159  0.13951223  1
  Ti  Ti129  1  0.00052158  0.39508149  0.00072361  1
  Ti  Ti130  1  0.59764741  0.60250670  0.47907285  1
  Ti  Ti131  1  0.90059923  0.09036697  0.13441198  1
  Ti  Ti132  1  0.39841039  0.60094904  0.49086210  1
  Ti  Ti133  1  0.00724225  0.79680809  0.25218474  1
  Ti  Ti134  1  0.59573260  0.39624663  -0.00850976  1
  Ti  Ti135  1  0.28816692  0.88765165  0.11451745  1
  Ti  Ti136  1  0.08553134  0.89877117  0.11404424  1
  Ti  Ti137  1  0.40388128  0.00405067  0.01855555  1
  Ti  Ti138  1  0.40292885  0.19427472  0.02434383  1
  Ti  Ti139  1  0.69299587  0.50154238  0.61635020  1
  Ti  Ti140  1  0.09469675  0.48144538  0.86073152  1
  Ti  Ti141  1  0.80405578  -0.00560890  0.25338764  1
  Ti  Ti142  1  0.20929078  0.60305966  0.00897441  1
  Ti  Ti143  1  0.48533185  0.48981069  0.88347448  1
  Ti  Ti144  1  0.29663308  0.68645550  0.61985090  1
  Ti  Ti145  1  0.79716728  0.59800414  0.48624063  1
  Ti  Ti146  1  0.29868844  0.29119555  0.36886475  1
  Ti  Ti147  1  0.30198993  0.90874018  0.62915665  1
  Ti  Ti148  1  0.11386340  0.29908510  0.86820908  1
  Ti  Ti149  1  0.29477818  0.10990506  0.87171131  1
  Ti  Ti150  1  0.71412120  0.70114085  0.86695028  1
  Ti  Ti151  1  0.39984269  0.40023100  0.48378592  1
  Ti  Ti152  1  0.49933016  0.89906082  0.62405571  1
  Ti  Ti153  1  0.40105808  0.39492565  0.25924015  1
  Ti  Ti154  1  0.08923222  0.71796716  0.37974011  1
  Ti  Ti155  1  0.20750237  0.00367509  0.51107071  1
  Ti  Ti156  1  0.69714203  0.90051599  0.36467122  1
  Ti  Ti157  1  0.50066924  0.09874752  0.37393123  1
  Ti  Ti158  1  0.10253972  0.30156361  0.62137906  1
  Ti  Ti159  1  0.81819323  0.21544002  0.24196591  1
  Mo  Mo160  1  0.70158276  0.50206304  0.39183836  1
  Mo  Mo161  1  0.20302053  0.19546062  0.74010884  1
  Mo  Mo162  1  0.20582807  0.59929579  0.74211527  1
  Mo  Mo163  1  0.29912793  0.70424282  0.10823263  1
  Mo  Mo164  1  0.49293997  0.49952172  0.39314396  1
  Mo  Mo165  1  0.18949225  0.81241605  0.24778486  1
  Mo  Mo166  1  0.70079148  0.30652837  0.62535488  1
  Mo  Mo167  1  0.59830256  0.20500416  0.25316843  1
  Mo  Mo168  1  0.60299388  0.60861419  0.26895019  1
  Mo  Mo169  1  0.30308730  0.09986077  0.62610671  1
  Mo  Mo170  1  0.10422237  0.89758112  0.36898350  1
  Mo  Mo171  1  0.90201426  0.49056796  0.38917658  1
  Mo  Mo172  1  0.79299856  0.80385877  0.25698592  1
  Mo  Mo173  1  0.40417510  0.40552090  0.74610874  1
  Mo  Mo174  1  0.00703918  0.39740031  0.49907486  1
  Mo  Mo175  1  0.79183806  0.81185943  0.00083796  1
  Mo  Mo176  1  0.90695521  0.09851754  0.87268540  1
  Mo  Mo177  1  0.90415445  0.30188070  0.12765158  1
  Mo  Mo178  1  0.49444213  0.70992195  0.39229301  1
  Mo  Mo179  1  0.80801103  0.39543418  0.26159681  1
  Mo  Mo180  1  -0.00870152  0.78950387  0.49773689  1
  Mo  Mo181  1  0.90473466  0.69523922  0.37024680  1
  Mo  Mo182  1  0.69067918  0.49993027  0.87553373  1
  Mo  Mo183  1  0.00586990  0.39609083  0.75046727  1
  Mo  Mo184  1  0.70284557  0.09603814  0.62374113  1
  Mo  Mo185  1  0.79655190  -0.01300069  0.00997144  1
  Mo  Mo186  1  0.31086999  0.30868723  0.13369757  1
  Mo  Mo187  1  0.49577961  0.29308865  0.87739967  1
  Mo  Mo188  1  0.30457108  0.09405887  0.12734876  1
  Mo  Mo189  1  0.79143260  0.80382106  0.75342600  1
  Mo  Mo190  1  0.29715803  0.30346671  0.61690831  1
  Mo  Mo191  1  0.09771958  0.90543307  0.63858581  1
  Mo  Mo192  1  0.40125543  0.59893186  -0.00810789  1
  Mo  Mo193  1  0.79477163  0.60125799  0.74862155  1
  Mo  Mo194  1  0.09884395  0.31534041  0.12916987  1
  Mo  Mo195  1  0.89198509  0.70522555  0.85723294  1
  Mo  Mo196  1  0.81133536  0.19822060  0.51218348  1
  Mo  Mo197  1  0.00168303  0.60368887  0.26854187  1
  Mo  Mo198  1  0.80875350  -0.00998819  0.74580089  1
  Mo  Mo199  1  0.50360971  0.08984581  0.11892690  1
