# generated using pymatgen
data_HfZrTaTiMo
_symmetry_space_group_name_H-M   'P 1'
_cell_length_a   15.20620558
_cell_length_b   15.20278668
_cell_length_c   16.85896385
_cell_angle_alpha   90.00644865
_cell_angle_beta   90.00934628
_cell_angle_gamma   90.02509680
_symmetry_Int_Tables_number   1
_chemical_formula_structural   HfZrTaTiMo
_chemical_formula_sum   'Hf40 Zr40 Ta40 Ti40 Mo40'
_cell_volume   3897.39916949
_cell_formula_units_Z   40
loop_
 _symmetry_equiv_pos_site_id
 _symmetry_equiv_pos_as_xyz
  1  'x, y, z'
loop_
 _atom_site_type_symbol
 _atom_site_label
 _atom_site_symmetry_multiplicity
 _atom_site_fract_x
 _atom_site_fract_y
 _atom_site_fract_z
 _atom_site_occupancy
  Hf  Hf0  1  0.01080428  0.37710748  -0.00460577  1
  Hf  Hf1  1  0.09920176  0.91906063  0.38766860  1
  Hf  Hf2  1  0.00798615  0.59101293  0.24793231  1
  Hf  Hf3  1  0.30275544  0.91042620  0.38569880  1
  Hf  Hf4  1  -0.00388323  0.80296655  0.26491856  1
  Hf  Hf5  1  0.60388471  0.18204872  0.75280830  1
  Hf  Hf6  1  0.70312943  0.49571171  0.37712010  1
  Hf  Hf7  1  0.08955265  0.70817489  0.61086173  1
  Hf  Hf8  1  0.80229204  0.20377421  0.74889752  1
  Hf  Hf9  1  0.69289335  0.69290480  0.37545992  1
  Hf  Hf10  1  0.70665502  0.68231643  0.64052956  1
  Hf  Hf11  1  0.70186975  0.50363168  0.85978169  1
  Hf  Hf12  1  0.79045615  0.79737204  0.25881765  1
  Hf  Hf13  1  0.00457311  0.21886166  0.25983962  1
  Hf  Hf14  1  0.09415343  0.32211991  0.39041715  1
  Hf  Hf15  1  0.90034163  0.09006412  0.62206020  1
  Hf  Hf16  1  0.50022814  0.28633748  0.62081812  1
  Hf  Hf17  1  0.91996214  0.09777274  0.86787483  1
  Hf  Hf18  1  0.40269426  0.20262756  0.47747592  1
  Hf  Hf19  1  0.69306161  0.90357709  0.87360384  1
  Hf  Hf20  1  0.90059896  0.70337245  0.12402203  1
  Hf  Hf21  1  0.09767727  0.50781275  0.87076386  1
  Hf  Hf22  1  0.21017928  0.20961740  0.50227660  1
  Hf  Hf23  1  0.91206656  0.88971921  0.62924286  1
  Hf  Hf24  1  0.10063874  0.12093590  0.12519756  1
  Hf  Hf25  1  0.29347045  0.90367443  0.87540980  1
  Hf  Hf26  1  0.50915798  0.09174813  0.88886139  1
  Hf  Hf27  1  0.60049647  0.59475910  0.51195802  1
  Hf  Hf28  1  0.69528679  0.89887660  0.11701646  1
  Hf  Hf29  1  0.80988751  0.40598059  -0.00833047  1
  Hf  Hf30  1  0.70793291  0.29851541  0.37179269  1
  Hf  Hf31  1  0.38903352  0.61223342  0.74421874  1
  Hf  Hf32  1  0.29015218  0.49601884  0.37831779  1
  Hf  Hf33  1  0.90100943  0.47414386  0.37692874  1
  Hf  Hf34  1  0.60741119  0.40365259  0.23613436  1
  Hf  Hf35  1  0.49128996  0.90161300  0.86105793  1
  Hf  Hf36  1  0.39646948  0.39756743  0.24537455  1
  Hf  Hf37  1  0.49545321  0.92883031  0.63446846  1
  Hf  Hf38  1  0.80538381  -0.00276764  -0.00024568  1
  Hf  Hf39  1  0.80331229  0.20753207  0.49906936  1
  Zr  Zr40  1  0.59815139  0.80744040  0.51281487  1
  Zr  Zr41  1  0.71065155  0.28444180  0.11971093  1
  Zr  Zr42  1  0.70461147  0.90127949  0.63780240  1
  Zr  Zr43  1  0.10052050  0.90594989  0.12532220  1
  Zr  Zr44  1  0.69849529  0.69694756  0.11879641  1
  Zr  Zr45  1  0.49587715  0.71242103  0.13248782  1
  Zr  Zr46  1  0.39421890  0.80203077  0.25704469  1
  Zr  Zr47  1  0.70781554  0.30317915  0.62192690  1
  Zr  Zr48  1  0.28779739  0.69550694  0.12526198  1
  Zr  Zr49  1  0.39080575  0.40199153  0.49234636  1
  Zr  Zr50  1  0.91398513  0.09231435  0.37808946  1
  Zr  Zr51  1  0.59435324  0.38674019  0.75708792  1
  Zr  Zr52  1  0.90129687  0.49046619  0.12426891  1
  Zr  Zr53  1  0.60560349  -0.00582338  0.24153171  1
  Zr  Zr54  1  0.11163339  0.29578613  0.86367235  1
  Zr  Zr55  1  0.40506511  0.20697661  0.77000752  1
  Zr  Zr56  1  0.00365953  0.20271394  0.50776966  1
  Zr  Zr57  1  0.49628523  0.49799262  0.63568446  1
  Zr  Zr58  1  0.18395001  0.40216726  0.24869538  1
  Zr  Zr59  1  0.29133530  0.50592811  0.88122201  1
  Zr  Zr60  1  0.80338774  0.00056755  0.75760940  1
  Zr  Zr61  1  0.32044458  0.09838579  0.62787638  1
  Zr  Zr62  1  0.40035587  0.40448845  0.00153714  1
  Zr  Zr63  1  0.79759367  -0.01720873  0.48659554  1
  Zr  Zr64  1  0.82229393  0.20011184  -0.00569418  1
  Zr  Zr65  1  -0.01055149  0.59915149  -0.00712357  1
  Zr  Zr66  1  0.40793241  -0.00955837  0.01498588  1
  Zr  Zr67  1  0.58498813  0.78762404  0.74153900  1
  Zr  Zr68  1  -0.01189250  0.79959474  0.48463927  1
  Zr  Zr69  1  0.38905035  0.20209916  -0.00310173  1
  Zr  Zr70  1  0.69144817  0.69702595  0.87170518  1
  Zr  Zr71  1  0.19351852  0.78919162  0.74835191  1
  Zr  Zr72  1  0.20458918  0.19627523  0.74227003  1
  Zr  Zr73  1  0.39424126  0.19693637  0.25113254  1
  Zr  Zr74  1  0.49392230  0.69827656  0.37534256  1
  Zr  Zr75  1  0.79769581  0.78070067  0.49694377  1
  Zr  Zr76  1  0.11535610  0.50202452  0.10670967  1
  Zr  Zr77  1  0.28674828  0.90323630  0.60997956  1
  Zr  Zr78  1  0.30221536  0.32166591  0.63061893  1
  Zr  Zr79  1  0.60695048  0.40893802  0.00786766  1
  Ta  Ta80  1  0.09835397  0.71154369  0.12789205  1
  Ta  Ta81  1  0.81448714  0.78760363  0.75692426  1
  Ta  Ta82  1  0.00386767  0.80787382  0.75853910  1
  Ta  Ta83  1  0.81556067  0.38328397  0.24393319  1
  Ta  Ta84  1  0.20034824  0.59365125  0.50841378  1
  Ta  Ta85  1  0.58216339  0.80999715  -0.00402945  1
  Ta  Ta86  1  0.60150850  0.39475565  0.49823229  1
  Ta  Ta87  1  0.40028528  0.80017983  0.50520484  1
  Ta  Ta88  1  0.40302297  -0.00018060  0.23834391  1
  Ta  Ta89  1  0.20008035  0.60864552  0.25746681  1
  Ta  Ta90  1  0.68435340  0.09237525  0.61548277  1
  Ta  Ta91  1  0.60263394  0.19621873  0.24820690  1
  Ta  Ta92  1  0.29456230  0.10020970  0.12485482  1
  Ta  Ta93  1  0.90080967  0.67297211  0.37373116  1
  Ta  Ta94  1  0.50009535  0.29206385  0.12134382  1
  Ta  Ta95  1  0.27759883  0.29512882  0.12150207  1
  Ta  Ta96  1  0.19034737  -0.00472604  0.74863091  1
  Ta  Ta97  1  0.40046254  0.60739512  -0.00268674  1
  Ta  Ta98  1  0.29464045  0.89616617  0.12783069  1
  Ta  Ta99  1  0.38819797  0.79561704  -0.00051479  1
  Ta  Ta100  1  0.08875085  0.51420212  0.39247752  1
  Ta  Ta101  1  0.70464309  0.29455138  0.88178889  1
  Ta  Ta102  1  0.39734820  0.60323747  0.50943638  1
  Ta  Ta103  1  0.90161711  0.89746849  0.12426261  1
  Ta  Ta104  1  0.51059765  0.90345285  0.37710373  1
  Ta  Ta105  1  0.50191340  0.09454389  0.36570603  1
  Ta  Ta106  1  0.59026490  0.60375246  0.00137468  1
  Ta  Ta107  1  0.50290771  0.50060992  0.37335623  1
  Ta  Ta108  1  0.80752215  -0.00699905  0.25355227  1
  Ta  Ta109  1  0.19384535  0.80199057  0.26350823  1
  Ta  Ta110  1  0.00358487  0.61289561  0.74887995  1
  Ta  Ta111  1  0.50186465  0.51446687  0.87020040  1
  Ta  Ta112  1  0.20800161  0.01028662  0.25146259  1
  Ta  Ta113  1  0.09601969  0.31323079  0.62729916  1
  Ta  Ta114  1  0.59749656  0.60018528  0.24550142  1
  Ta  Ta115  1  0.59725844  0.19041873  0.48967337  1
  Ta  Ta116  1  0.79576399  0.58537473  0.24650711  1
  Ta  Ta117  1  0.39395903  0.59090941  0.25231608  1
  Ta  Ta118  1  0.00694105  0.80014983  -0.00840879  1
  Ta  Ta119  1  0.00568675  0.19440270  0.73365979  1
  Ti  Ti120  1  0.90182789  0.69418140  0.87407380  1
  Ti  Ti121  1  0.79018620  0.59605780  -0.00099692  1
  Ti  Ti122  1  0.29463476  0.09888706  0.87557412  1
  Ti  Ti123  1  0.20043489  0.00533268  0.00252092  1
  Ti  Ti124  1  0.09898956  0.90376973  0.88166185  1
  Ti  Ti125  1  0.09672702  0.50636085  0.62382769  1
  Ti  Ti126  1  0.09898113  0.90673712  0.60568633  1
  Ti  Ti127  1  0.50899200  0.30113988  0.89083250  1
  Ti  Ti128  1  0.19114261  0.63086044  -0.00710489  1
  Ti  Ti129  1  0.92019260  0.28643910  0.12385568  1
  Ti  Ti130  1  0.81512273  0.58074193  0.51318864  1
  Ti  Ti131  1  0.91232401  0.30426973  0.85617422  1
  Ti  Ti132  1  0.48790534  0.70218507  0.87497357  1
  Ti  Ti133  1  0.10539228  0.09537176  0.87665018  1
  Ti  Ti134  1  0.29330690  0.69911953  0.38641834  1
  Ti  Ti135  1  0.90877290  0.89755311  0.87481756  1
  Ti  Ti136  1  0.20007391  0.41796149  0.74495782  1
  Ti  Ti137  1  0.10550230  0.08797375  0.61739708  1
  Ti  Ti138  1  0.00194701  0.00323346  0.24856981  1
  Ti  Ti139  1  0.30051656  0.50094839  0.11743629  1
  Ti  Ti140  1  0.80603317  0.79586090  -0.00807895  1
  Ti  Ti141  1  0.29191645  0.69960645  0.61578826  1
  Ti  Ti142  1  0.10383817  0.69771397  0.38842282  1
  Ti  Ti143  1  0.39300071  0.40354248  0.76678684  1
  Ti  Ti144  1  0.11976746  0.11012641  0.37671167  1
  Ti  Ti145  1  0.69555748  0.08975660  0.37558664  1
  Ti  Ti146  1  0.80094181  0.18670171  0.25291866  1
  Ti  Ti147  1  0.89607905  0.49656262  0.64654867  1
  Ti  Ti148  1  0.52025888  0.10049708  0.11486328  1
  Ti  Ti149  1  0.90076654  0.49586908  0.85466299  1
  Ti  Ti150  1  0.49836049  0.50815453  0.12597844  1
  Ti  Ti151  1  0.70532824  0.49168466  0.64438980  1
  Ti  Ti152  1  0.00122880  0.00407143  0.00465914  1
  Ti  Ti153  1  0.38804921  0.80782099  0.73657834  1
  Ti  Ti154  1  0.69972898  0.10113863  0.88614856  1
  Ti  Ti155  1  0.29057750  0.70588388  0.87414233  1
  Ti  Ti156  1  -0.02197937  0.40494470  0.51945233  1
  Ti  Ti157  1  0.50727348  0.30547629  0.36654313  1
  Ti  Ti158  1  0.41279640  0.01019139  0.49380123  1
  Ti  Ti159  1  0.89787622  0.09547884  0.13030509  1
  Mo  Mo160  1  0.89460317  0.29786165  0.37559567  1
  Mo  Mo161  1  0.60739976  0.00017741  0.00768468  1
  Mo  Mo162  1  0.49535354  0.89821294  0.12490447  1
  Mo  Mo163  1  0.30064616  0.30603354  0.87160189  1
  Mo  Mo164  1  0.80467986  0.39544460  0.76172450  1
  Mo  Mo165  1  0.09564497  0.70802449  0.87327717  1
  Mo  Mo166  1  0.38750093  0.00695920  0.75588543  1
  Mo  Mo167  1  0.28880790  0.50968311  0.62914183  1
  Mo  Mo168  1  0.90260863  0.68957411  0.63426238  1
  Mo  Mo169  1  0.80760621  0.59970527  0.75080751  1
  Mo  Mo170  1  0.28864358  0.29557651  0.36807256  1
  Mo  Mo171  1  0.59754047  0.00548386  0.49116381  1
  Mo  Mo172  1  0.89877249  0.89536064  0.36381196  1
  Mo  Mo173  1  0.58928005  0.59466822  0.74698714  1
  Mo  Mo174  1  0.00460525  0.40352382  0.74069283  1
  Mo  Mo175  1  0.01682723  -0.00314611  0.74874941  1
  Mo  Mo176  1  0.19670074  0.80968094  -0.00184946  1
  Mo  Mo177  1  0.10155482  0.30003896  0.12075154  1
  Mo  Mo178  1  0.70104421  0.50456110  0.12691324  1
  Mo  Mo179  1  -0.00058508  0.40071732  0.24653939  1
  Mo  Mo180  1  0.00371822  0.00391047  0.49968917  1
  Mo  Mo181  1  -0.00833745  0.59373845  0.50597305  1
  Mo  Mo182  1  0.19446508  0.60111006  0.73772407  1
  Mo  Mo183  1  0.19624827  0.19623434  -0.00727652  1
  Mo  Mo184  1  0.59869595  0.00744625  0.75299587  1
  Mo  Mo185  1  0.71159451  0.09926163  0.12786634  1
  Mo  Mo186  1  0.00675244  0.18788581  -0.00488554  1
  Mo  Mo187  1  0.20184776  0.01379791  0.49934773  1
  Mo  Mo188  1  0.18608466  0.40767564  0.50687973  1
  Mo  Mo189  1  0.60460660  0.19895671  0.00220139  1
  Mo  Mo190  1  0.20359252  0.79467783  0.48951705  1
  Mo  Mo191  1  0.20328184  0.20355099  0.26001496  1
  Mo  Mo192  1  0.59873295  0.79979150  0.25699692  1
  Mo  Mo193  1  0.90537784  0.30681323  0.63879002  1
  Mo  Mo194  1  0.30136602  0.09382181  0.37182869  1
  Mo  Mo195  1  0.79319224  0.40646151  0.51021336  1
  Mo  Mo196  1  0.50380312  0.10579156  0.61918822  1
  Mo  Mo197  1  0.48687244  0.70663326  0.62036887  1
  Mo  Mo198  1  0.69412721  0.89872632  0.37025079  1
  Mo  Mo199  1  0.20908339  0.38777850  -0.00292864  1
