# generated using pymatgen
data_HfZrTaTiMo
_symmetry_space_group_name_H-M   'P 1'
_cell_length_a   15.20051611
_cell_length_b   15.20659081
_cell_length_c   16.85404298
_cell_angle_alpha   89.97365210
_cell_angle_beta   90.05375774
_cell_angle_gamma   89.99097521
_symmetry_Int_Tables_number   1
_chemical_formula_structural   HfZrTaTiMo
_chemical_formula_sum   'Hf40 Zr40 Ta40 Ti40 Mo40'
_cell_volume   3895.77663390
_cell_formula_units_Z   40
loop_
 _symmetry_equiv_pos_site_id
 _symmetry_equiv_pos_as_xyz
  1  'x, y, z'
loop_
 _atom_site_type_symbol
 _atom_site_label
 _atom_site_symmetry_multiplicity
 _atom_site_fract_x
 _atom_site_fract_y
 _atom_site_fract_z
 _atom_site_occupancy
  Hf  Hf0  1  0.51647035  0.28823560  0.11484540  1
  Hf  Hf1  1  0.89848189  0.08785384  0.62443794  1
  Hf  Hf2  1  0.00012226  0.19552292  0.73984684  1
  Hf  Hf3  1  0.19188164  -0.00745666  0.76330278  1
  Hf  Hf4  1  0.90282670  0.30733843  0.38057352  1
  Hf  Hf5  1  0.30936643  0.10455091  0.63594587  1
  Hf  Hf6  1  0.29316278  0.49217725  0.13319383  1
  Hf  Hf7  1  0.80320317  0.80674732  0.01341046  1
  Hf  Hf8  1  0.49760101  0.49348170  0.11031391  1
  Hf  Hf9  1  0.19646087  0.59271385  0.74214342  1
  Hf  Hf10  1  0.28941639  0.91328737  0.38142780  1
  Hf  Hf11  1  0.90936690  0.49882968  0.11657874  1
  Hf  Hf12  1  0.20918221  0.78959268  0.00704024  1
  Hf  Hf13  1  0.88478829  0.70177367  0.87817734  1
  Hf  Hf14  1  0.11357616  0.50492435  0.88275226  1
  Hf  Hf15  1  0.90723348  0.32522207  0.60977717  1
  Hf  Hf16  1  0.08310453  0.49912616  0.61809027  1
  Hf  Hf17  1  0.10776251  0.29621626  0.88227915  1
  Hf  Hf18  1  -0.00128859  -0.00303974  0.00276442  1
  Hf  Hf19  1  0.70235378  0.88986828  0.87539559  1
  Hf  Hf20  1  0.88123226  0.50209623  0.36556884  1
  Hf  Hf21  1  0.69263514  0.51487636  0.88516629  1
  Hf  Hf22  1  0.68853973  0.10465449  0.62902678  1
  Hf  Hf23  1  0.80048583  0.41288749  0.75348430  1
  Hf  Hf24  1  0.30822111  0.29322637  0.36846599  1
  Hf  Hf25  1  0.41074886  -0.01234093  0.76396722  1
  Hf  Hf26  1  0.00523917  0.40878691  0.24008129  1
  Hf  Hf27  1  0.50075991  0.71193085  0.88954422  1
  Hf  Hf28  1  0.71534755  0.10924001  0.86378539  1
  Hf  Hf29  1  0.40077596  0.60680602  0.24108013  1
  Hf  Hf30  1  0.59816516  0.80035276  0.74809521  1
  Hf  Hf31  1  0.21749797  0.19756471  0.50244086  1
  Hf  Hf32  1  0.89784118  0.27940061  0.87640216  1
  Hf  Hf33  1  0.59970762  0.00891641  -0.01033306  1
  Hf  Hf34  1  0.79384368  0.57863393  0.51423549  1
  Hf  Hf35  1  0.40627362  0.81300253  0.49633229  1
  Hf  Hf36  1  0.68577862  0.88755684  0.37522884  1
  Hf  Hf37  1  0.58347206  0.60249832  0.74631580  1
  Hf  Hf38  1  0.50897217  0.30451900  0.88317779  1
  Hf  Hf39  1  0.90884399  0.09727180  0.36645347  1
  Zr  Zr40  1  0.18158058  0.81414681  0.24849254  1
  Zr  Zr41  1  0.70074304  0.90442717  0.62192322  1
  Zr  Zr42  1  0.80683108  0.01318061  0.00603768  1
  Zr  Zr43  1  0.38958812  0.80228871  0.24940031  1
  Zr  Zr44  1  0.79853404  0.20005121  0.50017511  1
  Zr  Zr45  1  0.70334469  0.67541612  0.37375022  1
  Zr  Zr46  1  0.00864586  0.40222671  0.75941357  1
  Zr  Zr47  1  0.00004539  0.79482729  0.49389877  1
  Zr  Zr48  1  0.48384983  0.90273220  0.11505820  1
  Zr  Zr49  1  0.11860631  0.30302535  0.62464081  1
  Zr  Zr50  1  0.59959946  0.60409936  0.23153290  1
  Zr  Zr51  1  0.90079097  0.50271243  0.89030059  1
  Zr  Zr52  1  0.58988355  0.80061972  0.24134630  1
  Zr  Zr53  1  0.79527018  -0.00340278  0.25597689  1
  Zr  Zr54  1  0.29829307  0.90025863  0.62909526  1
  Zr  Zr55  1  0.69570011  0.11922052  0.13331342  1
  Zr  Zr56  1  0.08463287  0.09988063  0.87730150  1
  Zr  Zr57  1  0.30277454  0.48608881  0.61609654  1
  Zr  Zr58  1  0.79934061  -0.01067872  0.48474838  1
  Zr  Zr59  1  0.89804806  0.89253238  0.62834116  1
  Zr  Zr60  1  0.57041339  0.00221619  0.48726600  1
  Zr  Zr61  1  0.29900554  0.50034228  0.37241947  1
  Zr  Zr62  1  0.20327911  0.19022109  0.01093409  1
  Zr  Zr63  1  0.08796102  0.50848344  0.37751825  1
  Zr  Zr64  1  0.01422557  0.20120360  0.24735867  1
  Zr  Zr65  1  0.49424060  0.29883277  0.62262089  1
  Zr  Zr66  1  0.01629949  0.19615163  0.50008522  1
  Zr  Zr67  1  0.60866011  0.40389597  0.24713669  1
  Zr  Zr68  1  0.80065138  0.37986204  0.00972748  1
  Zr  Zr69  1  0.69344345  0.32185778  0.61876362  1
  Zr  Zr70  1  0.17263664  0.60807422  0.23630946  1
  Zr  Zr71  1  0.39497126  -0.00306623  -0.01777745  1
  Zr  Zr72  1  0.30330371  0.69692253  0.62095713  1
  Zr  Zr73  1  0.41405139  0.19369923  0.24516292  1
  Zr  Zr74  1  0.28746241  0.69920039  0.38086430  1
  Zr  Zr75  1  0.80097964  0.78883336  0.24257053  1
  Zr  Zr76  1  0.31131448  0.31702459  0.88600554  1
  Zr  Zr77  1  0.47778045  0.50457855  0.89091098  1
  Zr  Zr78  1  0.29846128  0.67515874  0.87067207  1
  Zr  Zr79  1  0.29987732  0.11008043  0.86861016  1
  Ta  Ta80  1  0.10844434  0.30174206  0.37474475  1
  Ta  Ta81  1  0.89823234  0.69519039  0.63353346  1
  Ta  Ta82  1  0.40626647  0.39244255  0.49079095  1
  Ta  Ta83  1  0.80155219  0.78146637  0.49477181  1
  Ta  Ta84  1  0.19392953  0.79611105  0.75410047  1
  Ta  Ta85  1  0.50767840  0.50608199  0.37877280  1
  Ta  Ta86  1  0.69385357  0.11031110  0.37028349  1
  Ta  Ta87  1  0.59673454  0.20725957  0.48805022  1
  Ta  Ta88  1  -0.01267583  0.60256708  0.50348733  1
  Ta  Ta89  1  0.69945647  0.70017506  0.62345566  1
  Ta  Ta90  1  0.58092189  0.00840456  0.26045398  1
  Ta  Ta91  1  0.30728816  0.87569912  0.87034371  1
  Ta  Ta92  1  0.79971394  0.20539484  0.73645963  1
  Ta  Ta93  1  0.00980741  -0.00514781  0.49217337  1
  Ta  Ta94  1  0.00400277  0.79813733  0.75885599  1
  Ta  Ta95  1  0.50250297  0.49785236  0.61932449  1
  Ta  Ta96  1  0.18517543  0.60749789  0.50343117  1
  Ta  Ta97  1  0.01100897  0.39339392  0.00649085  1
  Ta  Ta98  1  0.40447903  0.22076862  0.75067989  1
  Ta  Ta99  1  0.90220218  0.10272501  0.14331279  1
  Ta  Ta100  1  0.09612325  0.89920006  0.62838295  1
  Ta  Ta101  1  0.39136570  -0.00143560  0.25033375  1
  Ta  Ta102  1  0.79806799  0.38294962  0.23437143  1
  Ta  Ta103  1  0.38384113  0.61282963  0.01909935  1
  Ta  Ta104  1  0.19706523  -0.01654050  -0.00987709  1
  Ta  Ta105  1  0.69198400  0.90948442  0.12802562  1
  Ta  Ta106  1  -0.01430178  0.19648664  0.01576746  1
  Ta  Ta107  1  0.49796141  0.90202234  0.62762996  1
  Ta  Ta108  1  0.59712791  0.59768935  0.50931767  1
  Ta  Ta109  1  0.19740766  0.00314618  0.50577296  1
  Ta  Ta110  1  0.40745775  0.39869051  0.25088905  1
  Ta  Ta111  1  0.51272799  0.11352475  0.86167485  1
  Ta  Ta112  1  0.20048549  0.38856930  0.24746983  1
  Ta  Ta113  1  -0.00929282  0.60351918  0.75270125  1
  Ta  Ta114  1  0.10898651  0.30157837  0.12194221  1
  Ta  Ta115  1  0.50203331  0.70318476  0.38129696  1
  Ta  Ta116  1  0.79420303  0.58581992  0.22550821  1
  Ta  Ta117  1  0.79194964  0.60791608  0.01932546  1
  Ta  Ta118  1  0.19858729  0.39897316  0.49305570  1
  Ta  Ta119  1  0.01783558  -0.01463248  0.25401829  1
  Ti  Ti120  1  0.60322696  0.61354023  0.01449597  1
  Ti  Ti121  1  0.20469023  0.20579615  0.74699751  1
  Ti  Ti122  1  0.30925765  0.09861559  0.37421056  1
  Ti  Ti123  1  0.78727325  0.60652385  0.74630884  1
  Ti  Ti124  1  -0.00508163  -0.00835208  0.75628951  1
  Ti  Ti125  1  0.60993930  0.39656575  0.00339305  1
  Ti  Ti126  1  0.20847761  0.40354121  0.00765852  1
  Ti  Ti127  1  0.00604086  0.80325733  -0.00741183  1
  Ti  Ti128  1  0.50976000  0.30389990  0.37720676  1
  Ti  Ti129  1  0.90729410  0.90244856  0.13625651  1
  Ti  Ti130  1  0.69798729  0.29796393  0.86921050  1
  Ti  Ti131  1  0.09338615  0.70574916  0.62918101  1
  Ti  Ti132  1  0.20985354  0.19161370  0.24125811  1
  Ti  Ti133  1  0.30458179  0.08459339  0.12101721  1
  Ti  Ti134  1  0.22505432  0.39674988  0.75312424  1
  Ti  Ti135  1  0.09590575  0.70103770  0.87583294  1
  Ti  Ti136  1  0.09785195  0.89454140  0.12068585  1
  Ti  Ti137  1  0.31198765  0.29562350  0.12396842  1
  Ti  Ti138  1  0.50184157  0.09545917  0.12010456  1
  Ti  Ti139  1  0.80061474  0.80052913  0.75264173  1
  Ti  Ti140  1  0.59923852  0.79283533  0.50519157  1
  Ti  Ti141  1  0.40441181  0.60148973  0.49859513  1
  Ti  Ti142  1  0.40658165  0.77947856  0.74378309  1
  Ti  Ti143  1  0.60220339  0.80154722  0.00807650  1
  Ti  Ti144  1  0.90224945  0.90764769  0.87119535  1
  Ti  Ti145  1  0.11854630  0.09376867  0.36939455  1
  Ti  Ti146  1  0.50119490  0.09816855  0.63879066  1
  Ti  Ti147  1  0.10730101  0.08614502  0.12689455  1
  Ti  Ti148  1  0.61452262  0.21221319  0.26277301  1
  Ti  Ti149  1  0.00503794  0.60893147  0.00498687  1
  Ti  Ti150  1  0.10365945  0.08911150  0.62909119  1
  Ti  Ti151  1  0.18761609  0.80440036  0.49861677  1
  Ti  Ti152  1  0.60637234  -0.00041717  0.75685351  1
  Ti  Ti153  1  0.90766529  0.88800281  0.36724648  1
  Ti  Ti154  1  0.19164354  0.59843669  0.01824497  1
  Ti  Ti155  1  0.90947873  0.69110602  0.36160440  1
  Ti  Ti156  1  0.41163514  0.18669116  0.49871617  1
  Ti  Ti157  1  0.41309627  0.19573724  -0.00020009  1
  Ti  Ti158  1  0.59274723  0.40293467  0.75445598  1
  Ti  Ti159  1  0.91354301  0.70604318  0.12783529  1
  Mo  Mo160  1  0.49049961  0.90274624  0.37168739  1
  Mo  Mo161  1  0.50067772  0.70280140  0.61435432  1
  Mo  Mo162  1  0.70344926  0.31077144  0.38251123  1
  Mo  Mo163  1  0.30854251  0.30055924  0.62205326  1
  Mo  Mo164  1  0.70133023  0.69577614  0.88162875  1
  Mo  Mo165  1  0.69987119  0.49631898  0.11100774  1
  Mo  Mo166  1  0.69170049  0.50310195  0.63580999  1
  Mo  Mo167  1  0.90545396  0.28787379  0.12870809  1
  Mo  Mo168  1  0.28511051  0.91327452  0.12234467  1
  Mo  Mo169  1  0.49500011  0.70497133  0.10779036  1
  Mo  Mo170  1  0.79237519  0.40274265  0.49599172  1
  Mo  Mo171  1  0.29523475  0.70715260  0.12665365  1
  Mo  Mo172  1  0.61165628  0.20232942  -0.00722197  1
  Mo  Mo173  1  0.70567342  0.29583135  0.12469031  1
  Mo  Mo174  1  0.50421249  0.89970142  0.87298016  1
  Mo  Mo175  1  0.89302017  0.50929414  0.63420841  1
  Mo  Mo176  1  0.40174701  0.59123371  0.74391077  1
  Mo  Mo177  1  0.80120364  0.20447549  0.26077247  1
  Mo  Mo178  1  -0.00202077  0.41262874  0.49338510  1
  Mo  Mo179  1  0.09657258  0.90833515  0.38008375  1
  Mo  Mo180  1  0.49459743  0.10938360  0.37120333  1
  Mo  Mo181  1  0.59923530  0.40993062  0.49118456  1
  Mo  Mo182  1  0.60107085  0.20662090  0.74916699  1
  Mo  Mo183  1  0.20170777  0.01317093  0.24612202  1
  Mo  Mo184  1  0.09957506  0.49635414  0.11432085  1
  Mo  Mo185  1  0.09864095  0.88676919  0.87944098  1
  Mo  Mo186  1  0.39878609  0.80097074  0.00011216  1
  Mo  Mo187  1  0.70228285  0.70858447  0.12226486  1
  Mo  Mo188  1  0.69644703  0.49067346  0.37233073  1
  Mo  Mo189  1  0.89901125  0.09579150  0.86277407  1
  Mo  Mo190  1  0.38964301  0.01200743  0.50471194  1
  Mo  Mo191  1  0.39714450  0.39535792  0.01602456  1
  Mo  Mo192  1  0.00032083  0.79532087  0.25227186  1
  Mo  Mo193  1  0.80566212  -0.00205619  0.75432120  1
  Mo  Mo194  1  -0.01339484  0.61071851  0.24162644  1
  Mo  Mo195  1  0.29558894  0.49955217  0.88588121  1
  Mo  Mo196  1  0.08672187  0.70367098  0.11578171  1
  Mo  Mo197  1  0.09079067  0.70334377  0.38150406  1
  Mo  Mo198  1  0.80189406  0.19289058  0.00162225  1
  Mo  Mo199  1  0.40751008  0.41793419  0.74940984  1
