# generated using pymatgen
data_HfZrTaTiMo
_symmetry_space_group_name_H-M   'P 1'
_cell_length_a   15.20941639
_cell_length_b   15.21552672
_cell_length_c   16.85091539
_cell_angle_alpha   89.98705830
_cell_angle_beta   90.02220500
_cell_angle_gamma   90.01526822
_symmetry_Int_Tables_number   1
_chemical_formula_structural   HfZrTaTiMo
_chemical_formula_sum   'Hf40 Zr40 Ta40 Ti40 Mo40'
_cell_volume   3899.62620172
_cell_formula_units_Z   40
loop_
 _symmetry_equiv_pos_site_id
 _symmetry_equiv_pos_as_xyz
  1  'x, y, z'
loop_
 _atom_site_type_symbol
 _atom_site_label
 _atom_site_symmetry_multiplicity
 _atom_site_fract_x
 _atom_site_fract_y
 _atom_site_fract_z
 _atom_site_occupancy
  Hf  Hf0  1  0.29405871  0.92661472  0.12457864  1
  Hf  Hf1  1  0.10619597  0.29270231  0.64274288  1
  Hf  Hf2  1  0.20289692  0.58860985  0.75218075  1
  Hf  Hf3  1  0.07269869  0.11048542  0.37037378  1
  Hf  Hf4  1  0.29686305  0.49471691  0.88831132  1
  Hf  Hf5  1  0.20504144  0.40002841  0.49538703  1
  Hf  Hf6  1  0.19376692  0.60424631  0.24857389  1
  Hf  Hf7  1  -0.01502093  0.59131272  0.74170934  1
  Hf  Hf8  1  0.39893313  0.81975486  -0.00301387  1
  Hf  Hf9  1  0.30330672  0.09312840  0.62516380  1
  Hf  Hf10  1  0.51423451  0.49175370  0.87258151  1
  Hf  Hf11  1  0.49212270  0.90740729  0.61844329  1
  Hf  Hf12  1  0.18378514  -0.00319057  0.48797873  1
  Hf  Hf13  1  0.78267015  0.58165768  0.25549351  1
  Hf  Hf14  1  0.81811530  0.18789409  0.24227936  1
  Hf  Hf15  1  0.79581159  0.41165586  0.73223785  1
  Hf  Hf16  1  0.79334826  0.37911970  0.24837083  1
  Hf  Hf17  1  0.40383415  0.39981589  0.49838102  1
  Hf  Hf18  1  0.69653381  0.89136393  0.37888839  1
  Hf  Hf19  1  0.29214629  0.29325821  0.86384781  1
  Hf  Hf20  1  0.10927079  0.70441609  0.62222715  1
  Hf  Hf21  1  0.90475392  0.09377740  0.10144890  1
  Hf  Hf22  1  0.60513888  0.79240921  0.75750325  1
  Hf  Hf23  1  0.60545472  0.19129606  0.75276273  1
  Hf  Hf24  1  0.40264073  0.82414322  0.76342658  1
  Hf  Hf25  1  0.19148417  -0.00937134  0.26922998  1
  Hf  Hf26  1  0.29364973  0.72260398  0.13187910  1
  Hf  Hf27  1  0.19384570  0.19736811  0.23604076  1
  Hf  Hf28  1  0.08388347  0.49449541  0.12650937  1
  Hf  Hf29  1  0.79954133  0.78628977  0.24925527  1
  Hf  Hf30  1  0.61270357  0.80689771  -0.01597813  1
  Hf  Hf31  1  0.50586989  0.71317694  0.35968303  1
  Hf  Hf32  1  0.91294496  0.10470114  0.87310171  1
  Hf  Hf33  1  0.50715660  0.51400491  0.37905804  1
  Hf  Hf34  1  0.20581688  0.39639341  0.24310271  1
  Hf  Hf35  1  -0.00058244  0.80267110  0.74967737  1
  Hf  Hf36  1  0.40994721  0.59555464  0.23699790  1
  Hf  Hf37  1  0.09607704  0.29516570  0.85965309  1
  Hf  Hf38  1  0.69943334  0.10206740  0.10358439  1
  Hf  Hf39  1  -0.01259781  0.60663106  0.25267671  1
  Zr  Zr40  1  0.09184558  0.70117868  0.87601332  1
  Zr  Zr41  1  0.00018710  0.39534916  0.51188504  1
  Zr  Zr42  1  0.30583721  0.29908389  0.36770332  1
  Zr  Zr43  1  0.49438861  0.28974151  0.86262029  1
  Zr  Zr44  1  0.39726213  0.79547514  0.49343741  1
  Zr  Zr45  1  0.79573393  -0.00765315  0.23989690  1
  Zr  Zr46  1  0.29885283  0.49862047  0.11643447  1
  Zr  Zr47  1  0.89320735  0.70658153  0.62007610  1
  Zr  Zr48  1  0.39579957  0.01331185  0.26306638  1
  Zr  Zr49  1  0.50872482  0.11484840  0.37271797  1
  Zr  Zr50  1  -0.00359051  0.37869410  0.24757374  1
  Zr  Zr51  1  0.00051928  0.19535981  0.52069101  1
  Zr  Zr52  1  0.52439809  0.71455657  0.13362681  1
  Zr  Zr53  1  0.29343425  0.70615902  0.88869994  1
  Zr  Zr54  1  0.59175433  -0.00702304  0.76957525  1
  Zr  Zr55  1  0.20413823  0.79908741  0.75120396  1
  Zr  Zr56  1  0.69937282  0.89108103  0.11905233  1
  Zr  Zr57  1  0.40279455  0.60746452  0.74914281  1
  Zr  Zr58  1  0.77701451  0.58979576  0.51511845  1
  Zr  Zr59  1  0.19190846  0.78941354  0.47638672  1
  Zr  Zr60  1  -0.00257519  0.80444832  -0.00107543  1
  Zr  Zr61  1  0.28986978  0.89541170  0.61912703  1
  Zr  Zr62  1  0.50336086  0.10232864  0.12652508  1
  Zr  Zr63  1  0.69961926  0.91027474  0.62632227  1
  Zr  Zr64  1  -0.01864940  0.39865367  -0.00200781  1
  Zr  Zr65  1  0.08871638  0.49317190  0.87666483  1
  Zr  Zr66  1  0.60890420  0.42019948  0.25563260  1
  Zr  Zr67  1  0.89467283  0.70510994  0.38703220  1
  Zr  Zr68  1  0.40947262  0.39063465  0.00808462  1
  Zr  Zr69  1  -0.02914981  0.60452696  0.00787894  1
  Zr  Zr70  1  0.50458151  0.69491208  0.87869103  1
  Zr  Zr71  1  0.10965281  0.07920990  0.11461411  1
  Zr  Zr72  1  0.39074559  0.18975719  0.00686046  1
  Zr  Zr73  1  0.89003537  0.48211009  0.38314786  1
  Zr  Zr74  1  0.40500163  0.20332125  0.50218936  1
  Zr  Zr75  1  0.18514999  0.61101462  0.01327662  1
  Zr  Zr76  1  0.50324846  0.50014589  0.62156641  1
  Zr  Zr77  1  0.00900402  0.60346297  0.49837837  1
  Zr  Zr78  1  0.71264936  0.10080913  0.38118072  1
  Zr  Zr79  1  0.41483845  0.60414019  0.01513152  1
  Ta  Ta80  1  0.10599984  0.49857902  0.36959498  1
  Ta  Ta81  1  0.60150786  0.21347217  -0.00702990  1
  Ta  Ta82  1  0.19068076  0.37810184  0.01286223  1
  Ta  Ta83  1  0.90085360  0.27130630  0.38230312  1
  Ta  Ta84  1  0.50330377  0.91191923  0.12205275  1
  Ta  Ta85  1  0.69039851  0.29358744  0.62438955  1
  Ta  Ta86  1  -0.00929221  0.00314481  0.24609306  1
  Ta  Ta87  1  0.51560455  0.30715901  0.36829939  1
  Ta  Ta88  1  0.50919081  0.09816599  0.62344496  1
  Ta  Ta89  1  0.79681659  0.00297903  0.76498001  1
  Ta  Ta90  1  0.40855595  0.40050951  0.24126910  1
  Ta  Ta91  1  0.61868321  0.21425645  0.24499242  1
  Ta  Ta92  1  0.90764861  0.09260768  0.65055408  1
  Ta  Ta93  1  0.79542167  0.79864780  0.75713925  1
  Ta  Ta94  1  0.39526055  0.00172061  0.48526399  1
  Ta  Ta95  1  0.89757252  0.91476550  0.37879712  1
  Ta  Ta96  1  0.10544173  0.91176122  0.87106168  1
  Ta  Ta97  1  0.79779357  0.80817372  0.50457599  1
  Ta  Ta98  1  -0.01783702  0.00603214  0.50736463  1
  Ta  Ta99  1  -0.00955459  0.39867217  0.73752048  1
  Ta  Ta100  1  0.80345847  -0.01770904  -0.01401511  1
  Ta  Ta101  1  0.30444682  0.68974793  0.36131332  1
  Ta  Ta102  1  0.89863135  0.90726620  0.63738747  1
  Ta  Ta103  1  0.80148452  0.38238324  0.51990551  1
  Ta  Ta104  1  0.01154843  0.20612068  -0.00409491  1
  Ta  Ta105  1  0.10721772  0.49789854  0.62811408  1
  Ta  Ta106  1  0.50550396  0.90680835  0.38043639  1
  Ta  Ta107  1  0.00055433  0.81963444  0.50134468  1
  Ta  Ta108  1  0.39232700  0.60023881  0.49547365  1
  Ta  Ta109  1  0.60396437  0.78957394  0.50708503  1
  Ta  Ta110  1  0.39207151  0.40242140  0.74660666  1
  Ta  Ta111  1  0.89567425  0.30879308  0.86425839  1
  Ta  Ta112  1  0.90441255  0.89771317  0.86708840  1
  Ta  Ta113  1  0.52251571  0.31055019  0.12703910  1
  Ta  Ta114  1  0.70338091  0.10398077  0.88898838  1
  Ta  Ta115  1  0.80274414  0.18113193  0.52284495  1
  Ta  Ta116  1  0.68804049  0.68450341  0.37878065  1
  Ta  Ta117  1  0.30120555  0.30063621  0.63553078  1
  Ta  Ta118  1  0.19770594  0.19947305  0.50611019  1
  Ta  Ta119  1  0.70172287  0.31172824  0.87051617  1
  Ti  Ti120  1  0.09249889  0.92063867  0.63434294  1
  Ti  Ti121  1  0.30480700  0.69327079  0.62154020  1
  Ti  Ti122  1  0.87829416  0.50189114  0.12607492  1
  Ti  Ti123  1  0.50110855  0.70186900  0.62558394  1
  Ti  Ti124  1  0.91093707  0.88955771  0.12325079  1
  Ti  Ti125  1  0.40311570  0.21297593  0.23749426  1
  Ti  Ti126  1  0.19004568  0.82462600  0.00448385  1
  Ti  Ti127  1  0.19188815  0.80265248  0.26793330  1
  Ti  Ti128  1  0.09739822  0.29909908  0.37631112  1
  Ti  Ti129  1  0.61208047  0.59452747  0.74426399  1
  Ti  Ti130  1  0.79019326  0.60177260  0.73310856  1
  Ti  Ti131  1  0.81021373  0.78421714  -0.00641518  1
  Ti  Ti132  1  0.80521772  0.21290558  -0.00899248  1
  Ti  Ti133  1  0.01318838  -0.00687708  -0.00697976  1
  Ti  Ti134  1  0.61464179  0.58651670  -0.00257319  1
  Ti  Ti135  1  0.60201071  0.40098257  0.74274300  1
  Ti  Ti136  1  0.61112497  0.40832626  0.49940080  1
  Ti  Ti137  1  0.89085857  0.68681447  0.86780503  1
  Ti  Ti138  1  0.71696685  0.68575324  0.11614936  1
  Ti  Ti139  1  0.08365465  0.71782753  0.13294843  1
  Ti  Ti140  1  0.29054365  0.10875919  0.38051682  1
  Ti  Ti141  1  0.22767126  0.01366380  -0.01726326  1
  Ti  Ti142  1  0.20462697  0.18439661  0.74600908  1
  Ti  Ti143  1  0.60450467  0.20633573  0.50723760  1
  Ti  Ti144  1  0.20679006  0.59385216  0.48672192  1
  Ti  Ti145  1  0.70823336  0.29995713  0.38976116  1
  Ti  Ti146  1  0.00414150  0.80921944  0.26159848  1
  Ti  Ti147  1  0.21262715  -0.00281791  0.75983020  1
  Ti  Ti148  1  0.29702833  0.49830308  0.62388010  1
  Ti  Ti149  1  0.20202672  0.19836872  0.00705992  1
  Ti  Ti150  1  0.49518160  0.29447694  0.63559565  1
  Ti  Ti151  1  0.60038648  0.00241133  0.25125597  1
  Ti  Ti152  1  0.71010850  0.67985585  0.87689426  1
  Ti  Ti153  1  0.80136530  0.20338914  0.74522820  1
  Ti  Ti154  1  0.39744958  0.81991933  0.25386081  1
  Ti  Ti155  1  0.11289210  0.10255663  0.87456068  1
  Ti  Ti156  1  0.78500967  0.40843282  -0.00660718  1
  Ti  Ti157  1  0.89882140  0.29651009  0.11599071  1
  Ti  Ti158  1  0.60702639  0.00695565  0.50178213  1
  Ti  Ti159  1  0.68574453  0.48824189  0.11701478  1
  Mo  Mo160  1  0.20185198  0.40136129  0.74495960  1
  Mo  Mo161  1  0.59799833  0.00408069  -0.01542149  1
  Mo  Mo162  1  0.40337295  0.19207281  0.73948782  1
  Mo  Mo163  1  0.30551757  0.29506096  0.13041719  1
  Mo  Mo164  1  0.70865163  0.29712432  0.11379247  1
  Mo  Mo165  1  0.79377644  0.59453994  0.00081972  1
  Mo  Mo166  1  0.80440149  -0.00351785  0.51085740  1
  Mo  Mo167  1  0.59956266  0.81738903  0.25141120  1
  Mo  Mo168  1  0.61225870  0.61305250  0.24315446  1
  Mo  Mo169  1  0.30631591  0.10457408  0.86246190  1
  Mo  Mo170  1  0.70449921  0.50125470  0.86663652  1
  Mo  Mo171  1  0.30195215  0.10199425  0.12822444  1
  Mo  Mo172  1  0.89453330  0.28974193  0.63913211  1
  Mo  Mo173  1  0.41059674  0.00315938  -0.00534520  1
  Mo  Mo174  1  0.09712085  0.69555047  0.37142941  1
  Mo  Mo175  1  0.69146237  0.49618677  0.62235935  1
  Mo  Mo176  1  0.89204707  0.70338698  0.13270179  1
  Mo  Mo177  1  0.89412134  0.09809695  0.38037762  1
  Mo  Mo178  1  -0.00357843  0.19394609  0.23776695  1
  Mo  Mo179  1  -0.00083677  0.19610411  0.75294295  1
  Mo  Mo180  1  0.39878053  0.01420746  0.75579021  1
  Mo  Mo181  1  0.87614912  0.49986658  0.86800376  1
  Mo  Mo182  1  0.09319578  0.29105906  0.11649342  1
  Mo  Mo183  1  0.08203613  0.90170205  0.37422504  1
  Mo  Mo184  1  0.50071064  0.09965574  0.88382989  1
  Mo  Mo185  1  0.70008855  0.10064020  0.62867984  1
  Mo  Mo186  1  0.51182086  0.50218611  0.12078917  1
  Mo  Mo187  1  0.71328212  0.89355700  0.87743331  1
  Mo  Mo188  1  0.10698414  0.09034217  0.63395507  1
  Mo  Mo189  1  0.29689973  0.91147585  0.87976842  1
  Mo  Mo190  1  0.30261559  0.50391354  0.36931814  1
  Mo  Mo191  1  0.69666540  0.49003793  0.38782278  1
  Mo  Mo192  1  0.60687914  0.39668606  -0.00494125  1
  Mo  Mo193  1  0.90365272  0.49577613  0.61626988  1
  Mo  Mo194  1  0.50127646  0.90802556  0.88399826  1
  Mo  Mo195  1  0.30389206  0.89782633  0.37332769  1
  Mo  Mo196  1  0.68905889  0.70424343  0.63064388  1
  Mo  Mo197  1  0.58534223  0.60903203  0.50510950  1
  Mo  Mo198  1  0.01086923  0.00204130  0.75919519  1
  Mo  Mo199  1  0.09858323  0.89017782  0.13598422  1
