# generated using pymatgen
data_HfZrTaTiMo
_symmetry_space_group_name_H-M   'P 1'
_cell_length_a   15.21630349
_cell_length_b   15.21628636
_cell_length_c   16.84617920
_cell_angle_alpha   90.05417708
_cell_angle_beta   89.99345655
_cell_angle_gamma   90.09898334
_symmetry_Int_Tables_number   1
_chemical_formula_structural   HfZrTaTiMo
_chemical_formula_sum   'Hf40 Zr40 Ta40 Ti40 Mo40'
_cell_volume   3900.48314548
_cell_formula_units_Z   40
loop_
 _symmetry_equiv_pos_site_id
 _symmetry_equiv_pos_as_xyz
  1  'x, y, z'
loop_
 _atom_site_type_symbol
 _atom_site_label
 _atom_site_symmetry_multiplicity
 _atom_site_fract_x
 _atom_site_fract_y
 _atom_site_fract_z
 _atom_site_occupancy
  Hf  Hf0  1  0.48850258  0.27896926  0.86633074  1
  Hf  Hf1  1  0.70190094  0.69115907  0.36258028  1
  Hf  Hf2  1  0.90265641  0.29079242  0.38630892  1
  Hf  Hf3  1  0.89760350  0.28927864  0.12462643  1
  Hf  Hf4  1  0.32652278  0.11457511  0.87317197  1
  Hf  Hf5  1  0.80988212  0.19473255  -0.00718869  1
  Hf  Hf6  1  0.39269060  0.00192177  0.48426934  1
  Hf  Hf7  1  0.29905255  0.29215195  0.61108365  1
  Hf  Hf8  1  0.88445969  0.69980937  0.13179656  1
  Hf  Hf9  1  0.49880349  0.29331899  0.61585811  1
  Hf  Hf10  1  0.61368789  0.80239476  0.49926827  1
  Hf  Hf11  1  0.39288366  0.59676544  0.49667562  1
  Hf  Hf12  1  0.72077304  0.70211029  0.63527985  1
  Hf  Hf13  1  0.60440069  0.60248171  0.50680162  1
  Hf  Hf14  1  0.09209568  0.71048528  0.63394961  1
  Hf  Hf15  1  0.59062762  0.18554727  0.00047718  1
  Hf  Hf16  1  0.48799722  0.28843901  0.12863864  1
  Hf  Hf17  1  0.39925209  0.80168732  0.26120776  1
  Hf  Hf18  1  0.69713941  0.28308677  0.60673838  1
  Hf  Hf19  1  0.20741179  0.42368715  0.50942606  1
  Hf  Hf20  1  0.11395354  0.10271228  0.64352536  1
  Hf  Hf21  1  0.49993189  0.89807473  0.61692254  1
  Hf  Hf22  1  0.20969520  0.80564627  0.76560110  1
  Hf  Hf23  1  0.40352412  0.00278180  0.26570053  1
  Hf  Hf24  1  0.29972352  0.30502695  0.39363419  1
  Hf  Hf25  1  0.40393536  0.80371219  0.76412014  1
  Hf  Hf26  1  0.91394988  0.08047580  0.12691462  1
  Hf  Hf27  1  0.60700681  0.80829357  0.75924483  1
  Hf  Hf28  1  0.39370793  0.79389986  0.48837998  1
  Hf  Hf29  1  0.09119263  0.91689975  0.11321780  1
  Hf  Hf30  1  0.20661684  0.79080613  -0.00927114  1
  Hf  Hf31  1  0.69986082  0.29703249  0.38965155  1
  Hf  Hf32  1  0.70171270  0.30194744  0.87826128  1
  Hf  Hf33  1  0.09982144  0.68906572  0.87394385  1
  Hf  Hf34  1  -0.00278050  0.21645244  0.74109213  1
  Hf  Hf35  1  0.79232773  0.79207848  -0.01223505  1
  Hf  Hf36  1  0.38824451  0.39628876  0.74809266  1
  Hf  Hf37  1  0.90972958  0.07276494  0.37834832  1
  Hf  Hf38  1  0.79796204  0.17904701  0.25835613  1
  Hf  Hf39  1  0.38423286  0.39115758  -0.00819181  1
  Zr  Zr40  1  0.10037807  0.70183884  0.12730460  1
  Zr  Zr41  1  0.40108332  -0.00011460  0.75033555  1
  Zr  Zr42  1  0.30280869  0.10042122  0.62280609  1
  Zr  Zr43  1  0.09447094  0.31031455  0.87653242  1
  Zr  Zr44  1  0.31458446  0.90298599  0.11935722  1
  Zr  Zr45  1  0.19897627  0.62382900  0.50027378  1
  Zr  Zr46  1  0.39425469  0.40292897  0.25678004  1
  Zr  Zr47  1  0.50756169  0.49758933  0.37289655  1
  Zr  Zr48  1  0.69688891  0.29503843  0.12684634  1
  Zr  Zr49  1  0.20350890  0.21132796  0.25057625  1
  Zr  Zr50  1  0.19246414  0.01677202  0.24244781  1
  Zr  Zr51  1  -0.00512724  0.80424078  0.50265252  1
  Zr  Zr52  1  0.00728391  0.02021233  -0.02395437  1
  Zr  Zr53  1  0.00021732  -0.00538961  0.52652645  1
  Zr  Zr54  1  0.09763969  0.29897178  0.38962765  1
  Zr  Zr55  1  0.60373809  0.38973313  0.74569646  1
  Zr  Zr56  1  0.60042811  0.40332460  -0.00028002  1
  Zr  Zr57  1  -0.00336617  0.59792098  0.00770041  1
  Zr  Zr58  1  0.10502294  0.71772374  0.36444523  1
  Zr  Zr59  1  0.27570474  0.50058444  0.87799515  1
  Zr  Zr60  1  0.18611897  0.40129915  0.73509322  1
  Zr  Zr61  1  0.09471036  0.50808882  0.37904161  1
  Zr  Zr62  1  0.21642070  0.00131369  -0.01473781  1
  Zr  Zr63  1  0.80331735  0.39862668  0.25603107  1
  Zr  Zr64  1  0.60015132  0.60909927  -0.00391614  1
  Zr  Zr65  1  -0.01080778  0.82905049  0.24402103  1
  Zr  Zr66  1  0.09165965  0.29051413  0.11691415  1
  Zr  Zr67  1  0.50908809  0.10337052  0.60723656  1
  Zr  Zr68  1  0.20264521  0.20818759  -0.00622350  1
  Zr  Zr69  1  0.61494806  0.00128457  0.25103447  1
  Zr  Zr70  1  0.89698197  0.69359383  0.35921946  1
  Zr  Zr71  1  0.39014685  0.61006290  -0.01100635  1
  Zr  Zr72  1  0.39683439  0.60448004  0.75594025  1
  Zr  Zr73  1  0.80369741  -0.00689909  -0.01483101  1
  Zr  Zr74  1  0.68972746  0.70187560  0.13286337  1
  Zr  Zr75  1  0.40000936  0.19413738  0.27255866  1
  Zr  Zr76  1  -0.00201602  0.58049136  0.24029762  1
  Zr  Zr77  1  0.70928592  0.49319840  0.62350071  1
  Zr  Zr78  1  0.48974803  0.50568548  0.12749061  1
  Zr  Zr79  1  0.88901069  0.30773747  0.61728072  1
  Ta  Ta80  1  0.70514360  0.49984915  0.12954743  1
  Ta  Ta81  1  0.60273573  0.00843061  0.75103827  1
  Ta  Ta82  1  0.31378438  0.11539286  0.11671320  1
  Ta  Ta83  1  0.20229847  0.80881338  0.24538825  1
  Ta  Ta84  1  0.50309467  0.70072092  0.37161081  1
  Ta  Ta85  1  0.89713080  0.49182147  0.87735505  1
  Ta  Ta86  1  0.19885719  0.41449842  0.25511319  1
  Ta  Ta87  1  -0.00558752  0.40793856  0.50795500  1
  Ta  Ta88  1  0.89800310  0.89309839  0.86072392  1
  Ta  Ta89  1  -0.00944314  0.80904789  -0.00709709  1
  Ta  Ta90  1  -0.00061513  -0.00591571  0.75009232  1
  Ta  Ta91  1  0.59588279  0.19737701  0.26914650  1
  Ta  Ta92  1  0.51126046  0.89833791  0.12149639  1
  Ta  Ta93  1  0.78361060  0.19671114  0.74844406  1
  Ta  Ta94  1  0.69903080  0.07837300  0.39052820  1
  Ta  Ta95  1  0.48999742  0.71187678  0.12713544  1
  Ta  Ta96  1  0.89176732  0.49622591  0.38518289  1
  Ta  Ta97  1  0.30211398  0.69286233  0.12781792  1
  Ta  Ta98  1  0.49484971  0.50229699  0.62657068  1
  Ta  Ta99  1  0.50567736  0.49584411  0.86933626  1
  Ta  Ta100  1  0.11368068  0.48995892  0.11833131  1
  Ta  Ta101  1  0.00047574  0.18993075  0.51435278  1
  Ta  Ta102  1  0.60539372  -0.00589220  0.00273363  1
  Ta  Ta103  1  0.80007815  -0.02579292  0.50940511  1
  Ta  Ta104  1  0.60153523  0.59929510  0.74948683  1
  Ta  Ta105  1  0.19605173  0.60019389  0.73943675  1
  Ta  Ta106  1  0.51832201  0.90609671  0.38310721  1
  Ta  Ta107  1  0.08772556  0.51241759  0.61985691  1
  Ta  Ta108  1  0.28175932  0.90075739  0.37540910  1
  Ta  Ta109  1  0.09070923  0.92583987  0.37525141  1
  Ta  Ta110  1  0.71189236  0.90126920  0.12366906  1
  Ta  Ta111  1  0.59580191  0.80474997  0.25483078  1
  Ta  Ta112  1  0.00990618  0.18223829  0.25507784  1
  Ta  Ta113  1  0.89994022  0.10540196  0.85129259  1
  Ta  Ta114  1  0.30225293  0.70850619  0.62848215  1
  Ta  Ta115  1  0.70617641  0.50275752  0.86732171  1
  Ta  Ta116  1  0.79584368  0.58661093  -0.00299773  1
  Ta  Ta117  1  0.88750285  0.09136582  0.64128846  1
  Ta  Ta118  1  0.09995413  0.30128949  0.61156772  1
  Ta  Ta119  1  0.29291990  0.90038881  0.62233509  1
  Ti  Ti120  1  0.89476496  0.51809567  0.61618075  1
  Ti  Ti121  1  0.81685457  0.59864038  0.75357498  1
  Ti  Ti122  1  0.89029339  0.87887262  0.64670880  1
  Ti  Ti123  1  -0.00756715  0.78720646  0.75701070  1
  Ti  Ti124  1  0.89621408  0.48771221  0.12111257  1
  Ti  Ti125  1  0.69835386  0.09008062  0.61763426  1
  Ti  Ti126  1  0.09915463  0.90289876  0.86897627  1
  Ti  Ti127  1  0.39169181  0.60317637  0.25923150  1
  Ti  Ti128  1  0.69321005  0.09608859  0.87033582  1
  Ti  Ti129  1  0.50221943  0.69970321  0.62930863  1
  Ti  Ti130  1  0.50168721  0.91936133  0.88409108  1
  Ti  Ti131  1  0.40463998  0.81099081  -0.01156819  1
  Ti  Ti132  1  0.59908003  0.80561413  -0.00832302  1
  Ti  Ti133  1  0.08648127  0.50075439  0.87985804  1
  Ti  Ti134  1  0.80488301  0.39762628  0.74979402  1
  Ti  Ti135  1  0.70291447  0.90098625  0.63149288  1
  Ti  Ti136  1  0.70458505  0.09644981  0.12495456  1
  Ti  Ti137  1  0.59860221  0.40206399  0.49999936  1
  Ti  Ti138  1  0.50185999  0.09292964  0.13024474  1
  Ti  Ti139  1  0.80591075  0.17662777  0.50109152  1
  Ti  Ti140  1  0.11161060  0.11055793  0.84945796  1
  Ti  Ti141  1  0.00458805  0.38692039  0.24970806  1
  Ti  Ti142  1  0.79134753  -0.01074734  0.75661918  1
  Ti  Ti143  1  0.50693476  0.70033815  0.87475908  1
  Ti  Ti144  1  0.40584153  0.40727303  0.50048876  1
  Ti  Ti145  1  0.11012138  0.90442973  0.64486553  1
  Ti  Ti146  1  0.89720993  0.30276013  0.87338428  1
  Ti  Ti147  1  0.90188437  0.68826404  0.87472218  1
  Ti  Ti148  1  0.70712467  0.50101689  0.37872930  1
  Ti  Ti149  1  0.20983770  0.60184305  0.25148525  1
  Ti  Ti150  1  0.60024515  0.39453537  0.25408405  1
  Ti  Ti151  1  0.80856966  0.78461700  0.49705912  1
  Ti  Ti152  1  0.28975538  0.32057339  0.12422053  1
  Ti  Ti153  1  0.70722891  0.69574561  0.86360374  1
  Ti  Ti154  1  0.19476073  0.81831330  0.50194284  1
  Ti  Ti155  1  0.59394612  0.59778981  0.24635148  1
  Ti  Ti156  1  0.79224457  0.81805112  0.25315359  1
  Ti  Ti157  1  -0.00845430  0.41911361  0.73931209  1
  Ti  Ti158  1  -0.00962803  0.39247129  0.00081937  1
  Ti  Ti159  1  -0.01295553  0.61054672  0.49943853  1
  Mo  Mo160  1  0.79146310  0.58675308  0.24430324  1
  Mo  Mo161  1  0.29633928  0.50868532  0.37151142  1
  Mo  Mo162  1  0.40787805  0.20379237  0.74186953  1
  Mo  Mo163  1  0.30122872  0.70301422  0.87664872  1
  Mo  Mo164  1  0.42208601  0.01016895  0.00649286  1
  Mo  Mo165  1  -0.00668525  0.19653407  -0.01731419  1
  Mo  Mo166  1  0.19405633  0.19105274  0.49866696  1
  Mo  Mo167  1  0.00009154  0.59094095  0.75303157  1
  Mo  Mo168  1  0.30165569  0.51141464  0.62813530  1
  Mo  Mo169  1  0.21322899  0.21058921  0.75561036  1
  Mo  Mo170  1  0.80490485  0.40603351  -0.00118448  1
  Mo  Mo171  1  0.50556125  0.30092823  0.38780324  1
  Mo  Mo172  1  0.80814047  -0.01069852  0.24747925  1
  Mo  Mo173  1  0.19152374  0.40845837  -0.00030485  1
  Mo  Mo174  1  0.61061717  -0.00869796  0.50198165  1
  Mo  Mo175  1  0.40168256  0.20089720  0.00929854  1
  Mo  Mo176  1  0.71376430  0.89184666  0.37734875  1
  Mo  Mo177  1  0.29245258  0.29774721  0.86486494  1
  Mo  Mo178  1  0.10147673  0.10372395  0.38731962  1
  Mo  Mo179  1  0.40279659  0.20276961  0.48076240  1
  Mo  Mo180  1  0.60287565  0.19311156  0.48444587  1
  Mo  Mo181  1  0.29371227  0.50793484  0.12541771  1
  Mo  Mo182  1  0.89541398  0.89201969  0.11208720  1
  Mo  Mo183  1  0.89157930  0.89538204  0.38098441  1
  Mo  Mo184  1  0.69232288  0.90185632  0.87259466  1
  Mo  Mo185  1  0.80370591  0.79557384  0.76321972  1
  Mo  Mo186  1  -0.00067598  0.00550266  0.24807503  1
  Mo  Mo187  1  0.51395407  0.09642582  0.87439150  1
  Mo  Mo188  1  0.27911443  0.09640876  0.38955928  1
  Mo  Mo189  1  0.80293497  0.60201969  0.49853302  1
  Mo  Mo190  1  0.80119729  0.40600726  0.49470799  1
  Mo  Mo191  1  0.20171849  -0.00229856  0.76734870  1
  Mo  Mo192  1  0.29762711  0.70599967  0.36485608  1
  Mo  Mo193  1  0.10610516  0.10547224  0.11978513  1
  Mo  Mo194  1  0.50578670  0.10051861  0.38797598  1
  Mo  Mo195  1  0.60546254  0.18926835  0.74655837  1
  Mo  Mo196  1  0.90331549  0.69361444  0.63118815  1
  Mo  Mo197  1  0.19749400  0.59873027  0.00582905  1
  Mo  Mo198  1  0.31017868  0.90367426  0.88610663  1
  Mo  Mo199  1  0.19346094  -0.00746296  0.50477498  1
