# generated using pymatgen
data_HfZrTaTiMo
_symmetry_space_group_name_H-M   'P 1'
_cell_length_a   15.20856260
_cell_length_b   15.20633687
_cell_length_c   16.87251043
_cell_angle_alpha   90.00615542
_cell_angle_beta   89.96226953
_cell_angle_gamma   90.11716276
_symmetry_Int_Tables_number   1
_chemical_formula_structural   HfZrTaTiMo
_chemical_formula_sum   'Hf40 Zr40 Ta40 Ti40 Mo40'
_cell_volume   3902.03784867
_cell_formula_units_Z   40
loop_
 _symmetry_equiv_pos_site_id
 _symmetry_equiv_pos_as_xyz
  1  'x, y, z'
loop_
 _atom_site_type_symbol
 _atom_site_label
 _atom_site_symmetry_multiplicity
 _atom_site_fract_x
 _atom_site_fract_y
 _atom_site_fract_z
 _atom_site_occupancy
  Hf  Hf0  1  0.49583130  0.10178701  0.38069608  1
  Hf  Hf1  1  0.10025166  0.70169446  0.38157611  1
  Hf  Hf2  1  0.90951907  0.69649594  0.12879084  1
  Hf  Hf3  1  0.20331627  0.19828545  -0.00345098  1
  Hf  Hf4  1  0.80533322  0.79620929  0.26621609  1
  Hf  Hf5  1  0.62279755  0.81024942  0.01232559  1
  Hf  Hf6  1  0.19450112  0.42790756  0.50570078  1
  Hf  Hf7  1  0.11071057  0.91753390  0.39166892  1
  Hf  Hf8  1  0.40605626  0.59088405  -0.00364981  1
  Hf  Hf9  1  0.69059154  0.89174909  0.86113402  1
  Hf  Hf10  1  0.90286356  0.90286380  0.39459502  1
  Hf  Hf11  1  0.71719554  0.69199455  0.12454332  1
  Hf  Hf12  1  0.60892849  0.39960884  0.74676350  1
  Hf  Hf13  1  0.28884268  0.09047379  0.38883878  1
  Hf  Hf14  1  0.21014560  0.40692829  -0.01643815  1
  Hf  Hf15  1  0.39582818  -0.01931093  0.73213342  1
  Hf  Hf16  1  0.79315404  0.41313956  0.24172912  1
  Hf  Hf17  1  0.60464364  0.20831454  -0.00653442  1
  Hf  Hf18  1  0.69667011  0.90005874  0.39025647  1
  Hf  Hf19  1  0.10000272  0.30861006  0.12438134  1
  Hf  Hf20  1  0.21426094  0.81599262  0.73889442  1
  Hf  Hf21  1  0.50266008  0.29022155  0.86025873  1
  Hf  Hf22  1  0.20729074  0.60312754  0.24147341  1
  Hf  Hf23  1  0.39636921  0.79621099  0.24669448  1
  Hf  Hf24  1  0.80208479  0.60000356  0.49445128  1
  Hf  Hf25  1  0.32119749  0.70779906  0.62640165  1
  Hf  Hf26  1  0.48729918  0.08588678  0.86173058  1
  Hf  Hf27  1  0.80284832  0.59482332  0.74518498  1
  Hf  Hf28  1  0.68340935  0.50400957  0.38063097  1
  Hf  Hf29  1  0.51195898  0.68814636  0.36753033  1
  Hf  Hf30  1  0.38692544  0.40072594  0.74649041  1
  Hf  Hf31  1  0.80041251  0.79441056  0.51007011  1
  Hf  Hf32  1  0.79800242  0.19571938  0.75451050  1
  Hf  Hf33  1  0.19901348  0.19760221  0.25614328  1
  Hf  Hf34  1  0.10083559  0.90840101  0.87159250  1
  Hf  Hf35  1  0.81136805  0.19971563  0.50219986  1
  Hf  Hf36  1  0.78925136  -0.01902271  -0.00500825  1
  Hf  Hf37  1  0.00287755  0.20904489  0.76812271  1
  Hf  Hf38  1  0.30794364  0.08560873  0.13171195  1
  Hf  Hf39  1  0.00875533  0.79748128  0.51856103  1
  Zr  Zr40  1  0.88908585  0.52112158  0.88683144  1
  Zr  Zr41  1  0.89335748  0.29338512  0.11552715  1
  Zr  Zr42  1  0.09386792  0.71281130  0.86327768  1
  Zr  Zr43  1  0.40062603  0.19342746  -0.00307681  1
  Zr  Zr44  1  -0.00799409  0.00571692  0.24662526  1
  Zr  Zr45  1  -0.00144489  0.38412924  0.49929511  1
  Zr  Zr46  1  0.68449531  0.29649772  0.13517510  1
  Zr  Zr47  1  -0.00570105  -0.00438289  0.00231570  1
  Zr  Zr48  1  0.90406943  0.49485199  0.37693516  1
  Zr  Zr49  1  0.00146788  -0.00332071  0.73706513  1
  Zr  Zr50  1  0.09709831  0.12745378  0.62542124  1
  Zr  Zr51  1  0.00356547  0.61351498  -0.00427510  1
  Zr  Zr52  1  0.19240688  0.22045019  0.49022255  1
  Zr  Zr53  1  0.30276929  0.69215874  0.38068591  1
  Zr  Zr54  1  0.50780495  0.11840114  0.14298222  1
  Zr  Zr55  1  0.09694099  0.10216893  0.12405276  1
  Zr  Zr56  1  0.77130432  0.39532477  -0.01368445  1
  Zr  Zr57  1  0.18503092  0.40121510  0.76594427  1
  Zr  Zr58  1  0.51087951  0.69051276  0.12541445  1
  Zr  Zr59  1  0.01888447  0.58971323  0.51140178  1
  Zr  Zr60  1  0.71550628  0.30896476  0.61943068  1
  Zr  Zr61  1  0.00585488  0.80241760  0.25645228  1
  Zr  Zr62  1  0.50118382  0.50065869  0.87064746  1
  Zr  Zr63  1  0.70696810  0.08879132  0.12418922  1
  Zr  Zr64  1  0.49552042  0.51049140  0.63635239  1
  Zr  Zr65  1  0.31367236  0.91551660  0.87988794  1
  Zr  Zr66  1  0.79998768  0.18855561  0.25529248  1
  Zr  Zr67  1  0.30305469  0.31663533  0.37552016  1
  Zr  Zr68  1  0.58569778  0.40578171  0.50825227  1
  Zr  Zr69  1  0.31037920  0.71128659  0.87413034  1
  Zr  Zr70  1  0.80157083  -0.01222047  0.73044658  1
  Zr  Zr71  1  0.69501421  0.30162274  0.37441774  1
  Zr  Zr72  1  0.49812587  0.91784136  0.13929914  1
  Zr  Zr73  1  0.09464422  0.50717460  0.12270310  1
  Zr  Zr74  1  -0.00377507  0.19622963  -0.01475385  1
  Zr  Zr75  1  0.89936890  0.47229820  0.62517031  1
  Zr  Zr76  1  0.40738409  0.81487862  0.01109881  1
  Zr  Zr77  1  0.80350541  0.39108369  0.77142677  1
  Zr  Zr78  1  0.30185566  0.10001826  0.60347005  1
  Zr  Zr79  1  0.59086824  0.20145899  0.50712162  1
  Ta  Ta80  1  0.00992883  0.59149290  0.74581837  1
  Ta  Ta81  1  0.69480848  0.09747151  0.62285839  1
  Ta  Ta82  1  -0.00451287  0.40338232  0.24546338  1
  Ta  Ta83  1  0.69987885  0.51231517  0.61843563  1
  Ta  Ta84  1  0.20514199  0.60561579  -0.00849828  1
  Ta  Ta85  1  0.39600397  0.40471397  0.24529360  1
  Ta  Ta86  1  0.79511721  -0.01057608  0.25281961  1
  Ta  Ta87  1  0.20693249  0.01889724  0.74527374  1
  Ta  Ta88  1  0.28088642  0.30038154  0.63080239  1
  Ta  Ta89  1  0.89421207  0.07980996  0.86885758  1
  Ta  Ta90  1  0.19894183  -0.00781511  0.25253924  1
  Ta  Ta91  1  0.79720288  0.78835545  0.72985382  1
  Ta  Ta92  1  0.40326631  0.58739333  0.24116107  1
  Ta  Ta93  1  0.61147837  0.80347528  0.25059548  1
  Ta  Ta94  1  0.58454464  0.00197382  -0.00426353  1
  Ta  Ta95  1  0.28630619  0.51418483  0.63444147  1
  Ta  Ta96  1  0.10594871  0.89780511  0.12381861  1
  Ta  Ta97  1  0.89656988  0.87701138  0.86546734  1
  Ta  Ta98  1  0.52151517  0.72085525  0.87461693  1
  Ta  Ta99  1  0.61232890  0.61646553  0.75717550  1
  Ta  Ta100  1  0.70183466  0.09285170  0.38572660  1
  Ta  Ta101  1  0.20605543  0.80786427  0.25078439  1
  Ta  Ta102  1  0.30241614  0.30052059  0.12584273  1
  Ta  Ta103  1  0.72647036  0.70027083  0.88236356  1
  Ta  Ta104  1  0.49154744  0.31954978  0.12052550  1
  Ta  Ta105  1  0.49755050  0.89531614  0.37390948  1
  Ta  Ta106  1  0.59311290  -0.00752278  0.73360385  1
  Ta  Ta107  1  0.09282460  0.31053507  0.35994673  1
  Ta  Ta108  1  0.60573356  0.00349814  0.26397950  1
  Ta  Ta109  1  0.00165798  0.40008495  -0.02120580  1
  Ta  Ta110  1  0.00152881  0.19539547  0.48399609  1
  Ta  Ta111  1  0.39640632  0.58728459  0.50229636  1
  Ta  Ta112  1  -0.00258897  0.40025555  0.77444882  1
  Ta  Ta113  1  0.38977719  0.39271864  0.51887824  1
  Ta  Ta114  1  0.40462456  0.61181238  0.75987823  1
  Ta  Ta115  1  0.11448412  0.50197981  0.36412726  1
  Ta  Ta116  1  0.19516841  0.80247782  0.00484383  1
  Ta  Ta117  1  -0.00399331  0.20220171  0.25629145  1
  Ta  Ta118  1  0.79774052  0.18537643  -0.02011885  1
  Ta  Ta119  1  0.68535533  0.09594477  0.86100451  1
  Ti  Ti120  1  0.48881015  0.28460566  0.63617413  1
  Ti  Ti121  1  0.29785477  0.70127496  0.11883845  1
  Ti  Ti122  1  0.11512924  0.10231495  0.87051639  1
  Ti  Ti123  1  -0.01211149  0.01016245  0.51886710  1
  Ti  Ti124  1  0.38977687  -0.00641017  0.26702726  1
  Ti  Ti125  1  0.11689818  0.91481041  0.61583449  1
  Ti  Ti126  1  0.29983678  0.28803335  0.86752433  1
  Ti  Ti127  1  0.58158213  0.40086158  0.25342877  1
  Ti  Ti128  1  0.21178088  -0.00149999  0.00220292  1
  Ti  Ti129  1  0.88694267  0.89967947  0.12526845  1
  Ti  Ti130  1  0.12339165  0.68691776  0.62899200  1
  Ti  Ti131  1  -0.00477591  0.59966543  0.25721064  1
  Ti  Ti132  1  0.40967605  0.79242616  0.49199151  1
  Ti  Ti133  1  0.10645168  0.70711072  0.12501593  1
  Ti  Ti134  1  0.21662051  0.80977084  0.50659731  1
  Ti  Ti135  1  0.47703868  0.49239414  0.37914746  1
  Ti  Ti136  1  0.39168173  -0.01981268  0.49766077  1
  Ti  Ti137  1  0.69073975  0.89187089  0.61758103  1
  Ti  Ti138  1  0.59555105  -0.00655605  0.50545974  1
  Ti  Ti139  1  0.49445957  0.30115843  0.37758321  1
  Ti  Ti140  1  0.40124167  0.20911488  0.25375420  1
  Ti  Ti141  1  0.49614442  0.09455236  0.61811833  1
  Ti  Ti142  1  0.60454233  0.59218091  0.24668028  1
  Ti  Ti143  1  0.59581696  0.60839895  0.50288959  1
  Ti  Ti144  1  0.20563063  0.59807353  0.76434619  1
  Ti  Ti145  1  0.20493034  0.40752384  0.24457018  1
  Ti  Ti146  1  0.38164138  0.18586728  0.74435054  1
  Ti  Ti147  1  0.31045964  0.49238059  0.11414595  1
  Ti  Ti148  1  0.67804105  0.49555041  0.11732342  1
  Ti  Ti149  1  0.90315089  0.68785713  0.62691782  1
  Ti  Ti150  1  0.49488819  0.88454903  0.61628577  1
  Ti  Ti151  1  0.89889790  0.09236164  0.38007367  1
  Ti  Ti152  1  0.89473520  0.30061731  0.36814078  1
  Ti  Ti153  1  0.51651398  0.70220947  0.63071837  1
  Ti  Ti154  1  0.61374874  0.59379757  -0.01078482  1
  Ti  Ti155  1  0.59981112  0.79041441  0.49761393  1
  Ti  Ti156  1  0.80054595  0.60733362  0.26976454  1
  Ti  Ti157  1  0.88702197  0.50334122  0.11214980  1
  Ti  Ti158  1  -0.00585774  0.80536858  0.00039809  1
  Ti  Ti159  1  -0.00105957  0.79880056  0.72642192  1
  Mo  Mo160  1  0.68843420  0.28847254  0.87011441  1
  Mo  Mo161  1  0.69592674  0.69784538  0.37291615  1
  Mo  Mo162  1  0.08880643  0.10481613  0.37375629  1
  Mo  Mo163  1  0.39926150  0.39323080  -0.00538081  1
  Mo  Mo164  1  0.30473682  0.89755078  0.61515254  1
  Mo  Mo165  1  0.89157462  0.09455952  0.12386617  1
  Mo  Mo166  1  0.51011641  0.90173039  0.87370554  1
  Mo  Mo167  1  0.29566440  0.09916894  0.87014915  1
  Mo  Mo168  1  0.68997761  0.50829114  0.87543732  1
  Mo  Mo169  1  0.28880537  0.89647203  0.12688980  1
  Mo  Mo170  1  0.40327049  0.00441491  0.00465060  1
  Mo  Mo171  1  0.10030701  0.50987601  0.87901416  1
  Mo  Mo172  1  0.10187278  0.50229803  0.63921070  1
  Mo  Mo173  1  0.79457661  0.00239521  0.51592336  1
  Mo  Mo174  1  0.10271421  0.29813539  0.88333473  1
  Mo  Mo175  1  0.79714265  0.39779834  0.49920688  1
  Mo  Mo176  1  0.90498917  0.70995437  0.85706961  1
  Mo  Mo177  1  0.59340968  0.18662812  0.73418148  1
  Mo  Mo178  1  0.69624217  0.69495227  0.62203787  1
  Mo  Mo179  1  0.89746853  0.10694711  0.62355395  1
  Mo  Mo180  1  0.69889636  0.89620400  0.13416760  1
  Mo  Mo181  1  0.30612610  0.89585690  0.38077826  1
  Mo  Mo182  1  0.79664929  0.60649588  0.00385994  1
  Mo  Mo183  1  0.58064773  0.40571299  -0.00526541  1
  Mo  Mo184  1  0.90596203  0.69709878  0.37897008  1
  Mo  Mo185  1  0.42462887  0.79885276  0.74834443  1
  Mo  Mo186  1  0.81675941  0.79750072  0.00070218  1
  Mo  Mo187  1  0.60565717  0.80295470  0.74210150  1
  Mo  Mo188  1  0.50329821  0.49747290  0.12179871  1
  Mo  Mo189  1  0.58949160  0.20399068  0.26162926  1
  Mo  Mo190  1  0.90394435  0.89416407  0.61611077  1
  Mo  Mo191  1  0.19165045  0.00294030  0.50552812  1
  Mo  Mo192  1  0.91900842  0.28028485  0.62888660  1
  Mo  Mo193  1  0.89410881  0.29428257  0.88676896  1
  Mo  Mo194  1  0.30314719  0.50809656  0.87225460  1
  Mo  Mo195  1  0.08701733  0.31523373  0.63031033  1
  Mo  Mo196  1  0.20803792  0.61208232  0.50715979  1
  Mo  Mo197  1  0.40217899  0.21186794  0.50687154  1
  Mo  Mo198  1  0.30474648  0.50221925  0.37359782  1
  Mo  Mo199  1  0.20350895  0.20443173  0.75256874  1
