# generated using pymatgen
data_HfZrTaTiMo
_symmetry_space_group_name_H-M   'P 1'
_cell_length_a   15.20937208
_cell_length_b   15.20459490
_cell_length_c   16.87251584
_cell_angle_alpha   90.02553639
_cell_angle_beta   89.98422857
_cell_angle_gamma   90.06128227
_symmetry_Int_Tables_number   1
_chemical_formula_structural   HfZrTaTiMo
_chemical_formula_sum   'Hf40 Zr40 Ta40 Ti40 Mo40'
_cell_volume   3901.80602199
_cell_formula_units_Z   40
loop_
 _symmetry_equiv_pos_site_id
 _symmetry_equiv_pos_as_xyz
  1  'x, y, z'
loop_
 _atom_site_type_symbol
 _atom_site_label
 _atom_site_symmetry_multiplicity
 _atom_site_fract_x
 _atom_site_fract_y
 _atom_site_fract_z
 _atom_site_occupancy
  Hf  Hf0  1  0.58923742  0.78808258  -0.01153265  1
  Hf  Hf1  1  0.90648423  0.50363556  0.38907846  1
  Hf  Hf2  1  0.48770703  0.88835840  0.64623745  1
  Hf  Hf3  1  0.80533670  0.18044639  0.01186401  1
  Hf  Hf4  1  0.17692676  -0.00065906  -0.00014648  1
  Hf  Hf5  1  0.01139987  0.38174260  0.73905500  1
  Hf  Hf6  1  0.70352406  0.49558241  0.62091221  1
  Hf  Hf7  1  0.11593333  0.71170702  0.13128587  1
  Hf  Hf8  1  0.08274060  0.91203343  0.38952829  1
  Hf  Hf9  1  0.17693717  0.02414822  0.73609351  1
  Hf  Hf10  1  0.30216307  0.31007294  0.88311469  1
  Hf  Hf11  1  0.60682240  0.56802506  0.77133021  1
  Hf  Hf12  1  0.38564362  0.20725495  0.75229671  1
  Hf  Hf13  1  0.28609108  0.89778483  0.38285401  1
  Hf  Hf14  1  0.47956486  0.89137807  0.11215355  1
  Hf  Hf15  1  0.20403904  0.40068530  0.00544184  1
  Hf  Hf16  1  0.20864530  0.60055909  0.00494638  1
  Hf  Hf17  1  0.30976155  0.70518738  0.63616062  1
  Hf  Hf18  1  0.39447980  0.38940116  0.49297166  1
  Hf  Hf19  1  0.40040205  0.19745007  0.00481903  1
  Hf  Hf20  1  0.90637553  0.10570659  0.38862229  1
  Hf  Hf21  1  0.60116523  0.58045170  -0.00967327  1
  Hf  Hf22  1  0.28601687  0.90278352  0.84817342  1
  Hf  Hf23  1  0.48522332  0.89840384  0.86660787  1
  Hf  Hf24  1  0.41435567  0.60799033  0.50427177  1
  Hf  Hf25  1  0.91795733  0.30374018  0.59899950  1
  Hf  Hf26  1  0.50090869  0.29063162  0.36887822  1
  Hf  Hf27  1  0.00074966  0.82117796  0.23965816  1
  Hf  Hf28  1  0.51459213  0.68828281  0.65053567  1
  Hf  Hf29  1  0.60677995  0.37799792  0.74436666  1
  Hf  Hf30  1  0.49656292  0.09235265  0.13154298  1
  Hf  Hf31  1  0.68961778  0.89423675  0.12269315  1
  Hf  Hf32  1  0.90185013  0.50806266  0.87396071  1
  Hf  Hf33  1  -0.00876852  0.39312654  0.26202923  1
  Hf  Hf34  1  0.21520111  0.39446684  0.74231565  1
  Hf  Hf35  1  0.81442110  0.81514096  0.75630502  1
  Hf  Hf36  1  0.91497825  0.71225587  0.88046115  1
  Hf  Hf37  1  0.00743318  0.82144102  0.01144246  1
  Hf  Hf38  1  0.19777093  0.00611063  0.51171043  1
  Hf  Hf39  1  0.21677524  0.80419368  -0.00741666  1
  Zr  Zr40  1  0.10803571  0.49367988  0.87246284  1
  Zr  Zr41  1  0.80377224  0.21851179  0.26006633  1
  Zr  Zr42  1  0.81424814  0.21247766  0.72856875  1
  Zr  Zr43  1  0.71616447  0.69029702  0.86951807  1
  Zr  Zr44  1  0.89046155  0.09891726  0.86859608  1
  Zr  Zr45  1  0.49289725  0.28629573  0.61751578  1
  Zr  Zr46  1  0.59178792  0.77245776  0.49637575  1
  Zr  Zr47  1  0.18823622  -0.00673977  0.25155582  1
  Zr  Zr48  1  0.10828198  0.50661244  0.37929076  1
  Zr  Zr49  1  0.77696621  0.01496978  0.73433771  1
  Zr  Zr50  1  0.40780061  0.62150750  0.01186433  1
  Zr  Zr51  1  0.61699451  0.38174820  0.49785718  1
  Zr  Zr52  1  0.80249707  0.38823434  0.00046051  1
  Zr  Zr53  1  0.60572706  0.20400184  0.01573508  1
  Zr  Zr54  1  0.61353697  0.39512900  0.24765259  1
  Zr  Zr55  1  0.08431345  0.10389569  0.13069134  1
  Zr  Zr56  1  0.20693603  0.38904648  0.26371660  1
  Zr  Zr57  1  0.90454784  0.50666813  0.61826585  1
  Zr  Zr58  1  0.37919315  0.79707398  0.24498921  1
  Zr  Zr59  1  0.28509370  0.10427749  0.87446322  1
  Zr  Zr60  1  0.42340109  0.60285057  0.24279375  1
  Zr  Zr61  1  0.21642596  0.61284873  0.25069886  1
  Zr  Zr62  1  0.90643275  0.49187203  0.12556292  1
  Zr  Zr63  1  0.10809498  0.70364867  0.87286758  1
  Zr  Zr64  1  0.91607386  0.29683172  0.87351189  1
  Zr  Zr65  1  0.01109989  0.60826865  0.74000162  1
  Zr  Zr66  1  0.10633436  0.71493397  0.37210238  1
  Zr  Zr67  1  0.31354652  0.49259343  0.13613154  1
  Zr  Zr68  1  0.79017868  0.61360096  0.49860753  1
  Zr  Zr69  1  0.61321327  0.17670484  0.74676510  1
  Zr  Zr70  1  0.50730580  0.29777846  0.87705950  1
  Zr  Zr71  1  0.52010112  0.51355944  0.38077149  1
  Zr  Zr72  1  0.59086906  -0.01477034  0.49216857  1
  Zr  Zr73  1  0.58818564  0.78700954  0.24730230  1
  Zr  Zr74  1  0.90310322  0.72044484  0.62784825  1
  Zr  Zr75  1  0.89305666  0.70700487  0.12398090  1
  Zr  Zr76  1  0.78928346  0.00047376  0.49978287  1
  Zr  Zr77  1  0.89812859  0.71014573  0.37123457  1
  Zr  Zr78  1  0.68994869  0.88669728  0.62771740  1
  Zr  Zr79  1  0.49319656  0.08157547  0.63343543  1
  Ta  Ta80  1  0.48854827  0.09343910  0.36725076  1
  Ta  Ta81  1  0.20154491  0.19542868  0.25999684  1
  Ta  Ta82  1  0.79783001  0.59226131  0.25101113  1
  Ta  Ta83  1  0.48580026  0.68654531  0.85647293  1
  Ta  Ta84  1  0.21128938  0.59844734  0.50632242  1
  Ta  Ta85  1  0.59870382  0.00420916  -0.00579778  1
  Ta  Ta86  1  0.88414475  0.92530849  0.12629766  1
  Ta  Ta87  1  0.29629090  0.91482051  0.63835126  1
  Ta  Ta88  1  0.19261503  0.79495431  0.51913797  1
  Ta  Ta89  1  0.39082465  0.20121351  0.24877381  1
  Ta  Ta90  1  0.30009827  0.29184721  0.12692481  1
  Ta  Ta91  1  0.08165255  0.89962329  0.62470423  1
  Ta  Ta92  1  0.00746412  0.59906738  0.00939166  1
  Ta  Ta93  1  0.19271055  0.20136957  0.00795526  1
  Ta  Ta94  1  0.80316564  0.59630609  0.00079806  1
  Ta  Ta95  1  0.30854699  0.70135610  0.38921672  1
  Ta  Ta96  1  0.79268129  0.00035895  0.26232131  1
  Ta  Ta97  1  0.78526673  0.21346922  0.49464482  1
  Ta  Ta98  1  0.00057726  0.60299954  0.24565302  1
  Ta  Ta99  1  0.50411246  0.49470422  0.61908456  1
  Ta  Ta100  1  0.10884221  0.28542463  0.87367714  1
  Ta  Ta101  1  0.68766042  0.10442251  0.36864517  1
  Ta  Ta102  1  0.71215459  0.28727572  0.87481977  1
  Ta  Ta103  1  0.59218976  -0.00685755  0.25701147  1
  Ta  Ta104  1  0.10167571  0.49973076  0.13401794  1
  Ta  Ta105  1  0.79989400  0.41015535  0.75380037  1
  Ta  Ta106  1  0.89072028  0.90348813  0.37433534  1
  Ta  Ta107  1  0.68606567  0.68249281  0.36663998  1
  Ta  Ta108  1  0.39245641  0.00716039  0.49964670  1
  Ta  Ta109  1  0.01866155  0.61711545  0.50939946  1
  Ta  Ta110  1  0.29188401  0.12777267  0.62014415  1
  Ta  Ta111  1  0.31974706  0.51171650  0.87210905  1
  Ta  Ta112  1  0.70619581  0.49219498  0.12506371  1
  Ta  Ta113  1  0.30359680  0.70153691  0.85308976  1
  Ta  Ta114  1  0.29483131  0.09553109  0.12367878  1
  Ta  Ta115  1  0.41569689  0.41076372  0.00599066  1
  Ta  Ta116  1  0.70786238  0.08800392  0.13773578  1
  Ta  Ta117  1  0.48530751  0.89299799  0.37384269  1
  Ta  Ta118  1  0.08044282  0.90947888  0.86028326  1
  Ta  Ta119  1  0.09988834  0.30389016  0.13124151  1
  Ti  Ti120  1  0.10935985  0.10854295  0.38893542  1
  Ti  Ti121  1  0.79223424  0.79953255  0.24951858  1
  Ti  Ti122  1  0.10929349  0.49230689  0.61106499  1
  Ti  Ti123  1  0.89584757  0.91238414  0.88394412  1
  Ti  Ti124  1  0.12071382  0.29228513  0.60384625  1
  Ti  Ti125  1  0.60164680  0.19471605  0.24262839  1
  Ti  Ti126  1  0.20693204  0.59196125  0.73708258  1
  Ti  Ti127  1  0.49771910  0.09043560  0.86942148  1
  Ti  Ti128  1  0.20449161  0.39273526  0.48653849  1
  Ti  Ti129  1  -0.01343464  0.01439022  0.25154102  1
  Ti  Ti130  1  0.38933364  0.00118653  0.25168502  1
  Ti  Ti131  1  -0.02225016  0.00189354  0.73446353  1
  Ti  Ti132  1  0.30821150  0.49229674  0.61942687  1
  Ti  Ti133  1  -0.02271765  0.01606122  0.00698246  1
  Ti  Ti134  1  -0.01028538  0.81045251  0.50434364  1
  Ti  Ti135  1  0.90231073  0.10265072  0.60172357  1
  Ti  Ti136  1  0.69265062  0.88830649  0.36936899  1
  Ti  Ti137  1  0.41042880  0.41063303  0.74742270  1
  Ti  Ti138  1  0.90292243  0.29227632  0.12974234  1
  Ti  Ti139  1  0.00273074  0.20628931  0.00594017  1
  Ti  Ti140  1  0.27858100  0.89651017  0.12628595  1
  Ti  Ti141  1  0.08671716  0.11493637  0.60807794  1
  Ti  Ti142  1  0.60979890  0.59632150  0.23377831  1
  Ti  Ti143  1  0.71488534  0.48525654  0.37646393  1
  Ti  Ti144  1  0.49487822  0.31167065  0.13697244  1
  Ti  Ti145  1  0.59387862  0.18278380  0.49901485  1
  Ti  Ti146  1  0.18192964  0.79762305  0.73460393  1
  Ti  Ti147  1  0.08209049  0.10494005  0.87251746  1
  Ti  Ti148  1  0.70824721  0.68797016  0.64952374  1
  Ti  Ti149  1  0.70015991  0.91607141  0.87984948  1
  Ti  Ti150  1  0.79176879  0.80535946  0.49575599  1
  Ti  Ti151  1  0.01077646  0.39881105  0.00324870  1
  Ti  Ti152  1  0.39395257  0.81043642  0.50716668  1
  Ti  Ti153  1  0.00836970  0.20599691  0.26846206  1
  Ti  Ti154  1  0.60699438  0.39309753  0.00736275  1
  Ti  Ti155  1  0.38423718  -0.00726105  -0.00394162  1
  Ti  Ti156  1  0.79886689  0.80726793  -0.00164383  1
  Ti  Ti157  1  0.60712021  0.79972390  0.76821650  1
  Ti  Ti158  1  0.70036710  0.69301693  0.11652028  1
  Ti  Ti159  1  0.31555014  0.49903764  0.37088143  1
  Mo  Mo160  1  0.40498040  0.39148043  0.25390359  1
  Mo  Mo161  1  0.80669598  0.40113825  0.49642309  1
  Mo  Mo162  1  0.69316901  0.10800858  0.60856791  1
  Mo  Mo163  1  0.71127557  0.29533319  0.62256749  1
  Mo  Mo164  1  0.51401950  0.49432120  0.12392748  1
  Mo  Mo165  1  0.80321706  0.59871386  0.75404985  1
  Mo  Mo166  1  0.29911259  0.30777149  0.61852707  1
  Mo  Mo167  1  0.00945609  0.20368521  0.48785381  1
  Mo  Mo168  1  0.21662533  0.20526476  0.48549371  1
  Mo  Mo169  1  0.38796990  0.01049435  0.74827680  1
  Mo  Mo170  1  0.18326959  0.21158709  0.74387665  1
  Mo  Mo171  1  0.70383111  0.29442170  0.12787597  1
  Mo  Mo172  1  0.89732836  0.91080733  0.61873779  1
  Mo  Mo173  1  0.09037361  0.90772056  0.12407176  1
  Mo  Mo174  1  0.60503260  0.59361581  0.50473102  1
  Mo  Mo175  1  0.01807130  0.41037054  0.50225138  1
  Mo  Mo176  1  0.39251290  0.79687254  0.74808196  1
  Mo  Mo177  1  0.39791335  0.58335589  0.74244390  1
  Mo  Mo178  1  0.19509896  0.80527984  0.25638946  1
  Mo  Mo179  1  0.78951397  -0.00505566  0.00373885  1
  Mo  Mo180  1  0.10679140  0.69784025  0.62327751  1
  Mo  Mo181  1  0.59650449  -0.00927490  0.76413873  1
  Mo  Mo182  1  0.30122385  0.29187332  0.37099735  1
  Mo  Mo183  1  0.39932253  0.18896025  0.49148506  1
  Mo  Mo184  1  0.49521998  0.70573468  0.37723743  1
  Mo  Mo185  1  0.00275015  0.81724944  0.75113580  1
  Mo  Mo186  1  0.80312658  0.40691868  0.25257059  1
  Mo  Mo187  1  0.30381733  0.09669343  0.37327454  1
  Mo  Mo188  1  0.09635160  0.29592198  0.38556425  1
  Mo  Mo189  1  0.69755293  0.29368351  0.37398404  1
  Mo  Mo190  1  0.89425473  0.10513119  0.13995938  1
  Mo  Mo191  1  0.39362200  0.80607112  -0.01061229  1
  Mo  Mo192  1  0.51670056  0.70304344  0.11665834  1
  Mo  Mo193  1  0.70728673  0.47727228  0.88168719  1
  Mo  Mo194  1  -0.00379821  0.00109144  0.50688636  1
  Mo  Mo195  1  0.01677686  0.18675315  0.73563173  1
  Mo  Mo196  1  0.89862254  0.31115170  0.39651709  1
  Mo  Mo197  1  0.68910862  0.09987710  0.88210836  1
  Mo  Mo198  1  0.31109459  0.71431538  0.12052446  1
  Mo  Mo199  1  0.49797439  0.48700908  0.87848579  1
