# generated using pymatgen
data_HfZrTaTiMo
_symmetry_space_group_name_H-M   'P 1'
_cell_length_a   15.21778020
_cell_length_b   15.20282658
_cell_length_c   16.85461442
_cell_angle_alpha   90.01469234
_cell_angle_beta   89.99046699
_cell_angle_gamma   90.09097562
_symmetry_Int_Tables_number   1
_chemical_formula_structural   HfZrTaTiMo
_chemical_formula_sum   'Hf40 Zr40 Ta40 Ti40 Mo40'
_cell_volume   3899.36511783
_cell_formula_units_Z   40
loop_
 _symmetry_equiv_pos_site_id
 _symmetry_equiv_pos_as_xyz
  1  'x, y, z'
loop_
 _atom_site_type_symbol
 _atom_site_label
 _atom_site_symmetry_multiplicity
 _atom_site_fract_x
 _atom_site_fract_y
 _atom_site_fract_z
 _atom_site_occupancy
  Hf  Hf0  1  0.59906771  0.59940438  0.51493732  1
  Hf  Hf1  1  0.00392643  0.59800623  0.49292942  1
  Hf  Hf2  1  0.90435612  0.70167867  0.35854850  1
  Hf  Hf3  1  0.60685255  0.19898119  0.50210625  1
  Hf  Hf4  1  0.08044395  0.91168252  0.64051882  1
  Hf  Hf5  1  -0.02644720  0.79370095  0.75972906  1
  Hf  Hf6  1  0.40376280  0.39741989  0.24846973  1
  Hf  Hf7  1  0.49459675  0.09951036  0.38168858  1
  Hf  Hf8  1  0.40338315  0.59847941  0.52324187  1
  Hf  Hf9  1  0.01797223  0.81435451  0.01745754  1
  Hf  Hf10  1  0.69670398  0.10578009  0.11902448  1
  Hf  Hf11  1  0.09722729  0.69974483  0.88203150  1
  Hf  Hf12  1  0.30570703  0.69431011  0.87211734  1
  Hf  Hf13  1  0.49260188  0.08468536  0.13022207  1
  Hf  Hf14  1  0.80607801  0.19721113  -0.01733474  1
  Hf  Hf15  1  0.09963087  0.28773889  0.63752602  1
  Hf  Hf16  1  0.87845921  0.89374035  0.62132781  1
  Hf  Hf17  1  0.61005575  0.00434792  0.74481111  1
  Hf  Hf18  1  0.09475747  0.90546952  0.86199600  1
  Hf  Hf19  1  0.40035029  -0.00853042  -0.00807896  1
  Hf  Hf20  1  0.30415115  0.89811368  0.86258450  1
  Hf  Hf21  1  0.60289674  0.39775384  0.51022044  1
  Hf  Hf22  1  0.61618307  0.60530145  0.74941806  1
  Hf  Hf23  1  0.89474096  0.30723044  0.63801210  1
  Hf  Hf24  1  0.79825089  0.60231926  0.49280457  1
  Hf  Hf25  1  0.00929443  0.20340671  -0.00649941  1
  Hf  Hf26  1  0.08185457  0.49788348  0.62786377  1
  Hf  Hf27  1  0.81449821  0.01456437  0.48513619  1
  Hf  Hf28  1  0.10387517  0.49986072  0.10877540  1
  Hf  Hf29  1  0.61213595  0.80376528  0.74771772  1
  Hf  Hf30  1  0.49280645  0.50523707  0.87067902  1
  Hf  Hf31  1  0.40146751  0.39202794  0.50714803  1
  Hf  Hf32  1  0.79951684  0.01654571  0.26468405  1
  Hf  Hf33  1  0.09508071  0.08121901  0.13062326  1
  Hf  Hf34  1  0.19148554  0.80927438  0.50999799  1
  Hf  Hf35  1  0.18805195  0.38772124  0.50109603  1
  Hf  Hf36  1  0.69500879  0.48987249  0.37055005  1
  Hf  Hf37  1  0.30646800  0.49354661  0.11567337  1
  Hf  Hf38  1  0.40715848  0.00092561  0.51603801  1
  Hf  Hf39  1  0.39029434  0.18267638  0.25023307  1
  Zr  Zr40  1  0.10555871  0.70342035  0.36765084  1
  Zr  Zr41  1  0.48855609  0.28671676  0.63682708  1
  Zr  Zr42  1  0.20781777  0.60124876  0.24300916  1
  Zr  Zr43  1  0.69776094  0.69807351  0.11982342  1
  Zr  Zr44  1  0.19252708  0.00336042  -0.00113512  1
  Zr  Zr45  1  0.10778426  0.11518712  0.85890099  1
  Zr  Zr46  1  0.91257396  0.10066587  0.64305311  1
  Zr  Zr47  1  0.20580098  0.60336939  0.50952397  1
  Zr  Zr48  1  0.91488574  0.91896868  0.13959564  1
  Zr  Zr49  1  -0.00787115  0.20063569  0.49438921  1
  Zr  Zr50  1  0.80890704  -0.01841289  0.76963408  1
  Zr  Zr51  1  0.30618684  0.50518080  0.37617409  1
  Zr  Zr52  1  0.81562497  0.80294932  0.00836527  1
  Zr  Zr53  1  0.89693772  0.68655156  0.62140512  1
  Zr  Zr54  1  0.10868483  0.90145927  0.35599016  1
  Zr  Zr55  1  0.38204773  0.18933230  -0.00364954  1
  Zr  Zr56  1  0.18695362  0.20121658  0.25785428  1
  Zr  Zr57  1  0.60710352  0.79442769  0.49933889  1
  Zr  Zr58  1  0.09987387  0.50709680  0.88915861  1
  Zr  Zr59  1  0.29030248  0.91129453  0.62996737  1
  Zr  Zr60  1  0.09053953  0.29337064  0.12513649  1
  Zr  Zr61  1  0.30994170  0.90450255  0.12883401  1
  Zr  Zr62  1  0.60457413  0.38878637  0.75862481  1
  Zr  Zr63  1  0.69800040  0.91023272  0.12090622  1
  Zr  Zr64  1  -0.01352395  0.39375064  0.24604945  1
  Zr  Zr65  1  0.60438876  0.79888938  0.25772812  1
  Zr  Zr66  1  0.72638198  0.49976445  0.62918774  1
  Zr  Zr67  1  0.48983262  0.70111829  0.12973450  1
  Zr  Zr68  1  0.19948265  0.59485463  0.74470424  1
  Zr  Zr69  1  0.49830657  0.68129759  0.36887964  1
  Zr  Zr70  1  0.50070613  0.29895279  0.12519789  1
  Zr  Zr71  1  0.59196875  0.61108343  -0.00539423  1
  Zr  Zr72  1  0.89324275  0.49086203  0.37005285  1
  Zr  Zr73  1  0.29625566  0.29193108  0.38115737  1
  Zr  Zr74  1  0.39882070  0.78980319  0.52047565  1
  Zr  Zr75  1  0.80390559  0.41259738  0.76814672  1
  Zr  Zr76  1  0.89699737  0.11516969  0.12745763  1
  Zr  Zr77  1  0.59131190  0.20756450  -0.01080660  1
  Zr  Zr78  1  0.00084944  0.60208636  0.22978571  1
  Zr  Zr79  1  0.49564156  0.89324398  0.37905972  1
  Ta  Ta80  1  0.10076778  0.48927561  0.37072154  1
  Ta  Ta81  1  0.20117283  0.39467159  0.75190025  1
  Ta  Ta82  1  0.90891692  0.30061174  0.86558179  1
  Ta  Ta83  1  0.49415852  0.09626403  0.86303100  1
  Ta  Ta84  1  0.71713194  0.70149644  0.88463338  1
  Ta  Ta85  1  0.59822105  0.00413565  0.26151915  1
  Ta  Ta86  1  0.40333227  0.60291227  0.73574389  1
  Ta  Ta87  1  -0.02675178  0.00814523  -0.02322857  1
  Ta  Ta88  1  0.39148970  0.59960047  -0.00096672  1
  Ta  Ta89  1  0.10102775  0.30783059  0.86745352  1
  Ta  Ta90  1  0.30386584  0.71295065  0.37376903  1
  Ta  Ta91  1  0.29807358  0.12381303  0.60942351  1
  Ta  Ta92  1  0.78632225  0.19909801  0.76613404  1
  Ta  Ta93  1  0.29046373  0.28816065  0.87307943  1
  Ta  Ta94  1  0.50808167  0.49403201  0.11394138  1
  Ta  Ta95  1  0.20207885  0.38412574  -0.00422996  1
  Ta  Ta96  1  0.30180454  0.90323509  0.37826196  1
  Ta  Ta97  1  0.29313396  0.09085829  0.39808376  1
  Ta  Ta98  1  0.40623057  0.00385059  0.73831874  1
  Ta  Ta99  1  0.70380968  0.48626640  0.10497077  1
  Ta  Ta100  1  0.60214258  0.19997443  0.25518050  1
  Ta  Ta101  1  0.09147437  0.70615292  0.63206871  1
  Ta  Ta102  1  0.91381542  0.90518497  0.36001660  1
  Ta  Ta103  1  0.38748558  0.39857852  0.75477543  1
  Ta  Ta104  1  0.78956197  0.22353984  0.25014852  1
  Ta  Ta105  1  0.88081702  0.31500021  0.11835199  1
  Ta  Ta106  1  0.29285296  0.29207238  0.12172450  1
  Ta  Ta107  1  0.50257541  0.89839171  0.86584555  1
  Ta  Ta108  1  0.50851463  0.30034120  0.37301007  1
  Ta  Ta109  1  -0.01150563  0.40269840  -0.00353561  1
  Ta  Ta110  1  0.79716452  0.58911502  0.23247497  1
  Ta  Ta111  1  0.79666386  0.81146124  0.47444883  1
  Ta  Ta112  1  0.80456198  0.80231754  0.25129044  1
  Ta  Ta113  1  0.70040857  0.50560440  0.89013624  1
  Ta  Ta114  1  0.19827662  0.79757769  0.74366195  1
  Ta  Ta115  1  0.09891411  0.09966929  0.37879297  1
  Ta  Ta116  1  0.40473984  0.39399207  -0.00966193  1
  Ta  Ta117  1  -0.00784278  0.80453432  0.49718535  1
  Ta  Ta118  1  0.69326121  0.09483749  0.87993738  1
  Ta  Ta119  1  0.61935206  -0.00552277  0.49848743  1
  Ti  Ti120  1  0.29744813  0.48686784  0.62971791  1
  Ti  Ti121  1  0.38529015  0.19415136  0.75343525  1
  Ti  Ti122  1  0.41226951  0.79531526  -0.00381317  1
  Ti  Ti123  1  0.70294531  0.69175620  0.36294397  1
  Ti  Ti124  1  -0.00207921  0.41826527  0.75934007  1
  Ti  Ti125  1  0.60067859  0.58375397  0.23961921  1
  Ti  Ti126  1  0.21141586  0.01542548  0.74969314  1
  Ti  Ti127  1  0.40287666  0.59577123  0.24447130  1
  Ti  Ti128  1  0.22258640  0.00706627  0.24915358  1
  Ti  Ti129  1  0.29585524  0.49442597  0.88079865  1
  Ti  Ti130  1  0.79749539  0.38198756  0.50305370  1
  Ti  Ti131  1  0.82110015  0.61180974  0.75988218  1
  Ti  Ti132  1  0.00981733  -0.00418915  0.49400448  1
  Ti  Ti133  1  0.50246276  0.49279044  0.37346013  1
  Ti  Ti134  1  0.69863310  0.89316016  0.89036595  1
  Ti  Ti135  1  0.29412116  0.70086295  0.11998600  1
  Ti  Ti136  1  0.50802073  0.89368684  0.12772312  1
  Ti  Ti137  1  0.61331478  0.39190435  0.24543837  1
  Ti  Ti138  1  0.51685750  0.89862400  0.62477467  1
  Ti  Ti139  1  -0.01399871  0.19708965  0.26385600  1
  Ti  Ti140  1  -0.01050137  0.61719479  0.01945499  1
  Ti  Ti141  1  0.21186651  0.79789323  0.00224418  1
  Ti  Ti142  1  0.71306748  0.09639514  0.62440852  1
  Ti  Ti143  1  0.79633024  0.39693233  -0.01662278  1
  Ti  Ti144  1  0.39247414  0.80265807  0.25094523  1
  Ti  Ti145  1  0.70603701  0.11862221  0.37887154  1
  Ti  Ti146  1  0.90116463  0.52267389  0.89054412  1
  Ti  Ti147  1  0.69452130  0.30390095  0.11297923  1
  Ti  Ti148  1  0.50257840  0.70825013  0.86735027  1
  Ti  Ti149  1  0.50481144  0.49370515  0.64069222  1
  Ti  Ti150  1  -0.00919707  0.39651117  0.49390234  1
  Ti  Ti151  1  0.59594344  -0.00510256  -0.00698167  1
  Ti  Ti152  1  0.19630010  0.39736789  0.25095781  1
  Ti  Ti153  1  0.69843721  0.28478506  0.63581741  1
  Ti  Ti154  1  0.50940089  0.10266362  0.62699575  1
  Ti  Ti155  1  0.49569716  0.29495984  0.86510385  1
  Ti  Ti156  1  0.10711532  0.09883442  0.63027306  1
  Ti  Ti157  1  0.71286453  0.72157871  0.62384458  1
  Ti  Ti158  1  0.40396635  0.79734389  0.73467998  1
  Ti  Ti159  1  0.87979268  0.29198045  0.37721362  1
  Mo  Mo160  1  0.90141929  0.70678073  0.13951819  1
  Mo  Mo161  1  0.90180788  0.10284020  0.86009594  1
  Mo  Mo162  1  0.29312056  0.69945698  0.63814788  1
  Mo  Mo163  1  0.00044101  0.00078298  0.76201663  1
  Mo  Mo164  1  0.78674805  0.78860013  0.75976563  1
  Mo  Mo165  1  0.21213142  0.79838041  0.24523030  1
  Mo  Mo166  1  0.40436429  -0.00667565  0.25904641  1
  Mo  Mo167  1  0.59562536  0.40108675  -0.01344415  1
  Mo  Mo168  1  0.69704601  0.29990984  0.87639734  1
  Mo  Mo169  1  0.19964415  0.19917280  0.00095694  1
  Mo  Mo170  1  0.01151694  0.01248221  0.25840891  1
  Mo  Mo171  1  0.89177881  0.50110311  0.10783656  1
  Mo  Mo172  1  0.90240795  0.49258039  0.62017089  1
  Mo  Mo173  1  0.19052394  0.19552508  0.49751494  1
  Mo  Mo174  1  0.90619551  0.69726424  0.88748186  1
  Mo  Mo175  1  0.79246138  0.00433127  -0.01181686  1
  Mo  Mo176  1  0.70661461  0.90558297  0.36939180  1
  Mo  Mo177  1  -0.00563472  0.59582765  0.75491133  1
  Mo  Mo178  1  0.19066470  0.00624773  0.50387119  1
  Mo  Mo179  1  0.11212462  0.70529897  0.11434175  1
  Mo  Mo180  1  0.59691333  0.18981784  0.75654889  1
  Mo  Mo181  1  0.08499381  0.30643781  0.37250887  1
  Mo  Mo182  1  0.58891217  0.80987835  -0.00944293  1
  Mo  Mo183  1  -0.00212819  0.20997407  0.75381293  1
  Mo  Mo184  1  0.20882921  0.20494858  0.74386662  1
  Mo  Mo185  1  0.90246899  0.10601077  0.37097004  1
  Mo  Mo186  1  0.29591416  0.30212691  0.62794444  1
  Mo  Mo187  1  0.40382383  0.20132711  0.49860304  1
  Mo  Mo188  1  0.30554041  0.09262944  0.86451972  1
  Mo  Mo189  1  0.89405088  0.88967678  0.88457838  1
  Mo  Mo190  1  0.70495098  0.90783778  0.61687627  1
  Mo  Mo191  1  0.29637388  0.10202251  0.12837601  1
  Mo  Mo192  1  0.11850875  0.89179389  0.14987940  1
  Mo  Mo193  1  0.79472107  0.20623198  0.50671972  1
  Mo  Mo194  1  0.00685640  0.80284992  0.23182261  1
  Mo  Mo195  1  0.50681719  0.69828180  0.63865258  1
  Mo  Mo196  1  0.78760416  0.40252883  0.23857887  1
  Mo  Mo197  1  0.20633686  0.60383028  0.00204428  1
  Mo  Mo198  1  0.80553936  0.59665946  0.00728064  1
  Mo  Mo199  1  0.69527651  0.30246263  0.37613515  1
