# generated using pymatgen
data_HfZrTaTiMo
_symmetry_space_group_name_H-M   'P 1'
_cell_length_a   15.21123586
_cell_length_b   15.21352153
_cell_length_c   16.86370671
_cell_angle_alpha   89.94733428
_cell_angle_beta   89.98350002
_cell_angle_gamma   90.02104418
_symmetry_Int_Tables_number   1
_chemical_formula_structural   HfZrTaTiMo
_chemical_formula_sum   'Hf40 Zr40 Ta40 Ti40 Mo40'
_cell_volume   3902.53730768
_cell_formula_units_Z   40
loop_
 _symmetry_equiv_pos_site_id
 _symmetry_equiv_pos_as_xyz
  1  'x, y, z'
loop_
 _atom_site_type_symbol
 _atom_site_label
 _atom_site_symmetry_multiplicity
 _atom_site_fract_x
 _atom_site_fract_y
 _atom_site_fract_z
 _atom_site_occupancy
  Hf  Hf0  1  0.30240663  0.88791983  0.60482682  1
  Hf  Hf1  1  0.21013153  0.20859924  0.50267445  1
  Hf  Hf2  1  0.80401189  0.60891990  0.48319873  1
  Hf  Hf3  1  0.40612261  0.40673674  0.73876923  1
  Hf  Hf4  1  0.11996963  0.69374773  0.87257065  1
  Hf  Hf5  1  0.67413316  0.30677578  0.36709986  1
  Hf  Hf6  1  0.10515130  0.89964457  0.39137296  1
  Hf  Hf7  1  0.10515843  0.09226829  0.39426531  1
  Hf  Hf8  1  -0.00030868  0.61342368  0.00623027  1
  Hf  Hf9  1  0.29292917  0.52303570  0.86895743  1
  Hf  Hf10  1  0.88542454  0.49738463  0.11025115  1
  Hf  Hf11  1  0.41709349  0.58847439  0.24941132  1
  Hf  Hf12  1  0.29556594  0.88194718  0.13432885  1
  Hf  Hf13  1  0.19669854  0.19825948  -0.01847085  1
  Hf  Hf14  1  0.42471726  0.00624702  0.51325454  1
  Hf  Hf15  1  0.89379115  0.29367297  0.87993737  1
  Hf  Hf16  1  0.30437589  0.91032889  0.38992793  1
  Hf  Hf17  1  0.51213458  0.90458799  0.13135159  1
  Hf  Hf18  1  0.10195048  0.49521056  0.12641390  1
  Hf  Hf19  1  0.57438554  0.19110638  0.51172845  1
  Hf  Hf20  1  0.89081935  0.51205649  0.88921166  1
  Hf  Hf21  1  0.69342402  0.08688196  0.13740050  1
  Hf  Hf22  1  0.81633124  0.80249184  -0.00646596  1
  Hf  Hf23  1  -0.00263712  -0.01080538  0.74022461  1
  Hf  Hf24  1  0.08997441  0.09566928  0.86905359  1
  Hf  Hf25  1  0.41279971  0.00162258  0.00212347  1
  Hf  Hf26  1  -0.01477393  0.38100627  0.25406066  1
  Hf  Hf27  1  0.81157654  0.00005526  0.25416695  1
  Hf  Hf28  1  0.78787061  0.41408718  0.25310825  1
  Hf  Hf29  1  0.71256310  0.68782606  0.88385013  1
  Hf  Hf30  1  0.60263718  -0.00046336  0.74409851  1
  Hf  Hf31  1  0.58608184  0.80604474  0.49524854  1
  Hf  Hf32  1  0.69011038  0.30999853  0.62035369  1
  Hf  Hf33  1  0.21037110  0.40502617  -0.01212105  1
  Hf  Hf34  1  0.30524830  0.10288979  0.12498193  1
  Hf  Hf35  1  0.20313526  -0.01844582  -0.00589167  1
  Hf  Hf36  1  0.09913838  0.29861352  0.63863483  1
  Hf  Hf37  1  0.80448341  0.18993403  0.00055291  1
  Hf  Hf38  1  0.30797658  0.50411535  0.38187562  1
  Hf  Hf39  1  0.59224562  0.18093824  0.00827599  1
  Zr  Zr40  1  0.51327838  0.48331961  0.39046184  1
  Zr  Zr41  1  0.69683505  0.30164015  0.12738483  1
  Zr  Zr42  1  0.69526378  0.69141413  0.61970922  1
  Zr  Zr43  1  -0.00352125  0.58968747  0.24935526  1
  Zr  Zr44  1  0.89468594  0.71046211  0.62391575  1
  Zr  Zr45  1  0.40420052  0.00441375  0.24824524  1
  Zr  Zr46  1  0.10414030  0.88957059  0.86574367  1
  Zr  Zr47  1  0.19622360  0.40612698  0.26360551  1
  Zr  Zr48  1  0.90824284  0.90706212  0.38641606  1
  Zr  Zr49  1  0.28889097  0.30008172  0.12499437  1
  Zr  Zr50  1  0.09494662  0.10220028  0.11661256  1
  Zr  Zr51  1  0.10267454  0.70657182  0.36228969  1
  Zr  Zr52  1  -0.00598297  0.21251696  0.50591074  1
  Zr  Zr53  1  0.49372098  0.49650565  0.88033020  1
  Zr  Zr54  1  0.70752838  0.69431533  0.12021498  1
  Zr  Zr55  1  0.69740399  0.10313185  0.87268554  1
  Zr  Zr56  1  0.50603997  0.29966707  0.88190652  1
  Zr  Zr57  1  0.89290936  0.30974890  0.62842053  1
  Zr  Zr58  1  0.20357370  0.61972287  0.50757175  1
  Zr  Zr59  1  0.78490004  0.20711417  0.49554088  1
  Zr  Zr60  1  0.49181490  0.09785645  0.86309192  1
  Zr  Zr61  1  0.71537370  0.89477938  0.62602114  1
  Zr  Zr62  1  0.51769446  0.49808892  0.61042457  1
  Zr  Zr63  1  0.90307199  0.71586783  0.13968796  1
  Zr  Zr64  1  0.50053143  0.70724815  0.12466804  1
  Zr  Zr65  1  0.60583405  0.79536779  0.76088585  1
  Zr  Zr66  1  0.69916019  0.10588064  0.36102979  1
  Zr  Zr67  1  0.09715877  0.50593773  0.62596458  1
  Zr  Zr68  1  0.39487573  0.80702736  0.75788118  1
  Zr  Zr69  1  0.89351929  0.50701123  0.62163099  1
  Zr  Zr70  1  0.10893387  0.72317584  0.14840201  1
  Zr  Zr71  1  0.48399819  0.30379176  0.11361371  1
  Zr  Zr72  1  0.39784963  0.59152300  0.01403306  1
  Zr  Zr73  1  0.09208424  0.29471477  0.11951396  1
  Zr  Zr74  1  0.19842666  0.20090941  0.26662300  1
  Zr  Zr75  1  0.60089934  0.59173996  0.75610578  1
  Zr  Zr76  1  0.20727019  0.62068912  0.01941890  1
  Zr  Zr77  1  -0.00806612  0.40644279  0.76021274  1
  Zr  Zr78  1  0.19446703  0.40555396  0.49962153  1
  Zr  Zr79  1  0.51366010  0.07220519  0.37300217  1
  Ta  Ta80  1  0.89254526  0.09760975  0.62224832  1
  Ta  Ta81  1  0.60636444  0.39607630  0.75335891  1
  Ta  Ta82  1  0.69757734  0.48131869  0.89687031  1
  Ta  Ta83  1  0.10094046  0.29939625  0.86173969  1
  Ta  Ta84  1  0.40088770  0.38151110  0.51083114  1
  Ta  Ta85  1  0.01624577  0.81310555  0.00174286  1
  Ta  Ta86  1  0.00606761  0.61258660  0.75167722  1
  Ta  Ta87  1  0.39468975  0.00159699  0.73752647  1
  Ta  Ta88  1  0.38461859  0.60761963  0.73384055  1
  Ta  Ta89  1  0.00826684  0.01075665  0.25436843  1
  Ta  Ta90  1  0.79489823  0.00695054  0.49465576  1
  Ta  Ta91  1  0.79409280  0.20244057  0.75095022  1
  Ta  Ta92  1  0.59913750  0.59881781  -0.00085572  1
  Ta  Ta93  1  0.48955988  0.69682158  0.88125787  1
  Ta  Ta94  1  0.09388946  0.90848841  0.13324892  1
  Ta  Ta95  1  0.90844222  0.11285133  0.37749606  1
  Ta  Ta96  1  0.70623606  0.88998743  0.12504853  1
  Ta  Ta97  1  0.81848809  0.21157772  0.24900401  1
  Ta  Ta98  1  -0.01051587  0.18855016  0.74761281  1
  Ta  Ta99  1  0.68294947  0.70455073  0.37261778  1
  Ta  Ta100  1  0.10048993  0.09265659  0.62118761  1
  Ta  Ta101  1  0.79764352  -0.00484444  -0.00030640  1
  Ta  Ta102  1  0.29939403  0.30231908  0.63618355  1
  Ta  Ta103  1  0.80964033  0.00329079  0.75536172  1
  Ta  Ta104  1  0.20531985  0.40959581  0.75080495  1
  Ta  Ta105  1  0.59620276  0.80714197  -0.01119113  1
  Ta  Ta106  1  0.31467023  0.71436227  0.37261828  1
  Ta  Ta107  1  0.79373661  0.80570558  0.48142822  1
  Ta  Ta108  1  0.21896548  0.60904610  0.24645599  1
  Ta  Ta109  1  0.38125121  0.80018073  -0.01138514  1
  Ta  Ta110  1  0.90226276  0.29480805  0.11103287  1
  Ta  Ta111  1  0.78847099  0.80752563  0.26425124  1
  Ta  Ta112  1  0.78642583  0.40575948  0.75920889  1
  Ta  Ta113  1  0.40746159  0.60694730  0.50386101  1
  Ta  Ta114  1  0.31772610  0.11522242  0.38718961  1
  Ta  Ta115  1  0.20072652  0.78229695  0.73102390  1
  Ta  Ta116  1  0.20499835  -0.01225967  0.73847403  1
  Ta  Ta117  1  0.61164170  0.59129361  0.24699771  1
  Ta  Ta118  1  0.39973319  0.38241685  0.26033653  1
  Ta  Ta119  1  0.49214307  0.70690831  0.62248505  1
  Ti  Ti120  1  0.57146215  0.19336112  0.23969677  1
  Ti  Ti121  1  0.09641091  0.50171803  0.87243143  1
  Ti  Ti122  1  -0.01561124  0.00316132  -0.00745776  1
  Ti  Ti123  1  0.90463124  0.49453405  0.37836358  1
  Ti  Ti124  1  0.29891937  0.10023559  0.62315714  1
  Ti  Ti125  1  0.20074457  0.19056903  0.75040472  1
  Ti  Ti126  1  0.70609523  0.49854855  0.61216941  1
  Ti  Ti127  1  0.10307020  0.89670604  0.60548080  1
  Ti  Ti128  1  0.00490016  0.79925764  0.73800003  1
  Ti  Ti129  1  0.81499057  0.80771055  0.76163050  1
  Ti  Ti130  1  0.80246078  0.40031343  0.48628640  1
  Ti  Ti131  1  0.38787953  0.20264455  -0.01086424  1
  Ti  Ti132  1  0.58503629  0.40796591  0.23937661  1
  Ti  Ti133  1  0.29761493  0.08787263  0.86473808  1
  Ti  Ti134  1  0.90481889  0.70823228  0.36527547  1
  Ti  Ti135  1  0.30263370  0.30228002  0.86036135  1
  Ti  Ti136  1  0.91700774  0.71187470  0.87174189  1
  Ti  Ti137  1  0.09689103  0.50469320  0.37630973  1
  Ti  Ti138  1  0.00304548  0.39114747  -0.00897504  1
  Ti  Ti139  1  0.47452822  0.27484538  0.37895720  1
  Ti  Ti140  1  0.49510100  0.86404550  0.35272297  1
  Ti  Ti141  1  0.90743952  0.10231861  0.12677055  1
  Ti  Ti142  1  0.70680909  0.90100676  0.87694111  1
  Ti  Ti143  1  0.39927516  0.20004523  0.74117129  1
  Ti  Ti144  1  0.50804715  0.89928232  0.62863472  1
  Ti  Ti145  1  0.69597889  0.50607208  0.38381443  1
  Ti  Ti146  1  0.69189016  0.49555216  0.10523302  1
  Ti  Ti147  1  0.80413350  0.60007446  0.75403896  1
  Ti  Ti148  1  0.08149989  0.30107151  0.38057436  1
  Ti  Ti149  1  0.31434474  0.48896080  0.13252188  1
  Ti  Ti150  1  0.90552490  0.90754111  0.12940293  1
  Ti  Ti151  1  0.69873026  0.09901588  0.62816620  1
  Ti  Ti152  1  0.59779976  0.20765103  0.74291884  1
  Ti  Ti153  1  0.49909654  0.90418800  0.87614060  1
  Ti  Ti154  1  0.79702510  0.60514953  0.26253846  1
  Ti  Ti155  1  0.00154586  0.59842250  0.49471024  1
  Ti  Ti156  1  0.20239698  0.00167168  0.25576669  1
  Ti  Ti157  1  0.68238150  0.91045746  0.37533513  1
  Ti  Ti158  1  0.90430259  0.90478789  0.60715643  1
  Ti  Ti159  1  0.00379810  0.78714233  0.50406536  1
  Mo  Mo160  1  0.60946730  0.38902222  0.49522934  1
  Mo  Mo161  1  0.88796308  0.30393372  0.37599259  1
  Mo  Mo162  1  0.61008204  -0.01398660  -0.00406076  1
  Mo  Mo163  1  0.38736842  0.39454154  -0.00637488  1
  Mo  Mo164  1  0.90129316  0.90051427  0.87411654  1
  Mo  Mo165  1  0.20403860  0.81466342  0.26253273  1
  Mo  Mo166  1  0.30317269  0.90430979  0.86568390  1
  Mo  Mo167  1  0.39441601  0.78795983  0.25109687  1
  Mo  Mo168  1  0.39430294  0.19930124  0.51680946  1
  Mo  Mo169  1  0.61729591  0.00037183  0.52002767  1
  Mo  Mo170  1  -0.00149666  0.19704687  -0.01009138  1
  Mo  Mo171  1  0.39725078  0.19867947  0.25413960  1
  Mo  Mo172  1  0.19997879  0.80411717  0.00197878  1
  Mo  Mo173  1  0.49951514  0.10105680  0.64573708  1
  Mo  Mo174  1  0.59547089  0.39860740  0.00676475  1
  Mo  Mo175  1  -0.00661120  0.40977179  0.48719274  1
  Mo  Mo176  1  0.19945425  0.79921073  0.50232980  1
  Mo  Mo177  1  0.30203170  0.30403309  0.38147676  1
  Mo  Mo178  1  0.19793179  0.59885387  0.73734467  1
  Mo  Mo179  1  0.20689807  0.00835608  0.51272184  1
  Mo  Mo180  1  0.60555075  0.60384917  0.49991692  1
  Mo  Mo181  1  0.50209489  0.68336749  0.37216137  1
  Mo  Mo182  1  0.79682440  0.39191607  -0.00037524  1
  Mo  Mo183  1  0.30665639  0.49832513  0.61913918  1
  Mo  Mo184  1  0.89759268  0.09205819  0.86964954  1
  Mo  Mo185  1  -0.00437890  0.19267486  0.25712276  1
  Mo  Mo186  1  0.69723696  0.29790363  0.87462768  1
  Mo  Mo187  1  0.30107491  0.70749167  0.87036560  1
  Mo  Mo188  1  -0.00869165  0.82529733  0.25374008  1
  Mo  Mo189  1  0.80002837  0.60226913  -0.00276593  1
  Mo  Mo190  1  0.30649313  0.70059064  0.14031770  1
  Mo  Mo191  1  0.40317663  0.79286194  0.49596749  1
  Mo  Mo192  1  0.09208008  0.70657769  0.62309177  1
  Mo  Mo193  1  0.30345431  0.69714680  0.61908551  1
  Mo  Mo194  1  -0.00392080  0.00438711  0.51430505  1
  Mo  Mo195  1  0.49791194  0.29889940  0.63405628  1
  Mo  Mo196  1  0.61447518  -0.02116716  0.24782532  1
  Mo  Mo197  1  0.50059835  0.09921963  0.12496568  1
  Mo  Mo198  1  0.50814982  0.49329104  0.12316192  1
  Mo  Mo199  1  0.60510132  0.78864173  0.25203525  1
