# generated using pymatgen
data_HfZrTaTiMo
_symmetry_space_group_name_H-M   'P 1'
_cell_length_a   15.22254369
_cell_length_b   15.21696907
_cell_length_c   16.82780826
_cell_angle_alpha   89.98768649
_cell_angle_beta   90.09460288
_cell_angle_gamma   90.00162888
_symmetry_Int_Tables_number   1
_chemical_formula_structural   HfZrTaTiMo
_chemical_formula_sum   'Hf40 Zr40 Ta40 Ti40 Mo40'
_cell_volume   3898.00453204
_cell_formula_units_Z   40
loop_
 _symmetry_equiv_pos_site_id
 _symmetry_equiv_pos_as_xyz
  1  'x, y, z'
loop_
 _atom_site_type_symbol
 _atom_site_label
 _atom_site_symmetry_multiplicity
 _atom_site_fract_x
 _atom_site_fract_y
 _atom_site_fract_z
 _atom_site_occupancy
  Hf  Hf0  1  0.19127634  0.20811419  0.73760381  1
  Hf  Hf1  1  0.89789782  0.29652983  0.61574095  1
  Hf  Hf2  1  0.19465416  0.00400935  0.50223565  1
  Hf  Hf3  1  0.78010718  0.78783602  0.22598188  1
  Hf  Hf4  1  0.30543774  0.70061767  0.12948086  1
  Hf  Hf5  1  0.00705858  0.79818083  0.00819616  1
  Hf  Hf6  1  0.01114221  0.60004932  -0.00505457  1
  Hf  Hf7  1  0.59902185  0.18857946  0.22600462  1
  Hf  Hf8  1  0.21051057  0.21131113  -0.00713457  1
  Hf  Hf9  1  0.79499607  0.60072535  0.49978539  1
  Hf  Hf10  1  0.10335928  0.70883589  0.36200325  1
  Hf  Hf11  1  0.50762404  0.69466326  0.12595042  1
  Hf  Hf12  1  0.89561999  0.50222991  0.87780092  1
  Hf  Hf13  1  0.01040281  0.40240815  -0.00541374  1
  Hf  Hf14  1  0.31707110  0.70421674  0.36945812  1
  Hf  Hf15  1  -0.00602366  0.60123176  0.74919344  1
  Hf  Hf16  1  0.89171602  0.10153217  0.37824931  1
  Hf  Hf17  1  0.41969988  0.01440894  0.23252443  1
  Hf  Hf18  1  0.40308405  0.60674271  0.51627821  1
  Hf  Hf19  1  0.20686518  0.80975515  0.50160889  1
  Hf  Hf20  1  0.41540449  0.01399243  0.75220393  1
  Hf  Hf21  1  0.80025665  0.58210096  0.24043895  1
  Hf  Hf22  1  0.00072970  0.80374677  0.49312494  1
  Hf  Hf23  1  0.10807913  0.30659618  0.13732054  1
  Hf  Hf24  1  0.80184243  0.19004265  0.24433176  1
  Hf  Hf25  1  0.88710748  0.29625445  0.88100564  1
  Hf  Hf26  1  0.79242703  0.58727803  0.01380366  1
  Hf  Hf27  1  0.78599022  -0.00330065  0.75538620  1
  Hf  Hf28  1  0.89435225  0.69410340  0.36161088  1
  Hf  Hf29  1  0.59001835  0.00013931  0.49846118  1
  Hf  Hf30  1  0.52618914  0.70956514  0.62688155  1
  Hf  Hf31  1  0.61411188  0.79611328  0.76610704  1
  Hf  Hf32  1  0.00966342  0.39540990  0.74437129  1
  Hf  Hf33  1  0.10467639  0.89486506  0.63974917  1
  Hf  Hf34  1  0.79247594  0.38627180  0.24575159  1
  Hf  Hf35  1  0.50414640  0.90808396  0.35920377  1
  Hf  Hf36  1  0.80129905  0.40702094  0.74322895  1
  Hf  Hf37  1  0.20129139  0.19957654  0.50592108  1
  Hf  Hf38  1  0.79059162  -0.01362577  0.50269307  1
  Hf  Hf39  1  0.90171013  0.28367279  0.11120731  1
  Zr  Zr40  1  0.58937951  0.20740713  -0.00564703  1
  Zr  Zr41  1  0.69475016  0.88334792  0.35732884  1
  Zr  Zr42  1  0.39971729  0.39962925  -0.00099388  1
  Zr  Zr43  1  0.19720277  0.80589459  0.00650545  1
  Zr  Zr44  1  0.70004731  0.47800697  0.38155237  1
  Zr  Zr45  1  0.58921583  0.16605108  0.76602918  1
  Zr  Zr46  1  0.39763736  0.81043199  0.73963713  1
  Zr  Zr47  1  0.40181075  0.40962632  0.25240128  1
  Zr  Zr48  1  0.19870119  0.39718599  0.51272183  1
  Zr  Zr49  1  0.89772568  0.89729365  0.63365054  1
  Zr  Zr50  1  -0.00098603  0.00637452  0.49894547  1
  Zr  Zr51  1  0.49715595  0.50246300  0.86978784  1
  Zr  Zr52  1  0.60405716  0.37828623  0.51912165  1
  Zr  Zr53  1  0.30546074  0.70340190  0.87340134  1
  Zr  Zr54  1  0.91930652  0.68586520  0.13552361  1
  Zr  Zr55  1  0.69276027  0.28062188  0.65315037  1
  Zr  Zr56  1  0.39243688  0.00506312  0.50029531  1
  Zr  Zr57  1  0.10213825  0.89795911  0.86209183  1
  Zr  Zr58  1  0.50110800  0.49698005  0.38500318  1
  Zr  Zr59  1  0.29041312  0.11815963  0.13415469  1
  Zr  Zr60  1  0.30276191  0.30955053  0.85637997  1
  Zr  Zr61  1  0.90097620  0.89731381  0.88027531  1
  Zr  Zr62  1  0.20381816  0.59909327  0.00271811  1
  Zr  Zr63  1  0.67188314  0.09326697  0.36275846  1
  Zr  Zr64  1  0.28884392  0.90654268  0.35094194  1
  Zr  Zr65  1  0.76962930  0.20043456  0.49825620  1
  Zr  Zr66  1  0.41070948  0.81068330  0.50888737  1
  Zr  Zr67  1  0.29734850  0.50412455  0.86182924  1
  Zr  Zr68  1  0.30070489  0.91022710  0.87639302  1
  Zr  Zr69  1  0.40066965  0.21566158  0.25561230  1
  Zr  Zr70  1  0.21063397  0.58975463  0.25438604  1
  Zr  Zr71  1  0.70578511  0.89354390  0.89811805  1
  Zr  Zr72  1  0.89219106  0.30970991  0.39122722  1
  Zr  Zr73  1  0.19787409  0.60839548  0.50566320  1
  Zr  Zr74  1  -0.01092348  0.19345975  0.75418929  1
  Zr  Zr75  1  0.01199987  0.19231832  -0.01158002  1
  Zr  Zr76  1  0.40031658  0.59883632  0.72618893  1
  Zr  Zr77  1  0.89623117  0.89859834  0.36118174  1
  Zr  Zr78  1  0.41365473  0.20809992  0.50106457  1
  Zr  Zr79  1  0.09139349  0.10974690  0.13817795  1
  Ta  Ta80  1  0.69887435  0.49505522  0.86963558  1
  Ta  Ta81  1  0.30929208  0.10659624  0.63162663  1
  Ta  Ta82  1  0.20849942  0.00489259  0.74032837  1
  Ta  Ta83  1  0.29786413  0.10946843  0.36450844  1
  Ta  Ta84  1  0.40128583  0.40381305  0.52816227  1
  Ta  Ta85  1  0.69602775  0.30043082  0.86443722  1
  Ta  Ta86  1  0.69832678  0.87773762  0.63044874  1
  Ta  Ta87  1  0.68509075  0.07778176  0.63162016  1
  Ta  Ta88  1  0.89179489  0.70323524  0.88142410  1
  Ta  Ta89  1  0.49793778  0.30508768  0.85251652  1
  Ta  Ta90  1  0.52867662  0.29097978  0.37385438  1
  Ta  Ta91  1  0.59260710  -0.00523790  0.01917176  1
  Ta  Ta92  1  0.40499795  0.80497334  0.00780194  1
  Ta  Ta93  1  0.70348194  0.09431216  0.89552716  1
  Ta  Ta94  1  0.09087080  0.50498003  0.62222436  1
  Ta  Ta95  1  0.61502427  0.79649084  0.49628343  1
  Ta  Ta96  1  0.19286263  0.00833753  0.00445951  1
  Ta  Ta97  1  -0.00296350  0.60389896  0.50031903  1
  Ta  Ta98  1  -0.00359700  0.40616828  0.25412932  1
  Ta  Ta99  1  0.30147703  0.49999435  0.38787918  1
  Ta  Ta100  1  0.50146497  0.90199956  0.88985156  1
  Ta  Ta101  1  0.09446461  0.49912708  0.37732646  1
  Ta  Ta102  1  -0.00925890  0.00976323  0.25076435  1
  Ta  Ta103  1  0.00538066  -0.00279318  0.00630704  1
  Ta  Ta104  1  0.49934270  0.30588327  0.12058214  1
  Ta  Ta105  1  0.90192837  0.90801115  0.12645199  1
  Ta  Ta106  1  0.29475518  0.90690481  0.13551526  1
  Ta  Ta107  1  0.60708048  0.59483193  0.74893507  1
  Ta  Ta108  1  0.51054552  0.49779098  0.12438599  1
  Ta  Ta109  1  0.10411239  0.90662763  0.14325003  1
  Ta  Ta110  1  0.41494502  0.60172362  0.25462488  1
  Ta  Ta111  1  0.90387949  0.48126814  0.11998107  1
  Ta  Ta112  1  0.39098248  0.00765932  0.01316754  1
  Ta  Ta113  1  0.52151922  0.70543266  0.36817088  1
  Ta  Ta114  1  0.70050441  0.30853859  0.11062664  1
  Ta  Ta115  1  0.79441310  0.61388983  0.74821699  1
  Ta  Ta116  1  0.80021098  0.79073779  0.02142763  1
  Ta  Ta117  1  0.89176000  0.09163216  0.88486088  1
  Ta  Ta118  1  0.10116329  0.30179888  0.37393496  1
  Ta  Ta119  1  0.09853907  0.50419932  0.13690169  1
  Ti  Ti120  1  0.30967334  0.50449710  0.12227760  1
  Ti  Ti121  1  0.29915517  0.10705973  0.87284948  1
  Ti  Ti122  1  0.10717113  0.30766874  0.86977834  1
  Ti  Ti123  1  -0.00140009  0.40534454  0.50475741  1
  Ti  Ti124  1  0.20664727  0.40838505  0.72093721  1
  Ti  Ti125  1  0.19832834  0.60989849  0.73293957  1
  Ti  Ti126  1  0.10472707  0.09204897  0.86948983  1
  Ti  Ti127  1  0.71286368  0.10093104  0.10237690  1
  Ti  Ti128  1  -0.00765055  0.79165776  0.75335056  1
  Ti  Ti129  1  0.78730493  -0.00187846  0.22827150  1
  Ti  Ti130  1  0.88323936  0.10173238  0.62832491  1
  Ti  Ti131  1  0.19894166  0.40813956  0.00175988  1
  Ti  Ti132  1  0.60376245  0.60146963  0.50224911  1
  Ti  Ti133  1  0.00276683  0.80713406  0.24829020  1
  Ti  Ti134  1  0.10954701  0.50105114  0.86131437  1
  Ti  Ti135  1  0.29986100  0.31226959  0.12663021  1
  Ti  Ti136  1  0.10332317  0.69874208  0.86465456  1
  Ti  Ti137  1  0.08837876  0.10325678  0.62729654  1
  Ti  Ti138  1  0.48664473  0.09673333  0.89633345  1
  Ti  Ti139  1  0.10876400  0.70122921  0.14574625  1
  Ti  Ti140  1  0.61085623  0.59503469  0.24913761  1
  Ti  Ti141  1  -0.00303314  0.00498338  0.75045278  1
  Ti  Ti142  1  0.60202017  0.79170010  0.00774750  1
  Ti  Ti143  1  0.69592163  0.50442441  0.62710204  1
  Ti  Ti144  1  0.41037174  0.80266292  0.24097306  1
  Ti  Ti145  1  0.70338090  0.68964774  0.88637654  1
  Ti  Ti146  1  0.10303816  0.09943116  0.36473444  1
  Ti  Ti147  1  0.20357749  0.39800234  0.26075376  1
  Ti  Ti148  1  0.89257102  0.70501498  0.62494243  1
  Ti  Ti149  1  0.59675412  0.59442531  -0.00024094  1
  Ti  Ti150  1  0.09175258  0.70304684  0.62663856  1
  Ti  Ti151  1  0.51584356  0.91680856  0.63387591  1
  Ti  Ti152  1  0.89601154  0.50584108  0.61895790  1
  Ti  Ti153  1  0.00709020  0.20164648  0.49894990  1
  Ti  Ti154  1  0.60833099  0.40581438  -0.00679040  1
  Ti  Ti155  1  -0.00310254  0.20891257  0.26000478  1
  Ti  Ti156  1  0.79786793  0.79100609  0.49448594  1
  Ti  Ti157  1  0.30620762  0.31046347  0.38282054  1
  Ti  Ti158  1  0.90311087  0.49802738  0.38238482  1
  Ti  Ti159  1  0.50106592  0.70015372  0.88347211  1
  Mo  Mo160  1  0.60729232  -0.00918390  0.21263780  1
  Mo  Mo161  1  0.49332108  0.89548272  0.11574815  1
  Mo  Mo162  1  0.59746281  -0.01613027  0.76407408  1
  Mo  Mo163  1  0.79482232  0.19940427  -0.00653806  1
  Mo  Mo164  1  0.49586220  0.10890272  0.10433846  1
  Mo  Mo165  1  0.68963496  0.48929051  0.12507762  1
  Mo  Mo166  1  0.69596341  0.89386456  0.11320040  1
  Mo  Mo167  1  0.40297376  0.40031614  0.72475850  1
  Mo  Mo168  1  0.39373864  0.19854450  0.75071198  1
  Mo  Mo169  1  0.80719910  -0.00098993  0.01254092  1
  Mo  Mo170  1  0.69683382  0.68899150  0.37194200  1
  Mo  Mo171  1  0.59229343  0.79026096  0.23779821  1
  Mo  Mo172  1  0.00268833  0.58811174  0.25608145  1
  Mo  Mo173  1  0.30055760  0.29945760  0.63219519  1
  Mo  Mo174  1  0.50574950  0.10308127  0.62744174  1
  Mo  Mo175  1  0.59890248  0.39157228  0.24216417  1
  Mo  Mo176  1  0.70892701  0.69680384  0.62422971  1
  Mo  Mo177  1  0.49270918  0.29228019  0.64917690  1
  Mo  Mo178  1  0.30129947  0.91053269  0.63247407  1
  Mo  Mo179  1  0.80509407  0.78910405  0.75731348  1
  Mo  Mo180  1  0.49433894  0.10232288  0.36826261  1
  Mo  Mo181  1  0.69524828  0.68409145  0.11665258  1
  Mo  Mo182  1  0.28492687  0.71544733  0.62950243  1
  Mo  Mo183  1  0.79711919  0.18742610  0.75987620  1
  Mo  Mo184  1  0.09690264  0.90917540  0.35545651  1
  Mo  Mo185  1  0.29615252  0.50727095  0.62438440  1
  Mo  Mo186  1  0.90009469  0.09455998  0.12043219  1
  Mo  Mo187  1  0.40982166  0.60628937  0.00365849  1
  Mo  Mo188  1  0.51174370  0.50103630  0.62302707  1
  Mo  Mo189  1  0.19598541  0.01019447  0.25383124  1
  Mo  Mo190  1  0.59154057  0.18868241  0.50964394  1
  Mo  Mo191  1  0.79292133  0.39588011  -0.00266286  1
  Mo  Mo192  1  0.20268065  0.80258544  0.24215659  1
  Mo  Mo193  1  0.69852004  0.29130882  0.37135368  1
  Mo  Mo194  1  0.19710432  0.21565601  0.26840767  1
  Mo  Mo195  1  0.59854709  0.40529841  0.74536981  1
  Mo  Mo196  1  0.09138386  0.29948556  0.61740542  1
  Mo  Mo197  1  0.80092079  0.40616844  0.51889395  1
  Mo  Mo198  1  0.39504305  0.20563093  -0.00476609  1
  Mo  Mo199  1  0.19740323  0.79405470  0.74307336  1
