# generated using pymatgen
data_HfZrTaTiMo
_symmetry_space_group_name_H-M   'P 1'
_cell_length_a   15.20587176
_cell_length_b   15.19566108
_cell_length_c   16.79938891
_cell_angle_alpha   89.98957579
_cell_angle_beta   90.00464422
_cell_angle_gamma   89.91784457
_symmetry_Int_Tables_number   1
_chemical_formula_structural   HfZrTaTiMo
_chemical_formula_sum   'Hf40 Zr40 Ta40 Ti40 Mo40'
_cell_volume   3881.71772959
_cell_formula_units_Z   40
loop_
 _symmetry_equiv_pos_site_id
 _symmetry_equiv_pos_as_xyz
  1  'x, y, z'
loop_
 _atom_site_type_symbol
 _atom_site_label
 _atom_site_symmetry_multiplicity
 _atom_site_fract_x
 _atom_site_fract_y
 _atom_site_fract_z
 _atom_site_occupancy
  Hf  Hf0  1  0.70407451  0.90222310  0.88258187  1
  Hf  Hf1  1  0.20778406  0.79836546  0.50102907  1
  Hf  Hf2  1  0.49921567  0.89752017  0.62022494  1
  Hf  Hf3  1  0.11654604  0.50684602  0.60235532  1
  Hf  Hf4  1  0.21419003  0.61302813  0.73749436  1
  Hf  Hf5  1  0.91637697  0.30743116  0.12190889  1
  Hf  Hf6  1  0.60562399  0.38834937  0.00238514  1
  Hf  Hf7  1  0.79168971  0.19532800  0.74912684  1
  Hf  Hf8  1  0.80322735  0.79475121  0.50153022  1
  Hf  Hf9  1  0.29861552  0.89276495  0.14691242  1
  Hf  Hf10  1  0.48714771  0.09712562  0.63169056  1
  Hf  Hf11  1  0.80784472  0.59381136  0.23123842  1
  Hf  Hf12  1  0.19795283  0.80333512  0.01123585  1
  Hf  Hf13  1  0.29639132  0.28733294  0.12902781  1
  Hf  Hf14  1  0.28376172  0.09142243  0.12213568  1
  Hf  Hf15  1  0.30252680  0.90538301  0.62707427  1
  Hf  Hf16  1  0.79001571  0.21101574  0.01470677  1
  Hf  Hf17  1  0.59600530  0.79155039  0.75500299  1
  Hf  Hf18  1  0.01293254  0.39008767  0.75411345  1
  Hf  Hf19  1  0.00045427  0.61482863  0.50126688  1
  Hf  Hf20  1  0.70087929  0.49626041  0.62775095  1
  Hf  Hf21  1  0.79626222  0.00399634  0.23686207  1
  Hf  Hf22  1  0.50604653  0.71094421  0.13643959  1
  Hf  Hf23  1  0.48820419  0.90043618  0.36254733  1
  Hf  Hf24  1  0.01224967  0.60400523  0.00396172  1
  Hf  Hf25  1  0.89865616  0.70467877  0.87062308  1
  Hf  Hf26  1  0.79766265  0.39523287  0.49487855  1
  Hf  Hf27  1  0.79170797  0.00548557  0.01248780  1
  Hf  Hf28  1  0.68452654  0.89890689  0.12215662  1
  Hf  Hf29  1  0.60928536  0.59649381  0.01587662  1
  Hf  Hf30  1  0.09862807  0.90707761  0.88131955  1
  Hf  Hf31  1  0.31787070  0.51393996  0.59378452  1
  Hf  Hf32  1  0.79529036  0.79016752  0.23680652  1
  Hf  Hf33  1  0.40207288  0.40100151  0.74756574  1
  Hf  Hf34  1  0.10556262  0.29850221  0.60899575  1
  Hf  Hf35  1  0.01389590  0.00537576  0.48719128  1
  Hf  Hf36  1  0.38960655  0.79335864  0.75278277  1
  Hf  Hf37  1  0.78911764  0.20642947  0.23424984  1
  Hf  Hf38  1  0.50360077  0.29317089  0.63363382  1
  Hf  Hf39  1  0.88954788  0.10791946  0.36568565  1
  Zr  Zr40  1  0.48370961  0.68964707  0.60820819  1
  Zr  Zr41  1  0.69417168  0.89609492  0.36815477  1
  Zr  Zr42  1  0.89883008  0.92188256  0.62966509  1
  Zr  Zr43  1  0.71761385  0.50234160  0.87562576  1
  Zr  Zr44  1  0.00340628  0.80411091  0.49767683  1
  Zr  Zr45  1  0.08790173  0.09991832  0.62662793  1
  Zr  Zr46  1  0.49432906  0.90367934  0.14058634  1
  Zr  Zr47  1  0.19205038  0.00329872  0.75495540  1
  Zr  Zr48  1  0.80481987  0.40526267  0.24256679  1
  Zr  Zr49  1  0.31464113  0.50455492  0.89533715  1
  Zr  Zr50  1  0.68587961  0.11311169  0.87774239  1
  Zr  Zr51  1  0.28654411  0.09871969  0.88482742  1
  Zr  Zr52  1  0.30221895  0.70320764  0.36244097  1
  Zr  Zr53  1  0.29289125  0.69829016  0.88807281  1
  Zr  Zr54  1  0.42870764  0.39166564  0.48615024  1
  Zr  Zr55  1  0.81190607  0.60341550  0.01754300  1
  Zr  Zr56  1  0.30333955  0.29605165  0.60479809  1
  Zr  Zr57  1  0.48487915  0.09865873  0.13550501  1
  Zr  Zr58  1  0.39422421  0.00306303  0.48737566  1
  Zr  Zr59  1  -0.01311237  0.20600634  0.48711337  1
  Zr  Zr60  1  0.90548106  0.89518969  0.36285057  1
  Zr  Zr61  1  0.89496950  0.29988240  0.88134669  1
  Zr  Zr62  1  0.79644317  0.00775686  0.49790332  1
  Zr  Zr63  1  0.50771571  0.69426534  0.36851609  1
  Zr  Zr64  1  0.60413905  0.00041528  0.75214371  1
  Zr  Zr65  1  0.68198421  0.10469673  0.37487534  1
  Zr  Zr66  1  0.20868159  0.40994205  0.74186580  1
  Zr  Zr67  1  -0.00589505  0.40373354  0.48838836  1
  Zr  Zr68  1  0.69551429  0.69416233  0.62787968  1
  Zr  Zr69  1  0.10950546  0.30744016  0.13960012  1
  Zr  Zr70  1  0.49824245  0.68722119  0.88220378  1
  Zr  Zr71  1  0.50339012  0.27794147  0.86868564  1
  Zr  Zr72  1  0.29940127  0.47947789  0.12197819  1
  Zr  Zr73  1  0.11890120  0.50178276  0.88487599  1
  Zr  Zr74  1  0.01068718  0.60258803  0.74764224  1
  Zr  Zr75  1  0.29224132  0.30557960  0.88663649  1
  Zr  Zr76  1  0.89881054  0.50140328  0.63236439  1
  Zr  Zr77  1  0.61506883  0.38798269  0.76361098  1
  Zr  Zr78  1  0.59062805  0.20061840  0.49948232  1
  Zr  Zr79  1  0.48863827  0.30972927  0.13403223  1
  Ta  Ta80  1  0.10068131  0.70863104  0.87884851  1
  Ta  Ta81  1  -0.00278376  0.20965381  0.26255429  1
  Ta  Ta82  1  0.12377569  0.90444343  0.36189432  1
  Ta  Ta83  1  0.39919862  0.19773972  0.00115236  1
  Ta  Ta84  1  0.10026849  0.91085744  0.12843392  1
  Ta  Ta85  1  0.40690197  0.59580264  0.02343843  1
  Ta  Ta86  1  0.09991734  0.70262285  0.36097502  1
  Ta  Ta87  1  0.70533397  0.70106758  0.87436815  1
  Ta  Ta88  1  0.10067429  0.89878365  0.62713852  1
  Ta  Ta89  1  0.80346630  0.59892788  0.49494938  1
  Ta  Ta90  1  0.89872650  0.70557972  0.63837009  1
  Ta  Ta91  1  0.10268725  0.49977234  0.12543342  1
  Ta  Ta92  1  0.90768765  0.90337718  0.12624869  1
  Ta  Ta93  1  0.59409772  0.18538234  0.01452829  1
  Ta  Ta94  1  0.40234925  0.80092107  0.00426162  1
  Ta  Ta95  1  -0.00382925  0.80544361  0.00601193  1
  Ta  Ta96  1  0.20047733  0.17999492  0.48202796  1
  Ta  Ta97  1  0.69665413  0.90213376  0.62331650  1
  Ta  Ta98  1  0.90150471  0.69354053  0.36420556  1
  Ta  Ta99  1  0.80060699  0.81044211  0.74973212  1
  Ta  Ta100  1  0.69735453  0.30847144  0.37068796  1
  Ta  Ta101  1  0.69740147  0.50341232  0.37324933  1
  Ta  Ta102  1  0.00868511  0.01034054  0.25013459  1
  Ta  Ta103  1  0.00412437  0.80892740  0.74920523  1
  Ta  Ta104  1  0.70468672  0.69238556  0.37404536  1
  Ta  Ta105  1  0.59714198  0.80533868  0.49522244  1
  Ta  Ta106  1  0.09459662  0.10888575  0.12449175  1
  Ta  Ta107  1  0.59787889  0.80302043  -0.00544658  1
  Ta  Ta108  1  0.40566924  0.59321381  0.74686629  1
  Ta  Ta109  1  0.19432851  0.20937300  0.75140099  1
  Ta  Ta110  1  0.01369647  0.39349566  -0.00654989  1
  Ta  Ta111  1  0.30428560  0.50058031  0.38378851  1
  Ta  Ta112  1  0.11011265  0.50878127  0.37968032  1
  Ta  Ta113  1  0.40853961  0.58504502  0.24160702  1
  Ta  Ta114  1  0.61537927  0.59823825  0.23530397  1
  Ta  Ta115  1  0.29483666  0.10577212  0.62455242  1
  Ta  Ta116  1  0.90785208  0.10354254  0.12570430  1
  Ta  Ta117  1  0.39691668  -0.00722564  -0.00136800  1
  Ta  Ta118  1  0.00219543  0.00688068  0.00369804  1
  Ta  Ta119  1  0.19468582  0.19071369  0.26786733  1
  Ti  Ti120  1  0.10536799  0.30655605  0.37506724  1
  Ti  Ti121  1  0.39380990  0.39613528  0.26464398  1
  Ti  Ti122  1  0.30170261  0.29443364  0.38289633  1
  Ti  Ti123  1  0.79629195  0.20475125  0.50324635  1
  Ti  Ti124  1  0.51091000  0.49500313  0.62066667  1
  Ti  Ti125  1  0.69884941  0.09620974  0.62476378  1
  Ti  Ti126  1  0.80044275  0.79709834  0.01025779  1
  Ti  Ti127  1  0.48356466  0.09079591  0.86653804  1
  Ti  Ti128  1  0.28626507  0.07490241  0.36945937  1
  Ti  Ti129  1  0.00755695  0.40999984  0.26189518  1
  Ti  Ti130  1  0.39364515  0.19032685  0.26870973  1
  Ti  Ti131  1  0.80875084  0.39964832  0.75264872  1
  Ti  Ti132  1  0.00420067  0.59774199  0.24613057  1
  Ti  Ti133  1  0.50895795  0.29188379  0.36378256  1
  Ti  Ti134  1  0.90921599  0.50508159  0.87134568  1
  Ti  Ti135  1  0.19305649  0.79828266  0.74431710  1
  Ti  Ti136  1  0.51127792  0.49588477  0.36777593  1
  Ti  Ti137  1  0.08477243  0.11281751  0.88057984  1
  Ti  Ti138  1  0.60474955  0.40685429  0.23859928  1
  Ti  Ti139  1  0.59941133  0.59150452  0.75493294  1
  Ti  Ti140  1  -0.01788464  0.00868074  0.75788827  1
  Ti  Ti141  1  0.49284019  0.90216548  0.87599416  1
  Ti  Ti142  1  0.17560792  0.20802555  -0.00229942  1
  Ti  Ti143  1  0.89255712  0.09638611  0.88476454  1
  Ti  Ti144  1  0.89965434  0.50412528  0.37281332  1
  Ti  Ti145  1  0.10768509  0.70209211  0.13448427  1
  Ti  Ti146  1  0.80490804  0.41093733  0.01482412  1
  Ti  Ti147  1  0.59312861  0.01177887  0.25149768  1
  Ti  Ti148  1  0.59879728  0.20520797  0.24010750  1
  Ti  Ti149  1  0.60164920  0.58779486  0.49539528  1
  Ti  Ti150  1  -0.00496575  0.19784438  0.75185875  1
  Ti  Ti151  1  0.89900386  0.90324722  0.87965141  1
  Ti  Ti152  1  0.20225563  0.58603775  0.24885308  1
  Ti  Ti153  1  0.29943421  0.69209757  0.13368275  1
  Ti  Ti154  1  0.69970572  0.29707045  0.62325363  1
  Ti  Ti155  1  0.00636586  0.80295621  0.24612709  1
  Ti  Ti156  1  0.91505157  0.70519669  0.12708043  1
  Ti  Ti157  1  0.89808149  0.29310631  0.62971282  1
  Ti  Ti158  1  0.29990639  0.90179208  0.87671277  1
  Ti  Ti159  1  0.50136566  0.49269613  0.88291116  1
  Mo  Mo160  1  0.09950855  0.71091822  0.62783180  1
  Mo  Mo161  1  0.20330874  0.39854894  0.27322756  1
  Mo  Mo162  1  0.79740764  0.60727420  0.75546500  1
  Mo  Mo163  1  0.38343435  0.18755956  0.74944586  1
  Mo  Mo164  1  0.59848079  0.19619363  0.74135360  1
  Mo  Mo165  1  0.68743779  0.09800874  0.12523263  1
  Mo  Mo166  1  0.70277793  0.70744205  0.11967973  1
  Mo  Mo167  1  0.40373709  0.79718180  0.49772025  1
  Mo  Mo168  1  0.20417754  0.39344801  0.47834312  1
  Mo  Mo169  1  0.19121412  0.00165928  0.24683417  1
  Mo  Mo170  1  -0.00444260  0.19606872  -0.00018423  1
  Mo  Mo171  1  0.61053305  0.40038052  0.49527649  1
  Mo  Mo172  1  0.80565813  0.00034144  0.75557227  1
  Mo  Mo173  1  0.49249097  0.10449893  0.36626886  1
  Mo  Mo174  1  0.92367375  0.49550637  0.12354901  1
  Mo  Mo175  1  0.09847745  0.10210252  0.37124652  1
  Mo  Mo176  1  0.19744198  0.39818949  0.00405179  1
  Mo  Mo177  1  0.19974248  0.60669993  0.49012241  1
  Mo  Mo178  1  0.60168098  -0.00589674  0.50696449  1
  Mo  Mo179  1  0.39707633  0.78739207  0.24777517  1
  Mo  Mo180  1  0.29732907  0.89146218  0.35857064  1
  Mo  Mo181  1  0.89260464  0.30716394  0.36443299  1
  Mo  Mo182  1  0.19035460  0.78898000  0.24049058  1
  Mo  Mo183  1  0.40883076  0.60046829  0.48326130  1
  Mo  Mo184  1  0.69514189  0.30020108  0.12686097  1
  Mo  Mo185  1  0.89121516  0.11491337  0.62709408  1
  Mo  Mo186  1  0.70265668  0.49398473  0.12099629  1
  Mo  Mo187  1  0.29653088  0.70271600  0.61794971  1
  Mo  Mo188  1  0.70508842  0.29926234  0.88246213  1
  Mo  Mo189  1  0.50005021  0.49994832  0.13369642  1
  Mo  Mo190  1  0.38875172  0.00465245  0.26256864  1
  Mo  Mo191  1  0.19277785  -0.00023073  0.00087254  1
  Mo  Mo192  1  0.60682254  0.79677017  0.25928767  1
  Mo  Mo193  1  0.57912362  -0.00316946  -0.00784357  1
  Mo  Mo194  1  0.40920393  0.39304595  0.00016746  1
  Mo  Mo195  1  0.39430412  0.19409428  0.47968809  1
  Mo  Mo196  1  0.39300109  -0.00095106  0.75861396  1
  Mo  Mo197  1  0.09869309  0.29153489  0.87272131  1
  Mo  Mo198  1  0.19712943  -0.00458431  0.50170979  1
  Mo  Mo199  1  0.20331081  0.60608456  0.01852469  1
