# generated using pymatgen
data_HfZrTaTiMo
_symmetry_space_group_name_H-M   'P 1'
_cell_length_a   15.21956810
_cell_length_b   15.19942388
_cell_length_c   16.85055953
_cell_angle_alpha   90.02316757
_cell_angle_beta   89.95358007
_cell_angle_gamma   89.84901091
_symmetry_Int_Tables_number   1
_chemical_formula_structural   HfZrTaTiMo
_chemical_formula_sum   'Hf40 Zr40 Ta40 Ti40 Mo40'
_cell_volume   3898.00233502
_cell_formula_units_Z   40
loop_
 _symmetry_equiv_pos_site_id
 _symmetry_equiv_pos_as_xyz
  1  'x, y, z'
loop_
 _atom_site_type_symbol
 _atom_site_label
 _atom_site_symmetry_multiplicity
 _atom_site_fract_x
 _atom_site_fract_y
 _atom_site_fract_z
 _atom_site_occupancy
  Hf  Hf0  1  0.39761511  0.39017683  -0.01122634  1
  Hf  Hf1  1  0.69724680  0.49939033  0.86871041  1
  Hf  Hf2  1  0.49363786  0.28625740  0.37373132  1
  Hf  Hf3  1  0.70325946  0.68627461  0.12944799  1
  Hf  Hf4  1  0.90244365  0.48031334  0.87298412  1
  Hf  Hf5  1  0.51810989  0.48436928  0.11166189  1
  Hf  Hf6  1  0.71753214  0.89325888  0.36015058  1
  Hf  Hf7  1  0.80576155  -0.00736671  0.49420829  1
  Hf  Hf8  1  0.21401455  0.80618684  0.74332412  1
  Hf  Hf9  1  0.10553004  0.10826798  0.87188276  1
  Hf  Hf10  1  0.07785615  0.49379507  0.11720914  1
  Hf  Hf11  1  0.19877137  0.01571270  0.00430659  1
  Hf  Hf12  1  0.39107730  0.59448837  0.75633817  1
  Hf  Hf13  1  0.00664617  0.00188259  0.75156823  1
  Hf  Hf14  1  0.68307524  0.09609809  0.12003737  1
  Hf  Hf15  1  0.80291106  -0.00792153  0.00139966  1
  Hf  Hf16  1  0.60814665  0.00261624  0.49455632  1
  Hf  Hf17  1  0.90163284  0.09433100  0.13592572  1
  Hf  Hf18  1  0.39561709  -0.00373344  0.73625732  1
  Hf  Hf19  1  0.10303799  0.70605958  0.88424985  1
  Hf  Hf20  1  0.79461058  0.20035843  0.75385313  1
  Hf  Hf21  1  0.29666116  0.11722098  0.62304267  1
  Hf  Hf22  1  0.10150756  0.50575393  0.62104954  1
  Hf  Hf23  1  0.67676328  0.29177307  0.61988243  1
  Hf  Hf24  1  0.20850478  0.58918053  -0.00172678  1
  Hf  Hf25  1  0.70554446  0.89760185  0.13857805  1
  Hf  Hf26  1  -0.00573419  0.40081781  0.48037355  1
  Hf  Hf27  1  0.62037070  0.78973484  0.49532564  1
  Hf  Hf28  1  -0.00086352  -0.00385176  0.49215441  1
  Hf  Hf29  1  0.39966095  0.80138037  0.50207889  1
  Hf  Hf30  1  0.09384177  0.10505487  0.62575512  1
  Hf  Hf31  1  0.78765124  0.21890171  0.23186918  1
  Hf  Hf32  1  0.58421832  0.39562106  0.75940171  1
  Hf  Hf33  1  -0.00338035  0.19593728  0.48448921  1
  Hf  Hf34  1  0.70664289  0.71004516  0.86187486  1
  Hf  Hf35  1  0.09423506  0.49683378  0.88197716  1
  Hf  Hf36  1  0.80245896  0.00341258  0.75591909  1
  Hf  Hf37  1  0.80597639  0.21862690  0.01429382  1
  Hf  Hf38  1  0.40319984  0.80215713  0.25466468  1
  Hf  Hf39  1  0.10989006  0.29226801  0.36693052  1
  Zr  Zr40  1  0.00008379  0.80656020  0.00799935  1
  Zr  Zr41  1  0.42158209  0.79274582  0.74802793  1
  Zr  Zr42  1  0.10792848  0.71228837  0.38826917  1
  Zr  Zr43  1  0.69370479  0.10866777  0.35709376  1
  Zr  Zr44  1  0.30103591  0.49456001  0.12929053  1
  Zr  Zr45  1  0.79875023  0.38995343  0.74084060  1
  Zr  Zr46  1  0.29360837  0.10994465  0.38173800  1
  Zr  Zr47  1  0.00576695  0.80143352  0.24831030  1
  Zr  Zr48  1  -0.02170517  0.60117260  0.27258856  1
  Zr  Zr49  1  0.41317069  0.59719732  0.24777646  1
  Zr  Zr50  1  0.80570519  0.59342593  -0.00740675  1
  Zr  Zr51  1  0.19799574  0.60529951  0.75437318  1
  Zr  Zr52  1  0.90324314  0.89018775  0.87001912  1
  Zr  Zr53  1  0.40601727  0.00241218  0.50073831  1
  Zr  Zr54  1  0.50895587  0.68118252  0.38061451  1
  Zr  Zr55  1  0.78883230  0.41410458  0.50079074  1
  Zr  Zr56  1  0.79302843  0.19656618  0.49451180  1
  Zr  Zr57  1  0.30900545  0.90766549  0.88223609  1
  Zr  Zr58  1  0.40781864  0.01209692  0.26296123  1
  Zr  Zr59  1  0.19981958  -0.01503486  0.51291461  1
  Zr  Zr60  1  0.69383097  0.10327629  0.89240350  1
  Zr  Zr61  1  0.30188661  0.29609745  0.13084340  1
  Zr  Zr62  1  0.48503917  0.48818245  0.63071807  1
  Zr  Zr63  1  0.68598038  0.31514401  0.36995943  1
  Zr  Zr64  1  0.10425976  0.69963360  0.11934316  1
  Zr  Zr65  1  -0.00885865  0.59531871  0.48498204  1
  Zr  Zr66  1  0.50229007  0.69872450  0.11829621  1
  Zr  Zr67  1  0.89641504  0.49946789  0.62671915  1
  Zr  Zr68  1  0.60816367  0.80322262  -0.00128870  1
  Zr  Zr69  1  0.01807579  0.20911340  0.01613371  1
  Zr  Zr70  1  0.50099570  0.91606486  0.11685074  1
  Zr  Zr71  1  0.59301885  -0.00075128  0.75249207  1
  Zr  Zr72  1  0.50888859  0.12061989  0.62118299  1
  Zr  Zr73  1  0.21559910  0.38789103  0.49759296  1
  Zr  Zr74  1  0.10558988  0.29971394  0.61965820  1
  Zr  Zr75  1  0.89423224  0.70309989  0.61448876  1
  Zr  Zr76  1  0.30293392  0.09543878  0.13116405  1
  Zr  Zr77  1  0.19766672  0.60144639  0.24784289  1
  Zr  Zr78  1  0.90983342  0.89519371  0.62814902  1
  Zr  Zr79  1  -0.00662029  0.41026337  0.26750445  1
  Ta  Ta80  1  0.20517062  0.80999919  0.00322756  1
  Ta  Ta81  1  0.78757422  0.42847662  0.24868270  1
  Ta  Ta82  1  0.30389874  0.69627479  0.61444359  1
  Ta  Ta83  1  -0.00992224  0.20733363  0.75191597  1
  Ta  Ta84  1  0.29175641  0.89246312  0.37368366  1
  Ta  Ta85  1  0.90664782  0.11075748  0.88540884  1
  Ta  Ta86  1  0.18605036  0.38057517  -0.00222305  1
  Ta  Ta87  1  0.70852613  0.89229183  0.63411562  1
  Ta  Ta88  1  0.31313661  0.49694140  0.36498975  1
  Ta  Ta89  1  0.69900876  0.89946647  0.87019765  1
  Ta  Ta90  1  0.48925028  0.50810449  0.88542140  1
  Ta  Ta91  1  0.30829768  0.70608199  0.11120130  1
  Ta  Ta92  1  0.30218281  0.69600415  0.38192983  1
  Ta  Ta93  1  0.30197942  0.89838042  0.12149828  1
  Ta  Ta94  1  0.00429345  0.00212120  0.00305148  1
  Ta  Ta95  1  -0.00004150  0.60304197  0.74742311  1
  Ta  Ta96  1  0.58510499  0.61218045  0.75961013  1
  Ta  Ta97  1  0.69751726  0.70651693  0.64167592  1
  Ta  Ta98  1  0.39205716  0.21839549  0.50202807  1
  Ta  Ta99  1  0.10666611  0.90596876  0.87541479  1
  Ta  Ta100  1  0.09731266  0.09284198  0.35750652  1
  Ta  Ta101  1  0.19786033  0.20911458  0.75277920  1
  Ta  Ta102  1  0.01302645  0.79240336  0.74928496  1
  Ta  Ta103  1  0.38887642  0.18875823  -0.00924649  1
  Ta  Ta104  1  0.10331279  0.90595322  0.36667133  1
  Ta  Ta105  1  0.68437807  0.51674589  0.63324866  1
  Ta  Ta106  1  0.51064653  0.68814909  0.61688144  1
  Ta  Ta107  1  0.89681338  0.10474540  0.62473189  1
  Ta  Ta108  1  0.90366292  0.68609831  0.12186272  1
  Ta  Ta109  1  0.57249464  0.20313272  0.23025233  1
  Ta  Ta110  1  0.10048512  0.71280026  0.60821509  1
  Ta  Ta111  1  0.32001154  0.69741185  0.89533080  1
  Ta  Ta112  1  0.59297545  0.20429217  0.76516318  1
  Ta  Ta113  1  0.88715883  0.29879716  0.36342859  1
  Ta  Ta114  1  0.80578832  0.79623199  0.00525285  1
  Ta  Ta115  1  0.21310475  0.59616620  0.49884847  1
  Ta  Ta116  1  0.60292185  0.78814001  0.25724897  1
  Ta  Ta117  1  0.58235396  0.21378268  0.00440469  1
  Ta  Ta118  1  0.81151703  0.78789100  0.24827237  1
  Ta  Ta119  1  0.71194661  0.68023763  0.37137666  1
  Ti  Ti120  1  0.00365050  0.39455584  0.74426334  1
  Ti  Ti121  1  0.10648986  0.91272159  0.13471946  1
  Ti  Ti122  1  0.40298998  0.20757339  0.76151815  1
  Ti  Ti123  1  0.89625932  0.08775672  0.34848411  1
  Ti  Ti124  1  0.28419905  0.29398831  0.87686618  1
  Ti  Ti125  1  0.20127290  -0.00057422  0.73872987  1
  Ti  Ti126  1  0.90191342  0.29408169  0.61643391  1
  Ti  Ti127  1  0.12405898  0.49847331  0.37533787  1
  Ti  Ti128  1  0.58483135  0.39643689  0.50809489  1
  Ti  Ti129  1  0.59565320  -0.00074280  0.25575964  1
  Ti  Ti130  1  0.29828169  0.10143947  0.86862400  1
  Ti  Ti131  1  0.20645537  0.19560500  0.25100062  1
  Ti  Ti132  1  0.20207245  0.40333228  0.75889623  1
  Ti  Ti133  1  0.90371118  0.90004179  0.13311141  1
  Ti  Ti134  1  0.38938441  0.39384779  0.77305985  1
  Ti  Ti135  1  0.90878736  0.69221177  0.87364757  1
  Ti  Ti136  1  0.90513691  0.32888681  0.13117175  1
  Ti  Ti137  1  0.29527777  0.49776167  0.62784805  1
  Ti  Ti138  1  0.70228043  0.09507725  0.62547459  1
  Ti  Ti139  1  0.30106998  0.30945983  0.35691294  1
  Ti  Ti140  1  0.50331093  0.89597965  0.88712779  1
  Ti  Ti141  1  0.41923668  0.38924808  0.24436231  1
  Ti  Ti142  1  0.40419252  0.58968448  0.49803118  1
  Ti  Ti143  1  0.08196056  0.30221709  0.87450803  1
  Ti  Ti144  1  0.51204215  0.48502468  0.37383069  1
  Ti  Ti145  1  0.61717511  0.57327044  0.24699817  1
  Ti  Ti146  1  0.50624894  0.89864607  0.37642118  1
  Ti  Ti147  1  -0.00441320  0.20439621  0.24921328  1
  Ti  Ti148  1  0.80447813  0.60251234  0.75128955  1
  Ti  Ti149  1  0.70305749  0.30455146  0.88658191  1
  Ti  Ti150  1  0.88856807  0.71915867  0.39522420  1
  Ti  Ti151  1  0.20954643  0.80158572  0.24468983  1
  Ti  Ti152  1  0.39926608  0.40233221  0.49651285  1
  Ti  Ti153  1  0.60030945  0.59764109  -0.00985582  1
  Ti  Ti154  1  0.31078946  0.30897068  0.63742536  1
  Ti  Ti155  1  0.68061510  0.32763068  0.11854697  1
  Ti  Ti156  1  0.10663021  0.30292232  0.14193594  1
  Ti  Ti157  1  0.10164311  0.09795720  0.14543073  1
  Ti  Ti158  1  0.49149101  0.09261271  0.88302290  1
  Ti  Ti159  1  0.51403543  0.89032727  0.62094786  1
  Mo  Mo160  1  0.40117484  0.00336525  -0.00353949  1
  Mo  Mo161  1  0.20241660  0.40196370  0.25271604  1
  Mo  Mo162  1  0.60392705  0.40030590  -0.01796412  1
  Mo  Mo163  1  0.79785672  0.80489444  0.49986624  1
  Mo  Mo164  1  0.89033561  0.50229330  0.12104960  1
  Mo  Mo165  1  0.70548629  0.49917818  0.11397553  1
  Mo  Mo166  1  0.80067346  0.60465876  0.25021765  1
  Mo  Mo167  1  0.59989119  0.58737275  0.50718045  1
  Mo  Mo168  1  0.85998542  0.51126450  0.38277265  1
  Mo  Mo169  1  0.50417061  0.10171864  0.38196304  1
  Mo  Mo170  1  0.30795414  0.89525668  0.62932181  1
  Mo  Mo171  1  -0.01165006  0.39383448  0.00360335  1
  Mo  Mo172  1  0.79786162  0.39488979  0.00279685  1
  Mo  Mo173  1  0.00054989  -0.00032290  0.24958788  1
  Mo  Mo174  1  0.90763653  0.89813435  0.36822358  1
  Mo  Mo175  1  0.60150607  0.39327439  0.24541240  1
  Mo  Mo176  1  0.00492597  0.81274736  0.49187224  1
  Mo  Mo177  1  0.80720511  0.79671119  0.75310838  1
  Mo  Mo178  1  0.39719413  0.20186865  0.25170318  1
  Mo  Mo179  1  0.29298569  0.49026936  0.87933175  1
  Mo  Mo180  1  0.77589893  0.61589216  0.50973527  1
  Mo  Mo181  1  0.20086583  -0.01116079  0.24982949  1
  Mo  Mo182  1  0.49398126  0.29622220  0.11695052  1
  Mo  Mo183  1  -0.00155347  0.59865378  -0.00297006  1
  Mo  Mo184  1  0.20704033  0.79827744  0.50456226  1
  Mo  Mo185  1  0.49311659  0.10415640  0.11372140  1
  Mo  Mo186  1  0.58936260  0.19799495  0.49738844  1
  Mo  Mo187  1  0.79999187  -0.00025430  0.24385820  1
  Mo  Mo188  1  0.49566400  0.28841993  0.87670910  1
  Mo  Mo189  1  0.20177251  0.19825323  0.49286487  1
  Mo  Mo190  1  0.90082337  0.29122876  0.87706808  1
  Mo  Mo191  1  0.60162052  0.80456093  0.74951612  1
  Mo  Mo192  1  0.10340442  0.89426977  0.62907183  1
  Mo  Mo193  1  0.20334907  0.20649848  -0.00305481  1
  Mo  Mo194  1  0.68185725  0.50681162  0.38060040  1
  Mo  Mo195  1  0.48352592  0.29969011  0.62947707  1
  Mo  Mo196  1  0.59846474  0.00529129  -0.00889663  1
  Mo  Mo197  1  0.39965452  0.80234097  0.00210151  1
  Mo  Mo198  1  0.50496322  0.70007573  0.88363624  1
  Mo  Mo199  1  0.40509558  0.59654854  -0.00001249  1
