# generated using pymatgen
data_HfZrTaTiMo
_symmetry_space_group_name_H-M   'P 1'
_cell_length_a   15.20863256
_cell_length_b   15.20834333
_cell_length_c   16.84815215
_cell_angle_alpha   89.97676710
_cell_angle_beta   89.98336017
_cell_angle_gamma   90.14545995
_symmetry_Int_Tables_number   1
_chemical_formula_structural   HfZrTaTiMo
_chemical_formula_sum   'Hf40 Zr40 Ta40 Ti40 Mo40'
_cell_volume   3896.93263101
_cell_formula_units_Z   40
loop_
 _symmetry_equiv_pos_site_id
 _symmetry_equiv_pos_as_xyz
  1  'x, y, z'
loop_
 _atom_site_type_symbol
 _atom_site_label
 _atom_site_symmetry_multiplicity
 _atom_site_fract_x
 _atom_site_fract_y
 _atom_site_fract_z
 _atom_site_occupancy
  Hf  Hf0  1  0.19505925  0.20044399  0.49308212  1
  Hf  Hf1  1  0.31082410  0.10518619  0.61704946  1
  Hf  Hf2  1  0.00425624  0.80711075  0.75669757  1
  Hf  Hf3  1  0.29787876  0.51110041  0.63066837  1
  Hf  Hf4  1  0.59527588  0.58422892  0.49528538  1
  Hf  Hf5  1  0.89436581  0.29915604  0.62239654  1
  Hf  Hf6  1  0.30211937  0.51498201  0.87674003  1
  Hf  Hf7  1  0.60785209  0.79384827  0.24971347  1
  Hf  Hf8  1  0.20565580  0.58836744  0.23757066  1
  Hf  Hf9  1  -0.01835678  -0.01420450  0.24261193  1
  Hf  Hf10  1  0.11059261  0.70061823  0.62204262  1
  Hf  Hf11  1  0.49229995  0.69217050  0.38439801  1
  Hf  Hf12  1  0.00234335  0.58646990  0.00089039  1
  Hf  Hf13  1  0.29143532  0.09213852  0.87686551  1
  Hf  Hf14  1  0.61039231  0.19564924  0.01565666  1
  Hf  Hf15  1  0.39509738  0.81452532  -0.00004143  1
  Hf  Hf16  1  0.30526704  0.70411487  0.61326472  1
  Hf  Hf17  1  0.49404246  0.28617163  0.63167336  1
  Hf  Hf18  1  0.41355133  0.40418921  0.50307661  1
  Hf  Hf19  1  0.21189804  0.38737783  0.25106634  1
  Hf  Hf20  1  0.09420703  0.29534750  0.63240672  1
  Hf  Hf21  1  0.72423389  0.30439603  0.13190693  1
  Hf  Hf22  1  0.18667676  -0.01724484  0.49638891  1
  Hf  Hf23  1  0.48535000  0.89229011  0.14032013  1
  Hf  Hf24  1  0.10068929  0.49508318  0.63746161  1
  Hf  Hf25  1  0.29343603  0.09588947  0.36259955  1
  Hf  Hf26  1  0.19781331  0.18412200  0.75043141  1
  Hf  Hf27  1  0.59499175  0.79825881  0.75255903  1
  Hf  Hf28  1  0.78504198  0.20402186  0.48551715  1
  Hf  Hf29  1  0.50034514  0.11159852  0.36816370  1
  Hf  Hf30  1  0.60628533  0.40327799  0.00909210  1
  Hf  Hf31  1  -0.00386233  0.60228635  0.75233875  1
  Hf  Hf32  1  0.69937324  0.89882910  0.62591119  1
  Hf  Hf33  1  0.11806528  0.69471895  0.87528359  1
  Hf  Hf34  1  -0.00945679  0.18896129  0.75605197  1
  Hf  Hf35  1  0.31674782  0.70197279  0.13184506  1
  Hf  Hf36  1  0.20344390  0.39155523  0.00373412  1
  Hf  Hf37  1  0.49909223  0.70667001  0.61049786  1
  Hf  Hf38  1  0.60645953  0.21048512  0.23632522  1
  Hf  Hf39  1  0.39676773  0.21445046  0.24617157  1
  Zr  Zr40  1  0.71181327  0.71213767  0.10769687  1
  Zr  Zr41  1  0.31734535  0.50481602  0.37673101  1
  Zr  Zr42  1  0.69776764  0.70921166  0.88963295  1
  Zr  Zr43  1  0.70340558  0.29672436  0.63444282  1
  Zr  Zr44  1  0.49959331  0.89955298  0.36670099  1
  Zr  Zr45  1  0.91380995  0.70419900  0.12313364  1
  Zr  Zr46  1  0.49031048  0.09389390  0.12014993  1
  Zr  Zr47  1  0.08579973  0.08159601  0.61749771  1
  Zr  Zr48  1  0.08532836  0.88973585  0.12511229  1
  Zr  Zr49  1  0.00338381  0.38627618  -0.00706525  1
  Zr  Zr50  1  0.90311234  0.70177561  0.61442974  1
  Zr  Zr51  1  0.59600789  0.59377104  0.24680946  1
  Zr  Zr52  1  0.00153330  0.39410852  0.49024583  1
  Zr  Zr53  1  0.79650494  0.80589952  0.49570270  1
  Zr  Zr54  1  0.10073457  0.91536279  0.88503337  1
  Zr  Zr55  1  0.70772521  0.50923417  0.87941591  1
  Zr  Zr56  1  0.91302723  0.91419883  0.62035561  1
  Zr  Zr57  1  0.79808866  0.61028207  0.25686108  1
  Zr  Zr58  1  0.90363033  0.09163714  0.88128070  1
  Zr  Zr59  1  0.29660127  0.30858238  0.63288376  1
  Zr  Zr60  1  0.50214136  0.29574116  0.87987773  1
  Zr  Zr61  1  0.18374128  0.78674855  0.24245425  1
  Zr  Zr62  1  0.49437862  0.08946432  0.89141821  1
  Zr  Zr63  1  0.88120601  0.10966949  0.13444889  1
  Zr  Zr64  1  0.91215956  0.50048429  0.36315991  1
  Zr  Zr65  1  0.10065898  0.12148789  0.14610823  1
  Zr  Zr66  1  0.81776427  0.41684897  0.00275242  1
  Zr  Zr67  1  0.08912357  0.08942009  0.36187403  1
  Zr  Zr68  1  0.49849024  0.50243001  0.88685224  1
  Zr  Zr69  1  0.77814656  0.00916325  0.00080829  1
  Zr  Zr70  1  0.61158103  0.38642693  0.50654784  1
  Zr  Zr71  1  0.40162287  0.00732339  0.49687886  1
  Zr  Zr72  1  0.69273304  0.10980113  0.86860140  1
  Zr  Zr73  1  0.69693544  0.69416868  0.61667884  1
  Zr  Zr74  1  0.19924669  0.79273122  0.01024507  1
  Zr  Zr75  1  0.19839978  0.40447485  0.49116645  1
  Zr  Zr76  1  0.10980905  0.49137689  0.86163373  1
  Zr  Zr77  1  0.91029874  0.70898487  0.37966502  1
  Zr  Zr78  1  0.21300590  0.00201538  0.01878866  1
  Zr  Zr79  1  0.79786184  0.59799321  0.74774457  1
  Ta  Ta80  1  0.60366187  0.40386414  0.75151049  1
  Ta  Ta81  1  0.60655353  -0.00049028  0.50209433  1
  Ta  Ta82  1  0.29892810  0.69888218  0.37561132  1
  Ta  Ta83  1  0.50013151  0.50202872  0.63568511  1
  Ta  Ta84  1  0.49292698  0.69957390  0.88920563  1
  Ta  Ta85  1  0.68768239  0.48177895  0.36484646  1
  Ta  Ta86  1  0.58974799  0.00116762  0.74274204  1
  Ta  Ta87  1  0.10498018  0.69259046  0.38311936  1
  Ta  Ta88  1  0.92417776  0.30465241  0.14666486  1
  Ta  Ta89  1  0.39794395  -0.00223848  0.74362262  1
  Ta  Ta90  1  0.40248294  0.19134542  0.75600270  1
  Ta  Ta91  1  -0.01961025  0.39559040  0.76147948  1
  Ta  Ta92  1  0.49799950  0.90098091  0.87522271  1
  Ta  Ta93  1  0.80756716  0.81895431  0.25540185  1
  Ta  Ta94  1  -0.01356482  0.19173748  0.48644944  1
  Ta  Ta95  1  0.40004944  0.61680421  0.75378660  1
  Ta  Ta96  1  0.01944610  0.81823143  0.50003852  1
  Ta  Ta97  1  0.70251715  0.90776150  0.37519128  1
  Ta  Ta98  1  0.79803123  0.58381752  0.49130068  1
  Ta  Ta99  1  0.90287270  0.91363326  0.38232434  1
  Ta  Ta100  1  0.29771271  0.30444976  0.86768044  1
  Ta  Ta101  1  0.38008122  0.20182215  0.00646197  1
  Ta  Ta102  1  0.29734549  0.89385305  0.35197392  1
  Ta  Ta103  1  0.69317636  0.90932569  0.87058351  1
  Ta  Ta104  1  0.81203414  0.21780998  -0.00377013  1
  Ta  Ta105  1  0.60804739  0.00504138  0.24573291  1
  Ta  Ta106  1  0.89439652  0.49304768  0.61857292  1
  Ta  Ta107  1  0.32644383  0.48481619  0.11726860  1
  Ta  Ta108  1  0.89592687  0.69500924  0.88727869  1
  Ta  Ta109  1  0.69490120  0.09916924  0.62955665  1
  Ta  Ta110  1  0.80004383  0.00058834  0.75099430  1
  Ta  Ta111  1  0.00279163  0.19937879  -0.00093587  1
  Ta  Ta112  1  0.80200350  0.39725590  0.48188463  1
  Ta  Ta113  1  0.29611021  0.89787698  0.62641698  1
  Ta  Ta114  1  0.28783680  0.28659823  0.12529864  1
  Ta  Ta115  1  0.10112245  0.28610548  0.86552121  1
  Ta  Ta116  1  0.48514849  0.32207222  0.12058889  1
  Ta  Ta117  1  0.59087183  0.60083887  0.75004061  1
  Ta  Ta118  1  0.51424518  0.32179313  0.36236299  1
  Ta  Ta119  1  0.88211293  0.89577434  0.11392261  1
  Ti  Ti120  1  0.88932061  0.89501922  0.88339185  1
  Ti  Ti121  1  0.31450730  0.29623182  0.38048237  1
  Ti  Ti122  1  0.89842730  0.49819591  0.14372929  1
  Ti  Ti123  1  0.70722947  0.30800320  0.87087264  1
  Ti  Ti124  1  0.20631212  0.59543841  0.01851967  1
  Ti  Ti125  1  0.49626479  0.90512257  0.61805787  1
  Ti  Ti126  1  0.30225260  0.89735142  0.87014636  1
  Ti  Ti127  1  0.70454916  0.49343311  0.62898392  1
  Ti  Ti128  1  0.21161693  0.79444340  0.75187287  1
  Ti  Ti129  1  0.50730396  0.69055959  0.10876394  1
  Ti  Ti130  1  0.88801804  0.10222075  0.36118311  1
  Ti  Ti131  1  0.59424927  0.19595244  0.75036491  1
  Ti  Ti132  1  0.01503150  0.60832508  0.24393524  1
  Ti  Ti133  1  0.69624021  0.09864626  0.36832144  1
  Ti  Ti134  1  0.58566326  0.19180431  0.50065659  1
  Ti  Ti135  1  0.19624563  -0.01403337  0.74355717  1
  Ti  Ti136  1  0.09516715  0.89030962  0.36160229  1
  Ti  Ti137  1  -0.00201921  0.00631396  0.00977568  1
  Ti  Ti138  1  0.80553818  0.80376191  0.75416788  1
  Ti  Ti139  1  0.20469791  0.79735260  0.49052310  1
  Ti  Ti140  1  0.40135871  0.80528962  0.75227872  1
  Ti  Ti141  1  0.09436369  0.48325747  0.13174115  1
  Ti  Ti142  1  0.09308610  0.29504279  0.36090260  1
  Ti  Ti143  1  0.29946498  0.08860822  0.14746138  1
  Ti  Ti144  1  0.60088296  0.81653532  0.00103966  1
  Ti  Ti145  1  0.79917655  0.20563125  0.75744963  1
  Ti  Ti146  1  0.88812047  0.10436022  0.62291390  1
  Ti  Ti147  1  0.00693653  0.59640785  0.50232974  1
  Ti  Ti148  1  0.69367119  0.91342259  0.12550471  1
  Ti  Ti149  1  0.40130415  0.40399112  0.75283262  1
  Ti  Ti150  1  0.80142665  0.01260949  0.49823877  1
  Ti  Ti151  1  0.40974550  0.59211566  0.24415010  1
  Ti  Ti152  1  0.70227069  0.51087570  0.12433817  1
  Ti  Ti153  1  0.00211962  -0.00227979  0.75719166  1
  Ti  Ti154  1  0.69641135  0.70316542  0.38484629  1
  Ti  Ti155  1  0.18757141  0.19843564  -0.00353677  1
  Ti  Ti156  1  0.80206925  0.38985643  0.26527977  1
  Ti  Ti157  1  -0.00426228  0.79839084  -0.00764479  1
  Ti  Ti158  1  0.39733414  0.81104096  0.49329768  1
  Ti  Ti159  1  0.10825619  0.50536091  0.37004662  1
  Mo  Mo160  1  0.01067871  0.41064543  0.25339472  1
  Mo  Mo161  1  0.11001238  0.89135530  0.62948218  1
  Mo  Mo162  1  0.59563887  0.81171589  0.49194518  1
  Mo  Mo163  1  0.39450017  0.39137492  -0.00562942  1
  Mo  Mo164  1  0.69711958  0.10202910  0.12593773  1
  Mo  Mo165  1  0.39634286  0.60554411  0.00201923  1
  Mo  Mo166  1  0.58585235  -0.01300668  0.00427261  1
  Mo  Mo167  1  0.19975095  0.39535033  0.75631661  1
  Mo  Mo168  1  -0.00553021  0.20659804  0.26341514  1
  Mo  Mo169  1  0.80854674  0.60345653  0.00624111  1
  Mo  Mo170  1  0.89472045  0.29684340  0.87276964  1
  Mo  Mo171  1  0.09932078  0.09572440  0.88133771  1
  Mo  Mo172  1  0.90285124  0.50534426  0.87201922  1
  Mo  Mo173  1  0.20959295  0.60932274  0.75007487  1
  Mo  Mo174  1  0.80381941  0.81272164  -0.00667377  1
  Mo  Mo175  1  -0.00966659  0.00441063  0.49129824  1
  Mo  Mo176  1  0.19553947  0.60382475  0.49306454  1
  Mo  Mo177  1  0.79933156  0.40026628  0.75277631  1
  Mo  Mo178  1  0.50354424  0.51024633  0.10777872  1
  Mo  Mo179  1  0.39988647  0.78271605  0.25630771  1
  Mo  Mo180  1  0.20357965  0.20302191  0.26196370  1
  Mo  Mo181  1  0.50239934  0.49725877  0.37134556  1
  Mo  Mo182  1  0.10151188  0.68047014  0.11792877  1
  Mo  Mo183  1  0.40249930  -0.00118112  0.25744549  1
  Mo  Mo184  1  -0.01061314  0.79291966  0.25525289  1
  Mo  Mo185  1  0.30950261  0.70778135  0.87421213  1
  Mo  Mo186  1  0.90272941  0.29399835  0.36441945  1
  Mo  Mo187  1  0.41156796  0.40693827  0.24649731  1
  Mo  Mo188  1  0.60439934  0.40639727  0.23137104  1
  Mo  Mo189  1  0.50573851  0.09568117  0.62667876  1
  Mo  Mo190  1  0.10303026  0.29954903  0.13068864  1
  Mo  Mo191  1  0.30114933  0.90462871  0.15226550  1
  Mo  Mo192  1  0.39674126  0.60142044  0.50257103  1
  Mo  Mo193  1  0.60033030  0.60488941  0.00592742  1
  Mo  Mo194  1  0.69657840  0.29207050  0.36608666  1
  Mo  Mo195  1  0.40591816  0.21029506  0.48819050  1
  Mo  Mo196  1  0.78715658  -0.00140871  0.25007580  1
  Mo  Mo197  1  0.39112453  -0.00330526  0.00375271  1
  Mo  Mo198  1  0.79855186  0.19999046  0.26195585  1
  Mo  Mo199  1  0.19707063  -0.00812648  0.24344776  1
