# generated using pymatgen
data_HfZrTaTiMo
_symmetry_space_group_name_H-M   'P 1'
_cell_length_a   15.19795423
_cell_length_b   15.21978579
_cell_length_c   16.85213102
_cell_angle_alpha   89.96152560
_cell_angle_beta   89.96913485
_cell_angle_gamma   89.91984353
_symmetry_Int_Tables_number   1
_chemical_formula_structural   HfZrTaTiMo
_chemical_formula_sum   'Hf40 Zr40 Ta40 Ti40 Mo40'
_cell_volume   3898.05455896
_cell_formula_units_Z   40
loop_
 _symmetry_equiv_pos_site_id
 _symmetry_equiv_pos_as_xyz
  1  'x, y, z'
loop_
 _atom_site_type_symbol
 _atom_site_label
 _atom_site_symmetry_multiplicity
 _atom_site_fract_x
 _atom_site_fract_y
 _atom_site_fract_z
 _atom_site_occupancy
  Hf  Hf0  1  0.20202445  0.39066523  0.52091301  1
  Hf  Hf1  1  0.70172323  0.29513371  0.62606607  1
  Hf  Hf2  1  0.31745196  0.91316284  0.12145060  1
  Hf  Hf3  1  0.89861458  0.10666114  0.87150314  1
  Hf  Hf4  1  0.48419189  0.09544468  0.63467366  1
  Hf  Hf5  1  0.89742111  0.89631809  0.62239293  1
  Hf  Hf6  1  0.70819558  0.70886746  0.38286359  1
  Hf  Hf7  1  0.28369300  0.29023283  0.37765361  1
  Hf  Hf8  1  0.91555186  0.69295707  0.62342025  1
  Hf  Hf9  1  0.29265062  0.11018262  0.10488333  1
  Hf  Hf10  1  0.60056748  0.18381021  0.50294906  1
  Hf  Hf11  1  0.19048825  0.39025656  0.74901079  1
  Hf  Hf12  1  0.40228767  0.57458541  -0.00960898  1
  Hf  Hf13  1  0.80018049  0.39832678  0.49453364  1
  Hf  Hf14  1  0.11643525  0.72302893  0.62230961  1
  Hf  Hf15  1  0.20024917  0.79478106  0.23837890  1
  Hf  Hf16  1  0.39112046  0.40223811  0.24680876  1
  Hf  Hf17  1  0.41974243  0.79439425  0.24057777  1
  Hf  Hf18  1  0.69361234  0.50990297  0.88870130  1
  Hf  Hf19  1  0.70968509  0.71288320  0.60887181  1
  Hf  Hf20  1  0.50954449  0.69171566  0.38260991  1
  Hf  Hf21  1  0.49763746  0.07907532  0.37518532  1
  Hf  Hf22  1  0.78761254  0.00326949  0.49759753  1
  Hf  Hf23  1  0.38085013  0.18667204  0.50041594  1
  Hf  Hf24  1  0.69267736  0.10612349  0.86896912  1
  Hf  Hf25  1  -0.00914511  0.40760784  0.50564023  1
  Hf  Hf26  1  0.69028905  0.30095407  0.88568217  1
  Hf  Hf27  1  0.08964616  0.30007390  0.37795697  1
  Hf  Hf28  1  0.31083451  0.90490143  0.36055813  1
  Hf  Hf29  1  0.21738358  0.58801944  0.25426293  1
  Hf  Hf30  1  0.69874540  0.89630343  0.12088602  1
  Hf  Hf31  1  0.20676909  0.60638007  0.75094507  1
  Hf  Hf32  1  0.79089770  0.39203829  0.76130861  1
  Hf  Hf33  1  0.61033415  0.60911184  0.74257731  1
  Hf  Hf34  1  0.31500223  0.67844736  0.12604699  1
  Hf  Hf35  1  0.91479249  0.50925392  0.13070673  1
  Hf  Hf36  1  0.78499400  0.20004286  0.01734192  1
  Hf  Hf37  1  0.06950796  0.89517449  0.90104106  1
  Hf  Hf38  1  0.80485129  0.79965561  0.75795282  1
  Hf  Hf39  1  0.10904761  0.49839035  0.37660356  1
  Zr  Zr40  1  -0.00146485  0.01344453  0.50103865  1
  Zr  Zr41  1  0.59434139  -0.00138119  -0.00259917  1
  Zr  Zr42  1  0.80705603  0.00117056  -0.00244337  1
  Zr  Zr43  1  0.60164834  0.39085356  0.23482727  1
  Zr  Zr44  1  0.28445031  0.88878086  0.88907759  1
  Zr  Zr45  1  0.40871341  0.79609029  0.00351606  1
  Zr  Zr46  1  0.32828401  0.49296166  0.62630337  1
  Zr  Zr47  1  0.19430628  0.40845203  -0.02159985  1
  Zr  Zr48  1  0.79197886  0.21353855  0.23646450  1
  Zr  Zr49  1  0.58746698  0.21032025  0.75070485  1
  Zr  Zr50  1  0.00974384  0.00314719  0.74707315  1
  Zr  Zr51  1  0.28780888  0.30988876  0.11085631  1
  Zr  Zr52  1  0.90450036  0.30945251  0.12147225  1
  Zr  Zr53  1  0.71415707  0.70209680  0.88767614  1
  Zr  Zr54  1  0.09078236  0.51605717  0.62931667  1
  Zr  Zr55  1  0.88505459  0.11455866  0.63710878  1
  Zr  Zr56  1  0.82523352  0.80303659  -0.00465787  1
  Zr  Zr57  1  0.48667445  0.31110200  0.61961914  1
  Zr  Zr58  1  0.18960827  0.17991301  0.74584686  1
  Zr  Zr59  1  0.91430923  0.89910278  0.13199039  1
  Zr  Zr60  1  0.10039192  0.10992854  0.37115798  1
  Zr  Zr61  1  0.80756411  0.59310977  0.49290487  1
  Zr  Zr62  1  0.51830683  0.69095812  0.88758738  1
  Zr  Zr63  1  0.69517564  0.30063236  0.37492959  1
  Zr  Zr64  1  0.59093004  0.42719631  0.50065403  1
  Zr  Zr65  1  0.58771994  0.40735953  0.01188285  1
  Zr  Zr66  1  0.10225734  0.90782921  0.12387754  1
  Zr  Zr67  1  0.69437098  0.91012849  0.36959351  1
  Zr  Zr68  1  0.39559807  -0.01903407  0.50681680  1
  Zr  Zr69  1  0.59319421  0.18334648  0.23047428  1
  Zr  Zr70  1  0.58809258  -0.00754775  0.75916463  1
  Zr  Zr71  1  0.18326073  0.18768621  0.52657571  1
  Zr  Zr72  1  -0.01150137  0.42111277  0.75628307  1
  Zr  Zr73  1  0.09939590  0.90365661  0.36411514  1
  Zr  Zr74  1  0.48706198  0.88253592  0.63381901  1
  Zr  Zr75  1  0.22038821  0.61023812  0.50039872  1
  Zr  Zr76  1  0.00774298  0.60745997  0.48676728  1
  Zr  Zr77  1  0.48909091  0.30259715  0.38231267  1
  Zr  Zr78  1  0.82110619  0.59111942  0.75049760  1
  Zr  Zr79  1  0.38320438  0.18380989  0.25009097  1
  Ta  Ta80  1  0.59965400  0.81436269  0.50323534  1
  Ta  Ta81  1  0.82033599  0.60458296  0.01226127  1
  Ta  Ta82  1  0.19605755  0.60612810  -0.00015362  1
  Ta  Ta83  1  0.00927004  0.80025423  0.75341947  1
  Ta  Ta84  1  0.69710226  0.50800523  0.35789573  1
  Ta  Ta85  1  0.00231748  0.80959942  0.49168180  1
  Ta  Ta86  1  0.80037191  0.60996519  0.24650206  1
  Ta  Ta87  1  0.31915609  0.70525240  0.63057032  1
  Ta  Ta88  1  0.48646171  0.30606106  0.88497375  1
  Ta  Ta89  1  -0.01413491  0.21279719  0.51026347  1
  Ta  Ta90  1  0.91014400  0.71275197  0.36476864  1
  Ta  Ta91  1  0.09226549  0.10553328  0.88500213  1
  Ta  Ta92  1  0.40232994  0.78555854  0.76055046  1
  Ta  Ta93  1  0.79453709  -0.00352306  0.75573166  1
  Ta  Ta94  1  0.90930963  0.10249135  0.12893367  1
  Ta  Ta95  1  0.37666581  -0.01267233  0.76161418  1
  Ta  Ta96  1  -0.00143014  0.21994728  0.74955466  1
  Ta  Ta97  1  0.69332656  0.09449484  0.63491403  1
  Ta  Ta98  1  0.48462442  0.28756988  0.10505073  1
  Ta  Ta99  1  0.80067930  0.40675516  0.00312554  1
  Ta  Ta100  1  0.49601550  0.89538177  0.87515515  1
  Ta  Ta101  1  0.58298824  0.41657518  0.75250649  1
  Ta  Ta102  1  0.41820456  0.58791348  0.75709676  1
  Ta  Ta103  1  0.30242132  0.68985047  0.87621261  1
  Ta  Ta104  1  0.19676682  0.39644528  0.24637488  1
  Ta  Ta105  1  0.00729592  0.39725735  0.24868223  1
  Ta  Ta106  1  0.89969960  0.30037267  0.36329302  1
  Ta  Ta107  1  0.59918021  0.60548967  0.23752305  1
  Ta  Ta108  1  0.10997038  0.49709104  0.12184501  1
  Ta  Ta109  1  0.79366286  0.01018610  0.24211792  1
  Ta  Ta110  1  0.21416423  0.01893382  0.24510072  1
  Ta  Ta111  1  0.61171635  0.79276839  0.24315769  1
  Ta  Ta112  1  0.80810837  0.80300039  0.24664420  1
  Ta  Ta113  1  0.48316568  0.08455972  0.10648159  1
  Ta  Ta114  1  0.29976705  0.28638127  0.86590203  1
  Ta  Ta115  1  0.70697051  0.50351322  0.12756612  1
  Ta  Ta116  1  0.48454539  0.50698180  0.13120337  1
  Ta  Ta117  1  0.31612778  0.49220159  0.38809576  1
  Ta  Ta118  1  0.19172367  0.00531669  -0.00239236  1
  Ta  Ta119  1  0.89983817  0.49963573  0.35292346  1
  Ti  Ti120  1  0.52030466  0.70093731  0.11151845  1
  Ti  Ti121  1  0.58467294  -0.01128991  0.23342994  1
  Ti  Ti122  1  0.89470514  0.31258974  0.63244167  1
  Ti  Ti123  1  0.18003890  0.20624272  0.23896765  1
  Ti  Ti124  1  0.08911927  0.30194704  0.11310338  1
  Ti  Ti125  1  0.11428571  0.91486949  0.62235656  1
  Ti  Ti126  1  0.71297076  0.70021815  0.11590917  1
  Ti  Ti127  1  0.70221844  0.50393883  0.62460528  1
  Ti  Ti128  1  0.20483944  0.00004451  0.49569445  1
  Ti  Ti129  1  0.50606776  0.88917256  0.37379684  1
  Ti  Ti130  1  0.01410799  0.61379963  0.25020879  1
  Ti  Ti131  1  0.28095821  0.06558320  0.64060221  1
  Ti  Ti132  1  0.48376621  0.10751547  0.88381502  1
  Ti  Ti133  1  0.90452989  0.30183170  0.88942833  1
  Ti  Ti134  1  0.09152410  0.10905805  0.11576932  1
  Ti  Ti135  1  0.90483163  0.50628698  0.89406404  1
  Ti  Ti136  1  0.29450705  0.09435138  0.87971645  1
  Ti  Ti137  1  0.30611516  0.28184760  0.64566825  1
  Ti  Ti138  1  0.20013183  0.79009093  0.01784929  1
  Ti  Ti139  1  0.09293177  0.51606051  0.87394311  1
  Ti  Ti140  1  0.18457079  0.20758983  -0.01260183  1
  Ti  Ti141  1  0.31412258  0.48557791  0.85942592  1
  Ti  Ti142  1  0.20593139  0.81498926  0.75274739  1
  Ti  Ti143  1  0.50041592  0.50522973  0.36638659  1
  Ti  Ti144  1  0.69626994  0.90558250  0.62464376  1
  Ti  Ti145  1  0.50437270  0.68227384  0.61014689  1
  Ti  Ti146  1  0.89706864  0.90684991  0.36702849  1
  Ti  Ti147  1  0.11188583  0.70570265  0.87677205  1
  Ti  Ti148  1  0.11122866  0.70933278  0.37397138  1
  Ti  Ti149  1  0.00228608  0.01216779  0.25095061  1
  Ti  Ti150  1  0.31415647  0.69355031  0.37046118  1
  Ti  Ti151  1  0.89690354  0.10907875  0.36318055  1
  Ti  Ti152  1  0.01247947  0.75935664  0.02240363  1
  Ti  Ti153  1  0.21036481  0.81068769  0.49415914  1
  Ti  Ti154  1  0.69878249  0.10071907  0.36849663  1
  Ti  Ti155  1  0.60224237  0.79933087  0.74907367  1
  Ti  Ti156  1  0.69715605  0.89536877  0.87956991  1
  Ti  Ti157  1  0.80185904  0.19872889  0.49319285  1
  Ti  Ti158  1  0.39625307  0.78566815  0.49804721  1
  Ti  Ti159  1  0.92631694  0.69818879  0.87673780  1
  Mo  Mo160  1  0.39348556  -0.00100014  -0.01794691  1
  Mo  Mo161  1  0.01050065  0.61738320  0.75764243  1
  Mo  Mo162  1  0.08999325  0.29881346  0.87490002  1
  Mo  Mo163  1  0.00056654  0.20087857  0.24447827  1
  Mo  Mo164  1  -0.00313801  0.20163252  -0.00205062  1
  Mo  Mo165  1  0.88900073  0.50045068  0.62681226  1
  Mo  Mo166  1  0.00485235  0.80245218  0.25914435  1
  Mo  Mo167  1  0.40188605  0.38838632  0.75597356  1
  Mo  Mo168  1  0.50456383  0.49519152  0.87448442  1
  Mo  Mo169  1  0.41102617  0.59666779  0.25321820  1
  Mo  Mo170  1  0.19011961  -0.01191406  0.76562667  1
  Mo  Mo171  1  0.89406095  0.90100126  0.86340522  1
  Mo  Mo172  1  0.69239280  0.30744880  0.11400300  1
  Mo  Mo173  1  0.60989461  0.59824055  0.02100244  1
  Mo  Mo174  1  0.90740888  0.69849715  0.14200694  1
  Mo  Mo175  1  -0.00225592  0.01353913  0.00245815  1
  Mo  Mo176  1  -0.00011646  0.40436787  -0.00991875  1
  Mo  Mo177  1  0.29541896  0.49621384  0.12225765  1
  Mo  Mo178  1  0.29163450  0.09427227  0.37442081  1
  Mo  Mo179  1  0.50655418  0.89490499  0.12195774  1
  Mo  Mo180  1  0.60816263  0.60525489  0.50075487  1
  Mo  Mo181  1  0.01216435  0.59172557  0.00179037  1
  Mo  Mo182  1  0.08504662  0.29967531  0.62931504  1
  Mo  Mo183  1  0.38949382  0.19765347  -0.01369055  1
  Mo  Mo184  1  0.39145668  0.18580416  0.75997281  1
  Mo  Mo185  1  0.58853836  0.19670189  0.00913830  1
  Mo  Mo186  1  0.39023453  0.39547721  -0.00659145  1
  Mo  Mo187  1  0.40622953  0.00269330  0.24484632  1
  Mo  Mo188  1  0.39431627  0.39454897  0.49482564  1
  Mo  Mo189  1  0.50721024  0.50626569  0.62678585  1
  Mo  Mo190  1  0.59765761  -0.00264820  0.50695956  1
  Mo  Mo191  1  0.41510116  0.59420999  0.49773405  1
  Mo  Mo192  1  0.61056272  0.80100704  0.00336530  1
  Mo  Mo193  1  0.28690093  0.88243103  0.62955733  1
  Mo  Mo194  1  0.80056327  0.41171070  0.24958552  1
  Mo  Mo195  1  0.81651192  0.80895644  0.49176705  1
  Mo  Mo196  1  0.08782449  0.09497756  0.62628911  1
  Mo  Mo197  1  0.80008422  0.20401412  0.75305960  1
  Mo  Mo198  1  0.10543262  0.68637339  0.13465903  1
  Mo  Mo199  1  0.69382447  0.09514489  0.12879686  1
