# generated using pymatgen
data_HfZrTaTiMo
_symmetry_space_group_name_H-M   'P 1'
_cell_length_a   15.21444776
_cell_length_b   15.21251390
_cell_length_c   16.82153135
_cell_angle_alpha   89.99374291
_cell_angle_beta   89.99970765
_cell_angle_gamma   89.95193140
_symmetry_Int_Tables_number   1
_chemical_formula_structural   HfZrTaTiMo
_chemical_formula_sum   'Hf40 Zr40 Ta40 Ti40 Mo40'
_cell_volume   3893.34200603
_cell_formula_units_Z   40
loop_
 _symmetry_equiv_pos_site_id
 _symmetry_equiv_pos_as_xyz
  1  'x, y, z'
loop_
 _atom_site_type_symbol
 _atom_site_label
 _atom_site_symmetry_multiplicity
 _atom_site_fract_x
 _atom_site_fract_y
 _atom_site_fract_z
 _atom_site_occupancy
  Hf  Hf0  1  0.60003399  0.60386290  0.75765845  1
  Hf  Hf1  1  0.88162254  0.89285402  0.40123236  1
  Hf  Hf2  1  0.19907847  0.20445719  0.48622166  1
  Hf  Hf3  1  0.30617839  0.49480389  0.62239640  1
  Hf  Hf4  1  0.40657001  0.19701409  0.00081455  1
  Hf  Hf5  1  0.09682567  0.50467244  0.37779926  1
  Hf  Hf6  1  0.80103462  0.19099003  -0.00228639  1
  Hf  Hf7  1  0.38193640  0.00437052  0.01558415  1
  Hf  Hf8  1  0.60798588  0.39171416  0.48768357  1
  Hf  Hf9  1  0.39237434  -0.00734820  0.22941570  1
  Hf  Hf10  1  0.30216070  0.09352623  0.85235165  1
  Hf  Hf11  1  0.40610665  0.40662395  0.75604430  1
  Hf  Hf12  1  0.91139195  0.50511044  0.87120319  1
  Hf  Hf13  1  -0.00731171  -0.02565355  0.25817928  1
  Hf  Hf14  1  0.81410617  0.39504042  0.74970473  1
  Hf  Hf15  1  -0.00642414  0.20315015  0.26567497  1
  Hf  Hf16  1  0.90645222  0.72706032  0.11654531  1
  Hf  Hf17  1  0.08128040  0.88772795  0.39794043  1
  Hf  Hf18  1  0.17851529  -0.01270893  -0.01375738  1
  Hf  Hf19  1  0.90179468  0.08890293  0.12833630  1
  Hf  Hf20  1  0.09905678  0.89959227  0.61921283  1
  Hf  Hf21  1  0.39054123  0.00166612  0.49636030  1
  Hf  Hf22  1  0.49128357  0.10043140  0.63417611  1
  Hf  Hf23  1  0.31271858  0.69801804  0.63173923  1
  Hf  Hf24  1  0.78832345  -0.00330606  0.25473369  1
  Hf  Hf25  1  0.18125183  0.80384164  0.26089097  1
  Hf  Hf26  1  0.29933274  0.49884315  0.13254889  1
  Hf  Hf27  1  0.60626843  0.80964885  0.76974869  1
  Hf  Hf28  1  0.21368094  0.79596340  0.49702651  1
  Hf  Hf29  1  0.69090942  0.10786797  0.12740253  1
  Hf  Hf30  1  0.89028329  0.09497021  0.38077358  1
  Hf  Hf31  1  0.49594122  0.68597727  0.88774617  1
  Hf  Hf32  1  0.30459677  0.28448084  0.13611677  1
  Hf  Hf33  1  0.08597020  0.70075254  0.86939842  1
  Hf  Hf34  1  0.68805628  0.50599050  0.12821618  1
  Hf  Hf35  1  0.09607063  0.29567068  0.88130010  1
  Hf  Hf36  1  0.39889101  0.60792865  0.47386317  1
  Hf  Hf37  1  0.20671346  0.59800866  0.49317800  1
  Hf  Hf38  1  0.81164972  0.59977993  0.51028714  1
  Hf  Hf39  1  0.40663435  0.79993442  0.76224186  1
  Zr  Zr40  1  0.59039242  0.00298043  0.24407941  1
  Zr  Zr41  1  0.61072601  0.79075598  -0.01197175  1
  Zr  Zr42  1  0.00331708  0.40625820  0.00653191  1
  Zr  Zr43  1  0.71143665  0.93117165  0.88483534  1
  Zr  Zr44  1  0.00718229  0.40147641  0.23751027  1
  Zr  Zr45  1  0.20926852  0.39868407  0.00114919  1
  Zr  Zr46  1  0.80684051  0.81336870  0.76051966  1
  Zr  Zr47  1  0.21807421  0.60402568  0.26370484  1
  Zr  Zr48  1  0.79957361  0.40186239  0.00027215  1
  Zr  Zr49  1  0.60500545  0.80464934  0.25049051  1
  Zr  Zr50  1  0.08490833  0.12042304  0.62826802  1
  Zr  Zr51  1  0.51013240  0.29385564  0.13869563  1
  Zr  Zr52  1  0.79516196  0.20877269  0.50003484  1
  Zr  Zr53  1  0.49889832  0.50608381  0.61619142  1
  Zr  Zr54  1  0.10105994  0.29180189  0.12076415  1
  Zr  Zr55  1  0.80407355  0.61271641  0.24376770  1
  Zr  Zr56  1  0.70632223  0.49753345  0.62883997  1
  Zr  Zr57  1  0.30716624  0.29758824  0.86393682  1
  Zr  Zr58  1  0.70875840  0.49811574  0.36765824  1
  Zr  Zr59  1  0.01407665  0.61328901  0.23804018  1
  Zr  Zr60  1  0.79243819  0.61249703  -0.00690673  1
  Zr  Zr61  1  0.39366847  0.39643163  0.26637236  1
  Zr  Zr62  1  0.50008090  0.30022945  0.62035790  1
  Zr  Zr63  1  0.60089529  0.61075576  0.49105111  1
  Zr  Zr64  1  0.19905212  0.00663160  0.50069459  1
  Zr  Zr65  1  0.29345202  0.29782716  0.63204851  1
  Zr  Zr66  1  -0.02543139  0.00014331  0.73398931  1
  Zr  Zr67  1  0.38588579  0.79717838  0.00479369  1
  Zr  Zr68  1  0.60450909  0.39721277  0.75637786  1
  Zr  Zr69  1  0.11373594  0.08560584  0.14093167  1
  Zr  Zr70  1  0.90506656  0.49452249  0.37389022  1
  Zr  Zr71  1  0.20390685  0.18112582  -0.00498317  1
  Zr  Zr72  1  0.71233515  0.71336893  0.37955865  1
  Zr  Zr73  1  0.29654457  0.10143894  0.64534308  1
  Zr  Zr74  1  0.92772576  0.70628237  0.38632498  1
  Zr  Zr75  1  0.50604997  0.70995424  0.62443618  1
  Zr  Zr76  1  0.19861923  0.59877598  0.00028286  1
  Zr  Zr77  1  0.00948038  0.59307589  0.52467651  1
  Zr  Zr78  1  0.70728220  0.29938650  0.87378914  1
  Zr  Zr79  1  0.70977008  0.71173977  0.62552669  1
  Ta  Ta80  1  0.00358214  0.59273157  0.73802750  1
  Ta  Ta81  1  -0.00335160  0.79310349  0.73658617  1
  Ta  Ta82  1  0.50288975  0.10360986  0.86823685  1
  Ta  Ta83  1  0.30574817  0.89904481  0.63652335  1
  Ta  Ta84  1  0.77866127  0.01131522  0.51443152  1
  Ta  Ta85  1  0.92675943  0.89977636  0.88559898  1
  Ta  Ta86  1  0.30264780  0.09735248  0.35690579  1
  Ta  Ta87  1  0.20674561  0.39521727  0.48308808  1
  Ta  Ta88  1  0.39975964  0.20163398  0.48528180  1
  Ta  Ta89  1  0.19678033  0.79763268  0.75082796  1
  Ta  Ta90  1  0.59859570  0.20423405  -0.00746590  1
  Ta  Ta91  1  0.49116766  0.91376309  0.88888540  1
  Ta  Ta92  1  0.70251068  0.30162407  0.12502921  1
  Ta  Ta93  1  0.90118286  0.50736920  0.12102212  1
  Ta  Ta94  1  0.29511666  0.69445164  0.86832021  1
  Ta  Ta95  1  0.80831424  0.39417449  0.24032374  1
  Ta  Ta96  1  0.41010230  0.40025431  0.00123467  1
  Ta  Ta97  1  0.81494530  0.39403605  0.50594555  1
  Ta  Ta98  1  0.20381492  0.59253456  0.74971285  1
  Ta  Ta99  1  0.50555695  0.89135772  0.11105819  1
  Ta  Ta100  1  0.60906863  0.19436570  0.75267834  1
  Ta  Ta101  1  0.71220648  0.90153648  0.10928277  1
  Ta  Ta102  1  0.11109653  0.70640666  0.11764884  1
  Ta  Ta103  1  0.40010692  0.79440750  0.25187094  1
  Ta  Ta104  1  0.40081525  0.39784711  0.47641238  1
  Ta  Ta105  1  0.29424777  0.89695631  0.86630371  1
  Ta  Ta106  1  0.79036550  0.20898631  0.25845826  1
  Ta  Ta107  1  0.50549727  0.68771944  0.12577616  1
  Ta  Ta108  1  0.20001095  0.20532839  0.26626865  1
  Ta  Ta109  1  0.49242718  0.90126012  0.62712645  1
  Ta  Ta110  1  0.59651420  0.19105989  0.49580210  1
  Ta  Ta111  1  0.67994675  0.90386494  0.61535771  1
  Ta  Ta112  1  0.69662355  0.70871343  0.12346868  1
  Ta  Ta113  1  0.88111548  0.08954659  0.87077479  1
  Ta  Ta114  1  0.50704999  0.50840861  0.35756421  1
  Ta  Ta115  1  -0.00087289  0.20716043  0.48295010  1
  Ta  Ta116  1  0.68461099  0.91025892  0.39399644  1
  Ta  Ta117  1  0.41403575  0.80706659  0.48231584  1
  Ta  Ta118  1  0.07548236  0.88975426  0.11979166  1
  Ta  Ta119  1  0.30801270  0.50673068  0.87256224  1
  Ti  Ti120  1  0.18679512  -0.00649924  0.75142934  1
  Ti  Ti121  1  0.10900756  0.69647652  0.63150603  1
  Ti  Ti122  1  0.90755580  0.28748597  0.87150995  1
  Ti  Ti123  1  0.58082172  0.00237305  0.49895966  1
  Ti  Ti124  1  0.30556961  0.70139591  0.13052879  1
  Ti  Ti125  1  0.91015644  0.48732892  0.63251481  1
  Ti  Ti126  1  0.19242451  0.79855308  -0.01048419  1
  Ti  Ti127  1  0.81158684  0.81329593  0.24662485  1
  Ti  Ti128  1  0.89718033  0.29195819  0.12198814  1
  Ti  Ti129  1  0.59305609  0.01357689  0.00475963  1
  Ti  Ti130  1  0.50153697  0.49396280  0.88480351  1
  Ti  Ti131  1  0.70285326  0.29465774  0.62739659  1
  Ti  Ti132  1  0.49920406  0.50116628  0.13849817  1
  Ti  Ti133  1  0.68700596  0.10769584  0.37336214  1
  Ti  Ti134  1  0.00054191  0.60914835  0.00486246  1
  Ti  Ti135  1  0.81353963  0.80482099  -0.01657106  1
  Ti  Ti136  1  0.00823300  0.38782290  0.50152000  1
  Ti  Ti137  1  0.59364333  0.00158838  0.75200882  1
  Ti  Ti138  1  0.80920190  0.61105610  0.75784984  1
  Ti  Ti139  1  0.10892023  0.49604906  0.86526840  1
  Ti  Ti140  1  -0.00018173  0.18065651  -0.00320285  1
  Ti  Ti141  1  0.61331649  0.39189195  0.25732223  1
  Ti  Ti142  1  0.07621175  0.09087781  0.86139662  1
  Ti  Ti143  1  0.40072760  0.59099568  0.00862936  1
  Ti  Ti144  1  0.69667017  0.50996505  0.87976143  1
  Ti  Ti145  1  0.91991217  0.28656262  0.62815561  1
  Ti  Ti146  1  0.80482447  0.19174381  0.73952963  1
  Ti  Ti147  1  0.27198935  0.89432240  0.12976809  1
  Ti  Ti148  1  0.51101616  0.28719550  0.36489138  1
  Ti  Ti149  1  0.11413176  0.47808433  0.62908844  1
  Ti  Ti150  1  0.49598658  0.09389372  0.36855597  1
  Ti  Ti151  1  0.17517190  0.21096588  0.75137991  1
  Ti  Ti152  1  0.59580283  0.40025510  0.00070512  1
  Ti  Ti153  1  -0.01452242  0.01044392  0.51280771  1
  Ti  Ti154  1  0.01774891  0.38601383  0.74600790  1
  Ti  Ti155  1  0.77908582  0.01321978  0.72449431  1
  Ti  Ti156  1  0.30013798  0.90307490  0.36568359  1
  Ti  Ti157  1  0.10016073  0.08950721  0.37085325  1
  Ti  Ti158  1  0.19590546  0.39829605  0.26265248  1
  Ti  Ti159  1  0.88532771  0.88915525  0.61011515  1
  Mo  Mo160  1  0.79173679  0.80412064  0.50957870  1
  Mo  Mo161  1  0.29353116  0.09877983  0.14246422  1
  Mo  Mo162  1  0.09713164  0.30245787  0.37458684  1
  Mo  Mo163  1  0.90509934  0.69964335  0.86992414  1
  Mo  Mo164  1  -0.00300092  0.00633592  -0.00533604  1
  Mo  Mo165  1  0.10185278  0.50904665  0.12685756  1
  Mo  Mo166  1  0.89336701  0.90410688  0.11069839  1
  Mo  Mo167  1  0.19169892  -0.00559563  0.25909694  1
  Mo  Mo168  1  -0.00896447  0.80069603  0.25122914  1
  Mo  Mo169  1  0.40449459  -0.00692802  0.75611781  1
  Mo  Mo170  1  -0.01531722  0.20360611  0.75626847  1
  Mo  Mo171  1  0.68289719  0.10480779  0.62369008  1
  Mo  Mo172  1  0.01376524  0.80355298  -0.00685030  1
  Mo  Mo173  1  0.41955047  0.20342972  0.75828536  1
  Mo  Mo174  1  0.09873134  0.30753351  0.61940816  1
  Mo  Mo175  1  0.90415120  0.69682165  0.63427394  1
  Mo  Mo176  1  0.50474989  0.30127499  0.88286080  1
  Mo  Mo177  1  0.69722474  0.10507159  0.87022020  1
  Mo  Mo178  1  0.89659383  0.30701726  0.37509809  1
  Mo  Mo179  1  0.88928353  0.10304413  0.61364194  1
  Mo  Mo180  1  0.30439616  0.29221543  0.37096986  1
  Mo  Mo181  1  0.40014160  0.59859053  0.75847228  1
  Mo  Mo182  1  0.30523494  0.71185030  0.37036839  1
  Mo  Mo183  1  0.59318415  0.81334261  0.49405991  1
  Mo  Mo184  1  0.10241953  0.70317983  0.38720272  1
  Mo  Mo185  1  0.50460232  0.70650104  0.36094585  1
  Mo  Mo186  1  0.30378030  0.49741446  0.37264190  1
  Mo  Mo187  1  0.49153318  0.90688093  0.37064815  1
  Mo  Mo188  1  0.10248393  0.90054084  0.85787668  1
  Mo  Mo189  1  0.70712495  0.69756149  0.87374265  1
  Mo  Mo190  1  0.70292128  0.29950358  0.37201658  1
  Mo  Mo191  1  0.19579349  0.40371334  0.75690442  1
  Mo  Mo192  1  0.41041284  0.60786423  0.25325483  1
  Mo  Mo193  1  0.59054244  0.58670733  0.00374933  1
  Mo  Mo194  1  0.60273690  0.20052462  0.25713297  1
  Mo  Mo195  1  -0.00029825  0.79505014  0.53018113  1
  Mo  Mo196  1  0.60026570  0.60446031  0.24795876  1
  Mo  Mo197  1  0.80203356  0.00258146  0.00275317  1
  Mo  Mo198  1  0.40817333  0.18835451  0.25725312  1
  Mo  Mo199  1  0.49846310  0.09888155  0.11925977  1
