# generated using pymatgen
data_HfZrTaTiMo
_symmetry_space_group_name_H-M   'P 1'
_cell_length_a   15.21857552
_cell_length_b   15.22169448
_cell_length_c   16.85314443
_cell_angle_alpha   89.93798685
_cell_angle_beta   90.01376500
_cell_angle_gamma   90.13982426
_symmetry_Int_Tables_number   1
_chemical_formula_structural   HfZrTaTiMo
_chemical_formula_sum   'Hf40 Zr40 Ta40 Ti40 Mo40'
_cell_volume   3904.05913483
_cell_formula_units_Z   40
loop_
 _symmetry_equiv_pos_site_id
 _symmetry_equiv_pos_as_xyz
  1  'x, y, z'
loop_
 _atom_site_type_symbol
 _atom_site_label
 _atom_site_symmetry_multiplicity
 _atom_site_fract_x
 _atom_site_fract_y
 _atom_site_fract_z
 _atom_site_occupancy
  Hf  Hf0  1  0.69676666  0.90325894  0.86941946  1
  Hf  Hf1  1  0.10030656  0.50730519  0.39359885  1
  Hf  Hf2  1  0.60518696  0.81218220  0.50759785  1
  Hf  Hf3  1  0.00085840  -0.00214515  0.76101920  1
  Hf  Hf4  1  0.49373539  0.30352011  0.89260947  1
  Hf  Hf5  1  0.80992763  0.59583090  0.75906289  1
  Hf  Hf6  1  0.69243240  0.49614817  0.88603262  1
  Hf  Hf7  1  0.40351349  0.19173487  0.26033149  1
  Hf  Hf8  1  0.89015339  0.70117000  0.10255304  1
  Hf  Hf9  1  0.79855654  -0.00158638  0.24280380  1
  Hf  Hf10  1  0.28932750  0.88821652  0.86757236  1
  Hf  Hf11  1  0.09460623  0.71037019  0.37975898  1
  Hf  Hf12  1  0.38997248  0.61400889  0.24416112  1
  Hf  Hf13  1  0.18812124  0.37971893  0.00927976  1
  Hf  Hf14  1  0.90093423  0.89457485  0.87937334  1
  Hf  Hf15  1  0.60425123  0.20934367  0.23629078  1
  Hf  Hf16  1  0.59632053  0.39602946  0.00943381  1
  Hf  Hf17  1  0.19947670  0.39444821  0.24784661  1
  Hf  Hf18  1  0.48840101  0.49066161  0.60344638  1
  Hf  Hf19  1  0.60925416  0.02217366  0.74995147  1
  Hf  Hf20  1  0.78598526  0.39488809  0.75098466  1
  Hf  Hf21  1  0.90377631  0.90043416  0.12284258  1
  Hf  Hf22  1  0.10341890  0.30423983  0.39947632  1
  Hf  Hf23  1  0.90221249  0.50432820  0.10243481  1
  Hf  Hf24  1  0.01775485  0.81202614  -0.00255114  1
  Hf  Hf25  1  0.30249468  0.90754503  0.13803122  1
  Hf  Hf26  1  0.59996282  0.80682259  0.00572020  1
  Hf  Hf27  1  0.68151294  0.49903341  0.37644327  1
  Hf  Hf28  1  0.49295423  0.51420728  0.11228220  1
  Hf  Hf29  1  0.00246650  0.40814819  0.25168728  1
  Hf  Hf30  1  0.30036974  0.50374704  0.38223825  1
  Hf  Hf31  1  0.20856603  0.20174023  0.73781861  1
  Hf  Hf32  1  0.01136417  0.01202638  -0.01379614  1
  Hf  Hf33  1  0.51945054  0.31173056  0.37588491  1
  Hf  Hf34  1  0.90994387  0.10601891  0.12572074  1
  Hf  Hf35  1  0.78732159  0.60270308  0.24351227  1
  Hf  Hf36  1  0.30774347  0.10092993  0.61507107  1
  Hf  Hf37  1  0.90454504  0.29343484  0.61733115  1
  Hf  Hf38  1  0.90114438  0.29499736  0.39043102  1
  Hf  Hf39  1  0.90768957  0.89941778  0.36274344  1
  Zr  Zr40  1  0.11309968  0.71326797  0.87426972  1
  Zr  Zr41  1  0.12598742  0.11624871  0.12517655  1
  Zr  Zr42  1  0.31730730  0.89094239  0.36897782  1
  Zr  Zr43  1  0.87135140  0.70859682  0.38019054  1
  Zr  Zr44  1  0.39982056  -0.00109660  0.74336901  1
  Zr  Zr45  1  0.41746816  0.20552661  0.74778110  1
  Zr  Zr46  1  0.88935873  0.50915835  0.61438737  1
  Zr  Zr47  1  0.89945924  0.07630968  0.62637966  1
  Zr  Zr48  1  0.18750897  0.59056651  0.74719247  1
  Zr  Zr49  1  0.39584731  0.40338228  0.74860881  1
  Zr  Zr50  1  0.01254308  0.21418989  -0.01047620  1
  Zr  Zr51  1  0.39127515  0.60202397  0.74929806  1
  Zr  Zr52  1  0.49783248  0.70102981  0.62516325  1
  Zr  Zr53  1  -0.00534340  0.60506316  0.25204023  1
  Zr  Zr54  1  0.79042329  0.39704117  0.24944274  1
  Zr  Zr55  1  0.01493057  0.20724577  0.25618657  1
  Zr  Zr56  1  0.77585963  0.39266919  0.50103368  1
  Zr  Zr57  1  0.66565761  0.28906907  0.62768106  1
  Zr  Zr58  1  0.39785765  -0.01060844  -0.00320082  1
  Zr  Zr59  1  0.49508019  0.89216384  0.86596425  1
  Zr  Zr60  1  0.59926844  0.58731223  0.75197683  1
  Zr  Zr61  1  -0.01258719  0.81478218  0.51197886  1
  Zr  Zr62  1  0.89319679  0.50122614  0.39046090  1
  Zr  Zr63  1  0.20987458  0.78795859  0.25027083  1
  Zr  Zr64  1  0.10189331  0.31428407  0.85655722  1
  Zr  Zr65  1  0.69415352  0.10360489  0.37058754  1
  Zr  Zr66  1  0.58286245  0.00014176  0.24747377  1
  Zr  Zr67  1  0.79824625  -0.00306978  0.00757076  1
  Zr  Zr68  1  0.81200953  0.79544141  0.74822035  1
  Zr  Zr69  1  0.78885672  0.17999521  0.74525279  1
  Zr  Zr70  1  0.10186691  0.30158501  0.61405805  1
  Zr  Zr71  1  0.69523379  0.87623673  0.36603466  1
  Zr  Zr72  1  0.49697462  0.71647917  0.37519964  1
  Zr  Zr73  1  0.80259825  -0.02873956  0.49666069  1
  Zr  Zr74  1  0.78925057  0.18205321  0.50595222  1
  Zr  Zr75  1  0.90966716  0.30310779  0.11868608  1
  Zr  Zr76  1  0.09991255  0.70162459  0.12389097  1
  Zr  Zr77  1  0.29131959  0.49190210  0.88785674  1
  Zr  Zr78  1  -0.00130880  0.42154320  0.74613383  1
  Zr  Zr79  1  0.41583423  -0.01140822  0.50472963  1
  Ta  Ta80  1  0.00912603  0.00414393  0.49684660  1
  Ta  Ta81  1  0.29870274  0.49192471  0.11710657  1
  Ta  Ta82  1  0.88920144  0.29106734  0.87295779  1
  Ta  Ta83  1  0.20177613  -0.00734098  0.50168073  1
  Ta  Ta84  1  0.70847684  0.69343900  0.62400129  1
  Ta  Ta85  1  0.20873139  0.79734892  0.73350884  1
  Ta  Ta86  1  0.10404699  0.91348221  0.13404879  1
  Ta  Ta87  1  0.29309130  0.28051264  0.12803791  1
  Ta  Ta88  1  0.59898785  0.00277996  0.01291114  1
  Ta  Ta89  1  0.40043137  0.40132465  0.24783677  1
  Ta  Ta90  1  0.90347875  0.49555131  0.89010442  1
  Ta  Ta91  1  0.48497493  0.30269952  0.12109015  1
  Ta  Ta92  1  0.90788160  0.68973348  0.89221639  1
  Ta  Ta93  1  0.49882799  0.89484046  0.12896924  1
  Ta  Ta94  1  0.59856583  0.19343577  0.01643998  1
  Ta  Ta95  1  0.90902225  0.09758901  0.37611131  1
  Ta  Ta96  1  0.52063851  0.11759657  0.61713027  1
  Ta  Ta97  1  0.20121979  0.00157125  -0.00508934  1
  Ta  Ta98  1  0.19937232  0.80359140  0.51060192  1
  Ta  Ta99  1  0.50894928  0.10486302  0.88649064  1
  Ta  Ta100  1  0.70059940  0.50660760  0.10828491  1
  Ta  Ta101  1  0.29691752  0.29018534  0.88018907  1
  Ta  Ta102  1  0.80502731  0.20093729  0.25275317  1
  Ta  Ta103  1  0.38710935  0.19308783  0.00387621  1
  Ta  Ta104  1  0.50220829  0.69540373  0.87853430  1
  Ta  Ta105  1  0.39645811  0.78039407  0.01286680  1
  Ta  Ta106  1  -0.01064605  0.61323176  0.50309365  1
  Ta  Ta107  1  0.80000654  0.38597222  -0.00619760  1
  Ta  Ta108  1  0.10039024  0.09910648  0.61931277  1
  Ta  Ta109  1  0.30820085  0.30279483  0.38534237  1
  Ta  Ta110  1  0.59478657  0.60318081  0.24518868  1
  Ta  Ta111  1  0.71027478  0.90568431  0.63839730  1
  Ta  Ta112  1  0.70767205  0.10633719  0.89108080  1
  Ta  Ta113  1  0.09874074  0.50938330  0.60703801  1
  Ta  Ta114  1  -0.00131304  0.80656237  0.24411337  1
  Ta  Ta115  1  0.09137990  0.70121609  0.62601882  1
  Ta  Ta116  1  0.21101119  0.19939287  0.26970974  1
  Ta  Ta117  1  0.70478517  0.70140848  0.88838508  1
  Ta  Ta118  1  0.30208522  0.09809436  0.87029257  1
  Ta  Ta119  1  0.20968111  0.60991041  0.00767886  1
  Ti  Ti120  1  0.60173953  0.79004545  0.74931923  1
  Ti  Ti121  1  0.58388747  0.39000397  0.75496945  1
  Ti  Ti122  1  0.50880458  0.90088416  0.63896065  1
  Ti  Ti123  1  0.01349602  0.00663802  0.25455498  1
  Ti  Ti124  1  0.09601542  0.49694805  0.11354341  1
  Ti  Ti125  1  0.30984711  0.69818316  0.87461369  1
  Ti  Ti126  1  0.20927899  0.40206389  0.73030796  1
  Ti  Ti127  1  -0.00236033  0.19704946  0.75327839  1
  Ti  Ti128  1  0.19841391  -0.00211481  0.74423716  1
  Ti  Ti129  1  0.11279232  0.10502322  0.86576106  1
  Ti  Ti130  1  0.09882222  0.90537803  0.62854696  1
  Ti  Ti131  1  0.10512217  0.10001655  0.38595925  1
  Ti  Ti132  1  0.79052708  0.79515166  0.23388914  1
  Ti  Ti133  1  0.59609363  0.40906186  0.23144992  1
  Ti  Ti134  1  0.21052101  0.40834717  0.50962413  1
  Ti  Ti135  1  0.20989979  0.01260271  0.26124028  1
  Ti  Ti136  1  0.00700533  0.79215557  0.74870554  1
  Ti  Ti137  1  0.10738717  0.90530651  0.37294827  1
  Ti  Ti138  1  0.30546264  0.89091551  0.62806070  1
  Ti  Ti139  1  0.47951899  0.09651896  0.12336496  1
  Ti  Ti140  1  0.48685603  0.50475636  0.89664510  1
  Ti  Ti141  1  0.31926353  0.30853606  0.60596713  1
  Ti  Ti142  1  0.70775909  0.29854571  0.11825807  1
  Ti  Ti143  1  0.29508493  0.68633726  0.61455311  1
  Ti  Ti144  1  0.09019258  0.51494672  0.88960956  1
  Ti  Ti145  1  0.49017006  0.50905689  0.38164295  1
  Ti  Ti146  1  0.69282049  0.69558520  0.10636949  1
  Ti  Ti147  1  0.68671079  0.50024784  0.61730651  1
  Ti  Ti148  1  0.70531927  0.10196862  0.12276901  1
  Ti  Ti149  1  0.21111793  0.80876174  0.01054267  1
  Ti  Ti150  1  0.60481084  0.00992247  0.50013260  1
  Ti  Ti151  1  0.19522128  0.59118660  0.24099762  1
  Ti  Ti152  1  0.29424834  0.69381709  0.39008862  1
  Ti  Ti153  1  0.41822688  0.20145167  0.49091448  1
  Ti  Ti154  1  0.60007654  0.60613978  0.49635973  1
  Ti  Ti155  1  0.39870247  0.79542794  0.50738843  1
  Ti  Ti156  1  0.30896868  0.09493298  0.38777994  1
  Ti  Ti157  1  0.59966140  0.79071823  0.23579964  1
  Ti  Ti158  1  0.20825134  0.19450451  0.49944762  1
  Ti  Ti159  1  0.69019194  0.28815596  0.87970077  1
  Mo  Mo160  1  0.49909574  0.10013839  0.38307265  1
  Mo  Mo161  1  0.50314498  0.70262904  0.12715823  1
  Mo  Mo162  1  0.39412390  0.60707300  0.49442006  1
  Mo  Mo163  1  0.39800647  0.79231817  0.74352582  1
  Mo  Mo164  1  0.69508019  0.08837212  0.62056888  1
  Mo  Mo165  1  0.79853732  0.79965453  -0.00204022  1
  Mo  Mo166  1  0.19474251  0.61364368  0.50569918  1
  Mo  Mo167  1  0.59424253  0.60674918  -0.00542740  1
  Mo  Mo168  1  0.39835760  0.00308439  0.25776730  1
  Mo  Mo169  1  0.11349328  0.90731772  0.86599364  1
  Mo  Mo170  1  0.29376807  0.50017255  0.61129898  1
  Mo  Mo171  1  0.68761422  0.69270369  0.36991045  1
  Mo  Mo172  1  0.79325241  0.78933103  0.51564183  1
  Mo  Mo173  1  0.80150346  -0.00408439  0.75940878  1
  Mo  Mo174  1  0.30255383  0.69265095  0.12442858  1
  Mo  Mo175  1  0.69694854  0.89494756  0.13013765  1
  Mo  Mo176  1  0.90858311  0.89353517  0.63627720  1
  Mo  Mo177  1  0.30388397  0.09888415  0.13171416  1
  Mo  Mo178  1  -0.00012294  0.40337287  -0.00921163  1
  Mo  Mo179  1  0.79508317  0.20048665  -0.00094982  1
  Mo  Mo180  1  0.59572529  0.20557616  0.76285315  1
  Mo  Mo181  1  0.10763045  0.30741208  0.13244001  1
  Mo  Mo182  1  0.00548963  0.18762011  0.49982861  1
  Mo  Mo183  1  0.39565876  0.60166076  -0.00219910  1
  Mo  Mo184  1  0.90009958  0.10735283  0.87221664  1
  Mo  Mo185  1  0.90250237  0.69775283  0.62821197  1
  Mo  Mo186  1  0.60032828  0.19867544  0.48959226  1
  Mo  Mo187  1  0.50727963  0.90810129  0.37749642  1
  Mo  Mo188  1  0.78245440  0.60909814  0.50244741  1
  Mo  Mo189  1  0.79442994  0.59591078  -0.00988784  1
  Mo  Mo190  1  0.01067586  0.60159230  -0.00165577  1
  Mo  Mo191  1  0.00008364  0.40403915  0.50816287  1
  Mo  Mo192  1  0.38899984  0.39272334  0.00952593  1
  Mo  Mo193  1  0.59249416  0.40257834  0.49537538  1
  Mo  Mo194  1  0.49270624  0.29915298  0.61279424  1
  Mo  Mo195  1  0.20387850  0.18719886  -0.01029979  1
  Mo  Mo196  1  0.70552450  0.30194322  0.36098574  1
  Mo  Mo197  1  -0.00374148  0.60737254  0.75310999  1
  Mo  Mo198  1  0.41612486  0.80494359  0.24095967  1
  Mo  Mo199  1  0.39772669  0.39785580  0.48861122  1
