# generated using pymatgen
data_HfZrTaTiMo
_symmetry_space_group_name_H-M   'P 1'
_cell_length_a   15.20832955
_cell_length_b   15.20370238
_cell_length_c   16.83149034
_cell_angle_alpha   90.02202679
_cell_angle_beta   90.01593725
_cell_angle_gamma   89.97940096
_symmetry_Int_Tables_number   1
_chemical_formula_structural   HfZrTaTiMo
_chemical_formula_sum   'Hf40 Zr40 Ta40 Ti40 Mo40'
_cell_volume   3891.82559011
_cell_formula_units_Z   40
loop_
 _symmetry_equiv_pos_site_id
 _symmetry_equiv_pos_as_xyz
  1  'x, y, z'
loop_
 _atom_site_type_symbol
 _atom_site_label
 _atom_site_symmetry_multiplicity
 _atom_site_fract_x
 _atom_site_fract_y
 _atom_site_fract_z
 _atom_site_occupancy
  Hf  Hf0  1  0.59145729  0.40653677  0.73830761  1
  Hf  Hf1  1  0.19967385  0.80141807  0.73811993  1
  Hf  Hf2  1  0.49694393  0.09588972  0.12608178  1
  Hf  Hf3  1  0.20312704  0.60414677  0.51705040  1
  Hf  Hf4  1  0.71271483  0.47784757  0.37190258  1
  Hf  Hf5  1  0.50205707  0.29904396  0.37254660  1
  Hf  Hf6  1  0.40704412  0.40831642  0.52079874  1
  Hf  Hf7  1  0.89405383  0.09749718  0.62304124  1
  Hf  Hf8  1  0.71252616  0.69763678  0.36940308  1
  Hf  Hf9  1  0.70810414  0.70491781  0.62477464  1
  Hf  Hf10  1  0.10216207  0.30477487  0.62754025  1
  Hf  Hf11  1  0.39905689  0.79428758  0.73050806  1
  Hf  Hf12  1  0.00388669  0.20660150  0.24914316  1
  Hf  Hf13  1  0.29114300  0.71150439  0.38773143  1
  Hf  Hf14  1  0.28434261  0.30482664  0.86608725  1
  Hf  Hf15  1  0.79970896  -0.00957802  0.76234356  1
  Hf  Hf16  1  0.11718079  0.09959490  0.38336860  1
  Hf  Hf17  1  0.09081183  0.90493085  0.87265019  1
  Hf  Hf18  1  0.20296415  0.79641485  -0.00518662  1
  Hf  Hf19  1  0.88640450  0.30675426  0.37177788  1
  Hf  Hf20  1  0.38139754  0.19463910  -0.00544385  1
  Hf  Hf21  1  0.81170520  0.39110675  0.00691949  1
  Hf  Hf22  1  0.58769514  0.59139431  0.50247821  1
  Hf  Hf23  1  -0.00657444  0.79486545  0.00819670  1
  Hf  Hf24  1  0.70375829  0.30191044  0.87856073  1
  Hf  Hf25  1  0.00841002  0.59885694  0.50253931  1
  Hf  Hf26  1  0.28658241  0.11381271  0.13513331  1
  Hf  Hf27  1  0.19928405  0.01352410  -0.00990247  1
  Hf  Hf28  1  0.10044781  0.09846372  0.61458901  1
  Hf  Hf29  1  0.92216742  0.49939622  0.36220487  1
  Hf  Hf30  1  0.30154386  0.50339158  0.12348784  1
  Hf  Hf31  1  0.19681294  0.39304207  0.24376416  1
  Hf  Hf32  1  0.59637006  0.19967475  0.74775668  1
  Hf  Hf33  1  0.18734880  0.81103659  0.52515606  1
  Hf  Hf34  1  0.88413214  0.10445607  0.12553262  1
  Hf  Hf35  1  0.60546448  0.38992635  0.51243783  1
  Hf  Hf36  1  0.09536850  0.89189610  0.37571998  1
  Hf  Hf37  1  0.38653579  0.80187887  0.25558321  1
  Hf  Hf38  1  0.91882156  0.49982561  0.88643698  1
  Hf  Hf39  1  0.90980556  0.10027561  0.87947980  1
  Zr  Zr40  1  0.48728590  0.69508527  0.37722083  1
  Zr  Zr41  1  0.60442362  0.80427113  0.74064623  1
  Zr  Zr42  1  0.29748315  0.91861719  0.39673393  1
  Zr  Zr43  1  0.39598915  -0.00596710  -0.00785612  1
  Zr  Zr44  1  0.49640312  0.69633564  0.13461586  1
  Zr  Zr45  1  0.40547014  0.00713251  0.25778522  1
  Zr  Zr46  1  0.50341099  0.88360329  0.87090931  1
  Zr  Zr47  1  0.19669581  0.40695853  0.50672518  1
  Zr  Zr48  1  0.50156938  0.50182834  0.12796174  1
  Zr  Zr49  1  0.39539678  -0.00072837  0.74646678  1
  Zr  Zr50  1  0.09944943  0.68791083  0.87496664  1
  Zr  Zr51  1  0.70223047  0.50384618  0.11655772  1
  Zr  Zr52  1  0.20202165  0.00537006  0.74593895  1
  Zr  Zr53  1  0.10218453  0.52105137  0.10879027  1
  Zr  Zr54  1  0.60775868  0.59322479  0.25739482  1
  Zr  Zr55  1  0.59103143  0.19635682  -0.00715631  1
  Zr  Zr56  1  0.60863233  0.80134494  0.49584937  1
  Zr  Zr57  1  0.09075346  0.31564913  0.37641002  1
  Zr  Zr58  1  0.60306294  0.81323159  0.25535454  1
  Zr  Zr59  1  0.29374431  0.89742175  0.12426522  1
  Zr  Zr60  1  0.60266756  -0.01168919  -0.00968460  1
  Zr  Zr61  1  0.81359171  0.80331844  0.22942554  1
  Zr  Zr62  1  0.08802597  0.08957982  0.12850745  1
  Zr  Zr63  1  0.69971083  0.09293693  0.62661739  1
  Zr  Zr64  1  0.91447084  0.70623972  0.35753117  1
  Zr  Zr65  1  0.79930428  0.81414614  -0.00422725  1
  Zr  Zr66  1  -0.01077361  0.20058180  0.49411848  1
  Zr  Zr67  1  0.78231737  0.19752085  0.26316092  1
  Zr  Zr68  1  0.31137916  0.50820361  0.37618509  1
  Zr  Zr69  1  0.59859899  0.19471667  0.49753089  1
  Zr  Zr70  1  0.29449300  0.28977980  0.38153435  1
  Zr  Zr71  1  0.71047417  0.50601690  0.63060977  1
  Zr  Zr72  1  0.39351938  0.39718250  0.00336498  1
  Zr  Zr73  1  0.48870920  0.51479246  0.86946235  1
  Zr  Zr74  1  0.48981223  0.30635357  0.86490624  1
  Zr  Zr75  1  0.70018192  0.28108549  0.11445815  1
  Zr  Zr76  1  0.80857010  0.40636377  0.75852327  1
  Zr  Zr77  1  0.20198306  0.58305149  0.74133660  1
  Zr  Zr78  1  0.81180694  0.61216571  -0.00312936  1
  Zr  Zr79  1  0.81018422  0.60018872  0.49522915  1
  Ta  Ta80  1  0.09318623  0.30517997  0.87268016  1
  Ta  Ta81  1  0.90352569  0.90273083  0.37157611  1
  Ta  Ta82  1  0.20227758  0.60720448  0.25483995  1
  Ta  Ta83  1  0.89975607  0.30016335  0.62892041  1
  Ta  Ta84  1  0.69004029  0.08651764  0.12917949  1
  Ta  Ta85  1  0.40308435  0.59810089  0.72327128  1
  Ta  Ta86  1  0.29822386  0.69238804  0.12579452  1
  Ta  Ta87  1  0.01224654  0.38818526  0.01586686  1
  Ta  Ta88  1  0.49363569  0.10228748  0.62512207  1
  Ta  Ta89  1  0.91022562  0.29421061  0.87825619  1
  Ta  Ta90  1  0.49157447  0.29405173  0.13162121  1
  Ta  Ta91  1  0.71088563  0.29299309  0.63006734  1
  Ta  Ta92  1  0.69385946  0.50689570  0.88065066  1
  Ta  Ta93  1  0.50377092  0.91306683  0.38782639  1
  Ta  Ta94  1  0.69878001  0.09962167  0.87111070  1
  Ta  Ta95  1  0.79977741  0.00623889  -0.00652403  1
  Ta  Ta96  1  0.40297429  0.39779957  0.24633035  1
  Ta  Ta97  1  -0.00748643  0.79532237  0.50826837  1
  Ta  Ta98  1  0.69961062  0.70130651  0.12313792  1
  Ta  Ta99  1  0.50428702  0.91012988  0.61316023  1
  Ta  Ta100  1  0.89932681  0.89339280  0.62644718  1
  Ta  Ta101  1  -0.00732102  0.59686400  0.75372003  1
  Ta  Ta102  1  0.68624645  0.70330300  0.87653880  1
  Ta  Ta103  1  0.40545473  0.78381133  -0.00209891  1
  Ta  Ta104  1  0.71150756  0.90311493  0.61951867  1
  Ta  Ta105  1  0.59756202  0.40400109  -0.00285950  1
  Ta  Ta106  1  -0.00073881  -0.00053689  0.74740709  1
  Ta  Ta107  1  0.80915126  0.39608987  0.22960292  1
  Ta  Ta108  1  0.90878774  0.49986512  0.63131554  1
  Ta  Ta109  1  0.80429576  0.79854378  0.76661528  1
  Ta  Ta110  1  0.10367058  0.11734918  0.87444222  1
  Ta  Ta111  1  0.29872352  0.89096261  0.87383017  1
  Ta  Ta112  1  0.80707461  0.39080189  0.50779867  1
  Ta  Ta113  1  0.49008528  0.09995826  0.86438231  1
  Ta  Ta114  1  0.50581984  0.89807275  0.12479419  1
  Ta  Ta115  1  0.80613874  0.20024152  0.75522176  1
  Ta  Ta116  1  0.19013951  -0.00943457  0.25162223  1
  Ta  Ta117  1  0.60922310  0.38092118  0.24723811  1
  Ta  Ta118  1  0.08240118  0.69889627  0.63748305  1
  Ta  Ta119  1  0.80276420  -0.00183310  0.49033059  1
  Ti  Ti120  1  0.18686765  0.22129734  0.00568353  1
  Ti  Ti121  1  -0.00325439  0.40764441  0.50626722  1
  Ti  Ti122  1  0.11265128  0.49018693  0.89258771  1
  Ti  Ti123  1  0.38795121  0.20298017  0.25720329  1
  Ti  Ti124  1  0.70778528  0.90336131  0.37279228  1
  Ti  Ti125  1  -0.00639560  0.20312645  0.00912627  1
  Ti  Ti126  1  0.50278023  0.49421067  0.36765540  1
  Ti  Ti127  1  0.80018396  -0.00457102  0.25130920  1
  Ti  Ti128  1  0.20137489  0.20330881  0.74446972  1
  Ti  Ti129  1  0.89470070  0.69834789  0.63416305  1
  Ti  Ti130  1  0.81457218  0.59111907  0.23736137  1
  Ti  Ti131  1  0.59901131  -0.00255947  0.75119450  1
  Ti  Ti132  1  0.38280091  0.39944747  0.72713757  1
  Ti  Ti133  1  0.80006048  0.60773762  0.76677094  1
  Ti  Ti134  1  0.29836075  0.10027120  0.60715956  1
  Ti  Ti135  1  0.80923571  0.80483207  0.49581734  1
  Ti  Ti136  1  0.70208898  0.90524735  0.12663767  1
  Ti  Ti137  1  0.29442160  0.50138502  0.88063939  1
  Ti  Ti138  1  0.01258293  0.40292453  0.75139781  1
  Ti  Ti139  1  0.01395469  0.81891810  0.23060478  1
  Ti  Ti140  1  0.11465193  0.71115338  0.12992451  1
  Ti  Ti141  1  0.58518755  0.18495717  0.25711118  1
  Ti  Ti142  1  0.60122899  0.79493080  0.00327932  1
  Ti  Ti143  1  0.79063118  0.19777923  0.48900302  1
  Ti  Ti144  1  0.60123153  0.00193410  0.49927221  1
  Ti  Ti145  1  0.00230609  -0.01402415  0.50432518  1
  Ti  Ti146  1  -0.00568633  -0.00811332  0.00301819  1
  Ti  Ti147  1  0.38986624  0.20071261  0.73985293  1
  Ti  Ti148  1  0.39834595  0.19987656  0.50351019  1
  Ti  Ti149  1  0.90415491  0.08915748  0.37093667  1
  Ti  Ti150  1  0.00020027  0.41117727  0.22357343  1
  Ti  Ti151  1  0.40031967  0.80023815  0.51831625  1
  Ti  Ti152  1  -0.01043500  0.80109749  0.75494860  1
  Ti  Ti153  1  0.92140711  0.68130675  0.13129388  1
  Ti  Ti154  1  0.59492625  0.60977166  0.74596776  1
  Ti  Ti155  1  0.31707293  0.69038624  0.87022022  1
  Ti  Ti156  1  0.58778466  0.60839403  -0.00486698  1
  Ti  Ti157  1  0.00132377  0.19997418  0.74829309  1
  Ti  Ti158  1  0.09963727  0.69702755  0.36814044  1
  Ti  Ti159  1  0.68392650  0.08759433  0.37082793  1
  Mo  Mo160  1  0.20056121  0.39419024  0.00369236  1
  Mo  Mo161  1  0.29413169  0.10754959  0.86843076  1
  Mo  Mo162  1  -0.00889876  -0.00165536  0.25576005  1
  Mo  Mo163  1  0.20528610  0.20310140  0.50840969  1
  Mo  Mo164  1  0.29984470  0.91219181  0.61158666  1
  Mo  Mo165  1  0.29771519  0.70179194  0.62296819  1
  Mo  Mo166  1  0.50441418  0.70187010  0.61593379  1
  Mo  Mo167  1  0.39383000  0.60731188  -0.00354415  1
  Mo  Mo168  1  0.49634056  0.29034873  0.63091495  1
  Mo  Mo169  1  0.49902255  0.69439026  0.87025881  1
  Mo  Mo170  1  0.29929318  0.28654523  0.62420657  1
  Mo  Mo171  1  0.19682980  0.80067955  0.25130720  1
  Mo  Mo172  1  0.90663657  0.91759878  0.12540879  1
  Mo  Mo173  1  0.20115124  0.19359207  0.25220217  1
  Mo  Mo174  1  0.90639242  0.50131468  0.12036099  1
  Mo  Mo175  1  0.10015721  0.90130501  0.12193460  1
  Mo  Mo176  1  0.30205736  0.10473676  0.38356746  1
  Mo  Mo177  1  0.80228183  0.19104307  -0.00911137  1
  Mo  Mo178  1  0.10684038  0.29440068  0.12709687  1
  Mo  Mo179  1  0.01262787  0.60555310  0.24627094  1
  Mo  Mo180  1  0.19735365  0.00347164  0.51148425  1
  Mo  Mo181  1  0.19644070  0.39349911  0.74899628  1
  Mo  Mo182  1  0.21773851  0.60420281  -0.00887524  1
  Mo  Mo183  1  0.69680078  0.29733573  0.37198840  1
  Mo  Mo184  1  0.90638906  0.29533363  0.12620775  1
  Mo  Mo185  1  0.00898744  0.60381900  -0.00392238  1
  Mo  Mo186  1  0.10452469  0.51447388  0.36601889  1
  Mo  Mo187  1  0.39796395  0.60888869  0.52575552  1
  Mo  Mo188  1  0.70109971  0.90220027  0.87487212  1
  Mo  Mo189  1  0.40979408  0.00844465  0.50526798  1
  Mo  Mo190  1  0.29336845  0.49258244  0.62753556  1
  Mo  Mo191  1  0.08410874  0.90007128  0.63493543  1
  Mo  Mo192  1  0.08823774  0.49969134  0.63291147  1
  Mo  Mo193  1  0.50278674  0.50060187  0.63262601  1
  Mo  Mo194  1  0.90008021  0.70026994  0.86825863  1
  Mo  Mo195  1  0.39242914  0.59459223  0.25671719  1
  Mo  Mo196  1  0.48942410  0.09749419  0.38017785  1
  Mo  Mo197  1  0.60626436  0.00013177  0.25370398  1
  Mo  Mo198  1  0.90765417  0.90105006  0.87418314  1
  Mo  Mo199  1  0.30120850  0.29884343  0.13240698  1
