# generated using pymatgen
data_HfZrTaTiMo
_symmetry_space_group_name_H-M   'P 1'
_cell_length_a   15.22094158
_cell_length_b   15.21241190
_cell_length_c   16.85730058
_cell_angle_alpha   90.02792033
_cell_angle_beta   90.01410133
_cell_angle_gamma   89.89267980
_symmetry_Int_Tables_number   1
_chemical_formula_structural   HfZrTaTiMo
_chemical_formula_sum   'Hf40 Zr40 Ta40 Ti40 Mo40'
_cell_volume   3903.25387560
_cell_formula_units_Z   40
loop_
 _symmetry_equiv_pos_site_id
 _symmetry_equiv_pos_as_xyz
  1  'x, y, z'
loop_
 _atom_site_type_symbol
 _atom_site_label
 _atom_site_symmetry_multiplicity
 _atom_site_fract_x
 _atom_site_fract_y
 _atom_site_fract_z
 _atom_site_occupancy
  Hf  Hf0  1  0.88897026  0.28829581  0.35915785  1
  Hf  Hf1  1  0.81070666  0.18997166  0.49652260  1
  Hf  Hf2  1  0.90107753  0.68974558  0.13938840  1
  Hf  Hf3  1  0.89326705  0.29377748  0.88600332  1
  Hf  Hf4  1  0.69770285  0.49840178  0.62151442  1
  Hf  Hf5  1  0.89156043  0.49822746  0.63006949  1
  Hf  Hf6  1  0.49440230  0.50301936  0.13619483  1
  Hf  Hf7  1  0.19726922  0.40404184  0.73703569  1
  Hf  Hf8  1  0.31243709  0.68942684  0.63373087  1
  Hf  Hf9  1  -0.01875446  0.00602514  0.49060331  1
  Hf  Hf10  1  0.40172488  0.19736046  0.74422965  1
  Hf  Hf11  1  0.40404715  0.20176860  0.48513707  1
  Hf  Hf12  1  0.31539896  0.69618538  0.11743003  1
  Hf  Hf13  1  -0.01620087  0.59352259  -0.00184465  1
  Hf  Hf14  1  0.29964097  0.70427133  0.86680658  1
  Hf  Hf15  1  0.90151387  0.29241334  0.62226419  1
  Hf  Hf16  1  0.88912233  0.89233909  0.35897829  1
  Hf  Hf17  1  0.29940749  0.48534387  0.13666870  1
  Hf  Hf18  1  0.20558522  0.00957466  0.50719764  1
  Hf  Hf19  1  0.89080598  0.49495295  0.34840646  1
  Hf  Hf20  1  0.10805531  0.49619857  0.88307262  1
  Hf  Hf21  1  0.71253898  0.69991981  0.63515495  1
  Hf  Hf22  1  0.30347813  0.30575255  0.86180936  1
  Hf  Hf23  1  0.09239884  0.89916073  0.62612732  1
  Hf  Hf24  1  0.41882418  0.79883347  0.51520811  1
  Hf  Hf25  1  0.49367687  0.90141492  0.12232417  1
  Hf  Hf26  1  0.60635722  0.19513264  0.74896767  1
  Hf  Hf27  1  0.71453076  0.70057388  0.36322772  1
  Hf  Hf28  1  0.12671558  0.91105669  0.87157764  1
  Hf  Hf29  1  0.89644554  0.28735717  0.13053006  1
  Hf  Hf30  1  0.39995235  0.80479617  0.24787453  1
  Hf  Hf31  1  0.69258177  0.49159216  0.37048440  1
  Hf  Hf32  1  -0.01411637  0.60317987  0.77375553  1
  Hf  Hf33  1  0.00742736  0.19179025  0.24777700  1
  Hf  Hf34  1  0.71215455  0.88486086  0.89045095  1
  Hf  Hf35  1  0.80259524  0.79570202  0.49626296  1
  Hf  Hf36  1  0.41810169  0.80748463  0.74565711  1
  Hf  Hf37  1  -0.00126005  0.18855395  0.75466451  1
  Hf  Hf38  1  0.19150315  0.40997178  0.50292343  1
  Hf  Hf39  1  0.79972841  0.00189594  0.76573542  1
  Zr  Zr40  1  0.48428443  0.30173254  0.14296398  1
  Zr  Zr41  1  0.59419860  -0.00675047  0.76799059  1
  Zr  Zr42  1  0.40306893  0.40532905  -0.00535138  1
  Zr  Zr43  1  0.41944260  0.79962285  -0.01455684  1
  Zr  Zr44  1  -0.00550188  0.39872314  0.75633374  1
  Zr  Zr45  1  -0.01232545  0.40811931  0.49233774  1
  Zr  Zr46  1  -0.00341371  0.39065902  0.00740294  1
  Zr  Zr47  1  0.21779610  0.82225458  0.00844327  1
  Zr  Zr48  1  0.28875937  0.49991441  0.37383489  1
  Zr  Zr49  1  0.00623688  -0.00491381  0.25126320  1
  Zr  Zr50  1  0.20544223  0.79722064  0.51940204  1
  Zr  Zr51  1  -0.00163511  -0.00194175  0.76198690  1
  Zr  Zr52  1  0.88903516  0.89690389  0.62584177  1
  Zr  Zr53  1  0.91776897  0.69229805  0.62930532  1
  Zr  Zr54  1  0.18817910  0.61135401  0.24392040  1
  Zr  Zr55  1  0.48589822  0.51286384  0.62978707  1
  Zr  Zr56  1  0.69556409  0.31093284  0.87878582  1
  Zr  Zr57  1  0.60086141  0.01040055  0.24727370  1
  Zr  Zr58  1  0.27597434  0.09523634  0.86570224  1
  Zr  Zr59  1  0.51026819  0.68404423  0.86087963  1
  Zr  Zr60  1  0.20963063  0.20936964  0.00464399  1
  Zr  Zr61  1  0.30516486  0.11846344  0.13454856  1
  Zr  Zr62  1  0.30212756  0.90380707  0.38270842  1
  Zr  Zr63  1  0.39421093  0.01401824  0.26365509  1
  Zr  Zr64  1  0.38154251  0.00086323  -0.00693086  1
  Zr  Zr65  1  0.60663714  0.18699442  0.49075818  1
  Zr  Zr66  1  0.59357115  0.21291027  0.00196142  1
  Zr  Zr67  1  -0.00739164  -0.01394037  -0.00941677  1
  Zr  Zr68  1  0.59219970  0.00095511  -0.00568808  1
  Zr  Zr69  1  0.29114787  0.70345044  0.38086217  1
  Zr  Zr70  1  0.09813403  0.71053716  0.89161420  1
  Zr  Zr71  1  0.10751948  0.89339766  0.37381850  1
  Zr  Zr72  1  0.77833986  0.59777954  0.01326167  1
  Zr  Zr73  1  0.50423389  0.70298554  0.37360470  1
  Zr  Zr74  1  0.90046028  0.88372302  0.12980799  1
  Zr  Zr75  1  0.10601905  0.28919064  0.87521122  1
  Zr  Zr76  1  0.58955244  0.39550855  0.49993960  1
  Zr  Zr77  1  0.00578553  0.78022748  0.48970885  1
  Zr  Zr78  1  0.59832908  0.61533244  0.50109898  1
  Zr  Zr79  1  0.71060742  0.90521980  0.11492763  1
  Ta  Ta80  1  0.89225257  0.08476381  0.12295302  1
  Ta  Ta81  1  0.70217811  0.29189583  0.62643500  1
  Ta  Ta82  1  0.11584890  0.29630858  0.13277714  1
  Ta  Ta83  1  0.19486335  0.19866199  0.72782804  1
  Ta  Ta84  1  0.20755533  0.20025127  0.26839624  1
  Ta  Ta85  1  0.09614399  0.49837508  0.12087611  1
  Ta  Ta86  1  0.50955440  0.08326986  0.62277450  1
  Ta  Ta87  1  0.70841111  0.67862752  0.86474349  1
  Ta  Ta88  1  0.60425893  0.80326107  0.24466248  1
  Ta  Ta89  1  0.51165343  0.90461183  0.37727539  1
  Ta  Ta90  1  0.80089484  0.19594325  0.75175877  1
  Ta  Ta91  1  0.20131450  0.20938050  0.49637936  1
  Ta  Ta92  1  0.61730580  0.77892410  0.00087603  1
  Ta  Ta93  1  0.78928404  0.39613741  0.75064404  1
  Ta  Ta94  1  0.60355363  0.59826128  0.24804885  1
  Ta  Ta95  1  0.51169812  0.69676551  0.12622937  1
  Ta  Ta96  1  0.09996339  0.70189915  0.10768552  1
  Ta  Ta97  1  0.30276272  0.30329373  0.61856069  1
  Ta  Ta98  1  0.77254180  0.38909191  0.23025555  1
  Ta  Ta99  1  0.50325688  0.10985359  0.13044250  1
  Ta  Ta100  1  0.00819479  0.18051630  0.00694711  1
  Ta  Ta101  1  0.61015897  0.82048918  0.51073689  1
  Ta  Ta102  1  0.49847400  0.29427567  0.62423359  1
  Ta  Ta103  1  0.18267732  0.01957369  0.02031388  1
  Ta  Ta104  1  0.81661647  0.59267960  0.49103342  1
  Ta  Ta105  1  0.78820794  0.40171882  0.02317424  1
  Ta  Ta106  1  0.09989782  0.10717807  0.38472309  1
  Ta  Ta107  1  0.31055275  0.10744776  0.61923896  1
  Ta  Ta108  1  0.09767573  0.30735113  0.37528314  1
  Ta  Ta109  1  0.31926963  0.91673983  0.62797925  1
  Ta  Ta110  1  0.70500912  0.11233567  0.12689873  1
  Ta  Ta111  1  0.69810472  0.90190084  0.36780309  1
  Ta  Ta112  1  0.41973639  0.00759993  0.49120454  1
  Ta  Ta113  1  0.81460692  0.79318205  0.76279137  1
  Ta  Ta114  1  0.91295707  0.68405540  0.35296995  1
  Ta  Ta115  1  0.72069700  0.10237409  0.35963973  1
  Ta  Ta116  1  0.49166610  0.10825991  0.87737408  1
  Ta  Ta117  1  0.19135986  0.60536180  0.74817167  1
  Ta  Ta118  1  0.21325240  0.59280914  0.00345870  1
  Ta  Ta119  1  0.30923863  0.50922529  0.86700908  1
  Ti  Ti120  1  0.89146452  0.09410562  0.62575287  1
  Ti  Ti121  1  0.08578977  0.51823530  0.62706671  1
  Ti  Ti122  1  0.49903237  0.30541790  0.86673446  1
  Ti  Ti123  1  0.70456096  0.70521924  0.13726514  1
  Ti  Ti124  1  0.50764074  0.31179202  0.36719229  1
  Ti  Ti125  1  0.19759699  0.00776212  0.24299763  1
  Ti  Ti126  1  0.02034164  0.78162375  0.25193807  1
  Ti  Ti127  1  0.86187789  0.50039912  0.87716589  1
  Ti  Ti128  1  0.39988009  0.40313852  0.74206867  1
  Ti  Ti129  1  0.20719827  0.39935278  0.00524057  1
  Ti  Ti130  1  0.00925915  0.79739244  0.75854851  1
  Ti  Ti131  1  0.61405005  0.21668495  0.25711627  1
  Ti  Ti132  1  0.29102481  0.50237684  0.62252644  1
  Ti  Ti133  1  0.08418437  0.51712449  0.36859075  1
  Ti  Ti134  1  0.39491411  0.39795692  0.49479902  1
  Ti  Ti135  1  0.39253477  0.59575647  0.49682176  1
  Ti  Ti136  1  0.79019558  0.39160390  0.49401106  1
  Ti  Ti137  1  0.00381909  0.40052958  0.23912831  1
  Ti  Ti138  1  0.39828433  0.20982736  0.27653180  1
  Ti  Ti139  1  0.59692448  0.40126862  0.74278283  1
  Ti  Ti140  1  0.60275019  0.41014336  0.00687578  1
  Ti  Ti141  1  0.20529181  0.81063411  0.23527646  1
  Ti  Ti142  1  0.69288922  0.91909486  0.63074537  1
  Ti  Ti143  1  0.40157424  0.00051386  0.75696878  1
  Ti  Ti144  1  0.17703287  0.60832669  0.50612586  1
  Ti  Ti145  1  0.49181514  0.50157655  0.36808111  1
  Ti  Ti146  1  0.80117974  0.19691620  0.00642213  1
  Ti  Ti147  1  0.09985625  0.89888863  0.12461770  1
  Ti  Ti148  1  0.20085499  0.00845566  0.73066663  1
  Ti  Ti149  1  0.09494563  0.30126012  0.61535592  1
  Ti  Ti150  1  0.77952902  -0.00117247  0.49881136  1
  Ti  Ti151  1  0.50498842  0.49766043  0.86159317  1
  Ti  Ti152  1  0.19851609  0.39256648  0.25650818  1
  Ti  Ti153  1  0.39880285  0.60282216  0.25629476  1
  Ti  Ti154  1  0.58594806  0.59361583  0.00225994  1
  Ti  Ti155  1  0.20733479  0.80786739  0.73790562  1
  Ti  Ti156  1  0.40053925  0.20593427  -0.00185660  1
  Ti  Ti157  1  0.61236452  0.80163762  0.74745990  1
  Ti  Ti158  1  0.70691333  0.10560343  0.88876816  1
  Ti  Ti159  1  0.08788407  0.11097281  0.60832688  1
  Mo  Mo160  1  0.79763516  0.79656494  0.25381150  1
  Mo  Mo161  1  0.70186567  0.29971670  0.37105515  1
  Mo  Mo162  1  0.89058239  0.70444544  0.88394689  1
  Mo  Mo163  1  0.39157621  0.59330758  0.74772617  1
  Mo  Mo164  1  0.51787171  0.70441963  0.63666965  1
  Mo  Mo165  1  0.51093829  0.10684799  0.36820723  1
  Mo  Mo166  1  0.39224521  0.40038931  0.26898529  1
  Mo  Mo167  1  0.58949005  0.40222435  0.25677025  1
  Mo  Mo168  1  0.40104551  0.59352752  -0.00346733  1
  Mo  Mo169  1  0.29286707  0.30484935  0.38416177  1
  Mo  Mo170  1  0.30604105  0.90013482  0.84990278  1
  Mo  Mo171  1  0.80029624  0.00114447  0.24711753  1
  Mo  Mo172  1  -0.00033812  0.59411229  0.49347823  1
  Mo  Mo173  1  0.29488051  0.10356257  0.38054361  1
  Mo  Mo174  1  0.68718516  0.29841611  0.12068755  1
  Mo  Mo175  1  0.68488771  0.50515642  0.13173383  1
  Mo  Mo176  1  0.89222648  0.10168946  0.88657902  1
  Mo  Mo177  1  0.60148779  0.59741930  0.74213149  1
  Mo  Mo178  1  0.79828408  0.19248522  0.24101912  1
  Mo  Mo179  1  0.80172655  0.00901389  -0.00881917  1
  Mo  Mo180  1  0.50510889  0.89764568  0.87890358  1
  Mo  Mo181  1  0.29302836  0.90706663  0.13099331  1
  Mo  Mo182  1  0.70850353  0.09987011  0.62881902  1
  Mo  Mo183  1  0.79679240  0.58996358  0.75608267  1
  Mo  Mo184  1  0.81059949  0.79036227  -0.00522511  1
  Mo  Mo185  1  0.00545284  0.79396224  0.00419361  1
  Mo  Mo186  1  0.50872261  0.90730189  0.62399720  1
  Mo  Mo187  1  0.09876455  0.10349529  0.87607012  1
  Mo  Mo188  1  0.79376062  0.59132728  0.23681989  1
  Mo  Mo189  1  0.29713066  0.30691996  0.13791376  1
  Mo  Mo190  1  0.68063732  0.49789004  0.87352070  1
  Mo  Mo191  1  0.90215368  0.09362167  0.37145714  1
  Mo  Mo192  1  0.00406275  0.58967213  0.23492173  1
  Mo  Mo193  1  0.00608492  0.20110122  0.49409781  1
  Mo  Mo194  1  0.60747944  0.00194511  0.49223991  1
  Mo  Mo195  1  0.10365735  0.69414005  0.63807577  1
  Mo  Mo196  1  0.90997859  0.88280445  0.87910966  1
  Mo  Mo197  1  0.10141259  0.69479974  0.36934420  1
  Mo  Mo198  1  0.89527337  0.48864504  0.13971294  1
  Mo  Mo199  1  0.09426879  0.10381109  0.13191614  1
