# generated using pymatgen
data_HfZrTaTiMo
_symmetry_space_group_name_H-M   'P 1'
_cell_length_a   15.19706658
_cell_length_b   15.20759297
_cell_length_c   16.86966504
_cell_angle_alpha   90.07099578
_cell_angle_beta   89.97088168
_cell_angle_gamma   89.98127541
_symmetry_Int_Tables_number   1
_chemical_formula_structural   HfZrTaTiMo
_chemical_formula_sum   'Hf40 Zr40 Ta40 Ti40 Mo40'
_cell_volume   3898.75812609
_cell_formula_units_Z   40
loop_
 _symmetry_equiv_pos_site_id
 _symmetry_equiv_pos_as_xyz
  1  'x, y, z'
loop_
 _atom_site_type_symbol
 _atom_site_label
 _atom_site_symmetry_multiplicity
 _atom_site_fract_x
 _atom_site_fract_y
 _atom_site_fract_z
 _atom_site_occupancy
  Hf  Hf0  1  0.81132827  0.58109795  0.75095694  1
  Hf  Hf1  1  0.40947403  0.59127230  0.00670707  1
  Hf  Hf2  1  0.10399193  0.70109875  0.62843248  1
  Hf  Hf3  1  0.29734657  0.09227091  0.87681660  1
  Hf  Hf4  1  0.09778046  0.30823042  0.61195688  1
  Hf  Hf5  1  -0.00022043  0.20744822  -0.00582776  1
  Hf  Hf6  1  0.69218554  0.50212615  0.39447507  1
  Hf  Hf7  1  0.80816039  0.18635662  0.26933151  1
  Hf  Hf8  1  0.58952616  0.58818890  0.25114710  1
  Hf  Hf9  1  0.39707810  0.40113780  0.25479442  1
  Hf  Hf10  1  0.19522697  0.19430394  0.00185671  1
  Hf  Hf11  1  0.10906719  0.30458849  0.13108131  1
  Hf  Hf12  1  0.59978805  0.79960871  0.24625556  1
  Hf  Hf13  1  0.39986755  0.19973004  0.00675853  1
  Hf  Hf14  1  0.20614883  -0.01120870  0.49789897  1
  Hf  Hf15  1  0.39551281  -0.00619079  0.24543895  1
  Hf  Hf16  1  0.50348490  0.30818017  0.12672767  1
  Hf  Hf17  1  0.69655544  0.68560322  0.60517580  1
  Hf  Hf18  1  0.10789646  0.10170544  0.60736984  1
  Hf  Hf19  1  0.09423352  0.50516042  0.63041709  1
  Hf  Hf20  1  0.08868543  0.10115987  0.38653824  1
  Hf  Hf21  1  0.29385262  0.89295296  0.12406611  1
  Hf  Hf22  1  0.80928170  0.20879090  0.74510212  1
  Hf  Hf23  1  0.40501352  0.21714590  0.75476309  1
  Hf  Hf24  1  0.18681023  -0.00622728  0.26074062  1
  Hf  Hf25  1  0.79745450  0.39548597  -0.00020073  1
  Hf  Hf26  1  0.90316636  0.09940171  0.61917275  1
  Hf  Hf27  1  0.48785672  0.49593592  0.86335845  1
  Hf  Hf28  1  0.89842258  0.91932610  0.13965604  1
  Hf  Hf29  1  0.70691276  0.90030623  0.61665735  1
  Hf  Hf30  1  0.69147043  0.29870455  0.86868941  1
  Hf  Hf31  1  0.01555041  0.80844525  0.24450709  1
  Hf  Hf32  1  0.88975287  0.49869042  0.13024027  1
  Hf  Hf33  1  0.61104560  0.00353780  0.25817536  1
  Hf  Hf34  1  0.90803004  0.89428618  0.86624594  1
  Hf  Hf35  1  0.69983000  0.89059068  0.87034522  1
  Hf  Hf36  1  0.37969974  0.59087702  0.23885622  1
  Hf  Hf37  1  0.70644484  0.30111757  0.13606717  1
  Hf  Hf38  1  0.58637562  0.38591516  0.74661455  1
  Hf  Hf39  1  0.28850639  0.49137559  0.87130810  1
  Zr  Zr40  1  0.80350245  0.79109730  -0.00335977  1
  Zr  Zr41  1  0.49683797  0.51453144  0.62266016  1
  Zr  Zr42  1  0.60431958  0.00271553  0.74370702  1
  Zr  Zr43  1  0.61033672  0.20286792  -0.00049563  1
  Zr  Zr44  1  0.39711668  0.19816098  0.24574599  1
  Zr  Zr45  1  0.49246287  0.90485301  0.37278270  1
  Zr  Zr46  1  0.36919986  0.40094064  0.49482580  1
  Zr  Zr47  1  -0.02954364  0.40030264  0.74742759  1
  Zr  Zr48  1  0.80272527  0.59980104  0.26797177  1
  Zr  Zr49  1  0.81626204  0.00293587  -0.00791390  1
  Zr  Zr50  1  0.31804653  0.89302259  0.62559234  1
  Zr  Zr51  1  0.59619945  0.39151620  0.26799611  1
  Zr  Zr52  1  0.69459192  0.70367319  0.39252181  1
  Zr  Zr53  1  0.07839485  0.50597395  0.86256594  1
  Zr  Zr54  1  0.82911467  0.80145469  0.50125787  1
  Zr  Zr55  1  0.41210446  -0.00724097  0.01252872  1
  Zr  Zr56  1  0.70559402  0.48538980  0.61219809  1
  Zr  Zr57  1  0.70436966  0.68938916  0.12719205  1
  Zr  Zr58  1  0.69296698  0.90796045  0.11950603  1
  Zr  Zr59  1  0.10405046  0.92742063  0.87743498  1
  Zr  Zr60  1  0.30445242  0.89609144  0.87487134  1
  Zr  Zr61  1  0.72463957  0.09985449  0.12954723  1
  Zr  Zr62  1  0.18795365  0.59413265  -0.00111877  1
  Zr  Zr63  1  0.60587635  0.60965511  0.74987114  1
  Zr  Zr64  1  0.00382710  0.80646205  0.00930574  1
  Zr  Zr65  1  0.59086136  0.79956197  0.00487643  1
  Zr  Zr66  1  0.20123545  0.41568564  0.25418408  1
  Zr  Zr67  1  0.90682596  0.29790123  0.14029323  1
  Zr  Zr68  1  0.01761054  0.20135817  0.75142719  1
  Zr  Zr69  1  0.58635827  0.38106388  0.49322187  1
  Zr  Zr70  1  0.20185444  0.80860141  0.74747239  1
  Zr  Zr71  1  0.48771933  0.70223302  0.37002587  1
  Zr  Zr72  1  0.09661540  0.71131091  0.86832725  1
  Zr  Zr73  1  0.51960890  0.08971366  0.12577928  1
  Zr  Zr74  1  0.49715473  0.90480031  0.86889689  1
  Zr  Zr75  1  0.29690312  0.49121005  0.64027086  1
  Zr  Zr76  1  0.56667294  0.80494232  0.51488764  1
  Zr  Zr77  1  0.90767397  0.69688718  0.13496102  1
  Zr  Zr78  1  0.50576766  0.11239859  0.62474582  1
  Zr  Zr79  1  0.79395015  0.20051802  0.49006588  1
  Ta  Ta80  1  0.80902102  0.38839332  0.48281652  1
  Ta  Ta81  1  0.00832233  0.61066288  0.49334402  1
  Ta  Ta82  1  0.81212073  0.19663468  -0.00796296  1
  Ta  Ta83  1  0.80023628  0.40076871  0.27279396  1
  Ta  Ta84  1  0.91430081  0.29529312  0.36639984  1
  Ta  Ta85  1  0.19492877  0.38079690  0.75102812  1
  Ta  Ta86  1  0.58891857  0.41570149  -0.00403637  1
  Ta  Ta87  1  0.80315106  0.81154455  0.26437023  1
  Ta  Ta88  1  0.71139133  0.09795909  0.86630240  1
  Ta  Ta89  1  0.40822292  0.00082642  0.49907755  1
  Ta  Ta90  1  0.81321045  -0.00636694  0.74596880  1
  Ta  Ta91  1  0.82124349  0.59096016  0.48751141  1
  Ta  Ta92  1  0.38985651  0.39306203  0.00428044  1
  Ta  Ta93  1  0.49872240  0.69065986  0.12522250  1
  Ta  Ta94  1  0.39688536  0.62100485  0.50490008  1
  Ta  Ta95  1  0.90166751  0.49429703  0.61231237  1
  Ta  Ta96  1  -0.00219404  0.41220331  0.48662333  1
  Ta  Ta97  1  0.89867208  0.68855840  0.86616422  1
  Ta  Ta98  1  0.21098279  0.21161163  0.49465475  1
  Ta  Ta99  1  0.10367081  0.30483132  0.37835407  1
  Ta  Ta100  1  0.70518236  0.09979437  0.62284267  1
  Ta  Ta101  1  0.20254403  0.80139812  0.00162385  1
  Ta  Ta102  1  0.20049263  0.78825856  0.50424786  1
  Ta  Ta103  1  -0.00954391  0.80513050  0.73481668  1
  Ta  Ta104  1  0.30190799  0.09695762  0.37928469  1
  Ta  Ta105  1  0.50557570  0.70120002  0.87343464  1
  Ta  Ta106  1  0.00611144  0.40941557  0.00062240  1
  Ta  Ta107  1  0.70187943  0.90044480  0.38765760  1
  Ta  Ta108  1  0.31185988  0.69555628  0.87299890  1
  Ta  Ta109  1  0.51107397  0.11285691  0.87181452  1
  Ta  Ta110  1  0.48322179  0.50734712  0.38911533  1
  Ta  Ta111  1  0.29141643  0.69098977  0.37378224  1
  Ta  Ta112  1  0.80618439  0.00109457  0.48982684  1
  Ta  Ta113  1  0.69319870  0.28821872  0.62684991  1
  Ta  Ta114  1  0.40280070  0.20185320  0.49139715  1
  Ta  Ta115  1  0.92054441  0.70868407  0.37224384  1
  Ta  Ta116  1  0.79504060  0.78614099  0.74271698  1
  Ta  Ta117  1  0.20075009  0.01241698  0.73576726  1
  Ta  Ta118  1  0.91534338  0.09755735  0.86505687  1
  Ta  Ta119  1  0.78827482  0.59450782  -0.01266438  1
  Ti  Ti120  1  0.40018150  0.00520843  0.74454264  1
  Ti  Ti121  1  0.59317621  0.80071455  0.73482588  1
  Ti  Ti122  1  0.47984656  0.30742345  0.62182753  1
  Ti  Ti123  1  0.29561051  0.29890595  0.37109723  1
  Ti  Ti124  1  0.09043261  0.88927712  0.38369142  1
  Ti  Ti125  1  0.20756276  0.19752617  0.74895842  1
  Ti  Ti126  1  0.19641288  0.19829898  0.25329284  1
  Ti  Ti127  1  0.90510184  0.69016245  0.62427769  1
  Ti  Ti128  1  0.10720081  0.30475340  0.87869571  1
  Ti  Ti129  1  0.49910031  0.10661456  0.37189978  1
  Ti  Ti130  1  0.28061832  0.09922895  0.12730064  1
  Ti  Ti131  1  -0.00627517  -0.02296963  0.50775794  1
  Ti  Ti132  1  0.28670455  0.69011680  0.11960594  1
  Ti  Ti133  1  0.10931689  0.70185295  0.37879343  1
  Ti  Ti134  1  0.68547111  0.49717842  0.12240135  1
  Ti  Ti135  1  0.01773067  0.02101335  0.00209728  1
  Ti  Ti136  1  0.20250889  0.78703443  0.24623489  1
  Ti  Ti137  1  0.20831537  0.58880247  0.50413849  1
  Ti  Ti138  1  0.01132972  -0.00163472  0.73623077  1
  Ti  Ti139  1  0.28656999  0.48022944  0.11351507  1
  Ti  Ti140  1  0.29753939  0.88485279  0.37611638  1
  Ti  Ti141  1  0.01492412  0.60179895  0.25562860  1
  Ti  Ti142  1  0.89844812  0.30871657  0.87672949  1
  Ti  Ti143  1  -0.00919849  0.21175972  0.49902614  1
  Ti  Ti144  1  0.31084512  0.69431905  0.63556206  1
  Ti  Ti145  1  0.39848158  0.79068831  0.00806852  1
  Ti  Ti146  1  0.30746002  0.11132193  0.61827156  1
  Ti  Ti147  1  0.92426217  0.10608702  0.13784787  1
  Ti  Ti148  1  0.69900129  0.49943165  0.87139732  1
  Ti  Ti149  1  0.30254232  0.30155852  0.87897984  1
  Ti  Ti150  1  0.10178856  0.91804498  0.12038444  1
  Ti  Ti151  1  0.39439939  0.79148251  0.23966056  1
  Ti  Ti152  1  0.60130766  0.00691866  0.50142118  1
  Ti  Ti153  1  0.09246973  0.51347198  0.12659265  1
  Ti  Ti154  1  0.69737826  0.09611221  0.37904471  1
  Ti  Ti155  1  0.11172675  0.51113257  0.37755991  1
  Ti  Ti156  1  0.59625027  0.19708562  0.48836265  1
  Ti  Ti157  1  -0.01358295  0.60380513  0.00219993  1
  Ti  Ti158  1  0.20099709  0.60150107  0.75454943  1
  Ti  Ti159  1  0.00083546  0.40964691  0.26187825  1
  Mo  Mo160  1  0.41044292  0.79281917  0.75305595  1
  Mo  Mo161  1  0.49129967  0.88292931  0.13731735  1
  Mo  Mo162  1  0.49908574  0.91056407  0.62757116  1
  Mo  Mo163  1  0.90166032  0.89896128  0.63235892  1
  Mo  Mo164  1  0.90943792  0.09424468  0.39016921  1
  Mo  Mo165  1  0.10155511  0.90301980  0.62158005  1
  Mo  Mo166  1  0.18919813  0.40346519  0.49176413  1
  Mo  Mo167  1  0.01229079  0.79847220  0.50548702  1
  Mo  Mo168  1  0.88818372  0.30878809  0.61143410  1
  Mo  Mo169  1  0.01296602  0.20245247  0.25989861  1
  Mo  Mo170  1  0.29513604  0.51383841  0.37987928  1
  Mo  Mo171  1  0.59021458  0.59835087  0.50422066  1
  Mo  Mo172  1  0.19172128  0.39361397  -0.00229938  1
  Mo  Mo173  1  0.10498585  0.10709785  0.86777043  1
  Mo  Mo174  1  0.48417124  0.71174109  0.63247796  1
  Mo  Mo175  1  0.39496054  0.60861842  0.75642854  1
  Mo  Mo176  1  0.38632006  0.39650243  0.74993543  1
  Mo  Mo177  1  0.50003920  0.49899027  0.12043522  1
  Mo  Mo178  1  0.60353578  0.19866234  0.26651300  1
  Mo  Mo179  1  -0.00737228  0.61095839  0.74380105  1
  Mo  Mo180  1  0.91044343  0.90376797  0.36998085  1
  Mo  Mo181  1  0.69810285  0.29214360  0.36927901  1
  Mo  Mo182  1  0.18879842  0.60947638  0.24415674  1
  Mo  Mo183  1  0.89262576  0.49731302  0.88636919  1
  Mo  Mo184  1  0.69902729  0.69730475  0.86745423  1
  Mo  Mo185  1  0.49212257  0.30361607  0.88477988  1
  Mo  Mo186  1  0.09688537  0.10106973  0.13531179  1
  Mo  Mo187  1  0.37679832  0.80626243  0.49592532  1
  Mo  Mo188  1  0.60323616  0.59543579  -0.00909920  1
  Mo  Mo189  1  0.91412233  0.50216682  0.37188805  1
  Mo  Mo190  1  0.48789635  0.29202927  0.37680177  1
  Mo  Mo191  1  0.61299770  0.01155815  -0.02251097  1
  Mo  Mo192  1  -0.00225817  0.00709581  0.25868750  1
  Mo  Mo193  1  0.80584098  -0.00567966  0.27566856  1
  Mo  Mo194  1  0.79025636  0.39502117  0.74817313  1
  Mo  Mo195  1  0.29715680  0.29529925  0.12521951  1
  Mo  Mo196  1  0.60403777  0.19981920  0.75006721  1
  Mo  Mo197  1  0.29148162  0.28786219  0.62413917  1
  Mo  Mo198  1  0.10814600  0.70567637  0.12262128  1
  Mo  Mo199  1  0.19965808  0.00029597  0.00852851  1
