# generated using pymatgen
data_HfZrTaTiMo
_symmetry_space_group_name_H-M   'P 1'
_cell_length_a   15.20628750
_cell_length_b   15.21558395
_cell_length_c   16.83402280
_cell_angle_alpha   90.03814292
_cell_angle_beta   90.03702921
_cell_angle_gamma   89.88763827
_symmetry_Int_Tables_number   1
_chemical_formula_structural   HfZrTaTiMo
_chemical_formula_sum   'Hf40 Zr40 Ta40 Ti40 Mo40'
_cell_volume   3894.92151790
_cell_formula_units_Z   40
loop_
 _symmetry_equiv_pos_site_id
 _symmetry_equiv_pos_as_xyz
  1  'x, y, z'
loop_
 _atom_site_type_symbol
 _atom_site_label
 _atom_site_symmetry_multiplicity
 _atom_site_fract_x
 _atom_site_fract_y
 _atom_site_fract_z
 _atom_site_occupancy
  Hf  Hf0  1  0.00522900  0.80526974  0.50247226  1
  Hf  Hf1  1  0.30163020  0.29153568  0.63557001  1
  Hf  Hf2  1  0.61316367  0.20917297  0.77368421  1
  Hf  Hf3  1  0.79673284  0.39104387  -0.00359989  1
  Hf  Hf4  1  0.38798167  0.19987884  -0.01875126  1
  Hf  Hf5  1  0.39737840  0.81512750  0.50104453  1
  Hf  Hf6  1  0.89632272  0.89728688  0.62763700  1
  Hf  Hf7  1  0.78410994  0.19084628  0.24933078  1
  Hf  Hf8  1  -0.00498174  0.01129590  0.74895961  1
  Hf  Hf9  1  0.31341660  0.69990373  0.87429476  1
  Hf  Hf10  1  0.70227471  0.69294291  0.62765002  1
  Hf  Hf11  1  0.79052256  0.60461656  -0.01144392  1
  Hf  Hf12  1  0.19990622  0.59545084  -0.00984763  1
  Hf  Hf13  1  0.89413560  0.29439171  0.37622845  1
  Hf  Hf14  1  0.00296293  0.59738987  -0.01327561  1
  Hf  Hf15  1  0.41555750  -0.00200773  0.00436802  1
  Hf  Hf16  1  0.39994051  0.39832745  0.75249663  1
  Hf  Hf17  1  0.09564174  0.29541601  0.38488153  1
  Hf  Hf18  1  0.80745306  0.58997204  0.49507827  1
  Hf  Hf19  1  0.60285483  0.60266584  0.49552560  1
  Hf  Hf20  1  0.41265579  0.18254145  0.50332506  1
  Hf  Hf21  1  0.39676824  0.61690694  0.50782841  1
  Hf  Hf22  1  0.30371164  0.50264078  0.12428290  1
  Hf  Hf23  1  0.71017784  0.48092671  0.62363999  1
  Hf  Hf24  1  0.90588145  0.68513992  0.63831835  1
  Hf  Hf25  1  0.20326199  0.01045192  0.01031232  1
  Hf  Hf26  1  0.18374484  0.20883729  0.24170768  1
  Hf  Hf27  1  0.20286762  0.18572937  0.50142170  1
  Hf  Hf28  1  0.30152741  0.70021879  0.13603668  1
  Hf  Hf29  1  0.69862814  0.91030483  0.36160169  1
  Hf  Hf30  1  0.60617758  0.80959097  0.01351452  1
  Hf  Hf31  1  0.90387494  0.50621226  0.12145868  1
  Hf  Hf32  1  0.49229360  0.92156242  0.62713869  1
  Hf  Hf33  1  0.88823421  0.71072841  0.86512180  1
  Hf  Hf34  1  0.62454651  0.00129487  0.74512596  1
  Hf  Hf35  1  0.30423211  0.29357025  0.37200531  1
  Hf  Hf36  1  0.50772379  0.50614666  0.62765277  1
  Hf  Hf37  1  0.30266943  0.49679995  0.37832242  1
  Hf  Hf38  1  -0.01249608  0.00210775  0.00931087  1
  Hf  Hf39  1  0.09626869  0.69246554  0.13313631  1
  Zr  Zr40  1  0.01532852  0.59244830  0.76769366  1
  Zr  Zr41  1  0.80591508  0.36760982  0.75693674  1
  Zr  Zr42  1  0.59948562  0.38798131  0.23506822  1
  Zr  Zr43  1  0.29185288  0.31344707  0.12464957  1
  Zr  Zr44  1  0.58715977  0.41047454  -0.01097407  1
  Zr  Zr45  1  -0.01063488  0.21763347  0.74671768  1
  Zr  Zr46  1  0.20380298  0.80090683  -0.00339145  1
  Zr  Zr47  1  0.28208971  0.51404595  0.63578444  1
  Zr  Zr48  1  0.40500794  0.79559942  0.73945994  1
  Zr  Zr49  1  0.60531795  0.81300432  0.50748979  1
  Zr  Zr50  1  0.90357806  0.47735134  0.87319746  1
  Zr  Zr51  1  0.31517516  0.89670568  0.13798487  1
  Zr  Zr52  1  0.70330830  0.69911568  0.13486506  1
  Zr  Zr53  1  0.78944451  0.40221123  0.24078311  1
  Zr  Zr54  1  0.49321610  0.91508668  0.36102541  1
  Zr  Zr55  1  0.70526771  0.70384491  0.36758519  1
  Zr  Zr56  1  0.18898808  0.21834428  -0.00105534  1
  Zr  Zr57  1  0.51518103  0.48947013  0.38446618  1
  Zr  Zr58  1  0.07261658  0.50057700  0.61718677  1
  Zr  Zr59  1  0.00161258  0.61268748  0.48306541  1
  Zr  Zr60  1  0.31203270  0.08611249  0.63350201  1
  Zr  Zr61  1  0.90206081  0.28688655  0.12888642  1
  Zr  Zr62  1  0.60695698  0.58694045  0.25090788  1
  Zr  Zr63  1  -0.00735230  0.79783966  -0.00240561  1
  Zr  Zr64  1  0.40709430  0.39510708  0.51194830  1
  Zr  Zr65  1  0.19163032  0.58704146  0.26108701  1
  Zr  Zr66  1  0.89760718  0.10979398  0.61521409  1
  Zr  Zr67  1  0.09450108  0.10894667  0.87778202  1
  Zr  Zr68  1  0.79163452  -0.00454634  0.50045376  1
  Zr  Zr69  1  0.30451307  0.70932070  0.35753699  1
  Zr  Zr70  1  0.51171634  0.89125403  0.87034884  1
  Zr  Zr71  1  0.91236481  0.89761095  0.36709709  1
  Zr  Zr72  1  0.09883188  0.90187924  0.87619380  1
  Zr  Zr73  1  0.61131116  0.41185521  0.77363983  1
  Zr  Zr74  1  0.01383745  0.39217328  0.24834912  1
  Zr  Zr75  1  0.19754727  0.40079222  0.50629043  1
  Zr  Zr76  1  0.72179248  0.08540481  0.89810715  1
  Zr  Zr77  1  0.40796778  0.39921268  0.24824461  1
  Zr  Zr78  1  0.19669973  0.80433434  0.49302374  1
  Zr  Zr79  1  0.19290891  0.00881044  0.23644908  1
  Ta  Ta80  1  0.68907133  0.28297680  0.10298719  1
  Ta  Ta81  1  0.41221027  0.79375873  0.00284010  1
  Ta  Ta82  1  0.70306017  0.27947795  0.61823501  1
  Ta  Ta83  1  0.89975138  0.70080980  0.13195918  1
  Ta  Ta84  1  0.50786556  0.28749086  0.38013656  1
  Ta  Ta85  1  0.70766161  0.89040050  0.87810023  1
  Ta  Ta86  1  0.11505485  0.70261537  0.63334252  1
  Ta  Ta87  1  0.58893828  0.02182923  0.50578597  1
  Ta  Ta88  1  0.09467831  0.09208041  0.37530198  1
  Ta  Ta89  1  0.51505443  0.30007058  0.63441325  1
  Ta  Ta90  1  0.49748206  0.70799557  0.13978248  1
  Ta  Ta91  1  0.20805389  0.00249342  0.75719248  1
  Ta  Ta92  1  -0.00891231  0.60199870  0.26181661  1
  Ta  Ta93  1  0.29002837  0.49598119  0.86108905  1
  Ta  Ta94  1  0.19795039  0.20299615  0.75625301  1
  Ta  Ta95  1  0.59189887  0.19246653  -0.01349612  1
  Ta  Ta96  1  0.19588254  0.61262377  0.49102989  1
  Ta  Ta97  1  0.89910632  0.09819255  0.37262410  1
  Ta  Ta98  1  0.01373760  0.38889254  0.00410171  1
  Ta  Ta99  1  0.08957176  0.29679563  0.61904652  1
  Ta  Ta100  1  0.00362493  0.80263770  0.75299504  1
  Ta  Ta101  1  0.10382586  0.90524356  0.63466646  1
  Ta  Ta102  1  0.30744775  0.10955198  0.12670391  1
  Ta  Ta103  1  0.51236756  0.11657366  0.64217236  1
  Ta  Ta104  1  0.29400285  0.90590150  0.35486673  1
  Ta  Ta105  1  0.31029537  0.91107103  0.87302732  1
  Ta  Ta106  1  0.30724568  0.09152636  0.36611703  1
  Ta  Ta107  1  0.10869900  0.48550492  0.12319394  1
  Ta  Ta108  1  0.09467635  0.89460399  0.12982150  1
  Ta  Ta109  1  0.50460035  0.71292920  0.35980406  1
  Ta  Ta110  1  0.88826523  0.91443293  0.86940191  1
  Ta  Ta111  1  0.60381093  0.79893342  0.73593683  1
  Ta  Ta112  1  0.20064311  0.79562620  0.75797247  1
  Ta  Ta113  1  0.40676375  0.19777476  0.24520611  1
  Ta  Ta114  1  0.69763584  0.09023690  0.10898142  1
  Ta  Ta115  1  0.80828918  0.79060662  0.49857898  1
  Ta  Ta116  1  0.89686355  0.49020377  0.37353280  1
  Ta  Ta117  1  0.28926791  0.89751758  0.63257534  1
  Ta  Ta118  1  0.69213732  0.30961418  0.38796509  1
  Ta  Ta119  1  0.78776320  0.58502765  0.76106084  1
  Ti  Ti120  1  0.80979430  0.79625327  0.25304311  1
  Ti  Ti121  1  0.39711652  0.19333549  0.76774968  1
  Ti  Ti122  1  0.69071481  0.11089340  0.37773539  1
  Ti  Ti123  1  0.59395265  0.20454131  0.24155819  1
  Ti  Ti124  1  0.50137541  0.10272121  0.36748549  1
  Ti  Ti125  1  0.80461584  0.59382838  0.25977036  1
  Ti  Ti126  1  0.48953055  0.52305758  0.87167476  1
  Ti  Ti127  1  0.79859094  0.16924488  0.75214120  1
  Ti  Ti128  1  0.89225287  0.27076515  0.88944250  1
  Ti  Ti129  1  0.41048843  0.59775707  0.25300123  1
  Ti  Ti130  1  -0.00213371  0.19918118  0.50250287  1
  Ti  Ti131  1  0.48933392  0.29765931  0.10628485  1
  Ti  Ti132  1  0.40525464  0.60212636  -0.00004456  1
  Ti  Ti133  1  0.80176415  0.80570535  0.00655659  1
  Ti  Ti134  1  0.59092004  0.61296381  -0.00434582  1
  Ti  Ti135  1  0.09387789  0.31671280  0.86999739  1
  Ti  Ti136  1  0.69496817  0.49964297  0.11304132  1
  Ti  Ti137  1  0.17940989  0.40229257  0.74571743  1
  Ti  Ti138  1  0.49927550  0.08619260  0.86866796  1
  Ti  Ti139  1  -0.00266658  0.00458842  0.24432921  1
  Ti  Ti140  1  0.39748677  0.60856408  0.73995602  1
  Ti  Ti141  1  0.68539012  0.70460132  0.86922489  1
  Ti  Ti142  1  0.59152615  0.61168286  0.75363085  1
  Ti  Ti143  1  0.49147425  0.30429645  0.87656344  1
  Ti  Ti144  1  0.38066910  0.40516235  -0.01894189  1
  Ti  Ti145  1  0.09366052  0.72632431  0.35511455  1
  Ti  Ti146  1  0.79038513  0.80728001  0.74515503  1
  Ti  Ti147  1  0.09581967  0.49275630  0.38294323  1
  Ti  Ti148  1  -0.00508619  0.19508726  0.00762411  1
  Ti  Ti149  1  0.20634714  -0.00777438  0.49452097  1
  Ti  Ti150  1  0.60829464  0.01931323  0.24481244  1
  Ti  Ti151  1  0.51292437  0.90670941  0.14257594  1
  Ti  Ti152  1  0.01315639  0.00154755  0.49947974  1
  Ti  Ti153  1  0.70837510  0.90620614  0.14211378  1
  Ti  Ti154  1  0.89625370  0.89623026  0.13877702  1
  Ti  Ti155  1  0.50529149  0.10603836  0.12022260  1
  Ti  Ti156  1  0.49824646  0.50697559  0.11741191  1
  Ti  Ti157  1  0.89005793  0.08942298  0.13474103  1
  Ti  Ti158  1  0.10836638  0.09759751  0.62654627  1
  Ti  Ti159  1  0.79287546  0.19799921  0.49752846  1
  Mo  Mo160  1  -0.01136102  0.39913112  0.49381881  1
  Mo  Mo161  1  0.19313179  0.80523427  0.24734723  1
  Mo  Mo162  1  0.39169344  0.00274126  0.49433134  1
  Mo  Mo163  1  0.28899543  0.30399218  0.85831312  1
  Mo  Mo164  1  0.60495647  0.39063225  0.50886211  1
  Mo  Mo165  1  0.50604019  0.69773381  0.87845061  1
  Mo  Mo166  1  0.10365629  0.91325634  0.36749062  1
  Mo  Mo167  1  0.30181458  0.09680760  0.87092252  1
  Mo  Mo168  1  0.70046525  0.29363319  0.89887849  1
  Mo  Mo169  1  0.71152497  0.48835521  0.38099181  1
  Mo  Mo170  1  -0.00466304  0.18109083  0.25249392  1
  Mo  Mo171  1  0.09403702  0.30031190  0.12222135  1
  Mo  Mo172  1  0.89446936  0.49595736  0.63460402  1
  Mo  Mo173  1  0.19768395  0.40204289  0.25729464  1
  Mo  Mo174  1  0.20610454  0.60461096  0.75644900  1
  Mo  Mo175  1  -0.00046997  0.80216232  0.24128712  1
  Mo  Mo176  1  0.69683448  0.10179933  0.62434932  1
  Mo  Mo177  1  0.69313668  0.51309929  0.87803094  1
  Mo  Mo178  1  -0.00209634  0.39174256  0.74676437  1
  Mo  Mo179  1  0.10429364  0.49038645  0.87532665  1
  Mo  Mo180  1  0.60047849  -0.00636374  0.01030164  1
  Mo  Mo181  1  0.80709702  0.18668532  0.01248476  1
  Mo  Mo182  1  0.40585175  0.80497089  0.24902737  1
  Mo  Mo183  1  0.60098959  0.19828404  0.50132127  1
  Mo  Mo184  1  0.40827755  0.01685711  0.23884451  1
  Mo  Mo185  1  0.80268237  0.39416555  0.50065341  1
  Mo  Mo186  1  0.19839774  0.40668377  -0.01074166  1
  Mo  Mo187  1  0.90373184  0.09574158  0.88081055  1
  Mo  Mo188  1  0.80136698  -0.02309747  0.01288128  1
  Mo  Mo189  1  0.80255939  -0.00635824  0.74532465  1
  Mo  Mo190  1  0.29329099  0.70681617  0.62433500  1
  Mo  Mo191  1  0.60333789  0.80704853  0.24245483  1
  Mo  Mo192  1  0.70185603  0.89727544  0.61879190  1
  Mo  Mo193  1  0.50162140  0.70151446  0.62416509  1
  Mo  Mo194  1  0.89824527  0.31613923  0.60511923  1
  Mo  Mo195  1  0.79969567  0.00501474  0.25224076  1
  Mo  Mo196  1  0.90146626  0.70042312  0.36574558  1
  Mo  Mo197  1  0.08687996  0.10444642  0.12354715  1
  Mo  Mo198  1  0.40671765  0.00468422  0.75941523  1
  Mo  Mo199  1  0.10453341  0.70138031  0.86685740  1
