# generated using pymatgen
data_HfZrTaTiMo
_symmetry_space_group_name_H-M   'P 1'
_cell_length_a   15.21650468
_cell_length_b   15.20924596
_cell_length_c   16.87704568
_cell_angle_alpha   90.03632735
_cell_angle_beta   89.99972863
_cell_angle_gamma   90.00901127
_symmetry_Int_Tables_number   1
_chemical_formula_structural   HfZrTaTiMo
_chemical_formula_sum   'Hf40 Zr40 Ta40 Ti40 Mo40'
_cell_volume   3905.88021616
_cell_formula_units_Z   40
loop_
 _symmetry_equiv_pos_site_id
 _symmetry_equiv_pos_as_xyz
  1  'x, y, z'
loop_
 _atom_site_type_symbol
 _atom_site_label
 _atom_site_symmetry_multiplicity
 _atom_site_fract_x
 _atom_site_fract_y
 _atom_site_fract_z
 _atom_site_occupancy
  Hf  Hf0  1  0.19031732  0.79259585  -0.00226437  1
  Hf  Hf1  1  0.79967386  0.40252817  0.48063200  1
  Hf  Hf2  1  0.39734491  0.40154751  0.50428801  1
  Hf  Hf3  1  0.19289402  0.39273878  0.49039917  1
  Hf  Hf4  1  0.61084095  0.20624878  0.74901707  1
  Hf  Hf5  1  0.79314321  0.00363541  0.00762796  1
  Hf  Hf6  1  0.20359406  0.59783280  0.24440924  1
  Hf  Hf7  1  0.81245789  0.59969007  0.75098186  1
  Hf  Hf8  1  0.49961659  0.70481237  0.37991012  1
  Hf  Hf9  1  0.88894062  0.68654942  0.13839350  1
  Hf  Hf10  1  0.50654579  0.10747879  0.61719138  1
  Hf  Hf11  1  0.79236681  0.21748649  0.02024533  1
  Hf  Hf12  1  -0.01078200  0.80929910  0.25607599  1
  Hf  Hf13  1  0.19512976  0.39515828  0.25966529  1
  Hf  Hf14  1  0.50296111  0.50436057  0.63198257  1
  Hf  Hf15  1  0.41459340  0.01611987  0.00367432  1
  Hf  Hf16  1  0.59907318  0.80689484  0.00240455  1
  Hf  Hf17  1  0.30042998  0.30063679  0.63326941  1
  Hf  Hf18  1  0.48734703  0.11042387  0.37369879  1
  Hf  Hf19  1  0.19532880  0.19416319  0.74521215  1
  Hf  Hf20  1  0.09947987  0.48741261  0.87983625  1
  Hf  Hf21  1  0.79765891  0.78354287  -0.00140947  1
  Hf  Hf22  1  0.09678417  0.08577130  0.87002380  1
  Hf  Hf23  1  0.78349045  -0.00546522  0.74949674  1
  Hf  Hf24  1  0.39650856  0.60297020  0.51157574  1
  Hf  Hf25  1  0.68022550  0.10142216  0.88663124  1
  Hf  Hf26  1  -0.01039739  -0.00969517  0.73716463  1
  Hf  Hf27  1  0.20238597  0.59322858  -0.00083070  1
  Hf  Hf28  1  0.60702416  0.40609967  0.75314472  1
  Hf  Hf29  1  -0.00631086  0.60342280  -0.00403707  1
  Hf  Hf30  1  0.48721985  0.91372802  0.62798361  1
  Hf  Hf31  1  0.20065790  0.19618876  0.00163087  1
  Hf  Hf32  1  0.09466744  0.90269157  0.38481614  1
  Hf  Hf33  1  0.60937901  0.61786402  0.50454894  1
  Hf  Hf34  1  -0.00068625  0.20159160  -0.00120536  1
  Hf  Hf35  1  0.08899088  0.70387703  0.12989149  1
  Hf  Hf36  1  0.10086821  0.69651255  0.37197901  1
  Hf  Hf37  1  0.61134006  -0.00641308  0.48479438  1
  Hf  Hf38  1  0.71279178  0.30749089  0.61652508  1
  Hf  Hf39  1  0.19921692  0.80824463  0.23937679  1
  Zr  Zr40  1  0.51078193  0.71343528  0.64633790  1
  Zr  Zr41  1  0.09578826  0.69998059  0.63419517  1
  Zr  Zr42  1  0.50146033  0.31164637  0.36594496  1
  Zr  Zr43  1  0.30194260  0.27747629  0.37104887  1
  Zr  Zr44  1  0.51164583  0.71452149  0.86045052  1
  Zr  Zr45  1  0.21044027  0.18753308  0.51200424  1
  Zr  Zr46  1  0.88240036  0.88797503  0.61200660  1
  Zr  Zr47  1  0.00171426  0.40393955  0.47287156  1
  Zr  Zr48  1  0.69823712  0.50047476  0.87395940  1
  Zr  Zr49  1  0.60465790  0.39969543  0.01017618  1
  Zr  Zr50  1  0.40704092  0.39293313  0.76499922  1
  Zr  Zr51  1  0.40088412  0.01449225  0.24000892  1
  Zr  Zr52  1  -0.00933728  0.78588219  0.50070361  1
  Zr  Zr53  1  0.40477625  0.80368856  0.24117728  1
  Zr  Zr54  1  0.81012412  -0.00366411  0.25227911  1
  Zr  Zr55  1  0.38279782  0.80532116  0.51034049  1
  Zr  Zr56  1  0.29696838  0.90856310  0.37110911  1
  Zr  Zr57  1  0.19977690  -0.02345617  0.52025227  1
  Zr  Zr58  1  0.81292493  0.20266958  0.74871634  1
  Zr  Zr59  1  0.20066673  -0.02237956  0.74385921  1
  Zr  Zr60  1  0.01031116  0.20340913  0.49161566  1
  Zr  Zr61  1  0.41169277  0.19134360  0.76526377  1
  Zr  Zr62  1  0.30068727  0.90558959  0.11036049  1
  Zr  Zr63  1  0.92086567  0.10456933  0.12766443  1
  Zr  Zr64  1  0.08809843  0.28469376  0.13939218  1
  Zr  Zr65  1  0.19676738  0.59943657  0.50433647  1
  Zr  Zr66  1  0.08659174  0.49252894  0.12628288  1
  Zr  Zr67  1  0.61122433  0.79729898  0.24883421  1
  Zr  Zr68  1  0.71190661  0.09627660  0.61184930  1
  Zr  Zr69  1  0.90834488  0.89243848  0.11413846  1
  Zr  Zr70  1  0.89839145  0.90412301  0.88348187  1
  Zr  Zr71  1  0.31337307  0.48464835  0.11727237  1
  Zr  Zr72  1  0.89512101  0.11034128  0.87985719  1
  Zr  Zr73  1  0.80523062  0.60631072  0.49018890  1
  Zr  Zr74  1  0.00750250  0.58977519  0.75583376  1
  Zr  Zr75  1  0.47858998  0.30757510  0.12759051  1
  Zr  Zr76  1  0.41109995  0.60049168  -0.01824899  1
  Zr  Zr77  1  0.61239785  0.21200615  0.48820716  1
  Zr  Zr78  1  0.40827477  0.59626904  0.24270249  1
  Zr  Zr79  1  0.60812806  0.00190789  0.26194207  1
  Ta  Ta80  1  0.29238189  0.50390339  0.64454631  1
  Ta  Ta81  1  0.30442424  0.50374907  0.37503525  1
  Ta  Ta82  1  0.69156801  0.89773784  0.87367042  1
  Ta  Ta83  1  0.29374776  0.49700619  0.86568617  1
  Ta  Ta84  1  0.78330817  0.59342838  0.26546489  1
  Ta  Ta85  1  0.39816711  0.21109511  -0.01186162  1
  Ta  Ta86  1  0.70820693  0.70752217  0.85672740  1
  Ta  Ta87  1  0.60439024  0.41526698  0.49802159  1
  Ta  Ta88  1  0.91418143  0.70984004  0.87189852  1
  Ta  Ta89  1  0.58979669  0.18883072  0.02152259  1
  Ta  Ta90  1  0.11836283  0.09788076  0.37519702  1
  Ta  Ta91  1  0.39847117  0.40040085  -0.02061282  1
  Ta  Ta92  1  0.09542389  0.48122862  0.62580476  1
  Ta  Ta93  1  0.28859802  0.70300121  0.85989801  1
  Ta  Ta94  1  0.50098084  0.89883042  0.38232042  1
  Ta  Ta95  1  0.30570192  0.69915851  0.11506275  1
  Ta  Ta96  1  0.70743065  0.51199667  0.62935459  1
  Ta  Ta97  1  0.90341604  0.49500142  0.61958599  1
  Ta  Ta98  1  0.70032285  0.30735366  0.35209083  1
  Ta  Ta99  1  0.79911860  0.59324738  -0.00462645  1
  Ta  Ta100  1  0.59718639  0.20350071  0.23847649  1
  Ta  Ta101  1  0.08897720  0.87855793  0.87585671  1
  Ta  Ta102  1  0.50004366  0.92048314  0.87524446  1
  Ta  Ta103  1  0.61028762  0.60609792  -0.00075344  1
  Ta  Ta104  1  0.29680576  0.70200222  0.37455757  1
  Ta  Ta105  1  0.09207150  0.09343119  0.62521260  1
  Ta  Ta106  1  0.91194082  0.30219384  0.61365815  1
  Ta  Ta107  1  0.28572839  0.29958794  0.87251753  1
  Ta  Ta108  1  0.29729663  0.70262905  0.65252043  1
  Ta  Ta109  1  0.40517628  0.59733788  0.76312073  1
  Ta  Ta110  1  0.71433644  0.71543672  0.64175783  1
  Ta  Ta111  1  0.89120326  0.90555624  0.38896781  1
  Ta  Ta112  1  0.50407366  0.69729032  0.11587686  1
  Ta  Ta113  1  0.29807219  0.90023387  0.88408284  1
  Ta  Ta114  1  0.01523766  0.00716703  0.25360473  1
  Ta  Ta115  1  0.59970315  0.41674754  0.23745215  1
  Ta  Ta116  1  0.31419538  0.08153368  0.63626699  1
  Ta  Ta117  1  0.81115837  0.39769619  0.74696816  1
  Ta  Ta118  1  -0.01239865  0.39211137  0.26739247  1
  Ta  Ta119  1  0.50240350  0.50521325  0.37911867  1
  Ti  Ti120  1  0.70346453  0.50407978  0.12580857  1
  Ti  Ti121  1  0.30585462  0.09232060  0.87364870  1
  Ti  Ti122  1  0.30879385  0.12049516  0.12167263  1
  Ti  Ti123  1  0.18564973  0.39468575  0.74927929  1
  Ti  Ti124  1  0.40010973  0.20124776  0.50655784  1
  Ti  Ti125  1  0.08883968  0.29458759  0.87362074  1
  Ti  Ti126  1  0.51339705  0.91146739  0.12182900  1
  Ti  Ti127  1  0.19844563  0.38721221  0.00174820  1
  Ti  Ti128  1  -0.00353782  0.58943120  0.48933319  1
  Ti  Ti129  1  0.69267323  0.09534131  0.13035599  1
  Ti  Ti130  1  0.00042286  0.20268030  0.74138283  1
  Ti  Ti131  1  0.71773972  0.30112479  0.87969250  1
  Ti  Ti132  1  0.39047455  0.82092991  0.75720296  1
  Ti  Ti133  1  0.80656605  0.21033626  0.23364095  1
  Ti  Ti134  1  0.89878054  0.48823883  0.87912299  1
  Ti  Ti135  1  0.50762474  0.30440440  0.62103882  1
  Ti  Ti136  1  -0.00618258  0.38754344  0.74931265  1
  Ti  Ti137  1  0.20106894  0.00619471  0.23885893  1
  Ti  Ti138  1  0.76888373  0.80096507  0.48977241  1
  Ti  Ti139  1  0.88396687  0.70749864  0.36353527  1
  Ti  Ti140  1  0.91496071  0.09283458  0.38372520  1
  Ti  Ti141  1  -0.00687624  0.58767639  0.26389833  1
  Ti  Ti142  1  0.40057096  0.80182056  -0.00594176  1
  Ti  Ti143  1  0.20354109  0.18926458  0.24420038  1
  Ti  Ti144  1  0.89070062  0.28308599  0.36652510  1
  Ti  Ti145  1  0.89125138  0.49070203  0.13758638  1
  Ti  Ti146  1  0.09326015  0.91214874  0.11374900  1
  Ti  Ti147  1  0.68359023  0.89609961  0.62559798  1
  Ti  Ti148  1  0.39669836  0.40303596  0.25259218  1
  Ti  Ti149  1  0.59702777  0.59969503  0.24883066  1
  Ti  Ti150  1  -0.01054330  0.39339512  0.00571861  1
  Ti  Ti151  1  0.70029411  0.69363631  0.12861822  1
  Ti  Ti152  1  0.89928424  0.10082655  0.60278007  1
  Ti  Ti153  1  0.39313216  0.00919859  0.49620291  1
  Ti  Ti154  1  0.51960402  0.29617934  0.88620396  1
  Ti  Ti155  1  0.70776193  0.89336846  0.12842025  1
  Ti  Ti156  1  0.58465419  0.00822494  0.75260575  1
  Ti  Ti157  1  0.80574147  0.40254898  0.00973239  1
  Ti  Ti158  1  0.72377054  0.11157511  0.37365183  1
  Ti  Ti159  1  0.19549623  0.00243656  -0.00182948  1
  Mo  Mo160  1  0.09438072  0.30020132  0.62925252  1
  Mo  Mo161  1  0.68333795  0.49932346  0.37179059  1
  Mo  Mo162  1  0.69934751  0.30439546  0.14364460  1
  Mo  Mo163  1  0.80890206  0.20561091  0.48638313  1
  Mo  Mo164  1  0.20149181  0.78323843  0.50358494  1
  Mo  Mo165  1  0.29679987  0.88548812  0.63465689  1
  Mo  Mo166  1  0.29595919  0.09189640  0.37317910  1
  Mo  Mo167  1  0.79774465  0.79753566  0.25431323  1
  Mo  Mo168  1  0.70466322  0.89558961  0.37478144  1
  Mo  Mo169  1  0.00155138  0.19047288  0.26508506  1
  Mo  Mo170  1  0.50270897  0.10738816  0.88126553  1
  Mo  Mo171  1  0.80352389  0.00365096  0.48873915  1
  Mo  Mo172  1  -0.00805438  0.79769446  0.74443737  1
  Mo  Mo173  1  0.39773365  0.00070961  0.75948197  1
  Mo  Mo174  1  0.81166964  0.80484440  0.75353666  1
  Mo  Mo175  1  0.29353176  0.30074475  0.12123151  1
  Mo  Mo176  1  0.11329449  0.09030780  0.12662668  1
  Mo  Mo177  1  0.51090012  0.51099729  0.11839120  1
  Mo  Mo178  1  0.89898684  0.31175203  0.13607066  1
  Mo  Mo179  1  0.10199467  0.50205414  0.36623196  1
  Mo  Mo180  1  0.09101117  0.89148660  0.62323065  1
  Mo  Mo181  1  0.20116844  0.58802405  0.75242146  1
  Mo  Mo182  1  0.00069606  -0.00008614  0.50781963  1
  Mo  Mo183  1  0.09737253  0.28644926  0.35691116  1
  Mo  Mo184  1  0.69409564  0.70166884  0.37053996  1
  Mo  Mo185  1  0.59537560  0.80438656  0.50116032  1
  Mo  Mo186  1  0.89110560  0.68390167  0.62150527  1
  Mo  Mo187  1  0.60483496  -0.00204820  0.01067604  1
  Mo  Mo188  1  0.89466863  0.50433952  0.36397451  1
  Mo  Mo189  1  0.01423403  -0.00188415  -0.00230570  1
  Mo  Mo190  1  0.50243390  0.50177901  0.87232980  1
  Mo  Mo191  1  0.61158442  0.82371968  0.75264419  1
  Mo  Mo192  1  0.50128266  0.10524081  0.13136455  1
  Mo  Mo193  1  0.60793918  0.60678525  0.74398423  1
  Mo  Mo194  1  0.10035369  0.69568859  0.86969849  1
  Mo  Mo195  1  0.79692348  0.40367393  0.25564527  1
  Mo  Mo196  1  0.90186871  0.31440271  0.87906436  1
  Mo  Mo197  1  -0.00130189  0.79503072  0.00321272  1
  Mo  Mo198  1  0.18942562  0.79332529  0.76215175  1
  Mo  Mo199  1  0.39260117  0.20794610  0.24456102  1
