# generated using pymatgen
data_HfZrTaTiMo
_symmetry_space_group_name_H-M   'P 1'
_cell_length_a   15.18832969
_cell_length_b   15.17500422
_cell_length_c   16.77864502
_cell_angle_alpha   90.00775886
_cell_angle_beta   89.93414607
_cell_angle_gamma   90.08370799
_symmetry_Int_Tables_number   1
_chemical_formula_structural   HfZrTaTiMo
_chemical_formula_sum   'Hf40 Zr40 Ta40 Ti40 Mo40'
_cell_volume   3867.18517167
_cell_formula_units_Z   40
loop_
 _symmetry_equiv_pos_site_id
 _symmetry_equiv_pos_as_xyz
  1  'x, y, z'
loop_
 _atom_site_type_symbol
 _atom_site_label
 _atom_site_symmetry_multiplicity
 _atom_site_fract_x
 _atom_site_fract_y
 _atom_site_fract_z
 _atom_site_occupancy
  Hf  Hf0  1  0.59910871  0.38972890  0.23352296  1
  Hf  Hf1  1  0.48219739  0.09338772  0.86460192  1
  Hf  Hf2  1  0.38576374  0.19368065  0.01144023  1
  Hf  Hf3  1  0.51738094  0.69239655  0.35946872  1
  Hf  Hf4  1  -0.00607892  0.79254209  0.73623283  1
  Hf  Hf5  1  0.88688778  0.30626028  0.36840881  1
  Hf  Hf6  1  0.30032819  0.90405471  0.13568343  1
  Hf  Hf7  1  0.68268805  0.31230629  0.37184544  1
  Hf  Hf8  1  0.88295769  0.69108006  0.38555329  1
  Hf  Hf9  1  0.30065788  0.70608318  0.87031121  1
  Hf  Hf10  1  0.10870974  0.69862644  0.38706972  1
  Hf  Hf11  1  0.42364937  0.39371831  0.49892713  1
  Hf  Hf12  1  0.89060608  0.48913993  0.63275809  1
  Hf  Hf13  1  0.70815762  0.70700286  0.63336809  1
  Hf  Hf14  1  0.41457546  0.81616190  0.25835606  1
  Hf  Hf15  1  0.78909252  0.20876525  0.22651547  1
  Hf  Hf16  1  0.62092513  0.59427556  0.50004687  1
  Hf  Hf17  1  0.31186046  0.49332346  0.63321325  1
  Hf  Hf18  1  0.19741090  0.61029457  0.73174543  1
  Hf  Hf19  1  0.30510204  0.69704727  0.37226930  1
  Hf  Hf20  1  0.00374506  0.00292422  0.49214100  1
  Hf  Hf21  1  0.70004183  0.50099248  0.87530495  1
  Hf  Hf22  1  -0.01258304  0.00047776  0.74951057  1
  Hf  Hf23  1  0.41985973  0.80035260  0.00588860  1
  Hf  Hf24  1  0.00342692  0.80439211  0.26869818  1
  Hf  Hf25  1  0.90908922  0.71335568  0.12182844  1
  Hf  Hf26  1  0.68868313  0.50936180  0.10435808  1
  Hf  Hf27  1  0.19568054  0.19477673  0.24404233  1
  Hf  Hf28  1  0.11350794  0.29509099  0.88607432  1
  Hf  Hf29  1  0.51110436  0.08693583  0.63187343  1
  Hf  Hf30  1  0.51103958  0.50610276  0.64356777  1
  Hf  Hf31  1  0.39945780  0.59909924  -0.01009494  1
  Hf  Hf32  1  0.91227429  0.51183889  0.12098347  1
  Hf  Hf33  1  0.31004689  0.29279066  0.37602644  1
  Hf  Hf34  1  0.19219716  0.19197948  0.51999441  1
  Hf  Hf35  1  0.68247405  0.09085881  0.88664275  1
  Hf  Hf36  1  0.79284202  0.00222399  0.24748538  1
  Hf  Hf37  1  0.51346339  0.48914776  0.36300261  1
  Hf  Hf38  1  0.10206969  0.68870007  0.12492668  1
  Hf  Hf39  1  0.50849745  0.31030102  0.64281259  1
  Zr  Zr40  1  0.29573220  0.49329477  0.86035154  1
  Zr  Zr41  1  0.48911731  0.49815449  0.12673975  1
  Zr  Zr42  1  0.20612778  0.39400405  0.50034663  1
  Zr  Zr43  1  0.01443405  0.40871402  -0.00293359  1
  Zr  Zr44  1  0.18412281  0.21729264  0.72814617  1
  Zr  Zr45  1  0.00484079  0.00199433  0.25871358  1
  Zr  Zr46  1  0.41128183  0.60244136  0.50041813  1
  Zr  Zr47  1  0.79332280  -0.00720328  0.00386909  1
  Zr  Zr48  1  0.90173193  0.11157543  0.37298095  1
  Zr  Zr49  1  -0.00868637  0.38560843  0.50252472  1
  Zr  Zr50  1  0.40304066  -0.00483081  0.49642396  1
  Zr  Zr51  1  0.67832111  0.28976487  0.09176238  1
  Zr  Zr52  1  -0.00108469  0.59172735  0.50546703  1
  Zr  Zr53  1  0.49240202  0.12099471  0.37712616  1
  Zr  Zr54  1  0.20862351  0.79853855  0.00369726  1
  Zr  Zr55  1  0.00098266  0.59342322  0.26414898  1
  Zr  Zr56  1  0.09846556  0.69587425  0.87821629  1
  Zr  Zr57  1  0.09398504  0.89898753  0.87328360  1
  Zr  Zr58  1  0.69077208  0.92136707  0.61510619  1
  Zr  Zr59  1  0.79827071  0.20807652  0.50465216  1
  Zr  Zr60  1  0.20254656  -0.00536234  0.51033468  1
  Zr  Zr61  1  0.20336633  0.01746276  -0.00139286  1
  Zr  Zr62  1  0.41346523  0.00000157  0.01625549  1
  Zr  Zr63  1  0.70528013  0.72411636  0.87397881  1
  Zr  Zr64  1  0.20073132  0.01184453  0.73251541  1
  Zr  Zr65  1  0.69946325  0.49819294  0.64979381  1
  Zr  Zr66  1  0.81442922  0.39069115  -0.00049313  1
  Zr  Zr67  1  0.80809680  0.60857871  -0.00728244  1
  Zr  Zr68  1  0.59871093  0.21320353  0.51022404  1
  Zr  Zr69  1  -0.00699816  0.19822855  0.22808653  1
  Zr  Zr70  1  0.00130411  0.39507627  0.24946412  1
  Zr  Zr71  1  0.69691351  0.29010615  0.88488792  1
  Zr  Zr72  1  0.01211258  0.38706725  0.75126810  1
  Zr  Zr73  1  0.31037498  0.91379788  0.86779433  1
  Zr  Zr74  1  0.28895823  0.31383058  0.11991757  1
  Zr  Zr75  1  0.30832009  0.68837816  0.14181832  1
  Zr  Zr76  1  0.51809581  0.69464983  0.13970730  1
  Zr  Zr77  1  0.09245094  0.89451884  0.12107647  1
  Zr  Zr78  1  0.59205633  0.80589297  0.49393772  1
  Zr  Zr79  1  -0.01543340  0.19309342  0.01319378  1
  Ta  Ta80  1  0.38839386  0.19249570  0.73663170  1
  Ta  Ta81  1  0.80149438  0.80100641  0.25362027  1
  Ta  Ta82  1  0.11649221  0.49340294  0.12877752  1
  Ta  Ta83  1  0.40386301  0.39871288  -0.00891897  1
  Ta  Ta84  1  0.91119467  0.71374653  0.87787651  1
  Ta  Ta85  1  0.60467731  0.19488991  0.74862432  1
  Ta  Ta86  1  0.91352216  0.50799240  0.86925758  1
  Ta  Ta87  1  0.88460383  0.08701337  0.62561409  1
  Ta  Ta88  1  0.60820323  0.81636088  0.74617139  1
  Ta  Ta89  1  0.39000930  0.19954422  0.52185281  1
  Ta  Ta90  1  0.10587626  0.50177505  0.86381449  1
  Ta  Ta91  1  0.19736091  0.58326296  -0.00046143  1
  Ta  Ta92  1  0.90470994  0.28336779  0.86847472  1
  Ta  Ta93  1  0.00066776  0.60000645  0.73636943  1
  Ta  Ta94  1  0.49720820  0.29180674  0.87265508  1
  Ta  Ta95  1  0.19778078  0.39981182  0.26380656  1
  Ta  Ta96  1  0.69697608  0.10692865  0.36811124  1
  Ta  Ta97  1  0.09770916  0.27967374  0.37710897  1
  Ta  Ta98  1  0.59628314  0.61738075  0.76572023  1
  Ta  Ta99  1  0.61319670  0.81864312  0.01023282  1
  Ta  Ta100  1  0.09159343  0.89743074  0.62278624  1
  Ta  Ta101  1  0.00255126  0.80383241  0.49795652  1
  Ta  Ta102  1  0.20571713  0.60110651  0.51330380  1
  Ta  Ta103  1  0.79379114  0.00386588  0.48917473  1
  Ta  Ta104  1  0.79568433  0.41073902  0.23198272  1
  Ta  Ta105  1  0.70930298  0.30415891  0.64480335  1
  Ta  Ta106  1  0.39860593  0.01536321  0.24874542  1
  Ta  Ta107  1  0.51819225  0.89942360  0.87039464  1
  Ta  Ta108  1  0.20367753  0.80577839  0.73189877  1
  Ta  Ta109  1  0.59014654  0.19307303  0.23872541  1
  Ta  Ta110  1  0.40887944  0.80010609  0.75009756  1
  Ta  Ta111  1  0.10401341  0.49264004  0.62714534  1
  Ta  Ta112  1  0.28960940  0.10226523  0.37341124  1
  Ta  Ta113  1  0.59103308  -0.00529416  0.25518874  1
  Ta  Ta114  1  0.90227469  0.28000266  0.64313614  1
  Ta  Ta115  1  0.88925727  0.89453561  0.61274452  1
  Ta  Ta116  1  0.78585456  -0.01640197  0.75800417  1
  Ta  Ta117  1  0.40052456  0.20645727  0.23233178  1
  Ta  Ta118  1  0.39787587  0.80439655  0.49248833  1
  Ta  Ta119  1  0.81314863  0.61352264  0.76032933  1
  Ti  Ti120  1  0.70889757  0.51283289  0.36634197  1
  Ti  Ti121  1  0.88821714  0.49644256  0.37777045  1
  Ti  Ti122  1  0.19505598  -0.00286479  0.25868503  1
  Ti  Ti123  1  0.39587786  0.38755140  0.75664610  1
  Ti  Ti124  1  0.50132199  0.49578569  0.86470655  1
  Ti  Ti125  1  0.70863389  0.70617362  0.12070830  1
  Ti  Ti126  1  0.20326605  0.58891128  0.25882215  1
  Ti  Ti127  1  0.78124731  0.40902421  0.50510387  1
  Ti  Ti128  1  0.60111957  0.00801690  0.48280065  1
  Ti  Ti129  1  0.89231694  0.09161507  0.87889800  1
  Ti  Ti130  1  0.79169983  0.60567877  0.24285830  1
  Ti  Ti131  1  0.68183093  0.08482378  0.11298119  1
  Ti  Ti132  1  0.30552875  0.50186404  0.37612939  1
  Ti  Ti133  1  0.58931445  0.61469353  -0.01846332  1
  Ti  Ti134  1  0.89741920  0.69731720  0.61242653  1
  Ti  Ti135  1  0.40632684  0.61089985  0.75555662  1
  Ti  Ti136  1  0.09030939  0.10613342  0.87740276  1
  Ti  Ti137  1  0.30033931  0.29455821  0.87746301  1
  Ti  Ti138  1  0.80118945  0.18188004  0.75464054  1
  Ti  Ti139  1  0.10449077  0.49105990  0.38456434  1
  Ti  Ti140  1  -0.00050167  0.19386245  0.50813180  1
  Ti  Ti141  1  0.89364317  0.89858081  0.38269897  1
  Ti  Ti142  1  0.61795544  0.80327911  0.24889003  1
  Ti  Ti143  1  0.80450135  0.39201562  0.76651798  1
  Ti  Ti144  1  0.20379591  0.80093776  0.51150321  1
  Ti  Ti145  1  0.10163194  0.30352004  0.11401664  1
  Ti  Ti146  1  0.19817989  0.80118935  0.25594679  1
  Ti  Ti147  1  0.10344612  0.09453304  0.11822879  1
  Ti  Ti148  1  0.29787434  0.50180036  0.13061273  1
  Ti  Ti149  1  0.89807492  0.90620229  0.12978140  1
  Ti  Ti150  1  0.48900209  0.89580305  0.63081812  1
  Ti  Ti151  1  0.39603794  0.39842432  0.25173668  1
  Ti  Ti152  1  0.28460276  0.11281596  0.86621109  1
  Ti  Ti153  1  0.50625171  0.70459982  0.62747535  1
  Ti  Ti154  1  0.31287055  0.70866313  0.62230322  1
  Ti  Ti155  1  0.69691938  0.89670199  0.37548063  1
  Ti  Ti156  1  0.81026498  0.81026661  0.00247587  1
  Ti  Ti157  1  0.29497624  0.90172373  0.37136605  1
  Ti  Ti158  1  -0.00963896  -0.00938227  -0.00253428  1
  Ti  Ti159  1  0.79129156  0.79656584  0.49442300  1
  Mo  Mo160  1  0.61121141  0.40276671  0.50444447  1
  Mo  Mo161  1  0.89143000  0.30763392  0.12401638  1
  Mo  Mo162  1  0.79950961  0.18711461  0.00564665  1
  Mo  Mo163  1  0.79853217  0.59386632  0.50340782  1
  Mo  Mo164  1  0.58258097  0.40846233  -0.01871759  1
  Mo  Mo165  1  0.59675515  0.00064581  0.74975513  1
  Mo  Mo166  1  0.80885069  0.80421057  0.74145469  1
  Mo  Mo167  1  0.61905755  0.59598379  0.24428565  1
  Mo  Mo168  1  0.08891632  0.30296557  0.61864894  1
  Mo  Mo169  1  0.70741220  0.10917730  0.63092312  1
  Mo  Mo170  1  0.30668339  0.09539079  0.62828074  1
  Mo  Mo171  1  0.89574895  0.89534389  0.87466406  1
  Mo  Mo172  1  0.50279097  0.70706400  0.87421999  1
  Mo  Mo173  1  0.00902347  0.60359093  -0.00531906  1
  Mo  Mo174  1  0.10852897  0.10258929  0.37574413  1
  Mo  Mo175  1  0.19387368  0.19849478  0.00054081  1
  Mo  Mo176  1  0.50177230  0.90566670  0.37011813  1
  Mo  Mo177  1  0.70597191  0.70180410  0.36813073  1
  Mo  Mo178  1  0.07172392  0.10258663  0.62696808  1
  Mo  Mo179  1  0.51603154  0.90583460  0.13668123  1
  Mo  Mo180  1  0.30599730  0.30412084  0.62580325  1
  Mo  Mo181  1  0.70435772  0.89159035  0.13548050  1
  Mo  Mo182  1  0.49557759  0.29788055  0.36937732  1
  Mo  Mo183  1  -0.00964052  0.18821183  0.75743107  1
  Mo  Mo184  1  0.20513429  0.40181925  0.74402594  1
  Mo  Mo185  1  0.49205944  0.30262477  0.11286232  1
  Mo  Mo186  1  0.70210300  0.90168028  0.87468126  1
  Mo  Mo187  1  0.11183263  0.89508029  0.38116202  1
  Mo  Mo188  1  0.29102984  0.09731607  0.13973072  1
  Mo  Mo189  1  0.57660421  0.18756219  -0.00074066  1
  Mo  Mo190  1  0.21229271  0.40326880  -0.00145750  1
  Mo  Mo191  1  0.59069830  -0.00810673  0.00684552  1
  Mo  Mo192  1  -0.00617221  0.80761614  0.00123953  1
  Mo  Mo193  1  0.39872258  -0.00751912  0.74606324  1
  Mo  Mo194  1  0.39689339  0.59061883  0.25834025  1
  Mo  Mo195  1  0.50273833  0.10533925  0.13040286  1
  Mo  Mo196  1  0.10116336  0.70290413  0.61104670  1
  Mo  Mo197  1  0.89010969  0.09408916  0.11942687  1
  Mo  Mo198  1  0.59937195  0.39775363  0.77196616  1
  Mo  Mo199  1  0.30623466  0.89088477  0.62777164  1
