# generated using pymatgen
data_HfZrTaTiMo
_symmetry_space_group_name_H-M   'P 1'
_cell_length_a   15.22380278
_cell_length_b   15.22024862
_cell_length_c   16.79144020
_cell_angle_alpha   90.01596341
_cell_angle_beta   89.93893160
_cell_angle_gamma   90.00844528
_symmetry_Int_Tables_number   1
_chemical_formula_structural   HfZrTaTiMo
_chemical_formula_sum   'Hf40 Zr40 Ta40 Ti40 Mo40'
_cell_volume   3890.74326605
_cell_formula_units_Z   40
loop_
 _symmetry_equiv_pos_site_id
 _symmetry_equiv_pos_as_xyz
  1  'x, y, z'
loop_
 _atom_site_type_symbol
 _atom_site_label
 _atom_site_symmetry_multiplicity
 _atom_site_fract_x
 _atom_site_fract_y
 _atom_site_fract_z
 _atom_site_occupancy
  Hf  Hf0  1  0.70111871  0.10076629  0.64402255  1
  Hf  Hf1  1  0.50424002  0.52248066  0.38368284  1
  Hf  Hf2  1  0.19824584  0.19052545  0.24565012  1
  Hf  Hf3  1  0.50443208  0.89858603  0.13205975  1
  Hf  Hf4  1  0.29200735  0.68731102  0.86508637  1
  Hf  Hf5  1  0.11210397  0.91703175  0.86411370  1
  Hf  Hf6  1  0.28768863  0.08389310  0.88362491  1
  Hf  Hf7  1  0.69752853  0.29742130  0.12994397  1
  Hf  Hf8  1  0.60636100  0.19168221  -0.01033719  1
  Hf  Hf9  1  0.49765929  0.69901420  0.86330211  1
  Hf  Hf10  1  0.09973348  0.51407960  0.37897396  1
  Hf  Hf11  1  0.90588600  0.28633650  0.62466852  1
  Hf  Hf12  1  0.69570965  0.52320040  0.61097054  1
  Hf  Hf13  1  0.39522451  0.79544539  0.51503517  1
  Hf  Hf14  1  0.50314738  0.49396320  0.12221334  1
  Hf  Hf15  1  -0.00234627  0.62247698  0.24327236  1
  Hf  Hf16  1  0.69754148  0.90818680  0.13253813  1
  Hf  Hf17  1  0.39288352  -0.00052478  0.25070364  1
  Hf  Hf18  1  0.89703266  0.90846588  0.11689291  1
  Hf  Hf19  1  0.89550103  0.49298934  0.12310581  1
  Hf  Hf20  1  0.50400220  0.09490986  0.86109475  1
  Hf  Hf21  1  0.30204147  0.70072855  0.37963700  1
  Hf  Hf22  1  0.10232119  0.90324192  0.11930036  1
  Hf  Hf23  1  0.29573208  0.29366757  0.37879863  1
  Hf  Hf24  1  0.70358554  0.28795579  0.85515079  1
  Hf  Hf25  1  0.08243470  0.70701884  0.64012758  1
  Hf  Hf26  1  0.50397484  0.91104444  0.63066485  1
  Hf  Hf27  1  0.70391518  0.50445956  0.38814822  1
  Hf  Hf28  1  0.40454574  0.39728518  0.49329844  1
  Hf  Hf29  1  0.80260798  0.18941178  -0.00934872  1
  Hf  Hf30  1  0.30968049  0.89022409  0.87479908  1
  Hf  Hf31  1  0.19989857  0.40155290  0.50687167  1
  Hf  Hf32  1  0.00048056  0.40773351  0.74648295  1
  Hf  Hf33  1  0.29690468  0.50918453  0.37581573  1
  Hf  Hf34  1  0.19004958  0.20075063  -0.00539349  1
  Hf  Hf35  1  0.61091503  0.00913345  0.50111461  1
  Hf  Hf36  1  0.71910088  0.90301983  0.37927504  1
  Hf  Hf37  1  0.20868514  0.19572862  0.75342490  1
  Hf  Hf38  1  0.51055313  0.09554317  0.12406120  1
  Hf  Hf39  1  0.40071403  0.20102474  -0.00902128  1
  Zr  Zr40  1  0.20505014  0.60811262  0.01218105  1
  Zr  Zr41  1  0.82018258  0.79466941  0.24831781  1
  Zr  Zr42  1  0.70026811  0.69387241  0.37709194  1
  Zr  Zr43  1  0.40052232  0.38733311  0.76488536  1
  Zr  Zr44  1  0.28691982  0.89616448  0.38029007  1
  Zr  Zr45  1  -0.00927507  0.01538985  -0.01974112  1
  Zr  Zr46  1  0.11085903  0.51010681  0.87280530  1
  Zr  Zr47  1  0.79527401  0.80481646  -0.01469033  1
  Zr  Zr48  1  0.09477940  0.30515958  0.12151564  1
  Zr  Zr49  1  -0.00069563  0.61328076  0.00433201  1
  Zr  Zr50  1  -0.00434179  0.80380647  -0.01585138  1
  Zr  Zr51  1  -0.00875478  -0.00889470  0.25431304  1
  Zr  Zr52  1  0.71172516  0.28453899  0.38241339  1
  Zr  Zr53  1  0.80102488  0.60629045  -0.00454545  1
  Zr  Zr54  1  0.21126806  0.40870123  0.74302981  1
  Zr  Zr55  1  0.39326464  0.58129909  0.74069955  1
  Zr  Zr56  1  0.08236239  0.09948506  0.12152164  1
  Zr  Zr57  1  0.80310765  0.39349155  0.51019930  1
  Zr  Zr58  1  0.31228693  0.28626361  0.61886470  1
  Zr  Zr59  1  0.60275477  0.60496662  -0.00236862  1
  Zr  Zr60  1  0.29839460  0.89117820  0.12049908  1
  Zr  Zr61  1  -0.01645336  0.20127329  0.26216728  1
  Zr  Zr62  1  0.29617214  0.08931856  0.38420767  1
  Zr  Zr63  1  0.08817117  0.90227505  0.38269684  1
  Zr  Zr64  1  0.49734188  0.89710382  0.37817286  1
  Zr  Zr65  1  0.39853820  0.79753020  0.73188658  1
  Zr  Zr66  1  0.40430225  0.40165888  0.26031098  1
  Zr  Zr67  1  0.89175011  0.08816196  0.39184250  1
  Zr  Zr68  1  0.09409112  0.51249407  0.62278630  1
  Zr  Zr69  1  0.40832927  0.19718324  0.25562498  1
  Zr  Zr70  1  0.50131470  0.30151599  0.12309016  1
  Zr  Zr71  1  0.60099977  0.80530244  -0.00482914  1
  Zr  Zr72  1  0.10084333  0.49632926  0.12344466  1
  Zr  Zr73  1  0.89379996  0.29152889  0.11954626  1
  Zr  Zr74  1  0.59611889  0.40511515  0.74798848  1
  Zr  Zr75  1  0.70107539  0.49329057  0.12671889  1
  Zr  Zr76  1  -0.00612529  0.40457214  0.26608750  1
  Zr  Zr77  1  0.08106476  0.91617486  0.63649948  1
  Zr  Zr78  1  0.60033211  0.78753036  0.50759992  1
  Zr  Zr79  1  0.80445922  0.40644876  0.73352815  1
  Ta  Ta80  1  0.49561768  0.11227597  0.63465919  1
  Ta  Ta81  1  0.29389132  0.08999941  0.11267987  1
  Ta  Ta82  1  0.29573832  0.30356046  0.12041965  1
  Ta  Ta83  1  0.09843667  0.29552655  0.38296150  1
  Ta  Ta84  1  0.60530076  0.39784944  0.26641019  1
  Ta  Ta85  1  0.20412080  0.60849686  0.23787393  1
  Ta  Ta86  1  -0.01793608  0.80976218  0.50845122  1
  Ta  Ta87  1  0.40026284  0.59925194  0.00417820  1
  Ta  Ta88  1  0.50138089  0.70047353  0.12933027  1
  Ta  Ta89  1  0.39762258  0.78777205  0.24972671  1
  Ta  Ta90  1  0.00029211  0.39937098  0.49732072  1
  Ta  Ta91  1  0.18894845  0.79627020  0.24608922  1
  Ta  Ta92  1  0.59879376  0.60404103  0.24728029  1
  Ta  Ta93  1  0.70199279  0.08403456  0.84694248  1
  Ta  Ta94  1  0.10000856  0.70816405  0.38336285  1
  Ta  Ta95  1  0.20203851  0.80791356  0.73869554  1
  Ta  Ta96  1  0.10215234  0.09869019  0.38105973  1
  Ta  Ta97  1  0.20026867  0.39945205  0.25409519  1
  Ta  Ta98  1  0.91463035  0.08511813  0.63863328  1
  Ta  Ta99  1  0.59915439  0.39385163  -0.01776205  1
  Ta  Ta100  1  0.89329688  0.10894493  0.84721813  1
  Ta  Ta101  1  0.41217022  -0.00987611  -0.00136744  1
  Ta  Ta102  1  0.19002884  0.80001716  0.51739617  1
  Ta  Ta103  1  0.39106240  0.40100352  -0.01413318  1
  Ta  Ta104  1  0.20118112  0.61060539  0.50785441  1
  Ta  Ta105  1  0.70213105  0.50207290  0.87062587  1
  Ta  Ta106  1  0.41801468  0.19373013  0.48946239  1
  Ta  Ta107  1  0.89110266  0.69776253  0.63812933  1
  Ta  Ta108  1  -0.00244729  0.39855057  -0.01425509  1
  Ta  Ta109  1  0.40021784  0.78822304  0.00093197  1
  Ta  Ta110  1  0.50887922  0.90052015  0.85962207  1
  Ta  Ta111  1  0.09783274  0.70691800  0.85117955  1
  Ta  Ta112  1  0.90002894  0.69541392  0.85184537  1
  Ta  Ta113  1  0.69703627  0.70342130  0.84892114  1
  Ta  Ta114  1  0.70652354  0.89158007  0.64318992  1
  Ta  Ta115  1  0.80501414  0.39264249  0.26724033  1
  Ta  Ta116  1  0.89788921  0.51418625  0.39214041  1
  Ta  Ta117  1  0.30296867  0.49151128  0.12523572  1
  Ta  Ta118  1  0.49783575  0.49521784  0.61520046  1
  Ta  Ta119  1  0.59661661  0.39291793  0.49920441  1
  Ti  Ti120  1  0.28835573  0.68835373  0.63156450  1
  Ti  Ti121  1  0.79967132  0.59302471  0.74485128  1
  Ti  Ti122  1  0.20162926  0.19415023  0.50604350  1
  Ti  Ti123  1  0.52258456  0.68515675  0.63836547  1
  Ti  Ti124  1  0.70426442  0.70365113  0.13214815  1
  Ti  Ti125  1  0.40301370  0.00641778  0.50588207  1
  Ti  Ti126  1  0.40362685  0.60624115  0.51361576  1
  Ti  Ti127  1  0.60061932  0.19888612  0.49617873  1
  Ti  Ti128  1  0.40117428  0.60390415  0.24214925  1
  Ti  Ti129  1  0.10707906  0.10583179  0.62979101  1
  Ti  Ti130  1  0.80254644  0.59336766  0.24873773  1
  Ti  Ti131  1  0.70741256  0.09780005  0.12656002  1
  Ti  Ti132  1  0.29163198  0.91321095  0.62261493  1
  Ti  Ti133  1  0.10119247  0.29717508  0.62296280  1
  Ti  Ti134  1  0.10452266  0.30528894  0.87401150  1
  Ti  Ti135  1  0.38477249  0.00815199  0.74206997  1
  Ti  Ti136  1  0.19051538  0.00400051  0.51114534  1
  Ti  Ti137  1  0.00495401  0.19246606  0.50148953  1
  Ti  Ti138  1  0.60198089  0.19627313  0.26548484  1
  Ti  Ti139  1  0.79782364  0.39472147  -0.01209369  1
  Ti  Ti140  1  0.88894808  0.90689587  0.84997819  1
  Ti  Ti141  1  0.79843981  0.18077269  0.51086595  1
  Ti  Ti142  1  0.49923753  0.50234903  0.87908630  1
  Ti  Ti143  1  0.60862875  -0.00379508  -0.01063156  1
  Ti  Ti144  1  0.79546258  0.19255069  0.25508891  1
  Ti  Ti145  1  0.79872243  0.79310136  0.51489903  1
  Ti  Ti146  1  0.81942493  -0.01902140  0.52148875  1
  Ti  Ti147  1  0.19761212  0.79736323  -0.00195316  1
  Ti  Ti148  1  0.00981382  0.20306566  0.75332253  1
  Ti  Ti149  1  0.89948411  0.50084891  0.87481346  1
  Ti  Ti150  1  0.50636054  0.29475061  0.62475294  1
  Ti  Ti151  1  0.79822878  0.00814657  0.25352617  1
  Ti  Ti152  1  0.59864039  0.79703509  0.25699275  1
  Ti  Ti153  1  0.40090470  0.20278217  0.76339320  1
  Ti  Ti154  1  0.60338921  0.01070230  0.26743318  1
  Ti  Ti155  1  -0.00806871  0.20519461  -0.01739911  1
  Ti  Ti156  1  0.90091162  0.30360462  0.86347056  1
  Ti  Ti157  1  0.90557627  0.70677809  0.38580630  1
  Ti  Ti158  1  0.69343944  0.29280931  0.62836204  1
  Ti  Ti159  1  0.79334575  0.00110981  -0.01452649  1
  Mo  Mo160  1  0.89297218  0.70113632  0.12569218  1
  Mo  Mo161  1  0.50230936  0.29870709  0.88010728  1
  Mo  Mo162  1  0.90357139  0.51064519  0.60539433  1
  Mo  Mo163  1  0.19810205  0.00320885  0.24816396  1
  Mo  Mo164  1  0.87716124  0.09678033  0.12300125  1
  Mo  Mo165  1  0.00799777  0.01376063  0.76288832  1
  Mo  Mo166  1  -0.00239782  0.61523162  0.49717921  1
  Mo  Mo167  1  0.21040840  0.00464955  0.73905227  1
  Mo  Mo168  1  0.69534971  0.90445733  0.85838455  1
  Mo  Mo169  1  0.59350209  0.60285289  0.50409229  1
  Mo  Mo170  1  0.10251844  0.71389736  0.12581506  1
  Mo  Mo171  1  0.30318466  0.50242467  0.88443541  1
  Mo  Mo172  1  0.51078219  0.30339074  0.37803454  1
  Mo  Mo173  1  0.59108355  -0.00202545  0.74240095  1
  Mo  Mo174  1  0.59993691  0.59095207  0.75608620  1
  Mo  Mo175  1  0.70203760  0.70333212  0.64314403  1
  Mo  Mo176  1  0.50753945  0.09969913  0.37931158  1
  Mo  Mo177  1  0.79968037  0.79875725  0.75503048  1
  Mo  Mo178  1  0.89559183  0.88937472  0.38702350  1
  Mo  Mo179  1  0.20378731  0.39669845  -0.00424586  1
  Mo  Mo180  1  0.20542214  -0.00448200  -0.00046578  1
  Mo  Mo181  1  0.80759271  0.61523850  0.50643241  1
  Mo  Mo182  1  0.30794825  0.09627125  0.61354664  1
  Mo  Mo183  1  0.59814636  0.79695769  0.74330805  1
  Mo  Mo184  1  0.49482623  0.70251432  0.36604165  1
  Mo  Mo185  1  0.80497135  -0.00480464  0.74005482  1
  Mo  Mo186  1  0.59076034  0.20521619  0.74699379  1
  Mo  Mo187  1  -0.01123525  0.59482506  0.75244318  1
  Mo  Mo188  1  0.00412184  0.79687472  0.25133508  1
  Mo  Mo189  1  0.69990777  0.09319226  0.38094338  1
  Mo  Mo190  1  0.89972470  0.89240801  0.64092353  1
  Mo  Mo191  1  -0.00400859  0.80712815  0.76286200  1
  Mo  Mo192  1  0.29259962  0.29938766  0.88299276  1
  Mo  Mo193  1  -0.00006084  0.00766130  0.50686962  1
  Mo  Mo194  1  0.30557608  0.50254857  0.61162781  1
  Mo  Mo195  1  0.90701007  0.29944784  0.39324389  1
  Mo  Mo196  1  0.80710000  0.20389240  0.74055033  1
  Mo  Mo197  1  0.30619081  0.69691480  0.12796490  1
  Mo  Mo198  1  0.19847299  0.60458176  0.74315447  1
  Mo  Mo199  1  0.09489767  0.11214988  0.86883447  1
