# generated using pymatgen
data_HfZrTaTiMo
_symmetry_space_group_name_H-M   'P 1'
_cell_length_a   15.20755594
_cell_length_b   15.21272904
_cell_length_c   16.86892271
_cell_angle_alpha   89.95609876
_cell_angle_beta   90.04968497
_cell_angle_gamma   89.96481684
_symmetry_Int_Tables_number   1
_chemical_formula_structural   HfZrTaTiMo
_chemical_formula_sum   'Hf40 Zr40 Ta40 Ti40 Mo40'
_cell_volume   3902.59540089
_cell_formula_units_Z   40
loop_
 _symmetry_equiv_pos_site_id
 _symmetry_equiv_pos_as_xyz
  1  'x, y, z'
loop_
 _atom_site_type_symbol
 _atom_site_label
 _atom_site_symmetry_multiplicity
 _atom_site_fract_x
 _atom_site_fract_y
 _atom_site_fract_z
 _atom_site_occupancy
  Hf  Hf0  1  0.38360339  0.59470760  0.49612216  1
  Hf  Hf1  1  0.49921615  0.48589597  0.35868747  1
  Hf  Hf2  1  0.08109756  0.49607526  0.62742494  1
  Hf  Hf3  1  0.00178992  0.40028827  0.76485187  1
  Hf  Hf4  1  0.91446693  0.50573827  0.14674727  1
  Hf  Hf5  1  0.29221092  0.09679345  0.13116336  1
  Hf  Hf6  1  0.60131120  0.79737123  0.23495358  1
  Hf  Hf7  1  0.49917417  0.29454708  0.63160100  1
  Hf  Hf8  1  0.80474206  0.02148033  0.00634237  1
  Hf  Hf9  1  0.79433947  0.40174918  0.01681299  1
  Hf  Hf10  1  0.00457366  0.79801426  0.26409324  1
  Hf  Hf11  1  0.49617462  0.51574776  0.62999217  1
  Hf  Hf12  1  0.10236209  0.71642221  0.13162167  1
  Hf  Hf13  1  0.49572381  0.09776255  0.12866340  1
  Hf  Hf14  1  0.60885814  0.60541313  0.24834380  1
  Hf  Hf15  1  0.00717665  0.00889068  0.74813457  1
  Hf  Hf16  1  0.60061795  0.41601487  0.75228609  1
  Hf  Hf17  1  0.09389095  0.10689287  0.12772178  1
  Hf  Hf18  1  0.31101756  0.67976267  0.63696499  1
  Hf  Hf19  1  0.50393710  0.49520503  0.13499702  1
  Hf  Hf20  1  0.42038039  0.79044458  0.75284847  1
  Hf  Hf21  1  0.49007860  0.30580491  0.86852912  1
  Hf  Hf22  1  0.18125453  0.20894227  0.26096254  1
  Hf  Hf23  1  0.19676522  0.60589423  0.23664215  1
  Hf  Hf24  1  0.00059619  -0.00073940  -0.00149965  1
  Hf  Hf25  1  0.69404956  0.29534064  0.87263322  1
  Hf  Hf26  1  0.89400356  0.29471692  0.89467982  1
  Hf  Hf27  1  0.91734503  0.69502491  0.89029796  1
  Hf  Hf28  1  0.59150224  0.40677085  -0.00193765  1
  Hf  Hf29  1  0.60254048  -0.00937100  0.49675078  1
  Hf  Hf30  1  0.40156389  0.19635034  0.49372296  1
  Hf  Hf31  1  0.18447745  0.41881210  0.48777413  1
  Hf  Hf32  1  0.80017329  0.01288982  0.49173681  1
  Hf  Hf33  1  0.19677248  -0.00645878  -0.00342229  1
  Hf  Hf34  1  0.20414060  -0.00338605  0.48757403  1
  Hf  Hf35  1  0.70698823  0.69607355  0.90212513  1
  Hf  Hf36  1  0.29487948  0.10752963  0.61933549  1
  Hf  Hf37  1  0.49007213  0.29159588  0.13395057  1
  Hf  Hf38  1  0.70813081  0.90330334  0.12399634  1
  Hf  Hf39  1  0.29075926  0.50929131  0.35839069  1
  Zr  Zr40  1  0.42099389  0.79682831  0.51573797  1
  Zr  Zr41  1  0.11516993  0.69313841  0.37814939  1
  Zr  Zr42  1  0.10396095  0.69043681  0.61070310  1
  Zr  Zr43  1  0.39503561  0.59184311  0.00084652  1
  Zr  Zr44  1  0.21811340  0.79626280  0.50089735  1
  Zr  Zr45  1  0.70682713  0.10213474  0.86712874  1
  Zr  Zr46  1  0.00765481  0.40128930  0.01499507  1
  Zr  Zr47  1  0.80818155  0.40131206  0.75695339  1
  Zr  Zr48  1  0.80741125  0.79207112  0.74546272  1
  Zr  Zr49  1  0.68229749  0.70265373  0.62030281  1
  Zr  Zr50  1  0.38957860  0.39157523  0.00473532  1
  Zr  Zr51  1  0.10479033  0.30005733  0.61191154  1
  Zr  Zr52  1  0.80707021  0.59082151  0.48290269  1
  Zr  Zr53  1  0.51014812  0.69923902  0.89763404  1
  Zr  Zr54  1  0.79696854  0.22169166  0.49044572  1
  Zr  Zr55  1  0.80211540  0.80781251  0.50174528  1
  Zr  Zr56  1  0.29699360  0.49067291  0.87314680  1
  Zr  Zr57  1  0.50514491  0.88702233  0.37304773  1
  Zr  Zr58  1  0.82068512  0.81356030  0.00768614  1
  Zr  Zr59  1  0.69621248  0.29945854  0.14214126  1
  Zr  Zr60  1  0.47987247  0.89040663  0.11873547  1
  Zr  Zr61  1  -0.00605076  0.20851095  0.74501431  1
  Zr  Zr62  1  0.38483798  0.19974171  0.74784680  1
  Zr  Zr63  1  0.70940243  0.91695231  0.63885040  1
  Zr  Zr64  1  0.08933902  0.09996618  0.60607840  1
  Zr  Zr65  1  0.59711390  0.00089875  0.00218359  1
  Zr  Zr66  1  0.90087604  0.90789770  0.86488914  1
  Zr  Zr67  1  0.69582922  0.89603577  0.86828121  1
  Zr  Zr68  1  0.79259816  0.59510867  0.75258857  1
  Zr  Zr69  1  0.09836304  0.50757516  0.88580778  1
  Zr  Zr70  1  0.38182108  -0.01539340  0.26103459  1
  Zr  Zr71  1  0.38839725  0.39233765  0.50269180  1
  Zr  Zr72  1  0.49786841  0.69506520  0.36959304  1
  Zr  Zr73  1  0.60729633  0.39118648  0.49396871  1
  Zr  Zr74  1  0.21034639  0.79783003  0.74402976  1
  Zr  Zr75  1  0.49884726  0.10488242  0.87016461  1
  Zr  Zr76  1  0.01268164  0.79358467  0.74753802  1
  Zr  Zr77  1  0.60040724  0.59796730  0.48866567  1
  Zr  Zr78  1  0.60375939  0.00090184  0.25458942  1
  Zr  Zr79  1  0.00286843  0.58037828  0.47760509  1
  Ta  Ta80  1  0.69955759  0.29690636  0.62826956  1
  Ta  Ta81  1  0.49706419  0.29233057  0.36502827  1
  Ta  Ta82  1  0.89797312  0.32326077  0.61212320  1
  Ta  Ta83  1  0.71550450  0.48993185  0.61740807  1
  Ta  Ta84  1  0.10482565  0.90168810  0.61700580  1
  Ta  Ta85  1  -0.01007458  0.59767607  0.75219873  1
  Ta  Ta86  1  0.50040327  0.90146342  0.87708342  1
  Ta  Ta87  1  0.89262930  0.50664613  0.89449998  1
  Ta  Ta88  1  0.39911031  -0.00552732  0.74778923  1
  Ta  Ta89  1  0.70932982  0.69516782  0.11086324  1
  Ta  Ta90  1  0.90629386  0.68878145  0.61733520  1
  Ta  Ta91  1  0.90894314  0.28513184  0.12882349  1
  Ta  Ta92  1  0.20238527  0.00320753  0.74952079  1
  Ta  Ta93  1  0.80807621  0.00067099  0.25675576  1
  Ta  Ta94  1  0.01073646  0.00178976  0.26189489  1
  Ta  Ta95  1  0.89907721  0.09908153  0.13816447  1
  Ta  Ta96  1  0.60342984  0.20233163  0.00519050  1
  Ta  Ta97  1  0.89913321  0.90333662  0.37281223  1
  Ta  Ta98  1  0.70458808  0.71992895  0.37383924  1
  Ta  Ta99  1  0.79787444  0.19541552  0.73802586  1
  Ta  Ta100  1  0.50457515  0.09116115  0.62505340  1
  Ta  Ta101  1  0.30604848  0.90068189  0.86989896  1
  Ta  Ta102  1  0.90811096  0.11527254  0.37224498  1
  Ta  Ta103  1  0.18651825  0.19524095  0.75567923  1
  Ta  Ta104  1  0.02827035  0.80361456  -0.00029076  1
  Ta  Ta105  1  0.40097260  -0.00448111  0.49761486  1
  Ta  Ta106  1  0.20266316  0.21108554  0.48433932  1
  Ta  Ta107  1  0.91390533  0.90674445  0.62310720  1
  Ta  Ta108  1  0.38996157  0.19694113  0.25997694  1
  Ta  Ta109  1  0.69586275  0.30386309  0.35537329  1
  Ta  Ta110  1  0.38967578  0.00043109  -0.00493240  1
  Ta  Ta111  1  0.11240459  0.89552093  0.87113282  1
  Ta  Ta112  1  0.39107483  0.19237494  -0.00202189  1
  Ta  Ta113  1  0.40117981  0.60724392  0.23515645  1
  Ta  Ta114  1  0.28268678  0.48835939  0.63498975  1
  Ta  Ta115  1  0.30605284  0.71189605  0.12269923  1
  Ta  Ta116  1  0.59774335  0.00589324  0.74652799  1
  Ta  Ta117  1  0.71547792  0.49074371  0.35028802  1
  Ta  Ta118  1  0.90676381  0.10997819  0.87433995  1
  Ta  Ta119  1  0.70873022  0.50508734  0.13993232  1
  Ti  Ti120  1  0.60092979  0.19210731  0.49448084  1
  Ti  Ti121  1  0.19738619  0.38477659  0.75485852  1
  Ti  Ti122  1  -0.00437896  -0.00415689  0.49073302  1
  Ti  Ti123  1  0.28773500  0.09834839  0.87555092  1
  Ti  Ti124  1  0.80521479  0.20036469  0.25696472  1
  Ti  Ti125  1  0.09696449  0.27890151  0.89367990  1
  Ti  Ti126  1  0.19733416  0.39350932  0.01122361  1
  Ti  Ti127  1  0.00103846  0.80165076  0.49057803  1
  Ti  Ti128  1  0.90687628  0.70053378  0.12090299  1
  Ti  Ti129  1  0.30878853  0.90541820  0.62886032  1
  Ti  Ti130  1  0.08638509  0.48212920  0.34327345  1
  Ti  Ti131  1  0.29304604  0.30791437  0.36764294  1
  Ti  Ti132  1  0.29106869  0.49607954  0.12849537  1
  Ti  Ti133  1  0.28446561  0.29074720  0.12775802  1
  Ti  Ti134  1  0.88955534  0.10822141  0.61608232  1
  Ti  Ti135  1  0.69343619  0.50818979  0.88719555  1
  Ti  Ti136  1  0.09411655  0.10242780  0.38307894  1
  Ti  Ti137  1  0.51501990  0.88938621  0.63229575  1
  Ti  Ti138  1  0.18686224  0.60837773  0.01175640  1
  Ti  Ti139  1  0.49730121  0.09701535  0.37454819  1
  Ti  Ti140  1  0.89699041  0.32357841  0.36099725  1
  Ti  Ti141  1  0.92242827  0.90150290  0.13585644  1
  Ti  Ti142  1  0.70353121  0.10859678  0.13307866  1
  Ti  Ti143  1  0.70027240  0.10239625  0.36855920  1
  Ti  Ti144  1  0.27361678  0.89441678  0.13090208  1
  Ti  Ti145  1  0.50668326  0.69730071  0.10627522  1
  Ti  Ti146  1  0.80444643  0.80395860  0.24879976  1
  Ti  Ti147  1  0.59341264  0.19597833  0.25663099  1
  Ti  Ti148  1  0.38617626  0.39380948  0.24451004  1
  Ti  Ti149  1  0.40309033  0.59127658  0.76809076  1
  Ti  Ti150  1  0.59382918  0.61687402  0.75704885  1
  Ti  Ti151  1  0.38702126  0.80624631  -0.00671273  1
  Ti  Ti152  1  0.81472797  0.61804940  0.25926012  1
  Ti  Ti153  1  0.07714783  0.29660199  0.38321083  1
  Ti  Ti154  1  0.29674436  0.09924210  0.37310222  1
  Ti  Ti155  1  0.28461722  0.28907570  0.88329691  1
  Ti  Ti156  1  0.38852648  0.40023998  0.74527314  1
  Ti  Ti157  1  0.30945510  0.71469459  0.35982473  1
  Ti  Ti158  1  0.18894284  0.59415118  0.75695501  1
  Ti  Ti159  1  0.28376829  0.69985995  0.87948322  1
  Mo  Mo160  1  -0.02146815  0.39644401  0.48818642  1
  Mo  Mo161  1  0.01637706  0.37931741  0.23539032  1
  Mo  Mo162  1  0.20818009  0.59095510  0.49742138  1
  Mo  Mo163  1  0.18853193  -0.00151353  0.26831789  1
  Mo  Mo164  1  0.00121827  0.60326198  0.25882880  1
  Mo  Mo165  1  0.60014464  0.20212770  0.73859488  1
  Mo  Mo166  1  0.10285305  0.29603574  0.12006633  1
  Mo  Mo167  1  -0.00910051  0.20064270  0.49469321  1
  Mo  Mo168  1  0.20122414  0.39677312  0.24170078  1
  Mo  Mo169  1  0.90320049  0.49659468  0.34589522  1
  Mo  Mo170  1  0.10928122  0.69864575  0.87970249  1
  Mo  Mo171  1  0.00262962  0.60843520  0.01076306  1
  Mo  Mo172  1  0.30272462  0.89575562  0.37698687  1
  Mo  Mo173  1  0.50263703  0.69483437  0.63182640  1
  Mo  Mo174  1  0.60055665  0.80082743  0.01466820  1
  Mo  Mo175  1  0.10082960  0.90763792  0.13158484  1
  Mo  Mo176  1  0.81094411  0.59392087  0.01206040  1
  Mo  Mo177  1  0.20961212  0.79967789  -0.00331422  1
  Mo  Mo178  1  0.61039401  0.80163149  0.50013415  1
  Mo  Mo179  1  0.69218638  0.11282086  0.62469610  1
  Mo  Mo180  1  0.20071180  0.20081629  -0.00204181  1
  Mo  Mo181  1  0.50561522  0.50098126  0.86590688  1
  Mo  Mo182  1  0.79785128  0.40755585  0.48876691  1
  Mo  Mo183  1  0.80574276  0.39559863  0.23659674  1
  Mo  Mo184  1  0.60956159  0.58954237  0.01419717  1
  Mo  Mo185  1  -0.00750276  0.18882474  0.00224242  1
  Mo  Mo186  1  -0.00740191  0.19776597  0.25735160  1
  Mo  Mo187  1  0.81219689  0.01237751  0.73927697  1
  Mo  Mo188  1  0.39557161  0.78958014  0.23891549  1
  Mo  Mo189  1  0.79669954  0.19819185  0.01166777  1
  Mo  Mo190  1  0.89875223  0.50474706  0.62429963  1
  Mo  Mo191  1  0.89869918  0.70721417  0.37224891  1
  Mo  Mo192  1  0.59582174  0.39641541  0.25342977  1
  Mo  Mo193  1  0.10307639  0.09978033  0.87502861  1
  Mo  Mo194  1  0.10900992  0.50139689  0.12985571  1
  Mo  Mo195  1  0.20834483  0.81918714  0.25881145  1
  Mo  Mo196  1  0.28923652  0.30308246  0.62463386  1
  Mo  Mo197  1  0.70925054  0.90216415  0.36657215  1
  Mo  Mo198  1  0.60306020  0.80300883  0.75981142  1
  Mo  Mo199  1  0.09804660  0.90495897  0.38473442  1
