# generated using pymatgen
data_HfZrTaTiMo
_symmetry_space_group_name_H-M   'P 1'
_cell_length_a   15.21310183
_cell_length_b   15.21032372
_cell_length_c   16.84994556
_cell_angle_alpha   89.97427983
_cell_angle_beta   90.01131217
_cell_angle_gamma   89.89400736
_symmetry_Int_Tables_number   1
_chemical_formula_structural   HfZrTaTiMo
_chemical_formula_sum   'Hf40 Zr40 Ta40 Ti40 Mo40'
_cell_volume   3899.00629149
_cell_formula_units_Z   40
loop_
 _symmetry_equiv_pos_site_id
 _symmetry_equiv_pos_as_xyz
  1  'x, y, z'
loop_
 _atom_site_type_symbol
 _atom_site_label
 _atom_site_symmetry_multiplicity
 _atom_site_fract_x
 _atom_site_fract_y
 _atom_site_fract_z
 _atom_site_occupancy
  Hf  Hf0  1  0.31672370  0.87346030  0.12749447  1
  Hf  Hf1  1  0.90407030  0.90371516  0.37502076  1
  Hf  Hf2  1  0.90587091  0.88584241  0.89289515  1
  Hf  Hf3  1  0.60111826  0.00095972  0.00903841  1
  Hf  Hf4  1  0.20634631  0.19559754  -0.01038547  1
  Hf  Hf5  1  0.58066712  0.40782848  0.50291291  1
  Hf  Hf6  1  0.30088576  0.28760877  0.12102036  1
  Hf  Hf7  1  0.51654287  0.88627083  0.62705117  1
  Hf  Hf8  1  0.00195843  -0.00467496  0.23161533  1
  Hf  Hf9  1  0.50751063  0.10414154  0.37306265  1
  Hf  Hf10  1  0.10956408  0.70261403  0.11035340  1
  Hf  Hf11  1  0.78072146  0.60572739  0.50695736  1
  Hf  Hf12  1  0.60827304  0.20150254  0.51245254  1
  Hf  Hf13  1  0.23093328  0.58960280  -0.01108910  1
  Hf  Hf14  1  0.78177976  0.39627961  0.50579752  1
  Hf  Hf15  1  0.79484314  0.00096290  0.01765763  1
  Hf  Hf16  1  0.09508527  0.29891594  0.64427547  1
  Hf  Hf17  1  0.11341028  0.49362383  0.62474687  1
  Hf  Hf18  1  0.31913523  0.31275115  0.37030570  1
  Hf  Hf19  1  0.89848974  0.51137042  0.38954818  1
  Hf  Hf20  1  0.08685695  0.70358229  0.38899673  1
  Hf  Hf21  1  0.39370896  0.60024226  0.25338205  1
  Hf  Hf22  1  0.89298386  0.29649287  0.38073608  1
  Hf  Hf23  1  -0.01206171  0.21673048  -0.01625247  1
  Hf  Hf24  1  -0.00630626  0.21066767  0.24790862  1
  Hf  Hf25  1  0.79198852  0.60355606  0.24157030  1
  Hf  Hf26  1  0.10272045  0.49974958  0.39126549  1
  Hf  Hf27  1  0.49610335  0.67566750  0.63795537  1
  Hf  Hf28  1  0.50069953  0.29715950  0.88360759  1
  Hf  Hf29  1  0.70402241  0.10023503  0.37356304  1
  Hf  Hf30  1  0.29585116  0.30794715  0.63002878  1
  Hf  Hf31  1  0.71242003  0.51184221  0.87564256  1
  Hf  Hf32  1  0.20087928  0.79993545  0.74908554  1
  Hf  Hf33  1  0.89971507  0.50248711  0.62339104  1
  Hf  Hf34  1  0.38886617  0.41098633  0.00825285  1
  Hf  Hf35  1  0.08885088  0.90593883  0.62635606  1
  Hf  Hf36  1  0.40336449  -0.01731143  0.00137250  1
  Hf  Hf37  1  0.50606110  0.50156574  0.88861837  1
  Hf  Hf38  1  0.41049336  0.20925570  0.50525827  1
  Hf  Hf39  1  0.30415676  0.89309245  0.37809366  1
  Zr  Zr40  1  0.60092622  -0.00607430  0.23814442  1
  Zr  Zr41  1  0.32676503  0.50695317  0.62498357  1
  Zr  Zr42  1  -0.00357356  0.18874845  0.50300304  1
  Zr  Zr43  1  0.88783864  0.71067356  0.38467401  1
  Zr  Zr44  1  0.10871130  0.11054352  0.11780015  1
  Zr  Zr45  1  -0.00083914  0.39026517  0.50829480  1
  Zr  Zr46  1  0.79921994  0.40586518  0.25590259  1
  Zr  Zr47  1  0.69553900  0.49999903  0.11691557  1
  Zr  Zr48  1  0.09221012  0.69217901  0.61672306  1
  Zr  Zr49  1  0.88149964  0.09017105  0.87619818  1
  Zr  Zr50  1  0.40165319  0.77160120  0.50434479  1
  Zr  Zr51  1  0.79760529  0.80284395  0.23330723  1
  Zr  Zr52  1  0.09667212  0.70418803  0.88527847  1
  Zr  Zr53  1  0.09641057  0.09429085  0.36893779  1
  Zr  Zr54  1  0.19603635  0.80843177  0.50469919  1
  Zr  Zr55  1  0.22780991  0.60870941  0.49930063  1
  Zr  Zr56  1  0.11004273  0.90013492  0.89002521  1
  Zr  Zr57  1  0.20166278  0.21030799  0.49859562  1
  Zr  Zr58  1  0.19210646  0.59956282  0.25372056  1
  Zr  Zr59  1  0.09561969  0.50004320  0.11117185  1
  Zr  Zr60  1  0.10290479  0.09291227  0.87404443  1
  Zr  Zr61  1  0.20733949  0.20136566  0.24867864  1
  Zr  Zr62  1  0.80494156  0.00422456  0.23141582  1
  Zr  Zr63  1  0.51375185  0.70126159  0.36360792  1
  Zr  Zr64  1  0.71119690  0.90454866  0.86807105  1
  Zr  Zr65  1  0.00246298  0.41032533  0.25025750  1
  Zr  Zr66  1  0.51139685  0.89298134  0.86294157  1
  Zr  Zr67  1  0.20780595  -0.01261015  0.23701854  1
  Zr  Zr68  1  0.50921657  0.10013851  0.86862911  1
  Zr  Zr69  1  0.30386369  0.90343520  0.62536621  1
  Zr  Zr70  1  0.89483669  0.12744053  0.11607727  1
  Zr  Zr71  1  0.69500798  0.88508590  0.37440725  1
  Zr  Zr72  1  -0.01292545  0.79398926  0.75293689  1
  Zr  Zr73  1  0.89494340  0.08966285  0.63670249  1
  Zr  Zr74  1  0.10633375  0.09914390  0.64052289  1
  Zr  Zr75  1  0.60256687  0.63104926  -0.00405190  1
  Zr  Zr76  1  0.10268826  0.50318851  0.87275871  1
  Zr  Zr77  1  0.59306902  0.39604966  0.24538290  1
  Zr  Zr78  1  0.77871091  0.77956349  0.01335829  1
  Zr  Zr79  1  0.31155111  0.09677054  0.37284508  1
  Ta  Ta80  1  0.48924637  0.10239787  0.12580349  1
  Ta  Ta81  1  0.20577707  0.40364513  0.24312590  1
  Ta  Ta82  1  0.59271033  0.60884443  0.50196990  1
  Ta  Ta83  1  0.69243482  0.71606238  0.64002202  1
  Ta  Ta84  1  0.01034106  0.79758129  0.24136917  1
  Ta  Ta85  1  0.21707269  -0.00163196  0.01050909  1
  Ta  Ta86  1  0.10737629  0.88892282  0.10723732  1
  Ta  Ta87  1  0.87929725  0.68719745  0.87876158  1
  Ta  Ta88  1  0.50012832  0.90301241  0.38511759  1
  Ta  Ta89  1  0.78808954  0.21017765  0.24913678  1
  Ta  Ta90  1  -0.02286429  0.40990843  -0.01947440  1
  Ta  Ta91  1  0.68376369  0.12186730  0.12600097  1
  Ta  Ta92  1  0.09688947  0.89779587  0.37473596  1
  Ta  Ta93  1  -0.01268473  0.20194036  0.76508443  1
  Ta  Ta94  1  0.77925347  0.18918425  0.75363053  1
  Ta  Ta95  1  0.30350399  0.10264263  0.63259472  1
  Ta  Ta96  1  -0.00800006  0.60758934  0.24700916  1
  Ta  Ta97  1  0.60844181  -0.00634168  0.51162937  1
  Ta  Ta98  1  0.49508973  0.31128784  0.63570261  1
  Ta  Ta99  1  0.09867483  0.30232404  0.86640191  1
  Ta  Ta100  1  0.88904294  0.29474628  0.64032870  1
  Ta  Ta101  1  0.19974474  0.00827072  0.49928101  1
  Ta  Ta102  1  0.79916395  0.00443909  0.50352046  1
  Ta  Ta103  1  -0.00260782  -0.00718119  0.75859260  1
  Ta  Ta104  1  0.51181953  0.29371747  0.11099634  1
  Ta  Ta105  1  0.00394996  0.00184884  0.01103710  1
  Ta  Ta106  1  -0.00873146  0.40306471  0.75904555  1
  Ta  Ta107  1  0.20870751  0.19986659  0.76280423  1
  Ta  Ta108  1  0.89563968  0.09861572  0.37251524  1
  Ta  Ta109  1  -0.00600095  0.59840022  0.75126933  1
  Ta  Ta110  1  0.40067279  0.79026597  0.75258588  1
  Ta  Ta111  1  0.89296553  0.70554107  0.61429339  1
  Ta  Ta112  1  0.62348256  0.01143545  0.73379323  1
  Ta  Ta113  1  0.79571293  0.40147534  0.75029840  1
  Ta  Ta114  1  0.10989426  0.30751870  0.37452399  1
  Ta  Ta115  1  0.49129612  0.48807645  0.36910875  1
  Ta  Ta116  1  0.19165557  0.38987281  -0.00720843  1
  Ta  Ta117  1  0.77842994  0.21194085  -0.01243361  1
  Ta  Ta118  1  0.40014720  0.59473921  0.77332613  1
  Ta  Ta119  1  0.40409209  0.00080584  0.74370317  1
  Ti  Ti120  1  0.69458481  0.29889624  0.86798951  1
  Ti  Ti121  1  0.08969808  0.30611912  0.11511407  1
  Ti  Ti122  1  0.41808902  0.20702973  0.24582210  1
  Ti  Ti123  1  0.40490843  0.00195921  0.50828940  1
  Ti  Ti124  1  0.30132474  0.49884037  0.38202760  1
  Ti  Ti125  1  0.41914889  0.77558628  -0.01220706  1
  Ti  Ti126  1  0.79963322  0.60823014  0.74372610  1
  Ti  Ti127  1  0.59618876  0.20387249  0.74156067  1
  Ti  Ti128  1  0.31267021  0.68254857  0.12054519  1
  Ti  Ti129  1  0.30583239  0.08957432  0.86600626  1
  Ti  Ti130  1  0.30410340  0.29882879  0.87625108  1
  Ti  Ti131  1  0.91013111  0.69066029  0.11883797  1
  Ti  Ti132  1  0.40805335  -0.01214961  0.24292199  1
  Ti  Ti133  1  0.20939165  0.40448382  0.76332101  1
  Ti  Ti134  1  0.40358633  0.39895091  0.76054891  1
  Ti  Ti135  1  0.30484484  0.90004082  0.86774968  1
  Ti  Ti136  1  0.50096531  0.09979393  0.62847170  1
  Ti  Ti137  1  0.81482446  0.57615581  0.00842344  1
  Ti  Ti138  1  0.65815306  0.71396981  0.14276453  1
  Ti  Ti139  1  0.68271193  0.51164844  0.63723221  1
  Ti  Ti140  1  0.49233379  0.52323687  0.11640693  1
  Ti  Ti141  1  0.39805726  0.40310011  0.22915321  1
  Ti  Ti142  1  0.68168525  0.29836117  0.37361774  1
  Ti  Ti143  1  0.69480899  0.30582565  0.63489932  1
  Ti  Ti144  1  0.40067596  0.20112313  0.74921338  1
  Ti  Ti145  1  -0.00120047  -0.00685962  0.49970340  1
  Ti  Ti146  1  0.22515487  0.79651011  -0.00748921  1
  Ti  Ti147  1  0.20939685  0.60344146  0.75517662  1
  Ti  Ti148  1  -0.00551005  0.60104680  -0.00662604  1
  Ti  Ti149  1  0.89077872  0.32562957  0.11684493  1
  Ti  Ti150  1  0.61419701  0.39428530  -0.00188877  1
  Ti  Ti151  1  0.79992905  0.19923475  0.50827867  1
  Ti  Ti152  1  0.68417755  0.51806135  0.37043901  1
  Ti  Ti153  1  0.70434576  0.30111980  0.11974518  1
  Ti  Ti154  1  0.20538851  0.78838370  0.25550257  1
  Ti  Ti155  1  0.88937234  0.89446360  0.62601727  1
  Ti  Ti156  1  0.59800776  0.40800208  0.75329165  1
  Ti  Ti157  1  0.78050378  0.80881079  0.50661058  1
  Ti  Ti158  1  0.91047104  0.88528956  0.11024824  1
  Ti  Ti159  1  0.40117311  0.18643476  -0.00066431  1
  Mo  Mo160  1  0.90356870  0.50324732  0.12260483  1
  Mo  Mo161  1  0.59263898  0.59472491  0.24452670  1
  Mo  Mo162  1  0.69627105  0.69233523  0.36953824  1
  Mo  Mo163  1  0.39309290  0.80404173  0.25872710  1
  Mo  Mo164  1  0.42079328  0.58056782  0.48902220  1
  Mo  Mo165  1  0.29998990  0.69598273  0.64745142  1
  Mo  Mo166  1  0.69544513  0.71143950  0.85366733  1
  Mo  Mo167  1  0.68929259  0.10452809  0.87178049  1
  Mo  Mo168  1  -0.00368425  0.79218779  0.00375191  1
  Mo  Mo169  1  -0.01512542  0.81092710  0.50527779  1
  Mo  Mo170  1  0.71239602  0.90577782  0.62596384  1
  Mo  Mo171  1  0.50947030  0.49198121  0.63995883  1
  Mo  Mo172  1  0.51068848  0.69983674  0.86143175  1
  Mo  Mo173  1  0.29916716  0.69611395  0.37286877  1
  Mo  Mo174  1  -0.00474724  0.60358644  0.50997144  1
  Mo  Mo175  1  0.30026559  0.49440622  0.12761564  1
  Mo  Mo176  1  0.59870714  0.20294093  0.24559608  1
  Mo  Mo177  1  0.21176833  0.00331562  0.75397311  1
  Mo  Mo178  1  0.80105048  0.39194001  -0.01027360  1
  Mo  Mo179  1  0.20641138  0.39583330  0.49824323  1
  Mo  Mo180  1  0.60394834  0.80181066  0.74629894  1
  Mo  Mo181  1  0.60399662  0.59950479  0.75980003  1
  Mo  Mo182  1  0.30704231  0.70480772  0.86782703  1
  Mo  Mo183  1  0.60616735  0.79393079  0.50468580  1
  Mo  Mo184  1  0.88614324  0.30252968  0.85823676  1
  Mo  Mo185  1  0.50826297  0.88296831  0.12331624  1
  Mo  Mo186  1  0.70019275  0.10639626  0.62123644  1
  Mo  Mo187  1  0.30427816  0.48794761  0.86728557  1
  Mo  Mo188  1  0.59570409  0.81046139  0.00177028  1
  Mo  Mo189  1  0.89672981  0.50702320  0.86310279  1
  Mo  Mo190  1  0.59658269  0.20424007  -0.00100632  1
  Mo  Mo191  1  0.80823245  -0.00635630  0.74865295  1
  Mo  Mo192  1  0.69834986  0.90044472  0.12415046  1
  Mo  Mo193  1  0.39745552  0.40229695  0.50018825  1
  Mo  Mo194  1  0.58397063  0.80708950  0.25159388  1
  Mo  Mo195  1  0.31375325  0.09169462  0.12461671  1
  Mo  Mo196  1  0.50275189  0.29919247  0.37128115  1
  Mo  Mo197  1  0.40489920  0.60462960  -0.01015486  1
  Mo  Mo198  1  0.80522568  0.79631504  0.74809462  1
  Mo  Mo199  1  0.48175950  0.71106199  0.13314481  1
