# generated using pymatgen
data_HfZrTaTiMo
_symmetry_space_group_name_H-M   'P 1'
_cell_length_a   15.20821623
_cell_length_b   15.20915874
_cell_length_c   16.85771173
_cell_angle_alpha   89.99899352
_cell_angle_beta   90.03412458
_cell_angle_gamma   90.10472495
_symmetry_Int_Tables_number   1
_chemical_formula_structural   HfZrTaTiMo
_chemical_formula_sum   'Hf40 Zr40 Ta40 Ti40 Mo40'
_cell_volume   3899.25189705
_cell_formula_units_Z   40
loop_
 _symmetry_equiv_pos_site_id
 _symmetry_equiv_pos_as_xyz
  1  'x, y, z'
loop_
 _atom_site_type_symbol
 _atom_site_label
 _atom_site_symmetry_multiplicity
 _atom_site_fract_x
 _atom_site_fract_y
 _atom_site_fract_z
 _atom_site_occupancy
  Hf  Hf0  1  0.59849325  0.39147280  0.49783321  1
  Hf  Hf1  1  0.60573557  0.81031515  0.50506746  1
  Hf  Hf2  1  0.30693675  0.10799693  0.37577695  1
  Hf  Hf3  1  0.59191006  0.61012013  0.00725171  1
  Hf  Hf4  1  0.50560568  0.09378195  0.62426113  1
  Hf  Hf5  1  0.59797369  -0.00897588  0.24475939  1
  Hf  Hf6  1  0.59748135  -0.00866128  0.00289399  1
  Hf  Hf7  1  0.10197431  0.50866303  0.10502578  1
  Hf  Hf8  1  0.70925509  0.88715252  0.12131785  1
  Hf  Hf9  1  0.59741899  0.19273020  0.24094065  1
  Hf  Hf10  1  0.81168975  0.19810636  0.24452243  1
  Hf  Hf11  1  0.47674279  0.10623354  0.11830010  1
  Hf  Hf12  1  0.40083284  0.20208381  0.74310704  1
  Hf  Hf13  1  0.01707683  0.80679041  0.76416128  1
  Hf  Hf14  1  0.28134733  0.87880572  0.86749286  1
  Hf  Hf15  1  -0.01276961  0.38680747  -0.00630689  1
  Hf  Hf16  1  0.29492228  0.29816165  0.87487900  1
  Hf  Hf17  1  0.59987479  0.41605592  0.00001214  1
  Hf  Hf18  1  0.29052261  0.08891814  0.62497339  1
  Hf  Hf19  1  0.61296736  0.40917297  0.74689030  1
  Hf  Hf20  1  0.79460764  0.57746105  0.76247340  1
  Hf  Hf21  1  0.01223669  0.20734721  0.48700703  1
  Hf  Hf22  1  0.19841978  -0.00232192  0.48980726  1
  Hf  Hf23  1  0.20229507  0.60965813  0.75944254  1
  Hf  Hf24  1  0.19289527  0.58591428  0.24477644  1
  Hf  Hf25  1  0.50903693  0.89102285  0.63965213  1
  Hf  Hf26  1  0.49475830  0.29101884  0.36510786  1
  Hf  Hf27  1  0.90311187  0.09187868  0.38354051  1
  Hf  Hf28  1  0.28745500  0.50194097  0.61744121  1
  Hf  Hf29  1  0.89031949  0.49951353  0.61736016  1
  Hf  Hf30  1  0.38721326  0.59681550  0.25236388  1
  Hf  Hf31  1  0.10298768  0.50001222  0.89174677  1
  Hf  Hf32  1  0.29999757  0.89952688  0.12880847  1
  Hf  Hf33  1  0.39082799  0.39515538  0.49360672  1
  Hf  Hf34  1  0.89782965  0.88716285  0.63236763  1
  Hf  Hf35  1  0.29927437  0.69903921  0.61605043  1
  Hf  Hf36  1  0.29442981  0.30144742  0.62675898  1
  Hf  Hf37  1  0.78999524  0.00205632  0.73879998  1
  Hf  Hf38  1  0.90917004  0.10856685  0.61305976  1
  Hf  Hf39  1  0.00129656  0.79776112  0.50226257  1
  Zr  Zr40  1  0.90243027  0.09688653  0.88110971  1
  Zr  Zr41  1  0.39704353  0.00252768  0.25570374  1
  Zr  Zr42  1  0.69373463  0.50606807  0.36289829  1
  Zr  Zr43  1  0.40730679  0.79617818  0.00241426  1
  Zr  Zr44  1  0.58938596  0.60251058  0.74124232  1
  Zr  Zr45  1  0.08476374  0.49875769  0.63029757  1
  Zr  Zr46  1  0.11359215  0.71547099  0.89822849  1
  Zr  Zr47  1  0.81605897  0.20993023  0.01000555  1
  Zr  Zr48  1  0.49547661  0.31812140  0.13596954  1
  Zr  Zr49  1  0.60120899  0.20697657  0.00820288  1
  Zr  Zr50  1  0.10638980  0.30697957  0.12948058  1
  Zr  Zr51  1  -0.00249477  -0.01223014  0.25791496  1
  Zr  Zr52  1  0.50619077  0.10259034  0.87683119  1
  Zr  Zr53  1  0.80060280  0.41394491  0.48459772  1
  Zr  Zr54  1  0.50046770  0.30622411  0.87318408  1
  Zr  Zr55  1  0.71130697  0.31063439  0.13517884  1
  Zr  Zr56  1  0.19652779  0.78775064  0.24997672  1
  Zr  Zr57  1  0.50733093  0.70428935  0.37595954  1
  Zr  Zr58  1  0.70077538  0.89847415  0.86883116  1
  Zr  Zr59  1  0.90679202  0.69060202  0.63807460  1
  Zr  Zr60  1  0.09289512  0.89750816  0.12044779  1
  Zr  Zr61  1  0.79430154  -0.01407058  0.50677948  1
  Zr  Zr62  1  -0.00457454  0.62127472  0.24296481  1
  Zr  Zr63  1  0.30288814  0.88873520  0.63261619  1
  Zr  Zr64  1  0.29074402  0.09642510  0.86831663  1
  Zr  Zr65  1  0.81118789  0.20688605  0.74407440  1
  Zr  Zr66  1  0.59230229  0.61302838  0.24164818  1
  Zr  Zr67  1  0.39864151  0.41466277  0.75108775  1
  Zr  Zr68  1  0.39926895  0.59889388  0.48690000  1
  Zr  Zr69  1  0.80200649  -0.00843486  0.25040695  1
  Zr  Zr70  1  0.71402146  0.30639903  0.87140349  1
  Zr  Zr71  1  0.40560878  -0.01387337  0.76248536  1
  Zr  Zr72  1  0.01096766  0.20256546  0.25269938  1
  Zr  Zr73  1  0.78957173  0.20937375  0.49837041  1
  Zr  Zr74  1  0.89612889  0.50025125  0.12289063  1
  Zr  Zr75  1  0.38957844  -0.00098680  -0.00741438  1
  Zr  Zr76  1  0.00971266  0.01344986  0.74468040  1
  Zr  Zr77  1  0.18085886  0.39518367  0.75879418  1
  Zr  Zr78  1  0.61824668  0.60295264  0.51231498  1
  Zr  Zr79  1  0.69331247  0.10082126  0.37751822  1
  Ta  Ta80  1  0.08659557  0.70715458  0.09918238  1
  Ta  Ta81  1  0.20195686  0.20857522  0.49945168  1
  Ta  Ta82  1  0.80783997  0.78634539  -0.00965830  1
  Ta  Ta83  1  0.19912572  0.79659853  0.49157331  1
  Ta  Ta84  1  0.10495843  0.70160170  0.62646277  1
  Ta  Ta85  1  0.49557284  0.70807781  0.87013723  1
  Ta  Ta86  1  0.21091449  0.19257528  0.01090038  1
  Ta  Ta87  1  0.79723644  0.41224702  -0.00276260  1
  Ta  Ta88  1  0.69277173  0.69970714  0.86533574  1
  Ta  Ta89  1  0.11124046  0.90184264  0.62571397  1
  Ta  Ta90  1  0.49527282  0.49823022  0.61931128  1
  Ta  Ta91  1  -0.02472664  0.61183018  -0.01275883  1
  Ta  Ta92  1  0.37908192  0.39671908  0.25203057  1
  Ta  Ta93  1  0.70603705  0.09142082  0.11726904  1
  Ta  Ta94  1  0.10140711  0.09815713  0.88390630  1
  Ta  Ta95  1  0.80231092  0.60578876  0.24669830  1
  Ta  Ta96  1  0.81745574  0.79346671  0.25096233  1
  Ta  Ta97  1  0.91248622  0.31379412  0.61801209  1
  Ta  Ta98  1  0.00593276  0.21397186  0.74950947  1
  Ta  Ta99  1  0.01312712  0.41392888  0.26270243  1
  Ta  Ta100  1  0.40975188  0.79631917  0.25145256  1
  Ta  Ta101  1  0.70107517  0.10091799  0.87982582  1
  Ta  Ta102  1  0.61259308  0.19397721  0.74135581  1
  Ta  Ta103  1  0.00138509  0.59644395  0.77216258  1
  Ta  Ta104  1  0.40634566  0.19677448  0.50640916  1
  Ta  Ta105  1  0.90715770  0.30973243  0.37046133  1
  Ta  Ta106  1  0.79580362  0.78773324  0.50185274  1
  Ta  Ta107  1  0.40671300  -0.00980868  0.49505977  1
  Ta  Ta108  1  0.90980420  0.08745296  0.11938040  1
  Ta  Ta109  1  0.50328366  0.09888609  0.38597458  1
  Ta  Ta110  1  0.10993113  0.09465332  0.12927494  1
  Ta  Ta111  1  0.09414003  0.89026790  0.37214473  1
  Ta  Ta112  1  0.50691895  0.29964493  0.62433139  1
  Ta  Ta113  1  0.70710012  0.71720472  0.64410205  1
  Ta  Ta114  1  0.71028435  0.31437795  0.62695185  1
  Ta  Ta115  1  0.69075916  0.50184790  0.13725975  1
  Ta  Ta116  1  0.01137484  0.19215949  0.01116668  1
  Ta  Ta117  1  0.81210413  0.40653059  0.25798036  1
  Ta  Ta118  1  0.18405713  0.18485520  0.74232067  1
  Ta  Ta119  1  0.01684327  0.40897875  0.48159836  1
  Ti  Ti120  1  0.28861315  0.29986034  0.37445986  1
  Ti  Ti121  1  -0.02318209  0.40165883  0.76836087  1
  Ti  Ti122  1  0.22234900  0.20797874  0.23903417  1
  Ti  Ti123  1  0.60427283  0.79849460  -0.00531457  1
  Ti  Ti124  1  0.50555799  0.88856429  0.13021723  1
  Ti  Ti125  1  0.50701302  0.89977520  0.37346841  1
  Ti  Ti126  1  0.90666838  0.88115481  0.11634572  1
  Ti  Ti127  1  0.70854190  0.70042460  0.12608633  1
  Ti  Ti128  1  0.39573207  0.60185893  0.74999330  1
  Ti  Ti129  1  0.09658476  0.29870645  0.62222595  1
  Ti  Ti130  1  0.78531057  0.59691719  -0.00944553  1
  Ti  Ti131  1  0.60396074  0.00372951  0.50565623  1
  Ti  Ti132  1  0.09750957  0.28673226  0.88175789  1
  Ti  Ti133  1  0.40277440  0.40171072  0.00357482  1
  Ti  Ti134  1  0.19982957  0.00072236  0.25548116  1
  Ti  Ti135  1  0.29232486  0.69809646  0.37849758  1
  Ti  Ti136  1  0.27448055  0.48925316  0.37847427  1
  Ti  Ti137  1  0.29081878  0.68980475  0.11065741  1
  Ti  Ti138  1  0.30171790  0.89254408  0.37099072  1
  Ti  Ti139  1  0.70805399  0.70382231  0.37001321  1
  Ti  Ti140  1  0.20793174  0.39078935  0.00097727  1
  Ti  Ti141  1  0.30578916  0.50439837  0.89183896  1
  Ti  Ti142  1  0.49040094  0.69995296  0.12708009  1
  Ti  Ti143  1  0.17760163  0.59152225  0.49449707  1
  Ti  Ti144  1  0.19123647  -0.00424877  0.00178809  1
  Ti  Ti145  1  0.90668713  0.52087612  0.37981279  1
  Ti  Ti146  1  0.90047449  0.70900634  0.38032746  1
  Ti  Ti147  1  0.30554877  0.68767301  0.89078724  1
  Ti  Ti148  1  0.70430019  0.88978907  0.36916602  1
  Ti  Ti149  1  0.09377429  0.69202074  0.37895087  1
  Ti  Ti150  1  0.30564493  0.49092410  0.11708363  1
  Ti  Ti151  1  0.49549989  0.49242189  0.36637360  1
  Ti  Ti152  1  0.49383371  0.70244154  0.62761447  1
  Ti  Ti153  1  0.89231826  0.70690133  0.86326246  1
  Ti  Ti154  1  0.39996354  0.80374628  0.49196376  1
  Ti  Ti155  1  0.49784589  0.51417675  0.87768419  1
  Ti  Ti156  1  0.11184295  0.10605757  0.36825885  1
  Ti  Ti157  1  0.00696368  -0.00551439  0.49866488  1
  Ti  Ti158  1  0.81043476  -0.01135867  -0.00147223  1
  Ti  Ti159  1  0.69636390  0.30186476  0.36059779  1
  Mo  Mo160  1  0.30740349  0.29638649  0.11796260  1
  Mo  Mo161  1  0.20588824  0.59525522  0.00567921  1
  Mo  Mo162  1  0.90987792  0.29843296  0.87601776  1
  Mo  Mo163  1  0.59556727  0.40552361  0.25554419  1
  Mo  Mo164  1  0.69092281  0.50608937  0.88242671  1
  Mo  Mo165  1  0.10214392  0.10566737  0.61302571  1
  Mo  Mo166  1  0.39505004  0.77491749  0.75618854  1
  Mo  Mo167  1  0.80473211  0.61474040  0.49755971  1
  Mo  Mo168  1  0.20527588  0.80342764  0.01081433  1
  Mo  Mo169  1  0.69895166  0.90012773  0.63255019  1
  Mo  Mo170  1  0.39569557  0.20147079  0.25423566  1
  Mo  Mo171  1  0.60894934  0.80422400  0.25026869  1
  Mo  Mo172  1  0.09783109  0.50507360  0.37357242  1
  Mo  Mo173  1  -0.01090640  0.80991982  -0.01675751  1
  Mo  Mo174  1  0.40381136  0.59009527  0.00564674  1
  Mo  Mo175  1  0.11545713  0.30531783  0.36528721  1
  Mo  Mo176  1  0.69841763  0.50506623  0.61906955  1
  Mo  Mo177  1  0.90636118  0.30377310  0.13778427  1
  Mo  Mo178  1  0.89094759  0.70466715  0.11395520  1
  Mo  Mo179  1  0.09512662  0.91538611  0.88659451  1
  Mo  Mo180  1  -0.00266750  0.79655165  0.25317872  1
  Mo  Mo181  1  0.80363465  0.79583759  0.75959252  1
  Mo  Mo182  1  0.50355268  0.88946990  0.86373705  1
  Mo  Mo183  1  0.20325055  0.40124769  0.24409872  1
  Mo  Mo184  1  0.38904407  0.21327521  0.00141643  1
  Mo  Mo185  1  0.69445836  0.10763407  0.61938164  1
  Mo  Mo186  1  0.19344738  0.39363403  0.50006805  1
  Mo  Mo187  1  0.60543761  0.00931478  0.75354481  1
  Mo  Mo188  1  0.80559627  0.39892854  0.74621890  1
  Mo  Mo189  1  0.28868339  0.09743789  0.12805792  1
  Mo  Mo190  1  0.19834966  0.79501322  0.74775928  1
  Mo  Mo191  1  0.18597474  -0.00739686  0.74916912  1
  Mo  Mo192  1  -0.00199248  0.00290302  0.00385421  1
  Mo  Mo193  1  0.89690826  0.88819664  0.38433179  1
  Mo  Mo194  1  0.59671904  0.80412770  0.75276391  1
  Mo  Mo195  1  0.59766493  0.20157194  0.50835168  1
  Mo  Mo196  1  -0.00376142  0.60430654  0.49616310  1
  Mo  Mo197  1  0.89242309  0.50077006  0.88390463  1
  Mo  Mo198  1  0.90112794  0.89812794  0.87511526  1
  Mo  Mo199  1  0.49052238  0.50681169  0.13034908  1
