# generated using pymatgen
data_HfZrTaTiMo
_symmetry_space_group_name_H-M   'P 1'
_cell_length_a   15.21402147
_cell_length_b   15.21105714
_cell_length_c   16.87411094
_cell_angle_alpha   90.02498951
_cell_angle_beta   89.99634521
_cell_angle_gamma   89.94919488
_symmetry_Int_Tables_number   1
_chemical_formula_structural   HfZrTaTiMo
_chemical_formula_sum   'Hf40 Zr40 Ta40 Ti40 Mo40'
_cell_volume   3905.02761812
_cell_formula_units_Z   40
loop_
 _symmetry_equiv_pos_site_id
 _symmetry_equiv_pos_as_xyz
  1  'x, y, z'
loop_
 _atom_site_type_symbol
 _atom_site_label
 _atom_site_symmetry_multiplicity
 _atom_site_fract_x
 _atom_site_fract_y
 _atom_site_fract_z
 _atom_site_occupancy
  Hf  Hf0  1  0.70783048  0.30754318  0.62569885  1
  Hf  Hf1  1  0.30165008  0.50910553  0.63958734  1
  Hf  Hf2  1  0.51171085  0.09809638  0.14504670  1
  Hf  Hf3  1  0.28708556  0.50312335  0.37742120  1
  Hf  Hf4  1  0.40737303  0.20281123  -0.00357317  1
  Hf  Hf5  1  -0.00595770  0.60174829  0.74017965  1
  Hf  Hf6  1  0.39930739  0.00146967  0.00967201  1
  Hf  Hf7  1  0.87847096  0.49443904  0.62324940  1
  Hf  Hf8  1  0.39617397  0.80308461  0.25468890  1
  Hf  Hf9  1  0.39989787  0.59892710  0.50225933  1
  Hf  Hf10  1  0.00882928  0.79726749  0.75248681  1
  Hf  Hf11  1  0.19214239  0.40648735  -0.00941577  1
  Hf  Hf12  1  0.10677140  0.09690985  0.63203744  1
  Hf  Hf13  1  0.30193580  0.28780914  0.62896489  1
  Hf  Hf14  1  -0.00472809  0.18726658  0.50012442  1
  Hf  Hf15  1  0.71073223  0.31973570  0.87774806  1
  Hf  Hf16  1  0.77487432  0.58219097  0.75265739  1
  Hf  Hf17  1  0.69109720  0.29165940  0.13062080  1
  Hf  Hf18  1  0.68385957  0.29232816  0.36408050  1
  Hf  Hf19  1  0.48608639  0.29564643  0.13391122  1
  Hf  Hf20  1  0.69911083  0.71452035  0.62345727  1
  Hf  Hf21  1  0.88830664  0.29193531  0.36805886  1
  Hf  Hf22  1  0.08769384  0.29789491  0.12534228  1
  Hf  Hf23  1  0.19502901  0.40140173  0.50392041  1
  Hf  Hf24  1  0.51123463  0.10734534  0.35186872  1
  Hf  Hf25  1  0.10335177  0.89814108  0.62695266  1
  Hf  Hf26  1  0.59944890  0.82173628  0.75830886  1
  Hf  Hf27  1  0.00461917  0.59820041  0.50750639  1
  Hf  Hf28  1  0.90964719  0.68673312  0.89033286  1
  Hf  Hf29  1  0.20596040  -0.00610905  -0.00776878  1
  Hf  Hf30  1  0.62238665  0.80414127  0.47629057  1
  Hf  Hf31  1  -0.00067585  0.00390454  -0.01205443  1
  Hf  Hf32  1  0.40847111  0.39907836  0.74683122  1
  Hf  Hf33  1  0.78831800  0.40288805  0.49101596  1
  Hf  Hf34  1  0.28249544  0.90579862  0.37619039  1
  Hf  Hf35  1  0.88532869  0.89806019  0.63016368  1
  Hf  Hf36  1  0.79544110  0.61610704  0.48934506  1
  Hf  Hf37  1  0.10729739  0.10294843  0.12490580  1
  Hf  Hf38  1  0.68714248  0.09863781  0.62328243  1
  Hf  Hf39  1  0.39993933  0.39509408  0.50136466  1
  Zr  Zr40  1  0.09806167  0.89743317  0.11939315  1
  Zr  Zr41  1  0.62410336  0.80130191  0.26045065  1
  Zr  Zr42  1  0.51220889  0.29068857  0.62507442  1
  Zr  Zr43  1  0.89841351  0.09466795  0.64192071  1
  Zr  Zr44  1  -0.00553784  0.80540852  0.49945559  1
  Zr  Zr45  1  0.09478800  0.09647949  0.85573566  1
  Zr  Zr46  1  0.69781141  0.70553407  0.89444042  1
  Zr  Zr47  1  0.57980062  0.61442749  0.76030211  1
  Zr  Zr48  1  0.29004717  0.50075797  0.12760118  1
  Zr  Zr49  1  0.82437052  0.21208556  0.00212916  1
  Zr  Zr50  1  0.40262365  0.00102765  0.49586401  1
  Zr  Zr51  1  0.10106570  0.69902072  0.37112026  1
  Zr  Zr52  1  0.71168975  0.91378521  0.11408531  1
  Zr  Zr53  1  0.50820341  0.68962160  0.36674585  1
  Zr  Zr54  1  0.16638555  0.41129074  0.25773038  1
  Zr  Zr55  1  0.28425037  0.28996010  0.12308136  1
  Zr  Zr56  1  0.21410276  -0.01299974  0.75140149  1
  Zr  Zr57  1  0.08248489  0.49991212  0.87318323  1
  Zr  Zr58  1  0.80011758  0.79014125  0.76451210  1
  Zr  Zr59  1  0.79385744  0.61382610  0.24184275  1
  Zr  Zr60  1  0.09195004  0.30248960  0.38341532  1
  Zr  Zr61  1  0.50692864  0.68949110  0.13261966  1
  Zr  Zr62  1  0.29870389  0.70229253  0.37420387  1
  Zr  Zr63  1  0.61963845  0.01252746  0.47743956  1
  Zr  Zr64  1  0.30713927  0.30944731  0.86817798  1
  Zr  Zr65  1  0.38493876  0.60911852  -0.00042636  1
  Zr  Zr66  1  0.00034842  0.18129477  0.26147776  1
  Zr  Zr67  1  0.59566856  0.59513865  -0.00618740  1
  Zr  Zr68  1  0.50855341  0.89831155  0.12883609  1
  Zr  Zr69  1  0.52005060  0.90910455  0.61388779  1
  Zr  Zr70  1  0.49232533  0.70557984  0.61825775  1
  Zr  Zr71  1  0.69127907  0.11702419  0.88938382  1
  Zr  Zr72  1  0.77907361  -0.00789757  0.76208343  1
  Zr  Zr73  1  0.48878818  0.49674941  0.87253382  1
  Zr  Zr74  1  0.87904292  0.48238326  0.87655585  1
  Zr  Zr75  1  0.19633013  0.19481559  -0.01484814  1
  Zr  Zr76  1  0.90914919  0.49721580  0.37346749  1
  Zr  Zr77  1  0.58450489  0.40969571  0.24661321  1
  Zr  Zr78  1  0.37512806  0.38802620  0.26262215  1
  Zr  Zr79  1  0.00061628  0.59257341  0.24533993  1
  Ta  Ta80  1  0.41069099  0.19432138  0.49541805  1
  Ta  Ta81  1  -0.02066192  0.38273090  -0.00008028  1
  Ta  Ta82  1  0.49946540  0.49571454  0.37783315  1
  Ta  Ta83  1  0.78768746  0.41098513  0.02393592  1
  Ta  Ta84  1  0.91257156  0.70507362  0.11225380  1
  Ta  Ta85  1  0.58611755  0.01607922  0.75649550  1
  Ta  Ta86  1  0.10489499  0.69880687  0.12655142  1
  Ta  Ta87  1  0.29530938  0.70951295  0.13275156  1
  Ta  Ta88  1  0.80949924  0.00660000  -0.01024497  1
  Ta  Ta89  1  -0.00517366  0.39529705  0.51590328  1
  Ta  Ta90  1  0.09993561  0.49865350  0.63121137  1
  Ta  Ta91  1  0.29807724  0.90336694  0.13471960  1
  Ta  Ta92  1  0.61781432  0.41548354  0.75082646  1
  Ta  Ta93  1  0.60563403  0.59054629  0.49759317  1
  Ta  Ta94  1  0.79238030  0.18096664  0.24624601  1
  Ta  Ta95  1  0.41537562  0.18020473  0.75260615  1
  Ta  Ta96  1  0.08711196  0.29784431  0.86469291  1
  Ta  Ta97  1  0.90000371  0.10602369  0.85443216  1
  Ta  Ta98  1  0.10001899  0.06683822  0.38766977  1
  Ta  Ta99  1  0.20968704  0.18628257  0.49366952  1
  Ta  Ta100  1  0.20716179  0.19737200  0.27047439  1
  Ta  Ta101  1  -0.00473062  0.39530365  0.73636788  1
  Ta  Ta102  1  0.40903238  -0.01077139  0.74865994  1
  Ta  Ta103  1  0.80032505  0.40425581  0.23792826  1
  Ta  Ta104  1  0.58867073  0.39549586  0.00841456  1
  Ta  Ta105  1  0.11507547  0.69319140  0.87405293  1
  Ta  Ta106  1  0.78923897  0.18915749  0.49493109  1
  Ta  Ta107  1  0.00521605  0.81153920  0.24949172  1
  Ta  Ta108  1  0.01756270  0.79287620  -0.00765615  1
  Ta  Ta109  1  0.81889055  0.81352317  0.23606115  1
  Ta  Ta110  1  0.68944963  0.90794866  0.90128368  1
  Ta  Ta111  1  0.18700218  0.60778404  0.00296906  1
  Ta  Ta112  1  0.21077719  0.20220664  0.75418849  1
  Ta  Ta113  1  0.89745147  0.28885943  0.63105031  1
  Ta  Ta114  1  0.10111118  0.29347894  0.62815650  1
  Ta  Ta115  1  0.31469957  0.88439978  0.87690075  1
  Ta  Ta116  1  0.90372816  0.08660684  0.12439276  1
  Ta  Ta117  1  0.68232183  0.51196896  0.13073341  1
  Ta  Ta118  1  0.50124485  0.90710880  0.89097126  1
  Ta  Ta119  1  0.28426716  0.52496441  0.85671713  1
  Ti  Ti120  1  0.29281664  0.70467022  0.62432355  1
  Ti  Ti121  1  0.88849039  0.72563909  0.37079603  1
  Ti  Ti122  1  0.40190381  0.79811049  0.74845510  1
  Ti  Ti123  1  0.30746492  0.10006027  0.14471775  1
  Ti  Ti124  1  0.19318923  0.40117131  0.74985512  1
  Ti  Ti125  1  0.90556184  0.89995075  0.87205499  1
  Ti  Ti126  1  0.40620754  0.58591951  0.24548105  1
  Ti  Ti127  1  0.69249016  0.50884479  0.36067744  1
  Ti  Ti128  1  0.90446069  0.28956426  0.85204871  1
  Ti  Ti129  1  0.21098706  0.78487667  0.74890085  1
  Ti  Ti130  1  0.81892255  -0.00742839  0.48742118  1
  Ti  Ti131  1  0.31007082  0.09250430  0.62528268  1
  Ti  Ti132  1  0.80385786  0.59524853  0.01430032  1
  Ti  Ti133  1  0.70338352  0.10259714  0.11048553  1
  Ti  Ti134  1  0.51039332  0.50221053  0.62729275  1
  Ti  Ti135  1  0.07494551  0.49919169  0.11212970  1
  Ti  Ti136  1  0.50457391  0.09941124  0.88462046  1
  Ti  Ti137  1  0.31156502  0.09168519  0.86845862  1
  Ti  Ti138  1  0.64510249  0.00772289  0.26294656  1
  Ti  Ti139  1  0.20141276  0.60650811  0.24673946  1
  Ti  Ti140  1  0.59546745  0.39772654  0.49373580  1
  Ti  Ti141  1  0.19498128  0.60405844  0.50856569  1
  Ti  Ti142  1  0.30688033  0.09892543  0.37119094  1
  Ti  Ti143  1  0.60732794  0.20623960  0.75387717  1
  Ti  Ti144  1  0.40472907  0.80316510  0.48999575  1
  Ti  Ti145  1  0.19866100  0.80181426  0.50612923  1
  Ti  Ti146  1  0.30829919  0.89483527  0.61800596  1
  Ti  Ti147  1  0.83294379  -0.00322177  0.25879574  1
  Ti  Ti148  1  0.48901464  0.29414313  0.37048418  1
  Ti  Ti149  1  0.47925109  0.72199052  0.88624393  1
  Ti  Ti150  1  0.89975189  0.29549598  0.13922135  1
  Ti  Ti151  1  0.18980409  -0.00515566  0.25220204  1
  Ti  Ti152  1  0.39566093  0.40753104  -0.00062420  1
  Ti  Ti153  1  0.89717534  0.70325950  0.62201597  1
  Ti  Ti154  1  0.21710662  0.79462094  -0.00275041  1
  Ti  Ti155  1  0.11072141  0.88943797  0.87079689  1
  Ti  Ti156  1  0.49946149  0.91009640  0.36126170  1
  Ti  Ti157  1  0.81552994  0.80913439  0.00295278  1
  Ti  Ti158  1  0.51234138  0.29472274  0.87467502  1
  Ti  Ti159  1  0.70135767  0.71310712  0.11157012  1
  Mo  Mo160  1  0.68408956  0.50336119  0.61605184  1
  Mo  Mo161  1  0.48892949  0.49356255  0.12032872  1
  Mo  Mo162  1  0.59457587  0.80487229  0.00165129  1
  Mo  Mo163  1  0.73937795  0.89655340  0.36686551  1
  Mo  Mo164  1  0.39456809  0.80547068  0.01067610  1
  Mo  Mo165  1  0.79504121  0.20216605  0.75161301  1
  Mo  Mo166  1  0.38927330  0.61779372  0.75054689  1
  Mo  Mo167  1  0.20488790  -0.00175885  0.51100301  1
  Mo  Mo168  1  0.09523209  0.50256688  0.38592747  1
  Mo  Mo169  1  -0.00240151  0.20195102  -0.00501098  1
  Mo  Mo170  1  -0.01341411  0.39701652  0.24359099  1
  Mo  Mo171  1  0.79898974  0.39482181  0.74469067  1
  Mo  Mo172  1  0.69307428  0.49666839  0.88902412  1
  Mo  Mo173  1  0.39162131  0.19618207  0.25741268  1
  Mo  Mo174  1  0.29726025  0.70675512  0.87238094  1
  Mo  Mo175  1  -0.00243315  -0.01247794  0.76419315  1
  Mo  Mo176  1  0.92674331  0.90937089  0.37370880  1
  Mo  Mo177  1  0.10560227  0.89265632  0.37807043  1
  Mo  Mo178  1  0.89349398  0.49512592  0.12309802  1
  Mo  Mo179  1  0.90308528  0.09562082  0.38108121  1
  Mo  Mo180  1  0.60002790  0.20794885  0.49374747  1
  Mo  Mo181  1  0.29730675  0.28808077  0.38914306  1
  Mo  Mo182  1  0.10837282  0.69769726  0.62541861  1
  Mo  Mo183  1  0.19640463  0.79895781  0.24413673  1
  Mo  Mo184  1  0.72088725  0.10281656  0.37243196  1
  Mo  Mo185  1  0.19032312  0.60779102  0.74108814  1
  Mo  Mo186  1  0.00419984  -0.00575947  0.24688467  1
  Mo  Mo187  1  0.00599672  0.20200724  0.74028159  1
  Mo  Mo188  1  0.49616270  0.10446726  0.62505546  1
  Mo  Mo189  1  0.90619347  0.89987213  0.11270577  1
  Mo  Mo190  1  0.59775761  0.59982022  0.24820501  1
  Mo  Mo191  1  -0.00153164  0.59547702  0.00633250  1
  Mo  Mo192  1  0.59730786  0.20796539  0.00110497  1
  Mo  Mo193  1  0.70007273  0.90595068  0.62384875  1
  Mo  Mo194  1  0.59805402  0.01221860  0.00481380  1
  Mo  Mo195  1  0.60614943  0.19666064  0.24490974  1
  Mo  Mo196  1  0.71334734  0.69700950  0.36752358  1
  Mo  Mo197  1  0.00567721  -0.00105961  0.50669751  1
  Mo  Mo198  1  0.38480355  -0.00046771  0.25216824  1
  Mo  Mo199  1  0.80099108  0.80941985  0.49640728  1
