# generated using pymatgen
data_HfZrTaTiMo
_symmetry_space_group_name_H-M   'P 1'
_cell_length_a   15.18052386
_cell_length_b   15.20164424
_cell_length_c   16.80603240
_cell_angle_alpha   89.96998549
_cell_angle_beta   90.01683671
_cell_angle_gamma   89.90964982
_symmetry_Int_Tables_number   1
_chemical_formula_structural   HfZrTaTiMo
_chemical_formula_sum   'Hf40 Zr40 Ta40 Ti40 Mo40'
_cell_volume   3878.30447437
_cell_formula_units_Z   40
loop_
 _symmetry_equiv_pos_site_id
 _symmetry_equiv_pos_as_xyz
  1  'x, y, z'
loop_
 _atom_site_type_symbol
 _atom_site_label
 _atom_site_symmetry_multiplicity
 _atom_site_fract_x
 _atom_site_fract_y
 _atom_site_fract_z
 _atom_site_occupancy
  Hf  Hf0  1  0.49966522  0.29600584  0.14278207  1
  Hf  Hf1  1  0.09629670  0.69934034  0.12370645  1
  Hf  Hf2  1  0.19887228  -0.00482830  0.49231514  1
  Hf  Hf3  1  0.39719338  0.39882692  0.01504799  1
  Hf  Hf4  1  0.79780513  0.21285882  0.00353839  1
  Hf  Hf5  1  0.80328221  0.00539378  -0.00556371  1
  Hf  Hf6  1  0.39306182  0.00514864  0.00007226  1
  Hf  Hf7  1  0.01236783  0.79328669  0.48636288  1
  Hf  Hf8  1  0.60012208  0.19154417  0.00374309  1
  Hf  Hf9  1  0.59607019  0.19561416  0.73689162  1
  Hf  Hf10  1  0.51332918  0.88267759  0.39427651  1
  Hf  Hf11  1  0.29072457  0.30007468  0.86794383  1
  Hf  Hf12  1  0.89842139  0.90428107  0.12798667  1
  Hf  Hf13  1  0.10594122  0.09721962  0.12633837  1
  Hf  Hf14  1  0.49805192  0.29864934  0.87162938  1
  Hf  Hf15  1  0.90551026  0.10769897  0.62752627  1
  Hf  Hf16  1  0.70934325  0.30794193  0.36408520  1
  Hf  Hf17  1  0.10425499  0.89689953  0.36378957  1
  Hf  Hf18  1  0.72549691  0.49818577  0.89712358  1
  Hf  Hf19  1  0.39553020  0.20021378  0.00339712  1
  Hf  Hf20  1  0.51229940  0.08504086  0.39155692  1
  Hf  Hf21  1  0.00103940  0.39069572  0.02374531  1
  Hf  Hf22  1  0.60335943  0.18999314  0.26358096  1
  Hf  Hf23  1  0.50791197  0.51360112  0.13013081  1
  Hf  Hf24  1  0.29094387  0.10531472  0.60926246  1
  Hf  Hf25  1  -0.01091028  0.58756786  0.00828270  1
  Hf  Hf26  1  0.90689677  0.09892981  0.87244554  1
  Hf  Hf27  1  0.40970101  0.40553375  0.74201326  1
  Hf  Hf28  1  0.91132947  0.90387959  0.61981155  1
  Hf  Hf29  1  0.89030751  0.69393017  0.88671809  1
  Hf  Hf30  1  0.10561144  0.89897928  0.14211180  1
  Hf  Hf31  1  0.70186753  0.91555556  0.39467198  1
  Hf  Hf32  1  0.09619179  0.28806367  0.61901510  1
  Hf  Hf33  1  0.09847300  0.48644471  0.87921825  1
  Hf  Hf34  1  0.20636494  0.39818685  0.01280337  1
  Hf  Hf35  1  0.48410875  0.70289433  0.11503029  1
  Hf  Hf36  1  0.79326890  0.80195725  0.00664247  1
  Hf  Hf37  1  0.88970555  0.48987909  0.36067633  1
  Hf  Hf38  1  0.68622556  0.69887938  0.87836562  1
  Hf  Hf39  1  0.90326384  0.28681666  0.36040254  1
  Zr  Zr40  1  0.50398090  0.90270236  0.12014968  1
  Zr  Zr41  1  0.19087711  0.59453713  0.74999798  1
  Zr  Zr42  1  0.69884087  0.90410867  0.86239691  1
  Zr  Zr43  1  0.40110591  0.00598785  0.72965473  1
  Zr  Zr44  1  0.88496599  0.69641654  0.37429673  1
  Zr  Zr45  1  0.80039551  0.59389979  0.74733385  1
  Zr  Zr46  1  -0.00474199  0.79138807  0.26089072  1
  Zr  Zr47  1  0.91110800  0.69652393  0.61207682  1
  Zr  Zr48  1  0.11056762  0.08791448  0.87735584  1
  Zr  Zr49  1  0.50465255  0.52509292  0.37187315  1
  Zr  Zr50  1  0.70948139  0.30075726  0.62174449  1
  Zr  Zr51  1  0.89732892  0.49067855  0.60999961  1
  Zr  Zr52  1  0.49660833  0.90204110  0.86451583  1
  Zr  Zr53  1  0.69711156  0.70310384  0.62002932  1
  Zr  Zr54  1  0.29657831  0.30934856  0.61217071  1
  Zr  Zr55  1  0.41537544  -0.00365322  0.25342654  1
  Zr  Zr56  1  0.59741876  0.58658552  0.74400775  1
  Zr  Zr57  1  0.29244941  0.70804102  0.86062408  1
  Zr  Zr58  1  0.00181224  0.19462249  0.00861641  1
  Zr  Zr59  1  0.27330867  0.70759757  0.63306875  1
  Zr  Zr60  1  0.30076003  0.50393678  0.38037222  1
  Zr  Zr61  1  0.49287827  0.70052943  0.87037492  1
  Zr  Zr62  1  0.09615344  0.49410651  0.61822070  1
  Zr  Zr63  1  0.08722115  0.71589782  0.88107910  1
  Zr  Zr64  1  0.21331107  0.01543908  0.26295255  1
  Zr  Zr65  1  0.38885548  0.19794716  0.27121790  1
  Zr  Zr66  1  0.81083905  0.80437370  0.74984111  1
  Zr  Zr67  1  0.01890543  0.40069182  0.24165081  1
  Zr  Zr68  1  0.19152760  0.81514858  0.00028653  1
  Zr  Zr69  1  0.01001260  0.19906143  0.24255940  1
  Zr  Zr70  1  0.77314921  0.81011152  0.24721497  1
  Zr  Zr71  1  0.69714058  0.30198317  0.86639486  1
  Zr  Zr72  1  0.51319789  0.49868029  0.88347459  1
  Zr  Zr73  1  -0.00662495  0.59660548  0.75383220  1
  Zr  Zr74  1  0.39642140  0.20119953  0.73765841  1
  Zr  Zr75  1  0.32093221  0.88947086  0.37717659  1
  Zr  Zr76  1  0.61108660  0.39109123  0.01488164  1
  Zr  Zr77  1  0.38361076  0.80694367  -0.00665279  1
  Zr  Zr78  1  0.67160286  0.70396905  0.38742469  1
  Zr  Zr79  1  0.88393609  0.68610319  0.13485816  1
  Ta  Ta80  1  0.50560720  0.09875802  0.13047489  1
  Ta  Ta81  1  0.19610379  0.20367802  0.47861035  1
  Ta  Ta82  1  0.80792294  0.20373888  0.75313733  1
  Ta  Ta83  1  0.08850750  0.10334277  0.37538024  1
  Ta  Ta84  1  0.89493615  0.90870063  0.37826369  1
  Ta  Ta85  1  0.30604912  0.49906344  0.87146865  1
  Ta  Ta86  1  0.49697225  0.49603336  0.61194938  1
  Ta  Ta87  1  0.69422749  0.49220258  0.61562490  1
  Ta  Ta88  1  -0.00818122  0.00202394  0.25773569  1
  Ta  Ta89  1  0.76766203  0.58969557  0.25663032  1
  Ta  Ta90  1  0.38786048  0.59448093  -0.00086102  1
  Ta  Ta91  1  0.40121279  0.20563344  0.48667509  1
  Ta  Ta92  1  0.00096016  0.20013570  0.75256058  1
  Ta  Ta93  1  0.50658421  0.30483552  0.60516237  1
  Ta  Ta94  1  0.61312847  0.42109628  0.25212912  1
  Ta  Ta95  1  0.49834977  0.31714541  0.37594669  1
  Ta  Ta96  1  0.71557754  0.50450539  0.11501580  1
  Ta  Ta97  1  0.80401633  0.40213435  0.74896351  1
  Ta  Ta98  1  0.09630599  0.29291936  0.87328008  1
  Ta  Ta99  1  0.60333816  0.00055247  -0.00085788  1
  Ta  Ta100  1  0.70468761  0.90684429  0.62220937  1
  Ta  Ta101  1  0.89454881  0.09857708  0.13209758  1
  Ta  Ta102  1  0.11317798  0.88571473  0.62513291  1
  Ta  Ta103  1  0.20700449  0.79028361  0.48812852  1
  Ta  Ta104  1  0.61941278  -0.01168795  0.25172876  1
  Ta  Ta105  1  0.18483459  0.60488814  0.49607417  1
  Ta  Ta106  1  0.90235477  0.31431865  0.87797972  1
  Ta  Ta107  1  0.21268863  0.77180618  0.26271637  1
  Ta  Ta108  1  0.60487897  0.40875571  0.48865147  1
  Ta  Ta109  1  0.39469733  0.40796680  0.24484010  1
  Ta  Ta110  1  0.60945048  0.20275388  0.49122348  1
  Ta  Ta111  1  0.40596484  0.79500189  0.52423902  1
  Ta  Ta112  1  0.39554821  0.59788214  0.73703888  1
  Ta  Ta113  1  0.50406059  0.09670694  0.87146165  1
  Ta  Ta114  1  0.57794364  0.79125631  0.24926152  1
  Ta  Ta115  1  0.70316817  0.08975996  0.12969505  1
  Ta  Ta116  1  0.39866396  0.80655643  0.72894210  1
  Ta  Ta117  1  0.80562414  0.00881317  0.74807200  1
  Ta  Ta118  1  0.00348088  0.38913778  0.48323650  1
  Ta  Ta119  1  0.29839562  0.49989816  0.61082454  1
  Ti  Ti120  1  0.19743450  0.39529913  0.74555708  1
  Ti  Ti121  1  0.20938061  0.39983804  0.25180945  1
  Ti  Ti122  1  0.27971013  0.91338855  0.85496198  1
  Ti  Ti123  1  0.20293986  0.00311804  0.00452719  1
  Ti  Ti124  1  0.19639804  0.40006802  0.48524809  1
  Ti  Ti125  1  -0.00085722  0.00147393  0.49140709  1
  Ti  Ti126  1  0.09582470  0.09071574  0.62059517  1
  Ti  Ti127  1  0.58404108  0.61252051  0.51113561  1
  Ti  Ti128  1  0.59966421  -0.00118522  0.73147664  1
  Ti  Ti129  1  0.39061722  0.60988061  0.50970483  1
  Ti  Ti130  1  0.88410739  0.09524081  0.36612705  1
  Ti  Ti131  1  0.80372627  0.01337285  0.50528016  1
  Ti  Ti132  1  0.69616892  0.09985299  0.86522131  1
  Ti  Ti133  1  0.40935565  -0.00324075  0.51724973  1
  Ti  Ti134  1  0.78687520  0.58973280  0.49099619  1
  Ti  Ti135  1  0.30217574  0.89002798  0.14083340  1
  Ti  Ti136  1  0.38916648  0.61947696  0.25229123  1
  Ti  Ti137  1  0.01226454  0.59589512  0.25715468  1
  Ti  Ti138  1  0.80526800  0.20079933  0.49628584  1
  Ti  Ti139  1  0.59670893  0.80472945  0.00047390  1
  Ti  Ti140  1  0.28904227  0.68862110  0.12435487  1
  Ti  Ti141  1  0.00068023  0.58982946  0.48116474  1
  Ti  Ti142  1  0.70423502  0.29608219  0.14306832  1
  Ti  Ti143  1  0.20354774  0.59662394  -0.00534844  1
  Ti  Ti144  1  0.01449828  -0.01180820  0.74847297  1
  Ti  Ti145  1  -0.00276256  0.39307618  0.75201725  1
  Ti  Ti146  1  0.11906480  0.50761202  0.13007276  1
  Ti  Ti147  1  0.80086100  0.80351120  0.50122598  1
  Ti  Ti148  1  -0.00188978  0.19552590  0.49223455  1
  Ti  Ti149  1  0.80284770  0.39525495  0.49339469  1
  Ti  Ti150  1  0.19261952  0.19181259  0.74660830  1
  Ti  Ti151  1  0.92309879  0.89572266  0.88025307  1
  Ti  Ti152  1  0.30359969  0.10941817  0.13101245  1
  Ti  Ti153  1  0.20499067  0.20319648  0.00471167  1
  Ti  Ti154  1  0.90455470  0.30021243  0.62325844  1
  Ti  Ti155  1  0.20335719  0.21431122  0.27062787  1
  Ti  Ti156  1  0.67963064  0.69423702  0.11862707  1
  Ti  Ti157  1  0.70335724  0.10259230  0.62277234  1
  Ti  Ti158  1  0.30368158  0.10004989  0.86740416  1
  Ti  Ti159  1  0.89105404  0.30195474  0.13982406  1
  Mo  Mo160  1  0.79926281  0.00280733  0.25251221  1
  Mo  Mo161  1  0.47884169  0.70676117  0.38317230  1
  Mo  Mo162  1  0.39667429  0.79612970  0.24599328  1
  Mo  Mo163  1  0.19993813  0.00559044  0.73743046  1
  Mo  Mo164  1  0.59953409  0.60811914  0.00263999  1
  Mo  Mo165  1  0.79805749  0.19247490  0.24220387  1
  Mo  Mo166  1  0.30292127  0.09703926  0.39572505  1
  Mo  Mo167  1  0.90688998  0.48773409  0.88027869  1
  Mo  Mo168  1  0.60583470  0.39988743  0.73693443  1
  Mo  Mo169  1  0.71104472  0.10513642  0.38377009  1
  Mo  Mo170  1  0.29781292  0.90241744  0.61699515  1
  Mo  Mo171  1  0.50988327  0.89961873  0.62177103  1
  Mo  Mo172  1  0.60910682  0.00803027  0.51863152  1
  Mo  Mo173  1  0.90408587  0.50448675  0.14914292  1
  Mo  Mo174  1  0.59370674  0.61097396  0.24646124  1
  Mo  Mo175  1  0.10215593  0.30163153  0.37771808  1
  Mo  Mo176  1  0.08781809  0.70231638  0.61961730  1
  Mo  Mo177  1  0.81852183  0.39923849  0.02248944  1
  Mo  Mo178  1  0.00202677  0.80450649  0.74735652  1
  Mo  Mo179  1  0.30853186  0.69367267  0.38543155  1
  Mo  Mo180  1  0.79919637  0.40074729  0.23809064  1
  Mo  Mo181  1  -0.00749586  0.80792718  0.00956635  1
  Mo  Mo182  1  0.09756611  0.49809997  0.37645848  1
  Mo  Mo183  1  0.30575856  0.30879925  0.37995231  1
  Mo  Mo184  1  0.00886142  -0.01706346  0.00677167  1
  Mo  Mo185  1  0.50679123  0.10920107  0.60192745  1
  Mo  Mo186  1  0.12310166  0.29320022  0.12922196  1
  Mo  Mo187  1  0.69839988  0.50371775  0.38442185  1
  Mo  Mo188  1  0.18594308  0.81700140  0.75275011  1
  Mo  Mo189  1  0.40619479  0.40617922  0.49909420  1
  Mo  Mo190  1  0.30497715  0.50920008  0.13390387  1
  Mo  Mo191  1  0.49226714  0.69346636  0.63479130  1
  Mo  Mo192  1  0.69366090  0.89946320  0.12139411  1
  Mo  Mo193  1  0.29640754  0.29632169  0.13641387  1
  Mo  Mo194  1  0.09629945  0.90866327  0.87429228  1
  Mo  Mo195  1  0.59338549  0.80680702  0.73138885  1
  Mo  Mo196  1  0.10693594  0.68550501  0.37035266  1
  Mo  Mo197  1  0.20037277  0.58831652  0.25014573  1
  Mo  Mo198  1  0.79772710  0.59952745  0.00908812  1
  Mo  Mo199  1  0.59879049  0.80143430  0.52023537  1
