# generated using pymatgen
data_HfZrTaTiMo
_symmetry_space_group_name_H-M   'P 1'
_cell_length_a   15.17428492
_cell_length_b   15.17829109
_cell_length_c   16.78751435
_cell_angle_alpha   89.97683383
_cell_angle_beta   89.94819196
_cell_angle_gamma   90.16505943
_symmetry_Int_Tables_number   1
_chemical_formula_structural   HfZrTaTiMo
_chemical_formula_sum   'Hf40 Zr40 Ta40 Ti40 Mo40'
_cell_volume   3866.47755209
_cell_formula_units_Z   40
loop_
 _symmetry_equiv_pos_site_id
 _symmetry_equiv_pos_as_xyz
  1  'x, y, z'
loop_
 _atom_site_type_symbol
 _atom_site_label
 _atom_site_symmetry_multiplicity
 _atom_site_fract_x
 _atom_site_fract_y
 _atom_site_fract_z
 _atom_site_occupancy
  Hf  Hf0  1  0.28548788  0.49624461  0.89737412  1
  Hf  Hf1  1  0.60741173  0.81434469  0.00124477  1
  Hf  Hf2  1  0.70047491  0.49342062  0.87069358  1
  Hf  Hf3  1  0.39585190  0.61416351  0.26086014  1
  Hf  Hf4  1  0.39648321  0.01684480  0.76291320  1
  Hf  Hf5  1  0.90428400  0.49254011  0.38710438  1
  Hf  Hf6  1  0.20454834  0.80955222  0.49956507  1
  Hf  Hf7  1  -0.00858234  0.80451105  0.49874887  1
  Hf  Hf8  1  0.80577510  0.58810452  0.24457532  1
  Hf  Hf9  1  0.58600473  0.38397134  0.00451298  1
  Hf  Hf10  1  0.19304315  0.21913759  0.00764204  1
  Hf  Hf11  1  0.10415894  0.49914691  0.39265163  1
  Hf  Hf12  1  0.21770329  0.21549529  0.75061914  1
  Hf  Hf13  1  0.69689902  0.10142251  0.61884457  1
  Hf  Hf14  1  0.00613877  0.80631738  0.25493909  1
  Hf  Hf15  1  0.71662799  0.69655004  0.87808248  1
  Hf  Hf16  1  0.58979661  0.39763953  0.73109486  1
  Hf  Hf17  1  0.19506673  0.00874500  0.75107944  1
  Hf  Hf18  1  0.81816525  0.58978276  0.00476653  1
  Hf  Hf19  1  0.48735775  0.70447227  0.11892366  1
  Hf  Hf20  1  0.79946285  -0.01018209  0.26044062  1
  Hf  Hf21  1  0.28241895  0.90642000  0.88765411  1
  Hf  Hf22  1  0.41202993  0.22667538  0.01234574  1
  Hf  Hf23  1  0.10261586  0.69289899  0.61927962  1
  Hf  Hf24  1  0.18528269  -0.01034698  0.23688321  1
  Hf  Hf25  1  0.49956396  0.11257567  0.13616825  1
  Hf  Hf26  1  0.79413861  0.58246853  0.51963976  1
  Hf  Hf27  1  0.01056684  0.01044105  0.49060222  1
  Hf  Hf28  1  0.50427285  0.70805051  0.61844128  1
  Hf  Hf29  1  0.08737416  0.10506833  0.12726215  1
  Hf  Hf30  1  0.30227534  0.70145433  0.62012779  1
  Hf  Hf31  1  0.38337747  0.59161214  0.74982020  1
  Hf  Hf32  1  0.59727619  0.59544406  0.00340606  1
  Hf  Hf33  1  0.91000437  0.46392460  0.12654707  1
  Hf  Hf34  1  0.30618294  0.91938881  0.62149544  1
  Hf  Hf35  1  0.81437349  0.00120851  0.49272079  1
  Hf  Hf36  1  0.70261074  0.47152171  0.37757801  1
  Hf  Hf37  1  0.10691536  0.50895122  0.11255279  1
  Hf  Hf38  1  0.38835068  0.20090328  0.47631000  1
  Hf  Hf39  1  0.70874611  0.10914632  0.86574796  1
  Zr  Zr40  1  0.69675088  0.88575077  0.38796264  1
  Zr  Zr41  1  0.59214487  0.00861002  -0.00992488  1
  Zr  Zr42  1  0.71255374  0.71296972  0.11723268  1
  Zr  Zr43  1  0.69583045  0.10484065  0.38877996  1
  Zr  Zr44  1  0.58672285  -0.00309762  0.75844378  1
  Zr  Zr45  1  0.30134201  0.50287699  0.12422699  1
  Zr  Zr46  1  0.68439268  0.89463376  0.61809149  1
  Zr  Zr47  1  0.89131435  0.48810265  0.86353654  1
  Zr  Zr48  1  0.79772154  -0.01695667  -0.00347728  1
  Zr  Zr49  1  0.39008357  0.38194655  0.74015300  1
  Zr  Zr50  1  0.30034248  0.11501031  0.89059711  1
  Zr  Zr51  1  0.90314472  0.90228931  0.62754285  1
  Zr  Zr52  1  -0.00334113  0.20632325  0.49135027  1
  Zr  Zr53  1  0.59969367  0.60276904  0.74243247  1
  Zr  Zr54  1  0.70040586  0.48597997  0.12626856  1
  Zr  Zr55  1  -0.00230521  0.78903262  -0.00986502  1
  Zr  Zr56  1  0.01673602  0.38792874  -0.01921238  1
  Zr  Zr57  1  0.01733726  0.19925431  0.75816340  1
  Zr  Zr58  1  0.80893741  0.19798377  0.26428484  1
  Zr  Zr59  1  0.68973385  0.29853879  0.86202665  1
  Zr  Zr60  1  0.49827192  0.70541281  0.87923197  1
  Zr  Zr61  1  0.39797300  -0.01247258  0.24562606  1
  Zr  Zr62  1  0.88961296  0.28367338  0.85544794  1
  Zr  Zr63  1  0.40214208  0.81079696  0.75864703  1
  Zr  Zr64  1  0.00466527  -0.00138779  0.76123345  1
  Zr  Zr65  1  0.59361445  0.80219696  0.24521929  1
  Zr  Zr66  1  0.01034619  0.59153394  0.25172968  1
  Zr  Zr67  1  0.89896029  0.69523284  0.38329840  1
  Zr  Zr68  1  0.69510063  0.68416385  0.37866929  1
  Zr  Zr69  1  0.48850638  0.09504550  0.61184882  1
  Zr  Zr70  1  0.29694104  0.10902958  0.13330278  1
  Zr  Zr71  1  0.48917688  0.48441543  0.87892254  1
  Zr  Zr72  1  0.10700301  0.90520959  0.37612221  1
  Zr  Zr73  1  0.80075786  -0.00430958  0.75077964  1
  Zr  Zr74  1  0.00660537  0.79443374  0.75348615  1
  Zr  Zr75  1  0.89364419  0.09832253  0.12079931  1
  Zr  Zr76  1  0.59523319  0.59225022  0.24808033  1
  Zr  Zr77  1  0.71633111  0.28927317  0.12887146  1
  Zr  Zr78  1  0.09475498  0.53401460  0.87602578  1
  Zr  Zr79  1  0.19598196  0.41863624  0.74475598  1
  Ta  Ta80  1  0.20697022  0.38939723  0.49238534  1
  Ta  Ta81  1  0.40299210  0.41145349  0.27256873  1
  Ta  Ta82  1  0.48521442  0.29583765  0.60630604  1
  Ta  Ta83  1  0.10461958  0.69541342  0.38702053  1
  Ta  Ta84  1  0.09453787  0.30994633  0.13728051  1
  Ta  Ta85  1  -0.00935457  0.19991271  -0.00696908  1
  Ta  Ta86  1  0.80681373  0.79736817  0.25040315  1
  Ta  Ta87  1  0.49223180  0.49358862  0.13048179  1
  Ta  Ta88  1  0.00440867  0.40167634  0.74313442  1
  Ta  Ta89  1  0.21364757  0.79315437  0.25257101  1
  Ta  Ta90  1  0.91317156  0.67859087  0.86184182  1
  Ta  Ta91  1  0.10820286  0.70989371  0.12620641  1
  Ta  Ta92  1  0.29424778  0.89179510  0.11381178  1
  Ta  Ta93  1  0.29588511  0.49842386  0.60426803  1
  Ta  Ta94  1  0.10777609  0.90656614  0.61964791  1
  Ta  Ta95  1  0.51783434  0.30771753  0.37257682  1
  Ta  Ta96  1  0.90539484  0.11080819  0.62828863  1
  Ta  Ta97  1  0.10818175  0.10336652  0.61975000  1
  Ta  Ta98  1  0.91427259  0.69026695  0.12636613  1
  Ta  Ta99  1  0.39717281  0.00330703  0.00364362  1
  Ta  Ta100  1  0.69512562  0.08843878  0.12986608  1
  Ta  Ta101  1  0.49923000  0.90638599  0.12163884  1
  Ta  Ta102  1  0.80345925  0.59193815  0.73036639  1
  Ta  Ta103  1  0.28208535  0.69722814  0.87970553  1
  Ta  Ta104  1  0.21334467  0.01790398  0.49462008  1
  Ta  Ta105  1  0.60147008  -0.00034811  0.25374554  1
  Ta  Ta106  1  0.29140143  0.10051411  0.35515135  1
  Ta  Ta107  1  0.79577934  0.78519569  0.73944762  1
  Ta  Ta108  1  0.79541968  0.39153381  0.71768225  1
  Ta  Ta109  1  0.40304180  0.40079441  0.48122083  1
  Ta  Ta110  1  0.69844566  0.89072739  0.86683776  1
  Ta  Ta111  1  0.60436826  0.20076520  0.25939428  1
  Ta  Ta112  1  0.19371194  0.20366638  0.48898692  1
  Ta  Ta113  1  0.89709801  0.88737429  0.12284819  1
  Ta  Ta114  1  0.49540768  0.89992240  0.37859215  1
  Ta  Ta115  1  0.30157299  0.30856381  0.15127721  1
  Ta  Ta116  1  0.29478038  0.70300051  0.11763901  1
  Ta  Ta117  1  0.20345523  0.60409800  0.25945295  1
  Ta  Ta118  1  0.29907695  0.70285195  0.38547599  1
  Ta  Ta119  1  0.79020935  0.78695653  0.51525789  1
  Ti  Ti120  1  0.00106877  0.21374470  0.26015883  1
  Ti  Ti121  1  0.30651928  0.90158872  0.37432947  1
  Ti  Ti122  1  0.80074222  0.21650275  0.50767580  1
  Ti  Ti123  1  0.10685840  0.09793556  0.89217162  1
  Ti  Ti124  1  0.10298833  0.50430219  0.61101304  1
  Ti  Ti125  1  0.30256568  0.12294989  0.61989021  1
  Ti  Ti126  1  0.49910973  0.71034502  0.38419575  1
  Ti  Ti127  1  0.61416711  0.39571072  0.51523589  1
  Ti  Ti128  1  0.50879435  0.50530338  0.38118474  1
  Ti  Ti129  1  0.40401521  0.81004608  0.49731750  1
  Ti  Ti130  1  0.89123288  0.30884551  0.37874401  1
  Ti  Ti131  1  0.18894420  0.40868200  0.26024527  1
  Ti  Ti132  1  0.61276888  0.19890774  0.00362607  1
  Ti  Ti133  1  0.49259960  0.09942868  0.36710712  1
  Ti  Ti134  1  0.90192681  0.09178132  0.88212183  1
  Ti  Ti135  1  0.90586976  0.69101523  0.62531161  1
  Ti  Ti136  1  0.59724854  0.20771357  0.49705643  1
  Ti  Ti137  1  0.28924792  0.29959654  0.35491498  1
  Ti  Ti138  1  0.01177842  -0.01289213  -0.00332942  1
  Ti  Ti139  1  0.50021467  0.30933500  0.15559854  1
  Ti  Ti140  1  0.80909142  0.36696246  -0.00327093  1
  Ti  Ti141  1  0.91409056  0.49336683  0.62246359  1
  Ti  Ti142  1  0.58379336  0.20263480  0.73840586  1
  Ti  Ti143  1  0.10328247  0.11388477  0.36062902  1
  Ti  Ti144  1  0.30991336  0.30952858  0.88446446  1
  Ti  Ti145  1  0.58580300  -0.00184040  0.49107362  1
  Ti  Ti146  1  0.19960744  0.80333153  0.75114604  1
  Ti  Ti147  1  0.49935301  0.12403689  0.87775026  1
  Ti  Ti148  1  0.39482801  0.60219922  -0.00081998  1
  Ti  Ti149  1  0.18732395  0.80938836  0.00039610  1
  Ti  Ti150  1  0.49587960  0.90319565  0.61368839  1
  Ti  Ti151  1  0.89127474  0.88174559  0.87367006  1
  Ti  Ti152  1  0.39845368  0.80710540  -0.00850026  1
  Ti  Ti153  1  0.39816599  0.59887196  0.48944964  1
  Ti  Ti154  1  -0.01415148  0.00509484  0.26311616  1
  Ti  Ti155  1  0.60032670  0.80104210  0.75336422  1
  Ti  Ti156  1  0.59946085  0.60005877  0.50824495  1
  Ti  Ti157  1  0.48944420  0.49990587  0.61112466  1
  Ti  Ti158  1  0.10743465  0.30169798  0.62231672  1
  Ti  Ti159  1  -0.00061933  0.39185379  0.51003518  1
  Mo  Mo160  1  0.80803129  0.79335874  -0.00323715  1
  Mo  Mo161  1  0.10546468  0.71314741  0.86822270  1
  Mo  Mo162  1  0.11660911  0.30732317  0.87291739  1
  Mo  Mo163  1  0.39907796  0.40112476  0.01381187  1
  Mo  Mo164  1  0.40255557  0.20781233  0.26839131  1
  Mo  Mo165  1  0.70242830  0.90684400  0.13129295  1
  Mo  Mo166  1  0.79983637  0.19133164  -0.00210357  1
  Mo  Mo167  1  0.00072887  0.59571326  0.50899798  1
  Mo  Mo168  1  0.19259659  0.00079768  0.01726065  1
  Mo  Mo169  1  0.79831452  0.19602956  0.73096643  1
  Mo  Mo170  1  0.30254009  0.50255115  0.38192396  1
  Mo  Mo171  1  0.89637694  0.89397741  0.37589930  1
  Mo  Mo172  1  0.00067526  0.39408707  0.25889701  1
  Mo  Mo173  1  0.69143605  0.28995228  0.62424997  1
  Mo  Mo174  1  0.69898605  0.69841236  0.62658883  1
  Mo  Mo175  1  0.19655452  0.61925876  0.00466789  1
  Mo  Mo176  1  0.29811073  0.30273118  0.60712737  1
  Mo  Mo177  1  0.09851610  0.90792333  0.87883797  1
  Mo  Mo178  1  -0.00070647  0.60114078  0.00379810  1
  Mo  Mo179  1  0.09443686  0.30702196  0.36867275  1
  Mo  Mo180  1  0.39383669  0.00244695  0.48363844  1
  Mo  Mo181  1  0.21007855  0.39439327  0.00984956  1
  Mo  Mo182  1  0.39495600  0.79953877  0.25270300  1
  Mo  Mo183  1  0.90698217  0.10288023  0.37283694  1
  Mo  Mo184  1  0.70222699  0.29812753  0.38461142  1
  Mo  Mo185  1  0.00319920  0.59094392  0.73483444  1
  Mo  Mo186  1  0.49253655  0.90849939  0.88315186  1
  Mo  Mo187  1  0.69050471  0.49685615  0.62243357  1
  Mo  Mo188  1  0.20703179  0.59915901  0.49686785  1
  Mo  Mo189  1  0.60180938  0.39535120  0.25113425  1
  Mo  Mo190  1  0.20342084  0.61117683  0.74428969  1
  Mo  Mo191  1  0.40720656  0.20482287  0.74540898  1
  Mo  Mo192  1  0.49689570  0.29378270  0.87294982  1
  Mo  Mo193  1  0.09222105  0.89832036  0.12724940  1
  Mo  Mo194  1  0.59139089  0.79442701  0.49645369  1
  Mo  Mo195  1  0.80748107  0.38714370  0.51996715  1
  Mo  Mo196  1  0.90963037  0.29680487  0.63219966  1
  Mo  Mo197  1  0.80915272  0.39065381  0.25485365  1
  Mo  Mo198  1  0.19140602  0.20827757  0.24818278  1
  Mo  Mo199  1  0.91564058  0.28466241  0.12312187  1
