# generated using pymatgen
data_HfZrTaTiMo
_symmetry_space_group_name_H-M   'P 1'
_cell_length_a   15.20828766
_cell_length_b   15.20873600
_cell_length_c   16.85734305
_cell_angle_alpha   89.96520985
_cell_angle_beta   90.03021437
_cell_angle_gamma   90.09071847
_symmetry_Int_Tables_number   1
_chemical_formula_structural   HfZrTaTiMo
_chemical_formula_sum   'Hf40 Zr40 Ta40 Ti40 Mo40'
_cell_volume   3899.07761363
_cell_formula_units_Z   40
loop_
 _symmetry_equiv_pos_site_id
 _symmetry_equiv_pos_as_xyz
  1  'x, y, z'
loop_
 _atom_site_type_symbol
 _atom_site_label
 _atom_site_symmetry_multiplicity
 _atom_site_fract_x
 _atom_site_fract_y
 _atom_site_fract_z
 _atom_site_occupancy
  Hf  Hf0  1  0.29168656  0.47774761  0.62959808  1
  Hf  Hf1  1  0.09951707  0.30071040  0.61944211  1
  Hf  Hf2  1  0.88114892  0.28000547  0.38501112  1
  Hf  Hf3  1  0.30999606  0.89663488  0.37999430  1
  Hf  Hf4  1  0.49331806  0.69302374  0.87052520  1
  Hf  Hf5  1  0.07736826  0.50187198  0.14297635  1
  Hf  Hf6  1  0.79842616  0.20624393  0.73602647  1
  Hf  Hf7  1  0.30284526  0.10456098  0.36629658  1
  Hf  Hf8  1  0.49163892  0.29230687  0.87624890  1
  Hf  Hf9  1  0.58761709  0.19269079  0.74757944  1
  Hf  Hf10  1  0.39911361  0.20046846  0.00840994  1
  Hf  Hf11  1  0.19101118  0.39195540  0.48396845  1
  Hf  Hf12  1  0.10085096  0.49563593  0.86855308  1
  Hf  Hf13  1  0.70032426  0.30423714  0.87551228  1
  Hf  Hf14  1  0.51405283  0.90227673  0.38402362  1
  Hf  Hf15  1  0.29963973  0.50926201  0.36483521  1
  Hf  Hf16  1  0.60617964  0.80214130  -0.00598089  1
  Hf  Hf17  1  0.71284856  0.11102352  0.39514257  1
  Hf  Hf18  1  0.78717545  0.81158312  0.74605639  1
  Hf  Hf19  1  -0.00649387  0.19541561  0.00261351  1
  Hf  Hf20  1  0.18981706  0.39235104  0.00921679  1
  Hf  Hf21  1  0.90850147  0.09555920  0.62003014  1
  Hf  Hf22  1  0.49546256  0.69814558  0.39073616  1
  Hf  Hf23  1  0.51721179  0.90984662  0.61906366  1
  Hf  Hf24  1  0.20160272  0.01400265  0.49600926  1
  Hf  Hf25  1  0.62528459  0.01065023  0.26186127  1
  Hf  Hf26  1  0.59543896  0.39037585  0.01138198  1
  Hf  Hf27  1  0.28699514  0.29404481  0.87231975  1
  Hf  Hf28  1  -0.00515967  0.59943776  0.74571698  1
  Hf  Hf29  1  0.02338334  -0.00879281  0.75125085  1
  Hf  Hf30  1  0.69374056  0.31049039  0.60473988  1
  Hf  Hf31  1  0.00048445  0.59844878  0.49881478  1
  Hf  Hf32  1  0.90602879  0.70402643  0.36853202  1
  Hf  Hf33  1  0.71797881  0.09947245  0.87482511  1
  Hf  Hf34  1  0.41765516  0.00796191  0.76047427  1
  Hf  Hf35  1  0.21653366  0.59544975  -0.00582431  1
  Hf  Hf36  1  0.70008892  0.50408943  0.88692756  1
  Hf  Hf37  1  0.41834866  0.79084765  0.24600364  1
  Hf  Hf38  1  0.30758553  0.49642147  0.86238528  1
  Hf  Hf39  1  0.01216142  0.80605792  0.25510084  1
  Zr  Zr40  1  0.91218010  0.91614933  0.12882591  1
  Zr  Zr41  1  0.40763869  0.59433753  0.73155937  1
  Zr  Zr42  1  0.49963060  0.29821951  0.37334871  1
  Zr  Zr43  1  0.90091646  0.70724925  0.86758094  1
  Zr  Zr44  1  0.90199909  0.92305980  0.36836775  1
  Zr  Zr45  1  0.50940909  0.70365867  0.61556653  1
  Zr  Zr46  1  0.48237404  0.51583083  0.11968144  1
  Zr  Zr47  1  0.18875950  0.19259132  0.24458707  1
  Zr  Zr48  1  0.21961341  0.80111144  0.24336269  1
  Zr  Zr49  1  0.62805696  -0.01254260  0.75995984  1
  Zr  Zr50  1  0.89658154  0.91129464  0.86880894  1
  Zr  Zr51  1  0.89547302  0.69658287  0.62852555  1
  Zr  Zr52  1  0.39772480  0.39624789  0.49766866  1
  Zr  Zr53  1  0.19214205  0.60032485  0.50925188  1
  Zr  Zr54  1  0.88675893  0.49407426  0.37716335  1
  Zr  Zr55  1  0.61861567  0.59505917  0.74472239  1
  Zr  Zr56  1  0.11260269  0.90786241  0.11562259  1
  Zr  Zr57  1  0.80782767  0.80121010  0.49947940  1
  Zr  Zr58  1  0.00851537  0.19930261  0.74842772  1
  Zr  Zr59  1  0.52075073  0.10352826  0.13199052  1
  Zr  Zr60  1  0.30005311  0.07658586  0.12963416  1
  Zr  Zr61  1  0.69267208  0.09073589  0.60966821  1
  Zr  Zr62  1  0.78345737  0.39007228  0.24562622  1
  Zr  Zr63  1  0.28512006  0.49749058  0.14555323  1
  Zr  Zr64  1  0.19357458  0.19570731  0.01267366  1
  Zr  Zr65  1  -0.01094507  0.40066023  0.00512728  1
  Zr  Zr66  1  0.00594163  0.61772770  -0.00732118  1
  Zr  Zr67  1  0.10941573  0.69522130  0.13211835  1
  Zr  Zr68  1  0.90461990  0.70007976  0.13503263  1
  Zr  Zr69  1  0.50023396  0.49236565  0.87901499  1
  Zr  Zr70  1  0.50285984  0.89943659  0.12254788  1
  Zr  Zr71  1  0.88885202  0.49896148  0.87548906  1
  Zr  Zr72  1  0.39667891  0.59639498  0.51305980  1
  Zr  Zr73  1  0.71017225  0.91396134  0.12297170  1
  Zr  Zr74  1  0.19180977  0.60741303  0.73798266  1
  Zr  Zr75  1  0.40791889  -0.00424724  -0.01462267  1
  Zr  Zr76  1  0.19623914  0.79774732  -0.00802341  1
  Zr  Zr77  1  0.79284784  0.60020349  0.24497317  1
  Zr  Zr78  1  0.58500406  0.59940494  0.25482825  1
  Zr  Zr79  1  0.20227399  0.80554526  0.51778529  1
  Ta  Ta80  1  0.20356551  0.00345684  -0.02308252  1
  Ta  Ta81  1  0.29530015  0.70506545  0.85785148  1
  Ta  Ta82  1  0.38564243  0.19159747  0.74803467  1
  Ta  Ta83  1  0.40270804  0.00351536  0.50205995  1
  Ta  Ta84  1  0.50569777  0.10303145  0.38268180  1
  Ta  Ta85  1  0.40383154  0.38299759  0.73871619  1
  Ta  Ta86  1  0.88980829  0.29949708  0.87446930  1
  Ta  Ta87  1  0.08635273  0.29050294  0.36739424  1
  Ta  Ta88  1  0.01053428  0.80174143  0.50451368  1
  Ta  Ta89  1  -0.00503625  0.39701680  0.49115086  1
  Ta  Ta90  1  0.69326654  0.50275209  0.11995238  1
  Ta  Ta91  1  0.60830251  0.58678657  0.49260776  1
  Ta  Ta92  1  -0.02519193  0.18257345  0.25196432  1
  Ta  Ta93  1  0.30046771  0.89518875  0.86277614  1
  Ta  Ta94  1  0.19638162  -0.00823228  0.25716861  1
  Ta  Ta95  1  0.79681575  0.60359600  0.01467214  1
  Ta  Ta96  1  0.40475200  -0.00580689  0.25353866  1
  Ta  Ta97  1  0.30027225  0.70231355  0.37791819  1
  Ta  Ta98  1  0.61270361  0.80046424  0.25509503  1
  Ta  Ta99  1  0.01397141  0.19313930  0.49954815  1
  Ta  Ta100  1  0.18216723  0.81895054  0.74275181  1
  Ta  Ta101  1  0.49614753  0.30454531  0.13610261  1
  Ta  Ta102  1  0.88774485  0.49237479  0.61746252  1
  Ta  Ta103  1  0.12610973  0.10228594  0.62512577  1
  Ta  Ta104  1  0.81106461  0.80171291  0.00100651  1
  Ta  Ta105  1  0.59869350  0.39338717  0.74376122  1
  Ta  Ta106  1  0.49260389  0.29079808  0.61639702  1
  Ta  Ta107  1  0.32268051  0.69013493  0.12479194  1
  Ta  Ta108  1  0.59703594  0.79785950  0.75450704  1
  Ta  Ta109  1  0.38544457  0.40038737  0.00852446  1
  Ta  Ta110  1  0.39710687  0.78786257  -0.00208804  1
  Ta  Ta111  1  0.70081869  0.70259376  0.37586258  1
  Ta  Ta112  1  0.77821923  0.18717963  0.23932462  1
  Ta  Ta113  1  0.39800718  0.80811308  0.74195628  1
  Ta  Ta114  1  -0.01285103  0.39438589  0.74630855  1
  Ta  Ta115  1  0.08749852  0.29761440  0.14340924  1
  Ta  Ta116  1  0.89613864  0.29722497  0.13388346  1
  Ta  Ta117  1  0.79518714  0.20551966  0.01514097  1
  Ta  Ta118  1  0.79140779  0.41191604  0.74150671  1
  Ta  Ta119  1  0.10475610  0.89529253  0.37904275  1
  Ti  Ti120  1  0.40475234  0.40746933  0.25570666  1
  Ti  Ti121  1  0.79202214  0.59431557  0.49380490  1
  Ti  Ti122  1  0.61945616  0.80815615  0.49748175  1
  Ti  Ti123  1  0.08873480  0.29293018  0.87324729  1
  Ti  Ti124  1  0.90239827  0.90063500  0.63323394  1
  Ti  Ti125  1  0.29693736  0.71112226  0.63622413  1
  Ti  Ti126  1  -0.01468485  0.39607847  0.25967780  1
  Ti  Ti127  1  0.79747941  -0.01059673  0.50374641  1
  Ti  Ti128  1  0.51772867  0.48447972  0.61987912  1
  Ti  Ti129  1  0.38358478  0.19576969  0.49786808  1
  Ti  Ti130  1  0.59791833  0.39808732  0.24941034  1
  Ti  Ti131  1  0.60255235  0.19412376  0.00038280  1
  Ti  Ti132  1  0.08239497  0.09197892  0.12912848  1
  Ti  Ti133  1  0.59395422  0.60820199  0.00562216  1
  Ti  Ti134  1  0.29803382  0.30220845  0.14110127  1
  Ti  Ti135  1  0.18357991  0.40075874  0.26348870  1
  Ti  Ti136  1  0.90829750  0.10841523  0.86769653  1
  Ti  Ti137  1  0.10963976  0.68919413  0.36750777  1
  Ti  Ti138  1  0.79711766  0.39907818  0.01879986  1
  Ti  Ti139  1  0.08673123  0.49311581  0.62641857  1
  Ti  Ti140  1  0.19009933  0.38517096  0.74838645  1
  Ti  Ti141  1  0.29513594  0.29706462  0.36316208  1
  Ti  Ti142  1  0.81095928  0.01202323  0.00108663  1
  Ti  Ti143  1  0.50668764  0.89316819  0.87372355  1
  Ti  Ti144  1  0.79552689  0.81655155  0.25463606  1
  Ti  Ti145  1  0.08646120  0.09266130  0.37253212  1
  Ti  Ti146  1  0.29496287  0.92656852  0.63716350  1
  Ti  Ti147  1  0.39636064  0.80756236  0.51506562  1
  Ti  Ti148  1  0.00484742  -0.00773770  0.50652106  1
  Ti  Ti149  1  0.21367221  0.02488964  0.76856656  1
  Ti  Ti150  1  0.69456167  0.70737711  0.12618822  1
  Ti  Ti151  1  0.61125359  0.00487397  -0.01338050  1
  Ti  Ti152  1  0.28925390  0.27434117  0.62427342  1
  Ti  Ti153  1  0.70491161  0.70222779  0.87759657  1
  Ti  Ti154  1  0.70077872  0.69780954  0.61964283  1
  Ti  Ti155  1  0.89755137  0.30309848  0.60888355  1
  Ti  Ti156  1  0.69077357  0.30621975  0.39578110  1
  Ti  Ti157  1  0.01030044  -0.00240799  -0.01539837  1
  Ti  Ti158  1  0.40924038  0.19694901  0.24727321  1
  Ti  Ti159  1  0.49361637  0.10491190  0.61018032  1
  Mo  Mo160  1  0.39570852  0.60176370  -0.00752653  1
  Mo  Mo161  1  0.70708903  0.89453822  0.88852995  1
  Mo  Mo162  1  0.81346066  0.00872735  0.74560166  1
  Mo  Mo163  1  0.81756496  0.02001432  0.25296801  1
  Mo  Mo164  1  0.09019924  0.49631236  0.36386507  1
  Mo  Mo165  1  0.88952364  0.49658289  0.12676524  1
  Mo  Mo166  1  0.50963755  0.70249172  0.11677909  1
  Mo  Mo167  1  0.00130422  0.59147872  0.26345347  1
  Mo  Mo168  1  0.89743269  0.10113800  0.12280232  1
  Mo  Mo169  1  0.59353438  0.40563666  0.49604642  1
  Mo  Mo170  1  0.79598365  0.40763029  0.49908570  1
  Mo  Mo171  1  0.19801355  0.60479450  0.25741179  1
  Mo  Mo172  1  0.10494435  0.71170896  0.86747974  1
  Mo  Mo173  1  0.30823652  0.89889845  0.11933320  1
  Mo  Mo174  1  0.19866880  0.20370531  0.48578581  1
  Mo  Mo175  1  0.30804976  0.10348725  0.87965030  1
  Mo  Mo176  1  0.50876272  0.10311212  0.87962721  1
  Mo  Mo177  1  0.10262883  0.89440764  0.87710981  1
  Mo  Mo178  1  0.60284450  -0.00147404  0.49175145  1
  Mo  Mo179  1  0.30815325  0.10113657  0.62364858  1
  Mo  Mo180  1  0.09544187  0.91372435  0.62021608  1
  Mo  Mo181  1  0.68520122  0.29500704  0.12426386  1
  Mo  Mo182  1  0.70790865  0.89793888  0.37124707  1
  Mo  Mo183  1  0.70643671  0.89067421  0.62233796  1
  Mo  Mo184  1  0.70262626  0.09891704  0.11491189  1
  Mo  Mo185  1  0.79404792  0.60041378  0.74882286  1
  Mo  Mo186  1  0.00730532  0.79895061  0.73733348  1
  Mo  Mo187  1  0.09429639  0.70666828  0.62538745  1
  Mo  Mo188  1  0.60288882  0.21108208  0.25431740  1
  Mo  Mo189  1  0.19896985  0.19861271  0.75393035  1
  Mo  Mo190  1  0.39449484  0.60597838  0.25877028  1
  Mo  Mo191  1  0.10096140  0.10292588  0.87917691  1
  Mo  Mo192  1  -0.00293823  0.80808435  -0.00342551  1
  Mo  Mo193  1  0.90659703  0.10304111  0.39322216  1
  Mo  Mo194  1  0.58493678  0.19977723  0.50216709  1
  Mo  Mo195  1  0.70362816  0.50588134  0.61963839  1
  Mo  Mo196  1  0.50374151  0.49731797  0.37362150  1
  Mo  Mo197  1  0.68637606  0.49451746  0.37481910  1
  Mo  Mo198  1  0.01433540  0.00784993  0.25411261  1
  Mo  Mo199  1  0.80551283  0.20106176  0.51382207  1
