# generated using pymatgen
data_HfZrTaTiMo
_symmetry_space_group_name_H-M   'P 1'
_cell_length_a   15.21562425
_cell_length_b   15.21178222
_cell_length_c   16.81869149
_cell_angle_alpha   89.99574142
_cell_angle_beta   89.95071562
_cell_angle_gamma   90.02434677
_symmetry_Int_Tables_number   1
_chemical_formula_structural   HfZrTaTiMo
_chemical_formula_sum   'Hf40 Zr40 Ta40 Ti40 Mo40'
_cell_volume   3892.79807953
_cell_formula_units_Z   40
loop_
 _symmetry_equiv_pos_site_id
 _symmetry_equiv_pos_as_xyz
  1  'x, y, z'
loop_
 _atom_site_type_symbol
 _atom_site_label
 _atom_site_symmetry_multiplicity
 _atom_site_fract_x
 _atom_site_fract_y
 _atom_site_fract_z
 _atom_site_occupancy
  Hf  Hf0  1  0.80718289  0.41018926  0.73275399  1
  Hf  Hf1  1  0.28558624  0.08365872  0.88443450  1
  Hf  Hf2  1  0.68085767  0.30265978  0.12146069  1
  Hf  Hf3  1  0.58387463  0.61273240  0.50757000  1
  Hf  Hf4  1  0.59534238  0.62210419  0.73004187  1
  Hf  Hf5  1  0.19972938  0.40672853  0.00257752  1
  Hf  Hf6  1  0.59611344  0.40944099  -0.01508352  1
  Hf  Hf7  1  0.91077442  0.89582196  0.64387192  1
  Hf  Hf8  1  0.90910284  0.89745782  0.86293561  1
  Hf  Hf9  1  0.21184696  0.78852814  0.75369312  1
  Hf  Hf10  1  0.38537891  0.60624230  0.47488139  1
  Hf  Hf11  1  0.20106597  -0.01741386  0.01710461  1
  Hf  Hf12  1  0.11428206  0.71602806  0.37091812  1
  Hf  Hf13  1  0.67542914  0.08934578  0.62391748  1
  Hf  Hf14  1  0.71136648  0.91371993  0.39371398  1
  Hf  Hf15  1  0.70962554  0.52326871  0.86988928  1
  Hf  Hf16  1  0.80153127  0.79384619  -0.00882389  1
  Hf  Hf17  1  0.70456416  0.70145768  0.38425380  1
  Hf  Hf18  1  0.69959523  0.30571519  0.38761687  1
  Hf  Hf19  1  0.71061202  0.71420077  0.13226660  1
  Hf  Hf20  1  0.31372998  0.27525117  0.36348456  1
  Hf  Hf21  1  0.40548250  0.79528557  0.23496234  1
  Hf  Hf22  1  0.58338726  0.21347131  0.25486164  1
  Hf  Hf23  1  0.29392235  0.29090087  0.62271988  1
  Hf  Hf24  1  0.88166398  0.09214366  0.38643106  1
  Hf  Hf25  1  -0.00072677  0.40386643  0.26084657  1
  Hf  Hf26  1  0.90676171  0.89805992  0.11559436  1
  Hf  Hf27  1  0.19633019  0.39326825  0.26552907  1
  Hf  Hf28  1  0.52276089  0.91034481  0.12515689  1
  Hf  Hf29  1  0.90291336  0.10725660  0.87843962  1
  Hf  Hf30  1  0.08154911  0.08835224  0.37229451  1
  Hf  Hf31  1  0.40082986  0.40061059  0.48450113  1
  Hf  Hf32  1  0.31526362  0.88495110  0.62491612  1
  Hf  Hf33  1  0.10750533  0.89469789  0.63174474  1
  Hf  Hf34  1  0.51703373  0.69992394  0.88333457  1
  Hf  Hf35  1  0.18503749  0.39836857  0.76144100  1
  Hf  Hf36  1  0.77642263  -0.00275145  0.76454507  1
  Hf  Hf37  1  -0.00572016  0.61413676  0.26682587  1
  Hf  Hf38  1  0.49359702  0.29816816  0.63628702  1
  Hf  Hf39  1  0.39702165  0.20153384  -0.00871959  1
  Zr  Zr40  1  0.30078192  0.69671838  0.88945757  1
  Zr  Zr41  1  0.71680856  0.89137790  0.61168385  1
  Zr  Zr42  1  0.89323585  0.08926721  0.62827078  1
  Zr  Zr43  1  0.27284728  0.49177513  0.61499215  1
  Zr  Zr44  1  0.50339021  0.90151858  0.36766858  1
  Zr  Zr45  1  0.81769906  0.80293748  0.26213831  1
  Zr  Zr46  1  0.19045638  0.19302032  0.23422359  1
  Zr  Zr47  1  0.00116147  0.40709147  0.74504158  1
  Zr  Zr48  1  0.40117001  0.80459258  0.01328240  1
  Zr  Zr49  1  0.41829985  0.78741863  0.75582535  1
  Zr  Zr50  1  0.19202527  0.19839389  0.01863017  1
  Zr  Zr51  1  0.88230103  0.50503343  0.39283717  1
  Zr  Zr52  1  0.39383238  0.19539994  0.76580766  1
  Zr  Zr53  1  0.59678287  0.40457499  0.51452209  1
  Zr  Zr54  1  0.29874635  0.67466666  0.12615177  1
  Zr  Zr55  1  0.80168392  0.39904417  0.24874531  1
  Zr  Zr56  1  0.59924819  0.41391954  0.74199982  1
  Zr  Zr57  1  0.51664021  0.90967155  0.63102361  1
  Zr  Zr58  1  0.49063073  0.10876029  0.37524051  1
  Zr  Zr59  1  0.89714444  0.30969398  0.87976368  1
  Zr  Zr60  1  0.18096840  -0.01508902  0.23000770  1
  Zr  Zr61  1  0.90382019  0.70450224  0.62489236  1
  Zr  Zr62  1  0.58639135  0.20587162  -0.02279400  1
  Zr  Zr63  1  0.22474286  0.78520552  0.49898766  1
  Zr  Zr64  1  0.29029261  0.07142092  0.36197058  1
  Zr  Zr65  1  0.90168148  0.68994552  0.86036905  1
  Zr  Zr66  1  0.39768199  -0.01222053  0.49787134  1
  Zr  Zr67  1  0.88742485  0.09986265  0.10915083  1
  Zr  Zr68  1  0.70503563  0.50846304  0.12374693  1
  Zr  Zr69  1  0.19805911  0.18756251  0.49552635  1
  Zr  Zr70  1  0.78609301  0.20746230  -0.00474386  1
  Zr  Zr71  1  -0.00278749  0.20840197  0.73705679  1
  Zr  Zr72  1  0.79046275  0.20299517  0.51754618  1
  Zr  Zr73  1  0.78581248  0.19588266  0.24938081  1
  Zr  Zr74  1  0.40517815  0.39526941  -0.01172416  1
  Zr  Zr75  1  -0.00380069  0.41476784  0.00639852  1
  Zr  Zr76  1  -0.01083327  0.19962144  0.24480537  1
  Zr  Zr77  1  0.38728626  0.41067425  0.76046386  1
  Zr  Zr78  1  0.18502194  0.18995955  0.75160613  1
  Zr  Zr79  1  0.31121463  0.48488670  0.14206224  1
  Ta  Ta80  1  0.47136309  0.52223398  0.62865392  1
  Ta  Ta81  1  0.19445982  0.79041700  0.01594594  1
  Ta  Ta82  1  0.61107145  0.60938162  0.00373070  1
  Ta  Ta83  1  0.39479569  -0.00725870  0.76156732  1
  Ta  Ta84  1  0.90833395  0.50284495  0.60407079  1
  Ta  Ta85  1  0.00475008  0.79396013  -0.00592978  1
  Ta  Ta86  1  0.28587000  0.29764913  0.87829100  1
  Ta  Ta87  1  0.08290158  0.69774897  0.12822197  1
  Ta  Ta88  1  0.11362137  0.89286048  0.87891100  1
  Ta  Ta89  1  0.29480189  0.08345053  0.62887008  1
  Ta  Ta90  1  0.00920077  0.40555040  0.48846235  1
  Ta  Ta91  1  0.01082546  0.82320705  0.25816391  1
  Ta  Ta92  1  0.90220396  0.29678309  0.39015412  1
  Ta  Ta93  1  0.01584618  0.81026949  0.49221105  1
  Ta  Ta94  1  0.51277158  0.68963209  0.12726633  1
  Ta  Ta95  1  0.61237438  0.81052670  0.00036463  1
  Ta  Ta96  1  0.10088638  0.31581301  0.60994644  1
  Ta  Ta97  1  0.31628512  0.67908229  0.62793866  1
  Ta  Ta98  1  0.50581963  0.49579356  0.13132360  1
  Ta  Ta99  1  0.59796486  0.19089666  0.76464942  1
  Ta  Ta100  1  0.61276745  0.01012245  0.25024418  1
  Ta  Ta101  1  0.19779233  0.39470705  0.46868729  1
  Ta  Ta102  1  0.78843785  -0.00875238  -0.01596817  1
  Ta  Ta103  1  0.00331151  0.61212998  0.48716891  1
  Ta  Ta104  1  0.79252285  0.20586708  0.74466864  1
  Ta  Ta105  1  0.20074666  0.79636742  0.22937941  1
  Ta  Ta106  1  0.79919671  0.60188958  0.25519062  1
  Ta  Ta107  1  0.69341580  0.50666248  0.38799834  1
  Ta  Ta108  1  0.11227059  0.68466315  0.61614168  1
  Ta  Ta109  1  0.80079641  -0.00390364  0.24838773  1
  Ta  Ta110  1  -0.00071611  0.20277328  0.50865040  1
  Ta  Ta111  1  0.69898107  0.31160071  0.85911786  1
  Ta  Ta112  1  0.50134893  0.11505264  0.12398499  1
  Ta  Ta113  1  0.10736698  0.51276302  0.13520633  1
  Ta  Ta114  1  0.41236997  0.58788595  0.00395107  1
  Ta  Ta115  1  0.40657046  0.00189289  0.00269416  1
  Ta  Ta116  1  0.59964259  0.41129101  0.26129395  1
  Ta  Ta117  1  0.19423108  0.59457463  0.75185817  1
  Ta  Ta118  1  0.49950545  0.90224364  0.87865701  1
  Ta  Ta119  1  0.60262722  0.00739707  -0.01689249  1
  Ti  Ti120  1  0.10305732  0.68022902  0.88672172  1
  Ti  Ti121  1  0.01962800  0.78481202  0.75529916  1
  Ti  Ti122  1  0.08995807  0.09439483  0.89386004  1
  Ti  Ti123  1  0.41985071  0.38968310  0.26524991  1
  Ti  Ti124  1  0.10215671  0.09419522  0.62020369  1
  Ti  Ti125  1  -0.00456969  -0.00622571  0.50466387  1
  Ti  Ti126  1  0.70741103  0.51662464  0.61012980  1
  Ti  Ti127  1  0.59002263  0.80615937  0.50042123  1
  Ti  Ti128  1  0.58252079  0.20231499  0.50457008  1
  Ti  Ti129  1  0.19136655  -0.01633697  0.49852386  1
  Ti  Ti130  1  0.79522916  0.61288258  0.73396046  1
  Ti  Ti131  1  0.62518657  0.81048182  0.75504421  1
  Ti  Ti132  1  0.48515142  0.09866859  0.63123230  1
  Ti  Ti133  1  0.82502389  0.80035561  0.49083990  1
  Ti  Ti134  1  0.08971482  0.30776830  0.12314613  1
  Ti  Ti135  1  0.40536449  0.00102238  0.23690841  1
  Ti  Ti136  1  0.20264887  -0.00914149  0.75513008  1
  Ti  Ti137  1  0.69055935  0.08762319  0.11823412  1
  Ti  Ti138  1  0.91143264  0.50677497  0.87578970  1
  Ti  Ti139  1  0.32074368  0.29194409  0.13657212  1
  Ti  Ti140  1  0.79433494  0.41150155  -0.00193806  1
  Ti  Ti141  1  0.29871316  0.87568249  0.36582676  1
  Ti  Ti142  1  0.49646803  0.51255603  0.86515110  1
  Ti  Ti143  1  0.68741779  0.10031596  0.39084777  1
  Ti  Ti144  1  0.49869632  0.70284107  0.36283651  1
  Ti  Ti145  1  0.60098404  0.60367822  0.25513122  1
  Ti  Ti146  1  0.39566808  0.19373493  0.50577889  1
  Ti  Ti147  1  0.61498488  0.81160395  0.25055216  1
  Ti  Ti148  1  0.91122313  0.52049027  0.12961559  1
  Ti  Ti149  1  0.69608668  0.30049180  0.63238195  1
  Ti  Ti150  1  0.20667311  0.59633706  0.26580242  1
  Ti  Ti151  1  0.89469757  0.30565367  0.11648202  1
  Ti  Ti152  1  0.30842444  0.09253674  0.12657001  1
  Ti  Ti153  1  0.28768713  0.51056731  0.88172596  1
  Ti  Ti154  1  0.09011247  0.29350745  0.88978270  1
  Ti  Ti155  1  0.81748182  0.60304857  0.00477036  1
  Ti  Ti156  1  0.07048734  0.08262241  0.11321095  1
  Ti  Ti157  1  0.01555394  0.00613900  0.75624352  1
  Ti  Ti158  1  0.19507710  0.58352870  0.47453565  1
  Ti  Ti159  1  0.00968747  0.59100216  0.74078482  1
  Mo  Mo160  1  0.11500192  0.90925846  0.37848597  1
  Mo  Mo161  1  0.50971058  0.50485401  0.37102133  1
  Mo  Mo162  1  0.39825701  0.19503786  0.24027048  1
  Mo  Mo163  1  0.09758736  0.50757293  0.87787348  1
  Mo  Mo164  1  0.79543707  0.60981362  0.50725754  1
  Mo  Mo165  1  0.59765230  0.01174185  0.50006151  1
  Mo  Mo166  1  0.90113623  0.30814294  0.61107331  1
  Mo  Mo167  1  0.38902127  0.60049852  0.75510832  1
  Mo  Mo168  1  0.09657387  0.50322393  0.37050163  1
  Mo  Mo169  1  0.49410687  0.31199490  0.12644082  1
  Mo  Mo170  1  0.70756222  0.91417172  0.12400057  1
  Mo  Mo171  1  0.70365983  0.69869507  0.87422000  1
  Mo  Mo172  1  0.49209038  0.09410460  0.87469486  1
  Mo  Mo173  1  0.00389890  0.60629488  0.00484109  1
  Mo  Mo174  1  0.09785623  0.50661461  0.60959590  1
  Mo  Mo175  1  0.30710498  0.70064508  0.35134382  1
  Mo  Mo176  1  0.30826266  0.89711319  0.12740791  1
  Mo  Mo177  1  0.80050491  0.40107466  0.51672598  1
  Mo  Mo178  1  0.90501746  0.70966334  0.38513772  1
  Mo  Mo179  1  -0.00012308  0.20214699  0.00887817  1
  Mo  Mo180  1  0.80529486  -0.00366628  0.50507319  1
  Mo  Mo181  1  0.70201394  0.10533545  0.87087158  1
  Mo  Mo182  1  0.29798969  0.89652451  0.87912837  1
  Mo  Mo183  1  0.69576433  0.89154062  0.87511860  1
  Mo  Mo184  1  0.09162311  0.29168446  0.38239320  1
  Mo  Mo185  1  0.09168845  0.89027863  0.11520410  1
  Mo  Mo186  1  0.79901101  0.79169972  0.75366814  1
  Mo  Mo187  1  0.70283188  0.70796519  0.60995947  1
  Mo  Mo188  1  0.58575105  0.00099393  0.76960895  1
  Mo  Mo189  1  0.90271543  0.69700705  0.12795565  1
  Mo  Mo190  1  0.41646179  0.58836030  0.26170946  1
  Mo  Mo191  1  0.91929112  0.90998993  0.37996456  1
  Mo  Mo192  1  0.30431759  0.49328124  0.35712621  1
  Mo  Mo193  1  0.50453124  0.30244925  0.38454757  1
  Mo  Mo194  1  0.49855090  0.30827313  0.85572880  1
  Mo  Mo195  1  0.49338452  0.71247057  0.61947564  1
  Mo  Mo196  1  -0.00167820  -0.00878703  -0.01472803  1
  Mo  Mo197  1  -0.01627097  -0.00235520  0.24849986  1
  Mo  Mo198  1  0.41586371  0.78612263  0.49390462  1
  Mo  Mo199  1  0.19503653  0.59413382  0.00894610  1
