# generated using pymatgen
data_HfZrTaTiMo
_symmetry_space_group_name_H-M   'P 1'
_cell_length_a   15.19798007
_cell_length_b   15.20471995
_cell_length_c   16.87016179
_cell_angle_alpha   89.96576727
_cell_angle_beta   90.04081425
_cell_angle_gamma   90.07880123
_symmetry_Int_Tables_number   1
_chemical_formula_structural   HfZrTaTiMo
_chemical_formula_sum   'Hf40 Zr40 Ta40 Ti40 Mo40'
_cell_volume   3898.36900662
_cell_formula_units_Z   40
loop_
 _symmetry_equiv_pos_site_id
 _symmetry_equiv_pos_as_xyz
  1  'x, y, z'
loop_
 _atom_site_type_symbol
 _atom_site_label
 _atom_site_symmetry_multiplicity
 _atom_site_fract_x
 _atom_site_fract_y
 _atom_site_fract_z
 _atom_site_occupancy
  Hf  Hf0  1  0.01880109  0.40676077  0.49301695  1
  Hf  Hf1  1  0.07792210  0.69967157  0.12095942  1
  Hf  Hf2  1  0.80423111  0.20871876  0.75314101  1
  Hf  Hf3  1  0.40261524  0.21147119  0.25713919  1
  Hf  Hf4  1  0.68872516  0.70837713  0.37857542  1
  Hf  Hf5  1  0.18444544  0.20743490  0.49623355  1
  Hf  Hf6  1  0.50801493  0.90903731  0.13123575  1
  Hf  Hf7  1  -0.00074288  -0.00081643  0.49827512  1
  Hf  Hf8  1  0.89284896  0.08032629  0.12584636  1
  Hf  Hf9  1  0.71873653  0.90113711  0.11954668  1
  Hf  Hf10  1  0.51579436  0.90080378  0.37348104  1
  Hf  Hf11  1  0.30739457  0.89632151  0.37440779  1
  Hf  Hf12  1  0.81953342  0.38920562  0.26979783  1
  Hf  Hf13  1  0.39237721  0.60175457  -0.00741103  1
  Hf  Hf14  1  0.29960069  0.32575722  0.37532345  1
  Hf  Hf15  1  0.09571981  0.90283498  0.12880668  1
  Hf  Hf16  1  0.49567517  0.70271577  0.12822820  1
  Hf  Hf17  1  0.20522770  0.79065758  0.24455062  1
  Hf  Hf18  1  -0.00118655  0.20428779  0.75770564  1
  Hf  Hf19  1  0.69828965  0.09670492  0.86984645  1
  Hf  Hf20  1  0.70715005  0.69210230  0.12418611  1
  Hf  Hf21  1  0.78181998  0.18016512  0.24768371  1
  Hf  Hf22  1  0.91582892  0.90345924  0.63872126  1
  Hf  Hf23  1  0.19794854  0.78538555  0.49537509  1
  Hf  Hf24  1  0.57939748  0.20184859  -0.01022759  1
  Hf  Hf25  1  0.80272973  0.81116151  0.50949496  1
  Hf  Hf26  1  0.70634470  0.09725358  0.61847429  1
  Hf  Hf27  1  0.90545182  0.29283940  0.61446575  1
  Hf  Hf28  1  0.59880136  0.40469552  0.49235885  1
  Hf  Hf29  1  0.90659076  0.69740300  0.62458484  1
  Hf  Hf30  1  0.09880486  0.30746379  0.12178560  1
  Hf  Hf31  1  0.50668269  0.10290535  0.38958170  1
  Hf  Hf32  1  0.28978874  0.09331786  0.61403755  1
  Hf  Hf33  1  0.29279958  0.88837619  0.62097849  1
  Hf  Hf34  1  0.61284101  0.40571340  -0.00039017  1
  Hf  Hf35  1  0.59399116  0.80349629  0.00261112  1
  Hf  Hf36  1  0.09826276  0.30828814  0.35627079  1
  Hf  Hf37  1  -0.00500123  0.41717764  -0.00632017  1
  Hf  Hf38  1  -0.03474596  0.79705335  0.25055280  1
  Hf  Hf39  1  0.49577255  0.71838605  0.87253485  1
  Zr  Zr40  1  0.69797343  0.89000926  0.86773277  1
  Zr  Zr41  1  0.10168151  0.71932778  0.86760657  1
  Zr  Zr42  1  0.47830453  0.10387520  0.86696883  1
  Zr  Zr43  1  0.40317640  0.21332092  0.50509334  1
  Zr  Zr44  1  0.39249136  0.20447444  0.73801064  1
  Zr  Zr45  1  0.40666856  0.39704955  -0.01589293  1
  Zr  Zr46  1  0.89429046  0.30255558  0.11549237  1
  Zr  Zr47  1  0.48423607  0.50339685  0.35868880  1
  Zr  Zr48  1  0.10869886  0.50152916  0.86652567  1
  Zr  Zr49  1  0.69147361  0.69921368  0.62488027  1
  Zr  Zr50  1  0.58079217  0.60474770  0.50064302  1
  Zr  Zr51  1  0.60131440  0.38861560  0.25890769  1
  Zr  Zr52  1  0.80385870  0.61242195  0.26097132  1
  Zr  Zr53  1  0.79455239  0.19615601  -0.00188192  1
  Zr  Zr54  1  0.50020775  0.29257932  0.12411609  1
  Zr  Zr55  1  0.62607428  0.00567689  0.25188649  1
  Zr  Zr56  1  0.09322713  0.90204554  0.35886855  1
  Zr  Zr57  1  0.37118827  0.59474717  0.23562263  1
  Zr  Zr58  1  -0.00680065  0.60395078  0.75716130  1
  Zr  Zr59  1  0.09111261  0.68826175  0.36622421  1
  Zr  Zr60  1  0.79763921  0.58899850  0.49535948  1
  Zr  Zr61  1  0.39526721  0.41848031  0.50679046  1
  Zr  Zr62  1  -0.01719527  0.20760682  0.25260619  1
  Zr  Zr63  1  0.90541157  0.51401841  0.13454703  1
  Zr  Zr64  1  0.10628065  0.50429447  0.64242465  1
  Zr  Zr65  1  0.29489293  0.68819997  0.63842591  1
  Zr  Zr66  1  0.20130378  0.17813745  0.01076522  1
  Zr  Zr67  1  0.69759947  0.27673784  0.38439218  1
  Zr  Zr68  1  0.39773462  0.02112042  0.01419000  1
  Zr  Zr69  1  0.89394890  0.48599393  0.62072280  1
  Zr  Zr70  1  0.19230743  0.18356868  0.75480633  1
  Zr  Zr71  1  0.29772484  0.10109302  0.38072525  1
  Zr  Zr72  1  0.59816490  0.20555946  0.74386537  1
  Zr  Zr73  1  0.88931038  0.08465233  0.37515155  1
  Zr  Zr74  1  0.31538855  0.88689777  0.89219824  1
  Zr  Zr75  1  0.79286276  0.57803402  0.74589456  1
  Zr  Zr76  1  0.01149501  0.01174600  -0.00595376  1
  Zr  Zr77  1  0.50095803  0.49966649  0.13174048  1
  Zr  Zr78  1  0.30465163  0.49503556  0.65248401  1
  Zr  Zr79  1  0.69959695  0.69132716  0.87206468  1
  Ta  Ta80  1  0.40522663  -0.01118418  0.50428766  1
  Ta  Ta81  1  0.10252449  0.72620737  0.64603290  1
  Ta  Ta82  1  0.09488015  0.28826841  0.89257612  1
  Ta  Ta83  1  0.50503373  0.31795723  0.63223252  1
  Ta  Ta84  1  0.40715010  0.01087372  0.24341335  1
  Ta  Ta85  1  0.49058590  0.70312762  0.63576793  1
  Ta  Ta86  1  0.59970304  0.00230941  -0.00581250  1
  Ta  Ta87  1  0.10788221  0.50582401  0.13055913  1
  Ta  Ta88  1  0.81023353  0.00220697  0.75465053  1
  Ta  Ta89  1  0.50887071  0.50718383  0.86721177  1
  Ta  Ta90  1  0.38990472  -0.00409949  0.74534703  1
  Ta  Ta91  1  0.28875964  0.30699368  0.62557614  1
  Ta  Ta92  1  0.21285916  0.00302977  0.24049258  1
  Ta  Ta93  1  0.29841024  0.68608201  0.37366226  1
  Ta  Ta94  1  0.60859282  0.79642818  0.24795758  1
  Ta  Ta95  1  0.80733066  0.39315092  0.47993573  1
  Ta  Ta96  1  0.60100634  0.59690322  -0.00321650  1
  Ta  Ta97  1  0.40516867  0.80792892  0.75086907  1
  Ta  Ta98  1  0.09930278  0.09866169  0.35586196  1
  Ta  Ta99  1  0.30359414  0.28445826  0.88206951  1
  Ta  Ta100  1  0.10089273  0.30342932  0.62899117  1
  Ta  Ta101  1  0.69950815  0.08202091  0.40573832  1
  Ta  Ta102  1  0.80311310  0.58533819  -0.00333762  1
  Ta  Ta103  1  0.59487386  0.60170774  0.74845994  1
  Ta  Ta104  1  0.69877764  0.30656578  0.87397176  1
  Ta  Ta105  1  0.40724970  0.78923060  0.49622239  1
  Ta  Ta106  1  0.09607992  0.10083521  0.14293777  1
  Ta  Ta107  1  0.30421903  0.89609515  0.11906100  1
  Ta  Ta108  1  0.12101044  0.50078396  0.35536195  1
  Ta  Ta109  1  0.50133765  0.89557304  0.62393316  1
  Ta  Ta110  1  0.11777813  0.91604698  0.87668240  1
  Ta  Ta111  1  0.19124318  -0.00698670  0.49513427  1
  Ta  Ta112  1  0.91284871  0.89569734  0.86990981  1
  Ta  Ta113  1  0.70921628  0.31343350  0.61754129  1
  Ta  Ta114  1  0.80453094  0.79837220  0.74724488  1
  Ta  Ta115  1  0.59009517  -0.00832607  0.74846685  1
  Ta  Ta116  1  0.01815835  0.00721381  0.75663585  1
  Ta  Ta117  1  0.20717439  0.20503960  0.24093065  1
  Ta  Ta118  1  0.50040541  0.09171351  0.61951089  1
  Ta  Ta119  1  0.00713399  0.80347180  0.50159182  1
  Ti  Ti120  1  0.80148182  -0.00888000  -0.01532558  1
  Ti  Ti121  1  0.89148149  0.31149652  0.88784805  1
  Ti  Ti122  1  0.20103960  0.57762350  0.50183213  1
  Ti  Ti123  1  0.70045851  0.30004177  0.12650794  1
  Ti  Ti124  1  0.90077103  0.09927785  0.62227008  1
  Ti  Ti125  1  0.89719828  0.70068267  0.87048520  1
  Ti  Ti126  1  0.59502717  0.80857133  0.50405952  1
  Ti  Ti127  1  0.22343549  0.41298285  0.23411118  1
  Ti  Ti128  1  0.89621849  0.70449700  0.38899729  1
  Ti  Ti129  1  0.19539213  0.59494507  -0.00502850  1
  Ti  Ti130  1  0.49269645  0.70189051  0.35976373  1
  Ti  Ti131  1  0.29459124  0.68903137  0.86217567  1
  Ti  Ti132  1  0.59837989  0.20471380  0.51368405  1
  Ti  Ti133  1  0.28819753  0.69647608  0.11168507  1
  Ti  Ti134  1  0.71151230  0.49118841  0.87521615  1
  Ti  Ti135  1  -0.00552119  0.61444596  -0.01044570  1
  Ti  Ti136  1  -0.01217785  0.39552498  0.76331674  1
  Ti  Ti137  1  0.68561812  0.09958254  0.11280524  1
  Ti  Ti138  1  0.30446308  0.30434735  0.11565530  1
  Ti  Ti139  1  0.92669655  0.50620182  0.36918915  1
  Ti  Ti140  1  0.72094624  0.90232082  0.37936694  1
  Ti  Ti141  1  -0.00773697  0.20148017  0.48539819  1
  Ti  Ti142  1  0.27754244  0.08058844  0.87780431  1
  Ti  Ti143  1  0.61500317  0.40729253  0.74931755  1
  Ti  Ti144  1  0.20863005  0.40451355  -0.00666770  1
  Ti  Ti145  1  0.81273714  0.78878317  -0.00810652  1
  Ti  Ti146  1  0.69983993  0.90389117  0.63395657  1
  Ti  Ti147  1  0.90887370  0.10552703  0.87979859  1
  Ti  Ti148  1  0.50215501  0.50720167  0.63900801  1
  Ti  Ti149  1  0.40759019  0.39779035  0.76678544  1
  Ti  Ti150  1  0.39047335  0.60665474  0.49886383  1
  Ti  Ti151  1  0.70230904  0.49678559  0.13488806  1
  Ti  Ti152  1  0.19414811  0.80037146  0.00388871  1
  Ti  Ti153  1  0.39943954  0.80607901  0.24756490  1
  Ti  Ti154  1  0.09179226  0.09838999  0.62025840  1
  Ti  Ti155  1  0.69742040  0.50533877  0.36622418  1
  Ti  Ti156  1  0.01439561  0.60740119  0.50537279  1
  Ti  Ti157  1  0.90497074  0.88489550  0.11009161  1
  Ti  Ti158  1  0.20194557  0.38281105  0.76690099  1
  Ti  Ti159  1  0.59270967  0.19034652  0.25372401  1
  Mo  Mo160  1  -0.00232303  0.59731382  0.25084357  1
  Mo  Mo161  1  0.40605179  0.59990417  0.76431291  1
  Mo  Mo162  1  0.39306804  0.39508100  0.24264449  1
  Mo  Mo163  1  0.80143132  0.38863372  0.75280210  1
  Mo  Mo164  1  0.00987012  0.40760397  0.24942155  1
  Mo  Mo165  1  0.59998897  0.60531073  0.25136647  1
  Mo  Mo166  1  0.19649841  0.40214722  0.50558087  1
  Mo  Mo167  1  0.50273304  0.91060564  0.87397151  1
  Mo  Mo168  1  0.89638295  0.49944200  0.87953029  1
  Mo  Mo169  1  0.89803863  0.89038682  0.38451104  1
  Mo  Mo170  1  0.30181728  0.49530961  0.86210804  1
  Mo  Mo171  1  0.10614894  0.90981803  0.62490077  1
  Mo  Mo172  1  0.19471982  0.60366214  0.23548096  1
  Mo  Mo173  1  0.39519268  0.79822922  0.00983465  1
  Mo  Mo174  1  0.20620403  0.81441908  0.75581282  1
  Mo  Mo175  1  0.80421129  0.19839800  0.50603449  1
  Mo  Mo176  1  0.50531759  0.10195855  0.12882345  1
  Mo  Mo177  1  0.20472431  -0.00774474  0.74808249  1
  Mo  Mo178  1  -0.00166324  0.20576324  0.00057852  1
  Mo  Mo179  1  0.09991785  0.09981407  0.87821527  1
  Mo  Mo180  1  0.30367790  0.10587597  0.13858111  1
  Mo  Mo181  1  0.50697361  0.30980779  0.86140277  1
  Mo  Mo182  1  0.90395802  0.29880122  0.38456086  1
  Mo  Mo183  1  0.00036004  -0.00146568  0.24760312  1
  Mo  Mo184  1  0.79012701  0.80650930  0.25261695  1
  Mo  Mo185  1  0.89131910  0.70627655  0.11052943  1
  Mo  Mo186  1  -0.00387473  0.80445824  -0.00954539  1
  Mo  Mo187  1  0.81534380  -0.02195304  0.25054366  1
  Mo  Mo188  1  -0.00216308  0.81418926  0.75704204  1
  Mo  Mo189  1  0.80294732  -0.00552329  0.51567632  1
  Mo  Mo190  1  0.60086589  -0.01047729  0.50997520  1
  Mo  Mo191  1  0.29007573  0.49414895  0.10645688  1
  Mo  Mo192  1  0.59840882  0.80440630  0.74181106  1
  Mo  Mo193  1  0.68334808  0.48456576  0.62287052  1
  Mo  Mo194  1  0.79227331  0.40532588  0.00518376  1
  Mo  Mo195  1  0.39160450  0.20584331  -0.00395972  1
  Mo  Mo196  1  0.20093658  0.60463665  0.75748053  1
  Mo  Mo197  1  0.50088980  0.29690671  0.37899926  1
  Mo  Mo198  1  0.29242615  0.50963951  0.37500142  1
  Mo  Mo199  1  0.20221102  -0.00747779  0.01831679  1
