# generated using pymatgen
data_HfZrTaTiMo
_symmetry_space_group_name_H-M   'P 1'
_cell_length_a   15.21111226
_cell_length_b   15.20252048
_cell_length_c   16.85307209
_cell_angle_alpha   90.02220219
_cell_angle_beta   89.98347330
_cell_angle_gamma   89.90695495
_symmetry_Int_Tables_number   1
_chemical_formula_structural   HfZrTaTiMo
_chemical_formula_sum   'Hf40 Zr40 Ta40 Ti40 Mo40'
_cell_volume   3897.22090913
_cell_formula_units_Z   40
loop_
 _symmetry_equiv_pos_site_id
 _symmetry_equiv_pos_as_xyz
  1  'x, y, z'
loop_
 _atom_site_type_symbol
 _atom_site_label
 _atom_site_symmetry_multiplicity
 _atom_site_fract_x
 _atom_site_fract_y
 _atom_site_fract_z
 _atom_site_occupancy
  Hf  Hf0  1  0.69257038  0.30384517  0.36083191  1
  Hf  Hf1  1  0.51672363  0.08759545  0.88086637  1
  Hf  Hf2  1  0.00089145  0.79305464  -0.01129073  1
  Hf  Hf3  1  0.01024892  0.00325875  0.75354630  1
  Hf  Hf4  1  0.59465740  0.02012203  0.49560829  1
  Hf  Hf5  1  0.79047302  0.01123047  0.75476041  1
  Hf  Hf6  1  0.62120067  0.20640332  0.01840661  1
  Hf  Hf7  1  0.30493183  0.29976738  0.38340964  1
  Hf  Hf8  1  0.49025068  0.90977756  0.61648971  1
  Hf  Hf9  1  0.80017663  0.60251365  0.50422124  1
  Hf  Hf10  1  0.20813021  -0.01402912  0.50278197  1
  Hf  Hf11  1  0.89795453  0.09911175  0.61353486  1
  Hf  Hf12  1  0.20918951  0.58089935  0.75165911  1
  Hf  Hf13  1  0.49374148  0.90502230  0.36971234  1
  Hf  Hf14  1  0.78758297  -0.00281666  -0.00865145  1
  Hf  Hf15  1  0.19176265  0.78726247  0.50020661  1
  Hf  Hf16  1  0.90301294  0.70497725  0.63981205  1
  Hf  Hf17  1  0.40984869  -0.02645581  0.00214389  1
  Hf  Hf18  1  0.88462510  0.90260265  0.11944946  1
  Hf  Hf19  1  0.00140375  0.59861284  0.77175557  1
  Hf  Hf20  1  0.19132199  0.17714082  0.74499463  1
  Hf  Hf21  1  0.39712587  0.60687772  -0.01007975  1
  Hf  Hf22  1  0.30140866  0.70180185  0.62873696  1
  Hf  Hf23  1  0.31780252  0.88700258  0.15236671  1
  Hf  Hf24  1  0.48853900  0.72792045  0.87470487  1
  Hf  Hf25  1  -0.01077404  0.00567803  0.25100759  1
  Hf  Hf26  1  0.59850499  0.79257390  0.25008978  1
  Hf  Hf27  1  0.87832401  0.29191532  0.88406175  1
  Hf  Hf28  1  0.50524734  0.68685497  0.38676970  1
  Hf  Hf29  1  0.81228188  0.19978386  0.24756041  1
  Hf  Hf30  1  0.79563765  0.61028034  -0.01867596  1
  Hf  Hf31  1  0.51207977  0.30404212  0.87025392  1
  Hf  Hf32  1  0.90757767  0.49590242  0.11347290  1
  Hf  Hf33  1  0.59783243  0.40451331  0.49764271  1
  Hf  Hf34  1  0.90305993  0.51277139  0.36532773  1
  Hf  Hf35  1  0.61180734  0.61713550  0.76464867  1
  Hf  Hf36  1  0.30800560  0.10359033  0.12851961  1
  Hf  Hf37  1  0.59428340  0.41286732  0.01055609  1
  Hf  Hf38  1  0.69987078  0.90818033  0.62045279  1
  Hf  Hf39  1  0.90752136  0.50173198  0.63204734  1
  Zr  Zr40  1  0.89789490  0.09038455  0.38566506  1
  Zr  Zr41  1  0.59305757  0.82777732  0.75520187  1
  Zr  Zr42  1  0.10262116  0.49606480  0.12017333  1
  Zr  Zr43  1  0.18155351  0.77695102  0.25069311  1
  Zr  Zr44  1  0.09400244  0.29034799  0.62176273  1
  Zr  Zr45  1  -0.01264079  0.19487159  0.75307431  1
  Zr  Zr46  1  0.79164000  0.79285066  0.76242803  1
  Zr  Zr47  1  0.10399753  0.49593824  0.62553489  1
  Zr  Zr48  1  0.38988074  0.40991338  0.75405282  1
  Zr  Zr49  1  0.80281429  0.39759012  0.48848921  1
  Zr  Zr50  1  0.29927840  0.69305355  0.37445357  1
  Zr  Zr51  1  0.00613501  0.00419368  -0.00820745  1
  Zr  Zr52  1  0.69842792  0.47881101  0.87164553  1
  Zr  Zr53  1  0.19261138  0.39072178  0.25015915  1
  Zr  Zr54  1  0.30420919  0.29177678  0.62446472  1
  Zr  Zr55  1  0.40916317  0.20027675  0.25854841  1
  Zr  Zr56  1  0.08615740  0.89592992  0.37862779  1
  Zr  Zr57  1  0.21708151  0.79501992  0.00312542  1
  Zr  Zr58  1  0.10708234  0.50062647  0.37396754  1
  Zr  Zr59  1  0.68566299  0.51152339  0.36471416  1
  Zr  Zr60  1  0.50436326  0.51164856  0.63676816  1
  Zr  Zr61  1  0.19785046  0.19820512  0.25467444  1
  Zr  Zr62  1  0.70020239  0.51754966  0.12320864  1
  Zr  Zr63  1  0.48038243  0.30552437  0.11963993  1
  Zr  Zr64  1  0.69547711  0.10201895  0.36621517  1
  Zr  Zr65  1  0.19409088  0.00343821  0.25083102  1
  Zr  Zr66  1  0.29153620  0.08339761  0.87331078  1
  Zr  Zr67  1  0.70455575  0.90433765  0.37680629  1
  Zr  Zr68  1  0.50958867  0.29870227  0.63273398  1
  Zr  Zr69  1  0.38691639  0.40966704  -0.01399982  1
  Zr  Zr70  1  0.71051503  0.70420972  0.38212395  1
  Zr  Zr71  1  0.89232028  0.70040119  0.11007346  1
  Zr  Zr72  1  0.20002294  0.59226766  -0.01162395  1
  Zr  Zr73  1  0.70706179  0.48757405  0.64410322  1
  Zr  Zr74  1  0.09120043  0.89030500  0.12947879  1
  Zr  Zr75  1  0.39311761  0.19863177  -0.00820569  1
  Zr  Zr76  1  0.12059891  0.90308781  0.86233072  1
  Zr  Zr77  1  0.20271156  -0.00224988  0.01407405  1
  Zr  Zr78  1  0.30298811  0.68253596  0.13341876  1
  Zr  Zr79  1  0.88887761  0.30436169  0.62415061  1
  Ta  Ta80  1  0.41382024  0.59553467  0.25206547  1
  Ta  Ta81  1  -0.02109865  0.78774657  0.25149637  1
  Ta  Ta82  1  0.00623073  0.21214473  0.26544207  1
  Ta  Ta83  1  0.39368605  0.80632108  0.49953351  1
  Ta  Ta84  1  0.80273124  0.40564540  0.24291496  1
  Ta  Ta85  1  0.00285154  0.60918371  0.50321041  1
  Ta  Ta86  1  0.32194764  0.88324007  0.86040501  1
  Ta  Ta87  1  0.58318144  0.40790413  0.24195988  1
  Ta  Ta88  1  0.60099288  0.82685649  -0.00944975  1
  Ta  Ta89  1  0.29648401  0.70199809  0.85757247  1
  Ta  Ta90  1  0.60126662  0.20698385  0.23413650  1
  Ta  Ta91  1  0.40370649  0.40291553  0.50266625  1
  Ta  Ta92  1  0.80813789  0.61787267  0.24489307  1
  Ta  Ta93  1  0.80768147  0.80173799  0.50972820  1
  Ta  Ta94  1  0.69165028  0.89538319  0.12675623  1
  Ta  Ta95  1  0.90656465  0.48498752  0.89294463  1
  Ta  Ta96  1  -0.00410653  0.39691118  0.76346163  1
  Ta  Ta97  1  0.39208261  0.40876441  0.25042092  1
  Ta  Ta98  1  0.19845814  0.38418665  0.00428269  1
  Ta  Ta99  1  -0.00076670  0.20220860  0.00087505  1
  Ta  Ta100  1  0.30272963  0.89357315  0.36121353  1
  Ta  Ta101  1  0.18922218  0.19571498  0.00544278  1
  Ta  Ta102  1  0.39911006  0.19142133  0.75828429  1
  Ta  Ta103  1  0.00861556  0.60335715  0.24150165  1
  Ta  Ta104  1  -0.00371751  0.20765994  0.48744134  1
  Ta  Ta105  1  0.28423281  0.29600292  0.86715231  1
  Ta  Ta106  1  0.60345585  0.19498614  0.75181983  1
  Ta  Ta107  1  0.09743482  0.88803102  0.63064822  1
  Ta  Ta108  1  0.20294209  0.39472285  0.49997108  1
  Ta  Ta109  1  0.31296626  0.50145466  0.38542362  1
  Ta  Ta110  1  0.70829319  0.11956529  0.87979229  1
  Ta  Ta111  1  0.89732038  0.89216485  0.86980458  1
  Ta  Ta112  1  0.78973744  0.37931768  0.01482777  1
  Ta  Ta113  1  0.09277131  0.29013045  0.87788511  1
  Ta  Ta114  1  0.10098303  0.09853884  0.39183072  1
  Ta  Ta115  1  0.00216755  0.40211209  0.48952223  1
  Ta  Ta116  1  0.71156588  0.08918469  0.13673843  1
  Ta  Ta117  1  0.59790094  0.62270294  -0.00727817  1
  Ta  Ta118  1  0.20898530  0.19119152  0.49686706  1
  Ta  Ta119  1  0.90969969  0.10478956  0.12338056  1
  Ti  Ti120  1  0.60040898  0.79843970  0.50316648  1
  Ti  Ti121  1  0.49884663  0.50970663  0.86559582  1
  Ti  Ti122  1  0.79546907  0.80173326  0.24729591  1
  Ti  Ti123  1  0.20356972  0.59098174  0.50801628  1
  Ti  Ti124  1  0.90354238  0.30104509  0.12359650  1
  Ti  Ti125  1  0.89353900  0.89037887  0.37760458  1
  Ti  Ti126  1  0.40363349  0.61107876  0.75004376  1
  Ti  Ti127  1  0.41275160  -0.00141335  0.74640362  1
  Ti  Ti128  1  0.00804666  0.59912881  -0.01461557  1
  Ti  Ti129  1  0.48758781  0.51713426  0.12029591  1
  Ti  Ti130  1  0.50415521  0.70986689  0.62406757  1
  Ti  Ti131  1  0.50033585  0.10864607  0.62549084  1
  Ti  Ti132  1  0.10902013  0.47890002  0.88101377  1
  Ti  Ti133  1  0.08867365  0.29232500  0.12347434  1
  Ti  Ti134  1  0.40957546  0.59710484  0.50956674  1
  Ti  Ti135  1  0.10444092  0.71080260  0.86072663  1
  Ti  Ti136  1  0.80761235  0.59420058  0.77377930  1
  Ti  Ti137  1  0.90214676  0.09921888  0.88054705  1
  Ti  Ti138  1  0.60077535  0.60554867  0.23805655  1
  Ti  Ti139  1  0.19392732  0.38722811  0.74918785  1
  Ti  Ti140  1  0.30943564  0.08910343  0.37225167  1
  Ti  Ti141  1  0.42314732  0.19879293  0.48650223  1
  Ti  Ti142  1  0.59521685  0.00848037  0.25128132  1
  Ti  Ti143  1  0.69435942  0.11708830  0.61816363  1
  Ti  Ti144  1  -0.00816346  0.80134193  0.50392620  1
  Ti  Ti145  1  0.21068143  0.58247271  0.24758217  1
  Ti  Ti146  1  0.08343555  0.69261383  0.37822633  1
  Ti  Ti147  1  0.31295512  0.09395797  0.62035051  1
  Ti  Ti148  1  0.69414026  0.69757405  0.62129730  1
  Ti  Ti149  1  0.21896297  -0.01746831  0.72776862  1
  Ti  Ti150  1  0.50210019  0.71598814  0.11700968  1
  Ti  Ti151  1  0.80547310  -0.00515121  0.50488172  1
  Ti  Ti152  1  0.78643282  0.20491610  0.49402213  1
  Ti  Ti153  1  0.78373580  0.21883136  0.74503647  1
  Ti  Ti154  1  0.50362317  0.90294497  0.13887807  1
  Ti  Ti155  1  0.39790828  0.00609022  0.49204273  1
  Ti  Ti156  1  0.90574586  0.90058252  0.63431550  1
  Ti  Ti157  1  0.50589220  0.09060587  0.12264053  1
  Ti  Ti158  1  0.09579103  0.08823038  0.60369519  1
  Ti  Ti159  1  0.09488500  0.69910512  0.63706767  1
  Mo  Mo160  1  0.49919488  0.10976747  0.37123197  1
  Mo  Mo161  1  0.59955506  0.60757130  0.51409985  1
  Mo  Mo162  1  0.50237365  0.31292615  0.37103013  1
  Mo  Mo163  1  0.69970010  0.29386143  0.62252996  1
  Mo  Mo164  1  0.90650041  0.69823540  0.87524349  1
  Mo  Mo165  1  0.69670857  0.71160455  0.87908278  1
  Mo  Mo166  1  0.49457160  0.49782293  0.37521987  1
  Mo  Mo167  1  -0.00209665  -0.00864545  0.50918186  1
  Mo  Mo168  1  0.40626537  0.79563760  0.00324252  1
  Mo  Mo169  1  0.20061945  0.79402135  0.73980650  1
  Mo  Mo170  1  0.79749996  -0.00874856  0.24418932  1
  Mo  Mo171  1  0.30278076  0.90148154  0.61766776  1
  Mo  Mo172  1  0.00330281  0.39252536  -0.00557804  1
  Mo  Mo173  1  0.80575949  0.19383198  0.01806335  1
  Mo  Mo174  1  0.08608749  0.68855353  0.12324429  1
  Mo  Mo175  1  0.60184558  0.02019375  0.73844500  1
  Mo  Mo176  1  0.90170251  0.30742828  0.36958911  1
  Mo  Mo177  1  0.09983525  0.10500476  0.87735175  1
  Mo  Mo178  1  0.90649400  0.70602132  0.37684911  1
  Mo  Mo179  1  0.69554694  0.29287995  0.88101525  1
  Mo  Mo180  1  0.10066727  0.29627982  0.38930363  1
  Mo  Mo181  1  0.49833341  0.91481687  0.86997883  1
  Mo  Mo182  1  0.78733627  0.80240306  -0.01835918  1
  Mo  Mo183  1  0.00118177  0.80352975  0.75480572  1
  Mo  Mo184  1  0.40872419  0.78880191  0.25679655  1
  Mo  Mo185  1  0.39631332  0.80645879  0.73508877  1
  Mo  Mo186  1  0.30313610  0.49936397  0.60777564  1
  Mo  Mo187  1  0.28748664  0.30517422  0.12283030  1
  Mo  Mo188  1  0.40674393  0.00148924  0.25207663  1
  Mo  Mo189  1  0.59941025  0.20868602  0.49679005  1
  Mo  Mo190  1  0.60073381  0.00761231  0.01516832  1
  Mo  Mo191  1  0.60918405  0.38953348  0.75026188  1
  Mo  Mo192  1  0.68800570  0.92442158  0.87577004  1
  Mo  Mo193  1  0.69215229  0.71186418  0.11822773  1
  Mo  Mo194  1  -0.01161912  0.39191903  0.25323841  1
  Mo  Mo195  1  0.09046388  0.11104919  0.13002256  1
  Mo  Mo196  1  0.29744905  0.49438565  0.86839294  1
  Mo  Mo197  1  0.81055330  0.39997641  0.75754622  1
  Mo  Mo198  1  0.30897409  0.48877406  0.12784733  1
  Mo  Mo199  1  0.70294430  0.30662376  0.14469400  1
