# generated using pymatgen
data_HfZrTaTiMo
_symmetry_space_group_name_H-M   'P 1'
_cell_length_a   15.21296525
_cell_length_b   15.20426751
_cell_length_c   16.84845979
_cell_angle_alpha   89.97401241
_cell_angle_beta   90.02589932
_cell_angle_gamma   90.09302334
_symmetry_Int_Tables_number   1
_chemical_formula_structural   HfZrTaTiMo
_chemical_formula_sum   'Hf40 Zr40 Ta40 Ti40 Mo40'
_cell_volume   3897.07640111
_cell_formula_units_Z   40
loop_
 _symmetry_equiv_pos_site_id
 _symmetry_equiv_pos_as_xyz
  1  'x, y, z'
loop_
 _atom_site_type_symbol
 _atom_site_label
 _atom_site_symmetry_multiplicity
 _atom_site_fract_x
 _atom_site_fract_y
 _atom_site_fract_z
 _atom_site_occupancy
  Hf  Hf0  1  0.90464452  0.09722513  0.37193142  1
  Hf  Hf1  1  0.29981242  0.89755471  0.12565455  1
  Hf  Hf2  1  0.41576962  0.20204046  0.26015747  1
  Hf  Hf3  1  0.48923028  0.71876023  0.87809546  1
  Hf  Hf4  1  0.29180000  0.68355188  0.89187248  1
  Hf  Hf5  1  0.80919968  0.18896408  0.76303621  1
  Hf  Hf6  1  0.79437108  0.00118038  0.24138204  1
  Hf  Hf7  1  0.49825879  0.49222027  0.11462961  1
  Hf  Hf8  1  0.20210913  0.79085799  0.50927812  1
  Hf  Hf9  1  0.69782885  0.07105672  0.87175220  1
  Hf  Hf10  1  0.30238099  0.10016618  0.87146174  1
  Hf  Hf11  1  -0.01325111  0.60578751  0.74836827  1
  Hf  Hf12  1  0.41166560  0.40250506  0.26160895  1
  Hf  Hf13  1  0.90764874  0.69839857  0.38432523  1
  Hf  Hf14  1  0.11443619  0.50002799  0.88118035  1
  Hf  Hf15  1  0.89509316  0.30531921  0.37561300  1
  Hf  Hf16  1  0.59824285  0.00472291  0.23483915  1
  Hf  Hf17  1  0.10495440  0.10232956  0.13620885  1
  Hf  Hf18  1  0.39591116  -0.00319282  0.74966783  1
  Hf  Hf19  1  0.50562055  0.09647213  0.38888047  1
  Hf  Hf20  1  0.78184438  0.38701275  0.51378403  1
  Hf  Hf21  1  0.10369425  0.09600708  0.62883735  1
  Hf  Hf22  1  0.11276887  0.70184196  0.37310014  1
  Hf  Hf23  1  0.70737969  0.49899732  0.12073682  1
  Hf  Hf24  1  0.59564442  0.80002924  0.24115870  1
  Hf  Hf25  1  0.61271514  -0.00005147  0.51706601  1
  Hf  Hf26  1  0.50031209  0.30319484  0.87154461  1
  Hf  Hf27  1  0.49199097  0.10660311  0.61460809  1
  Hf  Hf28  1  -0.00328682  0.59259258  0.01274568  1
  Hf  Hf29  1  0.17664343  0.39989795  0.24053267  1
  Hf  Hf30  1  0.19110684  -0.00616599  0.49338707  1
  Hf  Hf31  1  0.00427348  0.00034335  -0.00590438  1
  Hf  Hf32  1  0.70834287  0.29140666  0.12092331  1
  Hf  Hf33  1  0.39129156  0.81251310  0.49936230  1
  Hf  Hf34  1  0.89932528  0.51203692  0.61501831  1
  Hf  Hf35  1  0.19719825  0.40339038  0.01674314  1
  Hf  Hf36  1  0.69435953  0.68607370  0.37379689  1
  Hf  Hf37  1  0.29972609  0.32084973  0.87717414  1
  Hf  Hf38  1  0.40001645  0.40724925  0.73791394  1
  Hf  Hf39  1  0.39045219  0.20090318  0.49209410  1
  Zr  Zr40  1  0.40752295  0.21145825  0.00557084  1
  Zr  Zr41  1  0.39982599  0.60328767  0.25032427  1
  Zr  Zr42  1  0.49587074  0.90683468  0.38125316  1
  Zr  Zr43  1  0.60220354  0.40923966  0.75063592  1
  Zr  Zr44  1  0.60382217  0.79348696  0.50851898  1
  Zr  Zr45  1  0.80402863  0.59351521  0.24987416  1
  Zr  Zr46  1  0.71069585  0.50580748  0.87776148  1
  Zr  Zr47  1  0.41248513  -0.00522746  0.00024592  1
  Zr  Zr48  1  0.60800256  0.61049288  -0.01233342  1
  Zr  Zr49  1  0.70176644  0.90143788  0.37262730  1
  Zr  Zr50  1  0.19569554  0.59580575  0.74054550  1
  Zr  Zr51  1  0.30037357  0.09718822  0.13941835  1
  Zr  Zr52  1  0.20634643  0.20317926  0.74918968  1
  Zr  Zr53  1  0.39117818  0.79391658  0.24993846  1
  Zr  Zr54  1  0.19485997  0.19824026  0.00061318  1
  Zr  Zr55  1  0.17973067  0.81138840  -0.00670027  1
  Zr  Zr56  1  0.19634969  0.80980825  0.75691136  1
  Zr  Zr57  1  0.90509499  0.28799327  0.62781121  1
  Zr  Zr58  1  0.60557311  0.20218057  0.74399337  1
  Zr  Zr59  1  0.80256498  -0.02972286  0.74810992  1
  Zr  Zr60  1  0.28371762  0.51395730  0.36810581  1
  Zr  Zr61  1  0.89488901  0.49993095  0.38620677  1
  Zr  Zr62  1  0.91359908  0.08728552  0.62382018  1
  Zr  Zr63  1  0.07781318  0.70552364  0.88012670  1
  Zr  Zr64  1  0.90396066  0.88744640  0.12369209  1
  Zr  Zr65  1  0.27735507  0.89286442  0.36008997  1
  Zr  Zr66  1  0.90237026  0.11263438  0.12965821  1
  Zr  Zr67  1  0.40171828  0.40637467  0.49294520  1
  Zr  Zr68  1  0.20382801  0.39183323  0.49857653  1
  Zr  Zr69  1  0.53521641  0.30312300  0.39206087  1
  Zr  Zr70  1  0.81526337  0.18863859  -0.01612480  1
  Zr  Zr71  1  0.49313520  0.69956342  0.63284233  1
  Zr  Zr72  1  0.01543422  0.40327394  0.73736786  1
  Zr  Zr73  1  0.38680893  0.61414214  0.49711941  1
  Zr  Zr74  1  0.60793870  0.18961299  -0.00128011  1
  Zr  Zr75  1  0.08455701  0.70408746  0.62140801  1
  Zr  Zr76  1  0.61421531  0.80906086  0.74843860  1
  Zr  Zr77  1  0.30677299  0.30192353  0.13687267  1
  Zr  Zr78  1  0.81404614  0.40016682  -0.00172717  1
  Zr  Zr79  1  0.48621093  0.70495573  0.10485055  1
  Ta  Ta80  1  0.00908625  0.19545885  0.49035263  1
  Ta  Ta81  1  0.30104009  0.51027999  0.62087433  1
  Ta  Ta82  1  0.59886874  0.82179751  0.00248076  1
  Ta  Ta83  1  0.30076456  0.50876629  0.12301437  1
  Ta  Ta84  1  0.28586544  0.70117270  0.10314662  1
  Ta  Ta85  1  0.69931549  0.70229253  0.12662369  1
  Ta  Ta86  1  0.90579057  0.89808879  0.37165597  1
  Ta  Ta87  1  0.69598331  0.48021928  0.37378701  1
  Ta  Ta88  1  0.39497274  0.60378812  0.75261624  1
  Ta  Ta89  1  0.10596789  0.29109891  0.61593244  1
  Ta  Ta90  1  0.09986172  0.30343166  0.87467413  1
  Ta  Ta91  1  0.49110628  0.90421209  0.62540082  1
  Ta  Ta92  1  0.90701688  0.88985332  0.61713591  1
  Ta  Ta93  1  0.49940289  0.69936027  0.37862304  1
  Ta  Ta94  1  0.79810622  0.19150135  0.50130587  1
  Ta  Ta95  1  0.59434854  0.39229329  -0.00273449  1
  Ta  Ta96  1  0.08465389  0.50513686  0.37513926  1
  Ta  Ta97  1  0.01317879  0.21558350  0.25623580  1
  Ta  Ta98  1  0.81105663  -0.00639340  0.50160528  1
  Ta  Ta99  1  0.00585431  -0.00634221  0.76642925  1
  Ta  Ta100  1  0.70599366  0.69565767  0.62616276  1
  Ta  Ta101  1  0.51459748  0.30816639  0.61020080  1
  Ta  Ta102  1  0.69975719  0.11058694  0.38049516  1
  Ta  Ta103  1  0.79119515  -0.01280601  0.00659119  1
  Ta  Ta104  1  0.29848556  0.09377741  0.36472888  1
  Ta  Ta105  1  0.50297844  0.09897330  0.86677529  1
  Ta  Ta106  1  0.51616889  0.51164061  0.38300432  1
  Ta  Ta107  1  0.61235783  0.19989603  0.24540426  1
  Ta  Ta108  1  0.59497391  0.60410399  0.76154854  1
  Ta  Ta109  1  0.91215959  0.30496498  0.86676062  1
  Ta  Ta110  1  0.10254941  0.89894884  0.13630874  1
  Ta  Ta111  1  0.89684247  0.88785344  0.88757348  1
  Ta  Ta112  1  0.60224007  -0.00000390  0.73210316  1
  Ta  Ta113  1  -0.01948747  0.80558931  0.75321909  1
  Ta  Ta114  1  0.87704880  0.69055298  0.88508577  1
  Ta  Ta115  1  0.18927510  0.61137319  0.23006280  1
  Ta  Ta116  1  0.80570570  0.40118637  0.74655122  1
  Ta  Ta117  1  0.00691209  0.40421645  0.50843438  1
  Ta  Ta118  1  0.90923828  0.49791626  0.87218977  1
  Ta  Ta119  1  0.78661864  0.79078830  0.00234255  1
  Ti  Ti120  1  0.00576826  0.19555215  0.75964385  1
  Ti  Ti121  1  0.71214566  0.10465257  0.62608489  1
  Ti  Ti122  1  0.80181239  0.79662194  0.24872096  1
  Ti  Ti123  1  0.40406612  0.20614264  0.74323342  1
  Ti  Ti124  1  0.20112871  0.00079048  -0.00572729  1
  Ti  Ti125  1  0.50374525  0.50893013  0.61736716  1
  Ti  Ti126  1  0.29655050  0.09432761  0.62242536  1
  Ti  Ti127  1  0.60680127  0.00023918  0.02047944  1
  Ti  Ti128  1  0.51305361  0.91373854  0.87000148  1
  Ti  Ti129  1  0.70641245  0.30236287  0.87487779  1
  Ti  Ti130  1  0.79128602  0.60543347  0.74782338  1
  Ti  Ti131  1  0.29020623  0.29468758  0.36316190  1
  Ti  Ti132  1  0.78400075  0.59821736  0.50100885  1
  Ti  Ti133  1  0.79913614  0.20549485  0.25274022  1
  Ti  Ti134  1  0.50320997  0.11221409  0.12662421  1
  Ti  Ti135  1  0.00375761  0.78869663  0.25011161  1
  Ti  Ti136  1  0.10171929  0.09874589  0.87097930  1
  Ti  Ti137  1  0.31082967  0.89073986  0.87545858  1
  Ti  Ti138  1  0.19782716  0.19329680  0.48919007  1
  Ti  Ti139  1  0.91136141  0.31648431  0.14095358  1
  Ti  Ti140  1  0.30589325  0.29459323  0.62140006  1
  Ti  Ti141  1  0.79857271  0.80387711  0.49721106  1
  Ti  Ti142  1  0.69123629  0.50371065  0.62934627  1
  Ti  Ti143  1  0.60942788  0.39455724  0.24639190  1
  Ti  Ti144  1  0.09309945  0.90789485  0.63124548  1
  Ti  Ti145  1  0.00511443  0.20692216  -0.00491080  1
  Ti  Ti146  1  0.89402961  0.69180648  0.12041053  1
  Ti  Ti147  1  0.89312817  0.70616202  0.61007774  1
  Ti  Ti148  1  0.47991665  0.50499736  0.88680122  1
  Ti  Ti149  1  0.09615326  0.30532102  0.37829644  1
  Ti  Ti150  1  0.18316653  0.59237417  0.51076184  1
  Ti  Ti151  1  0.40589422  -0.00300068  0.24642709  1
  Ti  Ti152  1  0.59625754  0.59488319  0.24566179  1
  Ti  Ti153  1  0.29479201  0.90183956  0.63232719  1
  Ti  Ti154  1  0.20513961  0.40182021  0.73625699  1
  Ti  Ti155  1  0.00265100  -0.00461963  0.25137078  1
  Ti  Ti156  1  0.10497217  0.09332529  0.36339207  1
  Ti  Ti157  1  0.00422678  0.39386150  0.00807085  1
  Ti  Ti158  1  0.00297205  0.59179229  0.23571356  1
  Ti  Ti159  1  0.00604736  0.81904699  0.49231046  1
  Mo  Mo160  1  0.00211340  -0.00248161  0.49168024  1
  Mo  Mo161  1  0.08505891  0.70954430  0.12524952  1
  Mo  Mo162  1  0.70783383  0.09862246  0.12417887  1
  Mo  Mo163  1  0.39701716  0.80706589  -0.00328831  1
  Mo  Mo164  1  0.80309891  0.60154205  0.00733162  1
  Mo  Mo165  1  0.19538195  -0.00244921  0.25328275  1
  Mo  Mo166  1  0.60401263  0.59672656  0.50324443  1
  Mo  Mo167  1  0.80941449  0.78181810  0.74698494  1
  Mo  Mo168  1  0.09139368  0.49762555  0.12726465  1
  Mo  Mo169  1  0.40361400  0.40355999  0.00361380  1
  Mo  Mo170  1  0.90010787  0.49493105  0.13116742  1
  Mo  Mo171  1  0.09727242  0.90806919  0.87294684  1
  Mo  Mo172  1  0.61946537  0.20532953  0.51542532  1
  Mo  Mo173  1  0.29346737  0.69578719  0.37241430  1
  Mo  Mo174  1  0.08534971  0.89994083  0.36062282  1
  Mo  Mo175  1  0.71125635  0.89643027  0.61849220  1
  Mo  Mo176  1  0.30302394  0.49866241  0.87563735  1
  Mo  Mo177  1  0.19784493  0.20103430  0.26538452  1
  Mo  Mo178  1  0.39538581  0.80187671  0.74859376  1
  Mo  Mo179  1  0.39174217  0.59462452  -0.00361989  1
  Mo  Mo180  1  0.69858062  0.89037619  0.87986976  1
  Mo  Mo181  1  0.19803135  0.00043916  0.75209246  1
  Mo  Mo182  1  -0.00938526  0.40698288  0.25422240  1
  Mo  Mo183  1  0.70127033  0.89062274  0.12683312  1
  Mo  Mo184  1  0.70844517  0.29545675  0.37240360  1
  Mo  Mo185  1  0.60649632  0.41194867  0.51106219  1
  Mo  Mo186  1  0.70555562  0.29797185  0.63543692  1
  Mo  Mo187  1  0.19097719  0.59656921  0.01714483  1
  Mo  Mo188  1  0.79391316  0.39289539  0.24857168  1
  Mo  Mo189  1  0.30001534  0.70636909  0.63556987  1
  Mo  Mo190  1  0.10119170  0.49468901  0.61641691  1
  Mo  Mo191  1  0.38553591  0.00209791  0.50729476  1
  Mo  Mo192  1  0.08768618  0.29223913  0.12726759  1
  Mo  Mo193  1  0.51280332  0.30362970  0.13179508  1
  Mo  Mo194  1  0.90995640  0.09323349  0.87684627  1
  Mo  Mo195  1  -0.00139616  0.60836085  0.49923027  1
  Mo  Mo196  1  0.69785049  0.70657318  0.87147747  1
  Mo  Mo197  1  0.18969205  0.79223536  0.23542330  1
  Mo  Mo198  1  -0.01649395  0.80173963  0.00324475  1
  Mo  Mo199  1  0.49569053  0.90640979  0.12370130  1
