# generated using pymatgen
data_HfZrTaTiMo
_symmetry_space_group_name_H-M   'P 1'
_cell_length_a   15.23105188
_cell_length_b   15.20536931
_cell_length_c   16.83438020
_cell_angle_alpha   89.98072648
_cell_angle_beta   89.95467665
_cell_angle_gamma   90.02380554
_symmetry_Int_Tables_number   1
_chemical_formula_structural   HfZrTaTiMo
_chemical_formula_sum   'Hf40 Zr40 Ta40 Ti40 Mo40'
_cell_volume   3898.73577751
_cell_formula_units_Z   40
loop_
 _symmetry_equiv_pos_site_id
 _symmetry_equiv_pos_as_xyz
  1  'x, y, z'
loop_
 _atom_site_type_symbol
 _atom_site_label
 _atom_site_symmetry_multiplicity
 _atom_site_fract_x
 _atom_site_fract_y
 _atom_site_fract_z
 _atom_site_occupancy
  Hf  Hf0  1  0.00794831  0.01408156  0.24784746  1
  Hf  Hf1  1  0.40829199  -0.00966501  0.51301587  1
  Hf  Hf2  1  0.38879321  -0.00524382  0.23140013  1
  Hf  Hf3  1  0.81561658  -0.00161132  0.77078663  1
  Hf  Hf4  1  0.28638049  0.29937484  0.36793769  1
  Hf  Hf5  1  0.60743530  -0.00487364  -0.01074447  1
  Hf  Hf6  1  0.28236265  0.69311629  0.62846436  1
  Hf  Hf7  1  0.01562099  0.01233577  0.77049226  1
  Hf  Hf8  1  -0.00287770  0.21726130  0.76415461  1
  Hf  Hf9  1  0.28701127  0.09119470  0.36635911  1
  Hf  Hf10  1  0.50035795  0.31561961  0.11404485  1
  Hf  Hf11  1  0.28897578  0.50945265  0.36719950  1
  Hf  Hf12  1  0.91544175  0.70451342  0.61606817  1
  Hf  Hf13  1  0.69560478  0.89531038  0.65188619  1
  Hf  Hf14  1  0.90794863  0.49714298  0.61632408  1
  Hf  Hf15  1  0.89426519  0.71768124  0.12699230  1
  Hf  Hf16  1  0.20263280  0.00156708  0.02403317  1
  Hf  Hf17  1  -0.00541920  0.41549338  0.75528754  1
  Hf  Hf18  1  0.39886035  0.80077205  0.51289555  1
  Hf  Hf19  1  0.40067675  0.78588731  -0.01069352  1
  Hf  Hf20  1  0.71734552  0.89202934  0.11846695  1
  Hf  Hf21  1  0.50745439  0.48607255  0.86766013  1
  Hf  Hf22  1  0.39065859  0.18912116  -0.00286895  1
  Hf  Hf23  1  0.80059747  0.81973555  0.49463123  1
  Hf  Hf24  1  0.80089834  0.39280939  0.50138716  1
  Hf  Hf25  1  0.60545833  0.20183681  -0.00107029  1
  Hf  Hf26  1  0.39524153  -0.01583187  0.00308712  1
  Hf  Hf27  1  0.39265316  0.79254869  0.74767032  1
  Hf  Hf28  1  0.49808529  0.09584417  0.86186115  1
  Hf  Hf29  1  0.60698729  0.79037552  0.25364256  1
  Hf  Hf30  1  0.30398651  0.88902293  0.36373454  1
  Hf  Hf31  1  0.39404442  0.59426201  0.50226628  1
  Hf  Hf32  1  0.80581435  0.21008820  0.75477294  1
  Hf  Hf33  1  0.49902964  0.09994081  0.37371412  1
  Hf  Hf34  1  0.29873907  0.49026827  0.11800728  1
  Hf  Hf35  1  0.00364716  0.01198015  0.49371226  1
  Hf  Hf36  1  0.59240219  0.39972838  0.50335110  1
  Hf  Hf37  1  0.00813155  0.60139158  0.02957224  1
  Hf  Hf38  1  0.60075433  0.19802657  0.24087536  1
  Hf  Hf39  1  0.91378555  0.70035233  0.37152232  1
  Zr  Zr40  1  0.91251592  0.69801626  0.89371981  1
  Zr  Zr41  1  0.38800547  0.38306289  -0.02104333  1
  Zr  Zr42  1  0.39645524  0.39868500  0.49005598  1
  Zr  Zr43  1  0.80467670  0.19429221  0.24222907  1
  Zr  Zr44  1  0.40331202  0.19637416  0.50255348  1
  Zr  Zr45  1  0.61238244  -0.00876881  0.25404033  1
  Zr  Zr46  1  0.19254135  0.41049471  0.75505490  1
  Zr  Zr47  1  0.37712700  0.58096511  0.76293469  1
  Zr  Zr48  1  0.78823858  0.40579777  0.75273356  1
  Zr  Zr49  1  0.00547720  0.40024292  0.47948352  1
  Zr  Zr50  1  0.82867574  0.59992224  0.75440148  1
  Zr  Zr51  1  0.49121527  0.68950611  0.37684470  1
  Zr  Zr52  1  0.39233910  0.20128500  0.75631204  1
  Zr  Zr53  1  0.49365827  0.48007953  0.64424873  1
  Zr  Zr54  1  0.71273451  0.09721701  0.38421462  1
  Zr  Zr55  1  0.69790104  0.29157881  0.37808723  1
  Zr  Zr56  1  0.71109410  0.69433778  0.63187665  1
  Zr  Zr57  1  0.90832290  0.91296173  0.11247269  1
  Zr  Zr58  1  0.69542143  0.70480870  0.38407634  1
  Zr  Zr59  1  0.78773816  0.61336885  0.24588985  1
  Zr  Zr60  1  0.39176133  0.20781744  0.23599401  1
  Zr  Zr61  1  0.59505532  0.59432691  -0.00754451  1
  Zr  Zr62  1  0.90934313  0.91091838  0.62869188  1
  Zr  Zr63  1  0.51028503  0.89243369  0.85684498  1
  Zr  Zr64  1  0.50697613  0.69021633  0.64080501  1
  Zr  Zr65  1  0.00235402  0.80191669  0.76383336  1
  Zr  Zr66  1  0.68975082  0.49772276  0.36664438  1
  Zr  Zr67  1  0.17085371  0.20414408  0.48971715  1
  Zr  Zr68  1  0.18956960  0.20292447  0.75229545  1
  Zr  Zr69  1  0.50476731  0.87869802  0.12428642  1
  Zr  Zr70  1  0.19850652  -0.01091367  0.49686970  1
  Zr  Zr71  1  0.50699200  0.09452733  0.12047342  1
  Zr  Zr72  1  0.38049148  -0.01330463  0.73920042  1
  Zr  Zr73  1  0.80344187  0.59523774  0.49513999  1
  Zr  Zr74  1  0.61026742  -0.01059929  0.50382069  1
  Zr  Zr75  1  0.29304402  0.30795540  0.61890235  1
  Zr  Zr76  1  0.61239882  0.79209861  -0.01153872  1
  Zr  Zr77  1  0.18156755  0.19082148  0.23301015  1
  Zr  Zr78  1  0.28247423  0.09537687  0.62308065  1
  Zr  Zr79  1  0.79230057  0.59448846  0.00825986  1
  Ta  Ta80  1  0.28477440  0.08317057  0.87694248  1
  Ta  Ta81  1  0.70802737  0.30460629  0.12335021  1
  Ta  Ta82  1  0.70987330  0.09961370  0.63808919  1
  Ta  Ta83  1  0.62325718  0.57527749  0.75242532  1
  Ta  Ta84  1  0.80876254  0.00002837  0.25296792  1
  Ta  Ta85  1  0.10909311  0.70094920  0.36506075  1
  Ta  Ta86  1  0.30601746  0.69784817  0.12475423  1
  Ta  Ta87  1  0.91760767  0.11771084  0.37412311  1
  Ta  Ta88  1  0.69690047  0.30309744  0.62610403  1
  Ta  Ta89  1  0.10953325  0.71879822  0.13266869  1
  Ta  Ta90  1  0.59459816  0.80182731  0.50789930  1
  Ta  Ta91  1  0.90008041  0.30264873  0.36151652  1
  Ta  Ta92  1  0.69402231  0.10953747  0.86251240  1
  Ta  Ta93  1  0.08781873  0.51899045  0.88721765  1
  Ta  Ta94  1  0.00881059  0.80939415  0.25128557  1
  Ta  Ta95  1  0.90045793  0.48819244  0.89355260  1
  Ta  Ta96  1  0.89185947  0.49458482  0.14554589  1
  Ta  Ta97  1  0.08284609  0.31437186  0.62067331  1
  Ta  Ta98  1  0.28435187  0.49972274  0.62033735  1
  Ta  Ta99  1  0.69115801  0.49042298  0.13248542  1
  Ta  Ta100  1  0.80081655  0.00035781  -0.02338649  1
  Ta  Ta101  1  0.11051085  0.90372240  0.63070235  1
  Ta  Ta102  1  0.60421380  0.19500704  0.51652391  1
  Ta  Ta103  1  0.10929028  0.12155972  0.89661443  1
  Ta  Ta104  1  0.07576305  0.10861512  0.62665019  1
  Ta  Ta105  1  0.50456739  0.68716744  0.85636119  1
  Ta  Ta106  1  0.90005733  0.50096903  0.35183497  1
  Ta  Ta107  1  0.51320376  0.09023237  0.64105604  1
  Ta  Ta108  1  0.00695940  0.39450846  0.24601678  1
  Ta  Ta109  1  0.39262621  0.59485789  -0.01346114  1
  Ta  Ta110  1  0.09786967  0.70724927  0.62103461  1
  Ta  Ta111  1  0.00039999  0.40733882  0.02149644  1
  Ta  Ta112  1  0.59298691  0.39750952  0.24838614  1
  Ta  Ta113  1  0.40343996  0.40790767  0.25318498  1
  Ta  Ta114  1  0.01629333  0.80863907  0.49015867  1
  Ta  Ta115  1  -0.00219463  0.21524993  0.00487790  1
  Ta  Ta116  1  0.70646410  0.70267916  0.85926434  1
  Ta  Ta117  1  0.20269035  0.21966192  0.01938204  1
  Ta  Ta118  1  0.71471303  0.09371452  0.11499823  1
  Ta  Ta119  1  0.09930030  0.51878269  0.61455716  1
  Ti  Ti120  1  0.20112457  0.81531903  0.75618317  1
  Ti  Ti121  1  0.90568621  0.91230044  0.37493768  1
  Ti  Ti122  1  0.28896644  0.69904631  0.87569689  1
  Ti  Ti123  1  0.50108759  0.28900886  0.63868873  1
  Ti  Ti124  1  0.27354687  0.49269607  0.89028482  1
  Ti  Ti125  1  0.19690630  0.39535660  0.24197364  1
  Ti  Ti126  1  0.49586257  0.50114721  0.11420563  1
  Ti  Ti127  1  0.00370752  0.00578872  -0.01147059  1
  Ti  Ti128  1  0.40032202  0.78755849  0.24468299  1
  Ti  Ti129  1  0.19982731  0.79362376  0.49716611  1
  Ti  Ti130  1  0.19477476  0.60290677  0.23719523  1
  Ti  Ti131  1  0.29266245  0.69927435  0.36911902  1
  Ti  Ti132  1  0.09231125  0.51055239  0.35751016  1
  Ti  Ti133  1  0.90467237  0.11590295  0.88932596  1
  Ti  Ti134  1  0.50651916  0.89330976  0.37278015  1
  Ti  Ti135  1  0.79912009  0.21373222  -0.00799620  1
  Ti  Ti136  1  0.09913729  0.32243302  0.89346071  1
  Ti  Ti137  1  0.69011793  0.69759940  0.12353220  1
  Ti  Ti138  1  0.19935505  0.60580949  0.01048021  1
  Ti  Ti139  1  0.08452137  0.10479927  0.11232098  1
  Ti  Ti140  1  0.52348880  0.29042584  0.86343148  1
  Ti  Ti141  1  0.58161959  0.58962986  0.24558441  1
  Ti  Ti142  1  0.10789686  0.70617100  0.88556009  1
  Ti  Ti143  1  0.20691788  0.80524474  0.00436824  1
  Ti  Ti144  1  0.19139163  0.41157420  0.48976163  1
  Ti  Ti145  1  0.18037055  0.60771181  0.75587930  1
  Ti  Ti146  1  0.11010008  0.90461214  0.36232392  1
  Ti  Ti147  1  0.81457873  0.19872080  0.51543716  1
  Ti  Ti148  1  0.62624906  0.39867056  -0.01196044  1
  Ti  Ti149  1  0.80306422  0.81618429  0.26404486  1
  Ti  Ti150  1  0.49998685  0.30050645  0.37250130  1
  Ti  Ti151  1  0.12318872  0.91272972  0.88237588  1
  Ti  Ti152  1  0.80918646  0.01150692  0.50652886  1
  Ti  Ti153  1  0.49680446  0.68573960  0.12156862  1
  Ti  Ti154  1  0.01421537  0.81203293  0.00016960  1
  Ti  Ti155  1  0.59606327  0.59398819  0.50902304  1
  Ti  Ti156  1  0.38244696  0.38466380  0.77096471  1
  Ti  Ti157  1  0.89948286  0.30050879  0.13279167  1
  Ti  Ti158  1  0.39764675  0.59430847  0.24731063  1
  Ti  Ti159  1  0.89546149  0.10428944  0.10946031  1
  Mo  Mo160  1  0.90584742  0.29544513  0.62354706  1
  Mo  Mo161  1  0.60095656  0.38627361  0.75181595  1
  Mo  Mo162  1  0.70601335  0.30184604  0.87962209  1
  Mo  Mo163  1  0.29376076  0.89281553  0.87922201  1
  Mo  Mo164  1  0.49519391  0.49563643  0.36869908  1
  Mo  Mo165  1  0.71134173  0.89607460  0.85904137  1
  Mo  Mo166  1  0.18871803  0.00182921  0.75414591  1
  Mo  Mo167  1  0.91501331  0.90241917  0.89344887  1
  Mo  Mo168  1  0.90103752  0.10509115  0.63148606  1
  Mo  Mo169  1  0.09576477  0.89874169  0.12464953  1
  Mo  Mo170  1  0.71179554  0.90042565  0.37821869  1
  Mo  Mo171  1  0.18661687  0.41275761  0.00511278  1
  Mo  Mo172  1  0.90562171  0.30724276  0.89051894  1
  Mo  Mo173  1  0.69562115  0.49754994  0.61991398  1
  Mo  Mo174  1  0.01411162  0.60660886  0.48708890  1
  Mo  Mo175  1  0.00269934  0.60676864  0.23528309  1
  Mo  Mo176  1  0.09740722  0.09889983  0.36745888  1
  Mo  Mo177  1  0.28897952  0.88782815  0.62386472  1
  Mo  Mo178  1  0.80291802  0.80580800  -0.01449829  1
  Mo  Mo179  1  0.18847392  0.60299122  0.49118603  1
  Mo  Mo180  1  0.79494354  0.39937145  0.24789476  1
  Mo  Mo181  1  0.09598728  0.31109496  0.12196354  1
  Mo  Mo182  1  0.27061461  0.28309352  0.87899045  1
  Mo  Mo183  1  0.09973904  0.50836542  0.14212363  1
  Mo  Mo184  1  0.20598180  0.79692008  0.24844263  1
  Mo  Mo185  1  0.50430286  0.89421887  0.63497539  1
  Mo  Mo186  1  0.80844141  0.39559194  0.00965664  1
  Mo  Mo187  1  0.30129513  0.30554758  0.13121691  1
  Mo  Mo188  1  0.60481556  0.00239284  0.75099246  1
  Mo  Mo189  1  0.19390779  -0.01059107  0.22837056  1
  Mo  Mo190  1  0.60407598  0.78780447  0.75363280  1
  Mo  Mo191  1  0.81105452  0.80125880  0.76554394  1
  Mo  Mo192  1  0.01337721  0.60056516  0.75422307  1
  Mo  Mo193  1  0.08341798  0.29037155  0.36087059  1
  Mo  Mo194  1  0.29205842  0.87829826  0.13352082  1
  Mo  Mo195  1  0.60695243  0.20301936  0.73979824  1
  Mo  Mo196  1  -0.01240032  0.20721501  0.50132214  1
  Mo  Mo197  1  -0.00581222  0.20227418  0.23329764  1
  Mo  Mo198  1  0.29792149  0.09751485  0.12234582  1
  Mo  Mo199  1  0.70754563  0.49866345  0.87930461  1
