# generated using pymatgen
data_HfZrTaTiMo
_symmetry_space_group_name_H-M   'P 1'
_cell_length_a   15.21850552
_cell_length_b   15.21232696
_cell_length_c   16.85293247
_cell_angle_alpha   90.03088352
_cell_angle_beta   89.93021664
_cell_angle_gamma   89.96417114
_symmetry_Int_Tables_number   1
_chemical_formula_structural   HfZrTaTiMo
_chemical_formula_sum   'Hf40 Zr40 Ta40 Ti40 Mo40'
_cell_volume   3901.59932631
_cell_formula_units_Z   40
loop_
 _symmetry_equiv_pos_site_id
 _symmetry_equiv_pos_as_xyz
  1  'x, y, z'
loop_
 _atom_site_type_symbol
 _atom_site_label
 _atom_site_symmetry_multiplicity
 _atom_site_fract_x
 _atom_site_fract_y
 _atom_site_fract_z
 _atom_site_occupancy
  Hf  Hf0  1  0.80503380  0.79598213  0.26042917  1
  Hf  Hf1  1  0.20767031  0.60166723  0.50616947  1
  Hf  Hf2  1  0.60477529  0.40038325  0.50508375  1
  Hf  Hf3  1  0.10650494  0.29226743  0.87224339  1
  Hf  Hf4  1  0.80485988  0.80335853  0.00267376  1
  Hf  Hf5  1  0.09044148  0.10050174  0.88345140  1
  Hf  Hf6  1  0.39231750  0.40494120  0.51066983  1
  Hf  Hf7  1  0.30237922  0.09267341  0.13057359  1
  Hf  Hf8  1  0.19250745  0.59789393  0.74667634  1
  Hf  Hf9  1  0.21014100  0.00322792  0.74660199  1
  Hf  Hf10  1  0.39230425  0.19822914  0.74765723  1
  Hf  Hf11  1  0.11500965  0.69304559  0.11276584  1
  Hf  Hf12  1  0.79651711  0.78901809  0.48573955  1
  Hf  Hf13  1  0.11146926  0.90490105  0.89162279  1
  Hf  Hf14  1  0.60234417  0.19749773  0.76082421  1
  Hf  Hf15  1  -0.01007684  0.39519493  0.51892782  1
  Hf  Hf16  1  -0.00491132  0.39128720  0.00037633  1
  Hf  Hf17  1  0.19630176  0.20315970  0.01142554  1
  Hf  Hf18  1  0.90110731  0.29377162  0.87190345  1
  Hf  Hf19  1  0.30958972  0.89205304  0.61720444  1
  Hf  Hf20  1  0.71540415  0.49263516  0.38496697  1
  Hf  Hf21  1  0.59822423  0.40902722  0.73951023  1
  Hf  Hf22  1  0.49746170  0.10837700  0.13296093  1
  Hf  Hf23  1  0.59863642  0.20425995  -0.01123196  1
  Hf  Hf24  1  0.81137827  0.40805933  0.73921006  1
  Hf  Hf25  1  0.69172929  0.70812703  0.86848723  1
  Hf  Hf26  1  0.90026968  0.70466344  0.62947313  1
  Hf  Hf27  1  0.89569735  0.30011976  0.36676399  1
  Hf  Hf28  1  0.59878515  0.38647869  0.26401510  1
  Hf  Hf29  1  0.60006043  0.00549481  0.75486329  1
  Hf  Hf30  1  0.52046577  0.71239389  0.36491248  1
  Hf  Hf31  1  0.49525878  0.71690263  0.63162154  1
  Hf  Hf32  1  0.30177115  0.30939906  0.87553392  1
  Hf  Hf33  1  0.69573613  0.89132902  0.13446468  1
  Hf  Hf34  1  0.58921818  0.40079711  -0.00712486  1
  Hf  Hf35  1  0.49383822  0.50596436  0.38206856  1
  Hf  Hf36  1  0.70727122  0.50524576  0.87131601  1
  Hf  Hf37  1  0.71316540  0.68062815  0.12139423  1
  Hf  Hf38  1  0.30336865  0.50376046  0.87031990  1
  Hf  Hf39  1  0.91255519  0.69039644  0.37245654  1
  Zr  Zr40  1  0.01148098  0.79446818  0.76659495  1
  Zr  Zr41  1  0.60077158  -0.00239693  0.00235459  1
  Zr  Zr42  1  0.09783936  0.49386830  0.87799337  1
  Zr  Zr43  1  0.69940374  0.10727931  0.13134637  1
  Zr  Zr44  1  0.01077137  0.37741680  0.72862769  1
  Zr  Zr45  1  0.69420425  0.10135653  0.38750649  1
  Zr  Zr46  1  -0.00311496  0.00598867  0.74802065  1
  Zr  Zr47  1  0.29145372  0.31162438  0.38176319  1
  Zr  Zr48  1  0.09355926  0.10114544  0.61389088  1
  Zr  Zr49  1  0.67790863  0.09725832  0.60164601  1
  Zr  Zr50  1  0.80415669  0.00175452  0.25558332  1
  Zr  Zr51  1  0.70290245  0.90177861  0.60823994  1
  Zr  Zr52  1  0.39227132  0.40564277  0.25981804  1
  Zr  Zr53  1  0.19084345  -0.00275897  0.25679600  1
  Zr  Zr54  1  0.39895023  0.59598127  0.00105742  1
  Zr  Zr55  1  0.30667571  0.30762974  0.12543808  1
  Zr  Zr56  1  0.67995746  0.88678065  0.38098837  1
  Zr  Zr57  1  0.60128961  0.60467026  -0.00183775  1
  Zr  Zr58  1  0.08794854  0.09436504  0.12734381  1
  Zr  Zr59  1  0.19287591  0.20726619  0.25543918  1
  Zr  Zr60  1  0.89176799  0.68894247  0.87208916  1
  Zr  Zr61  1  0.49821123  0.28247606  0.61956710  1
  Zr  Zr62  1  0.91581711  0.70391775  0.12877782  1
  Zr  Zr63  1  0.89635288  0.49929845  0.12038927  1
  Zr  Zr64  1  0.11130664  0.70752725  0.61997336  1
  Zr  Zr65  1  0.49975206  0.49253282  0.12903151  1
  Zr  Zr66  1  0.48173155  0.90308802  0.13999867  1
  Zr  Zr67  1  0.22281458  0.79181409  0.76289436  1
  Zr  Zr68  1  0.29223213  0.10189872  0.87982516  1
  Zr  Zr69  1  0.10659624  0.90022939  0.61150762  1
  Zr  Zr70  1  0.90148379  0.90094893  0.61871893  1
  Zr  Zr71  1  -0.01128385  0.58096751  0.74549984  1
  Zr  Zr72  1  0.71068764  0.29577326  0.62380073  1
  Zr  Zr73  1  0.17849910  0.41750320  0.25222152  1
  Zr  Zr74  1  0.40339503  0.79875620  0.00211442  1
  Zr  Zr75  1  0.80775525  0.58332544  0.51249499  1
  Zr  Zr76  1  0.09483427  0.90035609  0.37969311  1
  Zr  Zr77  1  0.61684614  0.59080953  0.25112402  1
  Zr  Zr78  1  0.31189807  0.70596073  0.37051194  1
  Zr  Zr79  1  0.40846417  0.00822366  0.48200706  1
  Ta  Ta80  1  0.28899451  0.51517062  0.12234678  1
  Ta  Ta81  1  0.81308653  0.59132083  0.25768005  1
  Ta  Ta82  1  0.58753760  0.00061523  0.26143339  1
  Ta  Ta83  1  0.88450781  0.10202072  0.61264151  1
  Ta  Ta84  1  0.80268145  0.21012059  0.49309207  1
  Ta  Ta85  1  0.48843352  0.70524908  0.85933857  1
  Ta  Ta86  1  0.20093797  0.20565855  0.49996050  1
  Ta  Ta87  1  0.79561084  0.00529277  0.75021939  1
  Ta  Ta88  1  0.00900684  0.59005964  0.50832531  1
  Ta  Ta89  1  0.50453000  0.90027284  0.87654384  1
  Ta  Ta90  1  0.39150980  0.61291046  0.74139736  1
  Ta  Ta91  1  0.40621009  0.20034236  0.26668292  1
  Ta  Ta92  1  0.80033216  0.20282040  0.00453628  1
  Ta  Ta93  1  0.79479228  0.40107791  0.24524732  1
  Ta  Ta94  1  0.89531334  0.09680913  0.88132104  1
  Ta  Ta95  1  0.00289719  0.79200339  0.49105737  1
  Ta  Ta96  1  0.89179463  0.29017490  0.13479074  1
  Ta  Ta97  1  0.50889261  0.91693689  0.61816658  1
  Ta  Ta98  1  0.50723086  0.70589056  0.14148000  1
  Ta  Ta99  1  0.00409645  0.79857902  -0.00816912  1
  Ta  Ta100  1  0.41157493  0.80720499  0.49139932  1
  Ta  Ta101  1  0.10924232  0.69140424  0.37788235  1
  Ta  Ta102  1  0.70639059  0.90649499  0.87844920  1
  Ta  Ta103  1  0.31279248  0.90025070  0.88043627  1
  Ta  Ta104  1  0.08737328  0.30707852  0.13000998  1
  Ta  Ta105  1  -0.01273250  0.19378727  0.01179490  1
  Ta  Ta106  1  0.30820902  0.10550558  0.61526311  1
  Ta  Ta107  1  0.21060230  0.39367227  0.72635979  1
  Ta  Ta108  1  0.89623024  0.90808802  0.87813369  1
  Ta  Ta109  1  0.92096883  0.48939170  0.37148603  1
  Ta  Ta110  1  0.71198156  0.09994305  0.88083369  1
  Ta  Ta111  1  0.40954735  0.60859970  0.51032369  1
  Ta  Ta112  1  0.30560592  0.71311862  0.13220875  1
  Ta  Ta113  1  0.10487589  0.88984997  0.11508136  1
  Ta  Ta114  1  0.01770415  0.58546135  0.25166608  1
  Ta  Ta115  1  0.69543854  0.70530772  0.63012985  1
  Ta  Ta116  1  0.60063670  0.81161670  0.75003862  1
  Ta  Ta117  1  0.20321556  0.60761363  0.25131282  1
  Ta  Ta118  1  0.39435823  0.00475804  0.00073446  1
  Ta  Ta119  1  0.69376784  0.30733388  0.12442008  1
  Ti  Ti120  1  0.90265625  0.09499774  0.37858007  1
  Ti  Ti121  1  0.79818519  0.81011200  0.75207722  1
  Ti  Ti122  1  0.09223326  0.11218735  0.37839754  1
  Ti  Ti123  1  0.49405184  0.09739579  0.87926304  1
  Ti  Ti124  1  0.39850643  0.60335074  0.24622364  1
  Ti  Ti125  1  0.79330105  0.40169351  0.00216212  1
  Ti  Ti126  1  0.18846482  0.40236836  0.52066307  1
  Ti  Ti127  1  0.40588717  -0.00237727  0.74894388  1
  Ti  Ti128  1  0.59302572  0.60106917  0.74006291  1
  Ti  Ti129  1  0.38504046  -0.00851042  0.26805367  1
  Ti  Ti130  1  0.40429403  0.21075548  -0.00349435  1
  Ti  Ti131  1  0.18796536  0.20283904  0.73340184  1
  Ti  Ti132  1  -0.00105646  0.20212294  0.49832320  1
  Ti  Ti133  1  0.01283446  0.79807173  0.25122751  1
  Ti  Ti134  1  0.78977266  0.20438649  0.25511809  1
  Ti  Ti135  1  -0.01170421  -0.00029719  0.49246296  1
  Ti  Ti136  1  0.80662364  0.00367366  0.01414113  1
  Ti  Ti137  1  0.28951067  0.50912461  0.38063140  1
  Ti  Ti138  1  0.78833201  0.59845841  0.73517986  1
  Ti  Ti139  1  -0.01200163  -0.00584204  0.01223239  1
  Ti  Ti140  1  0.60550658  0.61047768  0.50671656  1
  Ti  Ti141  1  0.29161354  0.10427938  0.37480102  1
  Ti  Ti142  1  0.40245029  0.40819282  0.73093174  1
  Ti  Ti143  1  0.59778164  0.20306216  0.26571701  1
  Ti  Ti144  1  0.49874153  0.29753056  0.12655789  1
  Ti  Ti145  1  0.81045242  0.19323642  0.74757837  1
  Ti  Ti146  1  0.20838826  0.80638368  0.25082554  1
  Ti  Ti147  1  0.70694775  0.30063306  0.87023346  1
  Ti  Ti148  1  -0.00399718  0.59822514  -0.01027641  1
  Ti  Ti149  1  -0.00927643  0.19256586  0.24913173  1
  Ti  Ti150  1  0.49219749  0.31172975  0.86739964  1
  Ti  Ti151  1  0.08783312  0.31390947  0.37841898  1
  Ti  Ti152  1  -0.01134418  -0.01228589  0.24544529  1
  Ti  Ti153  1  0.40459273  0.20160730  0.48678639  1
  Ti  Ti154  1  0.49517953  0.50430086  0.86460161  1
  Ti  Ti155  1  0.20399386  0.00319809  0.49059291  1
  Ti  Ti156  1  0.30368861  0.51036418  0.62715232  1
  Ti  Ti157  1  0.59831059  0.79946172  0.00140918  1
  Ti  Ti158  1  0.09812207  0.50290191  0.11370058  1
  Ti  Ti159  1  0.20711767  0.40878247  0.00652953  1
  Mo  Mo160  1  0.20095796  0.60096225  -0.00219797  1
  Mo  Mo161  1  0.30330585  0.69916590  0.87620551  1
  Mo  Mo162  1  0.91351942  0.90051437  0.12419144  1
  Mo  Mo163  1  0.58745464  -0.00889176  0.48471322  1
  Mo  Mo164  1  0.70511001  0.48665032  0.12433884  1
  Mo  Mo165  1  -0.00679142  0.18486994  0.74770562  1
  Mo  Mo166  1  0.89503769  0.10042840  0.12971101  1
  Mo  Mo167  1  0.20415623  -0.00666619  0.00867062  1
  Mo  Mo168  1  0.59038387  0.79369695  0.50436304  1
  Mo  Mo169  1  0.10650247  0.28856914  0.61794624  1
  Mo  Mo170  1  0.80572800  0.59229675  -0.00642479  1
  Mo  Mo171  1  0.29921177  0.29458725  0.61768910  1
  Mo  Mo172  1  0.11009488  0.69564738  0.89668434  1
  Mo  Mo173  1  0.50259221  0.29616986  0.38804665  1
  Mo  Mo174  1  0.90174992  0.90171451  0.38065847  1
  Mo  Mo175  1  0.29235289  0.89774227  0.38314502  1
  Mo  Mo176  1  0.80912975  0.00061580  0.48378948  1
  Mo  Mo177  1  0.58715237  0.19866999  0.48660282  1
  Mo  Mo178  1  0.10131621  0.50002804  0.38414989  1
  Mo  Mo179  1  -0.00622518  0.39579096  0.24564983  1
  Mo  Mo180  1  0.30844945  0.70462693  0.61836729  1
  Mo  Mo181  1  0.49465317  0.10041147  0.36244435  1
  Mo  Mo182  1  0.20830937  0.79620655  -0.00669289  1
  Mo  Mo183  1  0.69313565  0.50923540  0.62592422  1
  Mo  Mo184  1  0.90218508  0.27905716  0.62440384  1
  Mo  Mo185  1  0.89613877  0.49568493  0.62551374  1
  Mo  Mo186  1  0.49038899  0.09482925  0.62409562  1
  Mo  Mo187  1  0.10598408  0.49946642  0.62482546  1
  Mo  Mo188  1  0.39534144  0.80257049  0.24906555  1
  Mo  Mo189  1  0.89081019  0.49334320  0.88618559  1
  Mo  Mo190  1  0.28762543  0.90068137  0.12136566  1
  Mo  Mo191  1  0.40930654  0.81559844  0.75365927  1
  Mo  Mo192  1  0.70278754  0.29910705  0.37918272  1
  Mo  Mo193  1  0.80523028  0.39238712  0.50607936  1
  Mo  Mo194  1  0.49872412  0.51040361  0.62197080  1
  Mo  Mo195  1  0.60690964  0.79796153  0.24110303  1
  Mo  Mo196  1  0.20815648  0.80429945  0.49067891  1
  Mo  Mo197  1  0.39957590  0.39648016  -0.00203248  1
  Mo  Mo198  1  0.48822952  0.89422194  0.35814520  1
  Mo  Mo199  1  0.70702382  0.68633906  0.37626281  1
