# generated using pymatgen
data_HfZrTaTiMo
_symmetry_space_group_name_H-M   'P 1'
_cell_length_a   15.19554919
_cell_length_b   15.18835204
_cell_length_c   16.78981210
_cell_angle_alpha   89.98294324
_cell_angle_beta   89.98847973
_cell_angle_gamma   89.84039576
_symmetry_Int_Tables_number   1
_chemical_formula_structural   HfZrTaTiMo
_chemical_formula_sum   'Hf40 Zr40 Ta40 Ti40 Mo40'
_cell_volume   3874.99528415
_cell_formula_units_Z   40
loop_
 _symmetry_equiv_pos_site_id
 _symmetry_equiv_pos_as_xyz
  1  'x, y, z'
loop_
 _atom_site_type_symbol
 _atom_site_label
 _atom_site_symmetry_multiplicity
 _atom_site_fract_x
 _atom_site_fract_y
 _atom_site_fract_z
 _atom_site_occupancy
  Hf  Hf0  1  0.39402979  0.00211803  0.49987481  1
  Hf  Hf1  1  0.40799951  0.58254845  0.48906840  1
  Hf  Hf2  1  0.59656688  0.21306289  0.50447324  1
  Hf  Hf3  1  0.08649388  0.50531884  0.62700641  1
  Hf  Hf4  1  0.10388320  0.69257687  0.11005888  1
  Hf  Hf5  1  0.89226706  0.10453968  0.12139630  1
  Hf  Hf6  1  0.49989003  0.29640965  0.13358715  1
  Hf  Hf7  1  0.42115873  0.78971691  0.75551496  1
  Hf  Hf8  1  0.60157199  0.19093391  0.00347808  1
  Hf  Hf9  1  0.09941730  0.09582395  0.65054760  1
  Hf  Hf10  1  0.40069677  -0.00342136  0.00390701  1
  Hf  Hf11  1  0.18568850  -0.01205937  0.23654850  1
  Hf  Hf12  1  0.69193509  0.09550833  0.86922727  1
  Hf  Hf13  1  0.80071057  0.20643533  0.26097113  1
  Hf  Hf14  1  0.31034507  0.91067271  0.86430074  1
  Hf  Hf15  1  0.00793848  -0.00205648  0.50812573  1
  Hf  Hf16  1  -0.00506976  0.20488493  -0.01437605  1
  Hf  Hf17  1  0.60170351  0.80762903  0.24476807  1
  Hf  Hf18  1  0.51771113  0.69879771  0.37945810  1
  Hf  Hf19  1  0.60471851  0.20926757  0.26077571  1
  Hf  Hf20  1  -0.01517225  0.40308833  -0.01424734  1
  Hf  Hf21  1  0.20187252  0.39332655  0.50154203  1
  Hf  Hf22  1  0.90885657  0.31263239  0.12996804  1
  Hf  Hf23  1  0.40604330  0.39717125  0.74761970  1
  Hf  Hf24  1  0.39187194  0.20642686  0.49329709  1
  Hf  Hf25  1  0.39949750  0.80206367  0.49593650  1
  Hf  Hf26  1  0.91284604  0.89521726  0.63713001  1
  Hf  Hf27  1  0.72306769  0.29699660  0.88713085  1
  Hf  Hf28  1  0.19983403  0.41270514  0.75347345  1
  Hf  Hf29  1  0.71374330  0.30338211  0.12040186  1
  Hf  Hf30  1  0.58713454  0.60471809  0.74370050  1
  Hf  Hf31  1  0.00693367  0.00290459  -0.01308108  1
  Hf  Hf32  1  0.19943411  0.19206967  0.49919468  1
  Hf  Hf33  1  0.41056047  0.79492399  -0.00539823  1
  Hf  Hf34  1  0.60001227  0.42727970  0.24575045  1
  Hf  Hf35  1  0.79855147  -0.00580469  0.25409796  1
  Hf  Hf36  1  0.71186829  0.89409842  0.87540337  1
  Hf  Hf37  1  0.69831606  0.09609995  0.38816303  1
  Hf  Hf38  1  0.49600340  0.10083124  0.63056488  1
  Hf  Hf39  1  0.00405532  0.80823744  0.23802522  1
  Zr  Zr40  1  0.50743110  0.30192300  0.88090132  1
  Zr  Zr41  1  0.29661071  0.50468136  0.89258579  1
  Zr  Zr42  1  0.38877136  0.41456185  0.23154582  1
  Zr  Zr43  1  0.91003130  0.68866168  0.62627724  1
  Zr  Zr44  1  -0.00164290  0.59801704  0.77151390  1
  Zr  Zr45  1  0.68893877  0.69660287  0.87945973  1
  Zr  Zr46  1  0.00420934  0.80720176  -0.00423328  1
  Zr  Zr47  1  0.79345721  0.60002067  0.74882904  1
  Zr  Zr48  1  -0.01749811  0.58769159  0.23267161  1
  Zr  Zr49  1  0.29996140  0.09839150  0.64991209  1
  Zr  Zr50  1  0.10197723  0.30470083  0.36512660  1
  Zr  Zr51  1  0.90794941  0.10529456  0.63681327  1
  Zr  Zr52  1  0.90797512  0.90429979  0.37464266  1
  Zr  Zr53  1  0.02024783  0.79180847  0.49787143  1
  Zr  Zr54  1  0.10211476  0.29612697  0.63428885  1
  Zr  Zr55  1  0.41058231  0.60233764  0.25046287  1
  Zr  Zr56  1  0.88601911  0.10483113  0.86319478  1
  Zr  Zr57  1  0.60627515  0.41498057  0.01216613  1
  Zr  Zr58  1  0.60215644  0.20714927  0.73696903  1
  Zr  Zr59  1  0.50427398  0.08582277  0.14608331  1
  Zr  Zr60  1  0.79930772  0.39987169  0.73946108  1
  Zr  Zr61  1  0.18917379  0.60358907  0.48770239  1
  Zr  Zr62  1  0.39532117  0.18767699  0.00014461  1
  Zr  Zr63  1  0.60093656  0.40553357  0.73664423  1
  Zr  Zr64  1  0.20151371  -0.00545420  0.50388100  1
  Zr  Zr65  1  0.71253075  0.89601616  0.12180014  1
  Zr  Zr66  1  0.09955080  0.10818942  0.12460407  1
  Zr  Zr67  1  0.28242341  0.28692129  0.13449294  1
  Zr  Zr68  1  0.19710160  0.58494189  0.24643164  1
  Zr  Zr69  1  0.49260433  0.10196478  0.36571871  1
  Zr  Zr70  1  0.59443038  -0.00834617  0.00090983  1
  Zr  Zr71  1  0.20619310  0.78885606  0.24313718  1
  Zr  Zr72  1  0.10929445  0.70303037  0.63885011  1
  Zr  Zr73  1  0.69541915  0.89577169  0.39254188  1
  Zr  Zr74  1  0.87502072  0.70274878  0.11148770  1
  Zr  Zr75  1  0.09386329  0.09070463  0.36592948  1
  Zr  Zr76  1  0.30292200  0.69415080  0.61930393  1
  Zr  Zr77  1  0.38381957  0.59816136  0.75330302  1
  Zr  Zr78  1  0.89965649  0.30406814  0.37966234  1
  Zr  Zr79  1  0.39879628  0.40359884  0.01509604  1
  Ta  Ta80  1  0.10292241  0.50413022  0.89177294  1
  Ta  Ta81  1  0.19646534  0.19418028  -0.01325401  1
  Ta  Ta82  1  0.80427345  0.00625459  0.51364321  1
  Ta  Ta83  1  0.29779880  0.70168273  0.37541554  1
  Ta  Ta84  1  0.58190082  0.41166946  0.50677117  1
  Ta  Ta85  1  0.80095902  0.20379397  0.51118823  1
  Ta  Ta86  1  0.69857481  0.89973671  0.61034032  1
  Ta  Ta87  1  0.60109480  -0.01020394  0.73922149  1
  Ta  Ta88  1  0.88929064  0.70701802  0.88672944  1
  Ta  Ta89  1  0.00051847  0.19786128  0.24953652  1
  Ta  Ta90  1  0.08338217  0.50298347  0.37233659  1
  Ta  Ta91  1  0.29647721  0.48521498  0.37248943  1
  Ta  Ta92  1  0.78980663  -0.00272759  0.73419704  1
  Ta  Ta93  1  0.69210080  0.51180737  0.61234984  1
  Ta  Ta94  1  0.81497777  0.59151817  0.50128264  1
  Ta  Ta95  1  0.50395168  0.90677918  0.37726096  1
  Ta  Ta96  1  0.30063540  0.29798677  0.87850428  1
  Ta  Ta97  1  0.78979952  0.40003531  0.50883552  1
  Ta  Ta98  1  0.81492294  0.79990236  0.50100440  1
  Ta  Ta99  1  0.30369980  0.90231801  0.36594535  1
  Ta  Ta100  1  0.51125186  0.69478170  0.60812344  1
  Ta  Ta101  1  -0.00844663  0.41232215  0.50175696  1
  Ta  Ta102  1  0.91379840  0.69228117  0.37480542  1
  Ta  Ta103  1  0.11338766  0.89736410  0.65402878  1
  Ta  Ta104  1  0.30354281  0.89476863  0.12200252  1
  Ta  Ta105  1  0.20707938  0.80834159  0.49699125  1
  Ta  Ta106  1  0.20337704  -0.00115961  0.00053425  1
  Ta  Ta107  1  0.61171438  0.79910336  0.73640390  1
  Ta  Ta108  1  0.29982864  0.29400171  0.35434504  1
  Ta  Ta109  1  0.60284761  0.79404662  0.01086488  1
  Ta  Ta110  1  0.70308935  0.70580548  0.60610071  1
  Ta  Ta111  1  0.48571718  0.08914648  0.85527460  1
  Ta  Ta112  1  0.10871992  0.89831264  0.86209443  1
  Ta  Ta113  1  0.90700659  0.30892026  0.62271359  1
  Ta  Ta114  1  0.79874342  0.77960742  0.25831979  1
  Ta  Ta115  1  0.71298501  0.69593118  0.39233555  1
  Ta  Ta116  1  0.30297243  0.89513257  0.64304613  1
  Ta  Ta117  1  0.50404655  0.51298007  0.88213675  1
  Ta  Ta118  1  0.80335315  0.41878416  0.25174012  1
  Ta  Ta119  1  -0.00784497  0.40414927  0.76768618  1
  Ti  Ti120  1  0.68800085  0.51012740  0.38331956  1
  Ti  Ti121  1  0.40220650  -0.01449856  0.24638118  1
  Ti  Ti122  1  0.49143074  0.32123164  0.36509062  1
  Ti  Ti123  1  0.90233151  0.10105396  0.38034071  1
  Ti  Ti124  1  0.59277732  0.60576087  0.00462084  1
  Ti  Ti125  1  0.50238592  0.89632311  0.61810484  1
  Ti  Ti126  1  0.29676630  0.49686678  0.62132619  1
  Ti  Ti127  1  0.70867074  0.52267276  0.12866962  1
  Ti  Ti128  1  0.51738042  0.89205753  0.86918621  1
  Ti  Ti129  1  0.10926421  0.09363783  0.86042511  1
  Ti  Ti130  1  0.26320836  0.49508025  0.10589960  1
  Ti  Ti131  1  0.10400696  0.30415239  0.87263603  1
  Ti  Ti132  1  0.40252423  0.79946885  0.25068294  1
  Ti  Ti133  1  0.21508979  0.77988420  0.76659322  1
  Ti  Ti134  1  0.30522046  0.69453317  0.11797241  1
  Ti  Ti135  1  0.69934753  0.49531020  0.87775186  1
  Ti  Ti136  1  0.70096918  0.09947619  0.13001610  1
  Ti  Ti137  1  0.50925699  0.69765075  0.13170790  1
  Ti  Ti138  1  0.79420677  0.58978608  -0.00611450  1
  Ti  Ti139  1  0.90890353  0.90760770  0.12163348  1
  Ti  Ti140  1  0.90036494  0.90326152  0.86426122  1
  Ti  Ti141  1  0.00209071  0.79534681  0.76725751  1
  Ti  Ti142  1  0.69676983  0.31622585  0.38288118  1
  Ti  Ti143  1  0.20975960  0.20447425  0.76677458  1
  Ti  Ti144  1  0.10008229  0.31398847  0.12950397  1
  Ti  Ti145  1  -0.00555622  0.21140591  0.76333836  1
  Ti  Ti146  1  0.00123374  0.20248007  0.50230756  1
  Ti  Ti147  1  0.11250142  0.69553315  0.88572067  1
  Ti  Ti148  1  0.30004211  0.09685145  0.13726990  1
  Ti  Ti149  1  0.80267056  0.00369474  -0.00149829  1
  Ti  Ti150  1  0.39742280  0.39294617  0.50307791  1
  Ti  Ti151  1  0.79181019  0.20484549  0.72972510  1
  Ti  Ti152  1  0.30743143  0.29381772  0.63482267  1
  Ti  Ti153  1  0.80032087  0.79704948  0.74410475  1
  Ti  Ti154  1  0.20996730  0.80225603  -0.00438169  1
  Ti  Ti155  1  0.10681868  0.88803695  0.37028439  1
  Ti  Ti156  1  0.29410711  0.09962876  0.35279450  1
  Ti  Ti157  1  -0.00852261  0.59624259  -0.00051314  1
  Ti  Ti158  1  0.88997777  0.50050115  0.37470339  1
  Ti  Ti159  1  0.40176842  0.60411841  0.00633715  1
  Mo  Mo160  1  0.19629086  0.60567607  0.00412993  1
  Mo  Mo161  1  0.18692575  0.40641394  0.25016653  1
  Mo  Mo162  1  0.80074512  0.40908742  0.00237952  1
  Mo  Mo163  1  0.39739729  0.19806833  0.25554488  1
  Mo  Mo164  1  0.39954849  0.20557974  0.75920006  1
  Mo  Mo165  1  0.29764857  0.10317099  0.86826850  1
  Mo  Mo166  1  0.50983736  0.51835450  0.11898665  1
  Mo  Mo167  1  0.50129952  0.69768581  0.87987090  1
  Mo  Mo168  1  0.60201531  -0.00185968  0.25163520  1
  Mo  Mo169  1  0.69870453  0.09642668  0.61564614  1
  Mo  Mo170  1  0.18759452  0.38671857  -0.00708228  1
  Mo  Mo171  1  0.60789460  0.59719265  0.49942646  1
  Mo  Mo172  1  -0.00134713  -0.00653578  0.76513277  1
  Mo  Mo173  1  0.29857241  0.70244971  0.88550709  1
  Mo  Mo174  1  0.59479668  0.00222298  0.51186010  1
  Mo  Mo175  1  0.41415609  -0.01143558  0.74721317  1
  Mo  Mo176  1  0.49284469  0.88901772  0.12962024  1
  Mo  Mo177  1  0.20495881  -0.00530113  0.75834768  1
  Mo  Mo178  1  0.88794152  0.49983118  0.11849641  1
  Mo  Mo179  1  0.69897796  0.30364631  0.61171325  1
  Mo  Mo180  1  0.88674743  0.50532730  0.88051751  1
  Mo  Mo181  1  0.08637192  0.48835953  0.10822227  1
  Mo  Mo182  1  0.48809101  0.50368990  0.62072126  1
  Mo  Mo183  1  0.69604749  0.69624010  0.11966825  1
  Mo  Mo184  1  0.19606480  0.19730603  0.24851050  1
  Mo  Mo185  1  0.10482473  0.90047366  0.11072855  1
  Mo  Mo186  1  0.80054496  0.19512210  0.00506660  1
  Mo  Mo187  1  0.89938300  0.49550454  0.62174541  1
  Mo  Mo188  1  0.48668400  0.30377919  0.61934693  1
  Mo  Mo189  1  0.80199473  0.80840567  -0.00714094  1
  Mo  Mo190  1  -0.00465568  0.40276251  0.24898675  1
  Mo  Mo191  1  -0.00935003  0.00174870  0.24406196  1
  Mo  Mo192  1  0.10217950  0.69893628  0.36725603  1
  Mo  Mo193  1  0.19492284  0.59788808  0.76097031  1
  Mo  Mo194  1  0.49993193  0.49350917  0.37457141  1
  Mo  Mo195  1  0.60056718  0.80368419  0.50334938  1
  Mo  Mo196  1  0.89804920  0.30026177  0.86558195  1
  Mo  Mo197  1  -0.00180299  0.59593250  0.49043233  1
  Mo  Mo198  1  0.61803076  0.61392273  0.25265518  1
  Mo  Mo199  1  0.78813155  0.59910869  0.26122485  1
