# generated using pymatgen
data_HfZrTaTiMo
_symmetry_space_group_name_H-M   'P 1'
_cell_length_a   15.16798473
_cell_length_b   15.19074504
_cell_length_c   16.78221332
_cell_angle_alpha   89.99889777
_cell_angle_beta   89.89749258
_cell_angle_gamma   89.94889771
_symmetry_Int_Tables_number   1
_chemical_formula_structural   HfZrTaTiMo
_chemical_formula_sum   'Hf40 Zr40 Ta40 Ti40 Mo40'
_cell_volume   3866.83220353
_cell_formula_units_Z   40
loop_
 _symmetry_equiv_pos_site_id
 _symmetry_equiv_pos_as_xyz
  1  'x, y, z'
loop_
 _atom_site_type_symbol
 _atom_site_label
 _atom_site_symmetry_multiplicity
 _atom_site_fract_x
 _atom_site_fract_y
 _atom_site_fract_z
 _atom_site_occupancy
  Hf  Hf0  1  0.69243521  0.29507122  0.62339508  1
  Hf  Hf1  1  0.59692017  -0.00643796  0.02323009  1
  Hf  Hf2  1  0.30510850  0.50971911  0.62747584  1
  Hf  Hf3  1  0.69276645  0.69437514  0.61219922  1
  Hf  Hf4  1  0.32002512  0.51062277  0.13267004  1
  Hf  Hf5  1  0.80101126  0.59513580  0.00662167  1
  Hf  Hf6  1  0.91702949  0.89055579  0.64283569  1
  Hf  Hf7  1  0.81148533  0.58245548  0.24308084  1
  Hf  Hf8  1  0.19418095  0.40152764  0.25565370  1
  Hf  Hf9  1  -0.01268418  0.41312487  0.24390293  1
  Hf  Hf10  1  0.90071931  0.69159949  0.87006808  1
  Hf  Hf11  1  0.41709365  0.00407496  0.74610913  1
  Hf  Hf12  1  0.80032449  -0.02423893  0.24433383  1
  Hf  Hf13  1  0.31056686  0.91281703  0.62274303  1
  Hf  Hf14  1  0.81601502  0.78813422  0.51289989  1
  Hf  Hf15  1  0.40506017  0.40762485  0.48989587  1
  Hf  Hf16  1  0.00711940  -0.01202156  0.51128711  1
  Hf  Hf17  1  0.69696871  0.90426620  0.88478648  1
  Hf  Hf18  1  0.29887474  0.11369680  0.62571187  1
  Hf  Hf19  1  0.59020072  0.79897351  0.74411893  1
  Hf  Hf20  1  0.59902574  0.38101401  0.48620613  1
  Hf  Hf21  1  0.09281768  0.29937515  0.38468089  1
  Hf  Hf22  1  0.19505513  0.60480022  0.49058976  1
  Hf  Hf23  1  0.38074814  0.19993149  -0.00624223  1
  Hf  Hf24  1  0.79545504  0.40592340  0.01560897  1
  Hf  Hf25  1  0.28867979  0.32177455  0.86613147  1
  Hf  Hf26  1  0.91255956  0.68321610  0.64354985  1
  Hf  Hf27  1  0.00999203  0.39082728  0.00554159  1
  Hf  Hf28  1  0.68285695  0.08192931  0.37393072  1
  Hf  Hf29  1  0.19606342  0.81170253  0.25895533  1
  Hf  Hf30  1  0.70292760  0.87722162  0.38239210  1
  Hf  Hf31  1  0.29578754  0.71169965  0.61503600  1
  Hf  Hf32  1  0.59312196  0.19013406  0.01582578  1
  Hf  Hf33  1  0.39292737  0.20782475  0.75623678  1
  Hf  Hf34  1  0.20086821  0.40625821  0.49973076  1
  Hf  Hf35  1  0.80410939  -0.00304620  0.00560854  1
  Hf  Hf36  1  0.90317553  0.70135187  0.11651098  1
  Hf  Hf37  1  0.69590197  0.69268841  0.14088169  1
  Hf  Hf38  1  0.90495931  0.89995407  0.86538053  1
  Hf  Hf39  1  0.20120798  0.01984533  -0.02573490  1
  Zr  Zr40  1  0.90201170  0.08957427  0.38246861  1
  Zr  Zr41  1  0.20883215  0.60951750  0.26373503  1
  Zr  Zr42  1  0.58436664  0.78681196  0.01376206  1
  Zr  Zr43  1  0.90281734  0.29407911  0.13022124  1
  Zr  Zr44  1  0.59083420  0.40038681  0.00763561  1
  Zr  Zr45  1  0.78688692  0.19622543  0.49766262  1
  Zr  Zr46  1  0.78902658  0.18661925  0.74534953  1
  Zr  Zr47  1  0.78904950  0.79822260  0.74451057  1
  Zr  Zr48  1  0.69042458  0.69540886  0.87763009  1
  Zr  Zr49  1  0.89965262  0.29599907  0.87009506  1
  Zr  Zr50  1  0.11975865  0.90322676  0.65172068  1
  Zr  Zr51  1  0.50589404  0.08892383  0.88506025  1
  Zr  Zr52  1  0.20894447  0.40812488  0.00374202  1
  Zr  Zr53  1  0.41573614  0.61303234  0.00130168  1
  Zr  Zr54  1  0.48128964  0.31035678  0.13265339  1
  Zr  Zr55  1  0.69182160  0.29054186  0.87364348  1
  Zr  Zr56  1  0.19858882  0.81339386  0.49051707  1
  Zr  Zr57  1  0.20036979  0.19085579  0.25649143  1
  Zr  Zr58  1  -0.00728376  0.40713850  0.50959509  1
  Zr  Zr59  1  0.89751654  0.29796479  0.62628835  1
  Zr  Zr60  1  -0.00642661  0.80329217  0.24899965  1
  Zr  Zr61  1  0.50425974  0.92396498  0.36708638  1
  Zr  Zr62  1  0.51461068  0.71597149  0.37335641  1
  Zr  Zr63  1  0.20048263  0.62289663  0.75991474  1
  Zr  Zr64  1  0.58958031  0.59466537  0.73766605  1
  Zr  Zr65  1  0.28656621  0.29682164  0.12842028  1
  Zr  Zr66  1  0.10931464  0.72229424  0.11458730  1
  Zr  Zr67  1  0.60548895  0.58607033  0.01031759  1
  Zr  Zr68  1  0.00891150  -0.00043874  0.24777869  1
  Zr  Zr69  1  0.79386541  0.19293856  0.00611962  1
  Zr  Zr70  1  0.87948511  0.30692783  0.37399850  1
  Zr  Zr71  1  0.20737122  0.61319409  -0.01138633  1
  Zr  Zr72  1  0.00443300  0.19830566  0.25340635  1
  Zr  Zr73  1  0.58792384  0.18721902  0.74935462  1
  Zr  Zr74  1  0.30865831  0.10057280  0.38304379  1
  Zr  Zr75  1  0.90414323  0.49170186  0.86392519  1
  Zr  Zr76  1  0.28193613  0.91053637  0.11835121  1
  Zr  Zr77  1  0.10296316  0.51232199  0.12692279  1
  Zr  Zr78  1  0.40087731  0.79799896  0.74145313  1
  Zr  Zr79  1  0.69060366  0.29927742  0.14640508  1
  Ta  Ta80  1  0.79104826  0.58554267  0.74414531  1
  Ta  Ta81  1  0.01300498  0.39075478  0.74213528  1
  Ta  Ta82  1  0.30335489  0.30293846  0.37433749  1
  Ta  Ta83  1  0.20075825  0.81709383  -0.02561791  1
  Ta  Ta84  1  0.89524428  0.69557958  0.37502829  1
  Ta  Ta85  1  0.90052166  0.09335211  0.62411337  1
  Ta  Ta86  1  0.89305066  0.09255580  0.87030402  1
  Ta  Ta87  1  0.71225054  0.48120218  0.37255066  1
  Ta  Ta88  1  0.10982059  0.49104455  0.86076461  1
  Ta  Ta89  1  0.18587734  0.20961669  0.76166227  1
  Ta  Ta90  1  0.00947246  0.19014536  0.50737097  1
  Ta  Ta91  1  0.17844646  0.21067212  -0.01826390  1
  Ta  Ta92  1  0.48938218  0.31358184  0.87947583  1
  Ta  Ta93  1  0.31123618  0.71549903  0.12627739  1
  Ta  Ta94  1  0.90207761  0.50488323  0.37999776  1
  Ta  Ta95  1  0.11153477  0.10201007  0.11519764  1
  Ta  Ta96  1  0.59333985  0.39696102  0.74517810  1
  Ta  Ta97  1  0.42190084  0.01833880  0.50518675  1
  Ta  Ta98  1  0.79888311  -0.01164265  0.51223513  1
  Ta  Ta99  1  0.09938859  0.91448637  0.37950514  1
  Ta  Ta100  1  0.39951262  0.41650647  0.27286525  1
  Ta  Ta101  1  0.09837121  0.70869166  0.62518286  1
  Ta  Ta102  1  0.49435978  0.69599797  0.60074397  1
  Ta  Ta103  1  0.79255559  0.17915721  0.24691288  1
  Ta  Ta104  1  0.40101553  0.60029825  0.48216056  1
  Ta  Ta105  1  0.20000572  0.00443669  0.25300027  1
  Ta  Ta106  1  0.50084763  0.50231602  0.87127015  1
  Ta  Ta107  1  0.31470456  0.50786344  0.86554542  1
  Ta  Ta108  1  0.80303702  0.58051319  0.50540841  1
  Ta  Ta109  1  0.69998844  0.48778759  0.86562817  1
  Ta  Ta110  1  0.91194837  0.89142817  0.11013227  1
  Ta  Ta111  1  0.90765060  0.08883719  0.12385670  1
  Ta  Ta112  1  -0.00436959  0.60923495  0.50209997  1
  Ta  Ta113  1  0.59805329  0.58261314  0.49139346  1
  Ta  Ta114  1  0.00707248  0.80243119  -0.01740302  1
  Ta  Ta115  1  0.09617795  0.51232868  0.63623724  1
  Ta  Ta116  1  0.49474888  0.88257399  0.88456095  1
  Ta  Ta117  1  0.10073584  0.10276026  0.63884405  1
  Ta  Ta118  1  0.61094579  -0.00911640  0.74574663  1
  Ta  Ta119  1  0.90398546  0.88547891  0.38408887  1
  Ti  Ti120  1  0.20089064  0.01508223  0.50057496  1
  Ti  Ti121  1  0.49418208  0.29654038  0.62241329  1
  Ti  Ti122  1  0.32006979  0.71553320  0.87710105  1
  Ti  Ti123  1  0.29637384  0.30862516  0.62946018  1
  Ti  Ti124  1  -0.00057909  0.18887961  -0.00516594  1
  Ti  Ti125  1  0.39598975  -0.00225020  0.00316836  1
  Ti  Ti126  1  0.40593368  0.19981392  0.25063078  1
  Ti  Ti127  1  0.39286657  0.80968855  0.25576375  1
  Ti  Ti128  1  0.59384650  0.39444820  0.26602275  1
  Ti  Ti129  1  0.40975017  0.21078094  0.49580754  1
  Ti  Ti130  1  0.02588498  0.78540615  0.77095337  1
  Ti  Ti131  1  0.68174955  0.08641994  0.61098005  1
  Ti  Ti132  1  0.10683105  0.29922581  0.62474713  1
  Ti  Ti133  1  0.40715187  0.60659059  0.74520440  1
  Ti  Ti134  1  0.01126615  -0.00119493  -0.00959874  1
  Ti  Ti135  1  0.60631207  0.81530382  0.24163168  1
  Ti  Ti136  1  -0.00315778  0.19279990  0.74970232  1
  Ti  Ti137  1  0.48148931  0.89036908  0.12953225  1
  Ti  Ti138  1  0.39460182  0.01418540  0.23700064  1
  Ti  Ti139  1  0.30833518  0.70865805  0.37710977  1
  Ti  Ti140  1  0.40920096  0.41118606  0.73854133  1
  Ti  Ti141  1  0.00698765  0.60740173  0.25113036  1
  Ti  Ti142  1  0.49150309  0.69667300  0.15233504  1
  Ti  Ti143  1  0.71669880  0.88110628  0.11898290  1
  Ti  Ti144  1  0.50975114  0.50677116  0.14649254  1
  Ti  Ti145  1  0.69543189  0.48666384  0.62048890  1
  Ti  Ti146  1  0.40971678  0.81347663  0.49302148  1
  Ti  Ti147  1  0.08324427  0.71265727  0.38211917  1
  Ti  Ti148  1  0.68340224  0.27743505  0.36055412  1
  Ti  Ti149  1  0.52216173  0.90364893  0.60832739  1
  Ti  Ti150  1  0.89404850  0.49090014  0.63723622  1
  Ti  Ti151  1  0.09272461  0.50759657  0.37456095  1
  Ti  Ti152  1  0.71169192  0.68591196  0.37816670  1
  Ti  Ti153  1  0.30455135  0.91067249  0.37952157  1
  Ti  Ti154  1  0.79472846  -0.00035837  0.73976983  1
  Ti  Ti155  1  0.20264700  0.20528496  0.50047734  1
  Ti  Ti156  1  0.00581268  0.59328147  -0.00592420  1
  Ti  Ti157  1  0.59420001  0.00938187  0.22480971  1
  Ti  Ti158  1  0.30633775  0.91426358  0.86547010  1
  Ti  Ti159  1  0.60107292  0.59064715  0.26764262  1
  Mo  Mo160  1  0.29876151  0.10821263  0.86434498  1
  Mo  Mo161  1  0.50218358  0.11136009  0.36697805  1
  Mo  Mo162  1  0.08879041  0.30662299  0.86782271  1
  Mo  Mo163  1  0.50285206  0.50021750  0.61601460  1
  Mo  Mo164  1  0.29587235  0.50623952  0.37504922  1
  Mo  Mo165  1  0.08350393  0.10612109  0.86231736  1
  Mo  Mo166  1  0.49482868  0.69457198  0.87234577  1
  Mo  Mo167  1  0.20883900  0.01745511  0.76526145  1
  Mo  Mo168  1  0.79134099  0.40294397  0.50103900  1
  Mo  Mo169  1  0.29789775  0.10275651  0.12157468  1
  Mo  Mo170  1  0.00656585  0.79394226  0.50339401  1
  Mo  Mo171  1  0.49615717  0.29133376  0.36463614  1
  Mo  Mo172  1  0.20428486  0.40524994  0.73645180  1
  Mo  Mo173  1  -0.00330003  0.00930407  0.75074492  1
  Mo  Mo174  1  0.09290420  0.91389473  0.10935830  1
  Mo  Mo175  1  0.69532289  0.49301170  0.14940191  1
  Mo  Mo176  1  0.10425018  0.90573672  0.85970860  1
  Mo  Mo177  1  0.79364094  0.39198160  0.24992834  1
  Mo  Mo178  1  0.90699925  0.50593810  0.12139230  1
  Mo  Mo179  1  0.79862395  0.78984596  0.25422653  1
  Mo  Mo180  1  0.50729997  0.50316387  0.37075140  1
  Mo  Mo181  1  0.70330613  0.08397294  0.87437969  1
  Mo  Mo182  1  0.78892366  0.39945609  0.74595155  1
  Mo  Mo183  1  0.09570898  0.28928037  0.12055152  1
  Mo  Mo184  1  0.58967059  0.18638942  0.23939686  1
  Mo  Mo185  1  0.80436212  0.79650542  -0.00242934  1
  Mo  Mo186  1  0.10479992  0.09817656  0.39054121  1
  Mo  Mo187  1  0.70400915  0.89981409  0.61812218  1
  Mo  Mo188  1  0.70459791  0.09066819  0.13526178  1
  Mo  Mo189  1  0.00400364  0.59243092  0.75230766  1
  Mo  Mo190  1  0.40150170  0.41304630  -0.00565918  1
  Mo  Mo191  1  0.39140489  0.80931473  0.00163157  1
  Mo  Mo192  1  0.60466209  -0.00486879  0.49889403  1
  Mo  Mo193  1  0.20939134  0.80801238  0.76940009  1
  Mo  Mo194  1  0.60224015  0.79202924  0.49972986  1
  Mo  Mo195  1  0.57883511  0.18455699  0.50083247  1
  Mo  Mo196  1  0.48214076  0.09648587  0.12175328  1
  Mo  Mo197  1  0.10153564  0.69661158  0.88574050  1
  Mo  Mo198  1  0.40495248  0.61186502  0.26340838  1
  Mo  Mo199  1  0.49764342  0.10164737  0.62317588  1
