# generated using pymatgen
data_HfZrTaTiMo
_symmetry_space_group_name_H-M   'P 1'
_cell_length_a   15.21662445
_cell_length_b   15.21029334
_cell_length_c   16.82437342
_cell_angle_alpha   89.95349054
_cell_angle_beta   90.08259386
_cell_angle_gamma   90.08016704
_symmetry_Int_Tables_number   1
_chemical_formula_structural   HfZrTaTiMo
_chemical_formula_sum   'Hf40 Zr40 Ta40 Ti40 Mo40'
_cell_volume   3893.98067838
_cell_formula_units_Z   40
loop_
 _symmetry_equiv_pos_site_id
 _symmetry_equiv_pos_as_xyz
  1  'x, y, z'
loop_
 _atom_site_type_symbol
 _atom_site_label
 _atom_site_symmetry_multiplicity
 _atom_site_fract_x
 _atom_site_fract_y
 _atom_site_fract_z
 _atom_site_occupancy
  Hf  Hf0  1  0.80869291  0.40164038  0.23300524  1
  Hf  Hf1  1  0.89900835  0.69899717  0.38476357  1
  Hf  Hf2  1  0.21591347  0.20047616  0.51022824  1
  Hf  Hf3  1  0.91176982  0.09093552  0.36118490  1
  Hf  Hf4  1  0.19794176  0.39685476  0.26083087  1
  Hf  Hf5  1  0.80497846  0.79932041  0.00450209  1
  Hf  Hf6  1  0.38563490  0.00982986  -0.00244640  1
  Hf  Hf7  1  0.09753920  0.09858129  0.64148605  1
  Hf  Hf8  1  0.30324003  0.69906930  0.87653476  1
  Hf  Hf9  1  0.80615315  -0.00183838  0.00971697  1
  Hf  Hf10  1  0.71314512  0.30054866  0.36442915  1
  Hf  Hf11  1  0.69790286  0.69826677  0.12079849  1
  Hf  Hf12  1  0.07975782  0.89149270  0.14689713  1
  Hf  Hf13  1  0.69981418  0.68254458  0.88112232  1
  Hf  Hf14  1  0.40347431  0.39245189  0.51699463  1
  Hf  Hf15  1  0.78476703  0.58274626  0.48986440  1
  Hf  Hf16  1  0.60503168  0.80093954  0.74312919  1
  Hf  Hf17  1  0.18257806  0.00469894  -0.00466135  1
  Hf  Hf18  1  0.31169565  0.28361600  0.38058715  1
  Hf  Hf19  1  0.20585899  0.41351252  0.74256608  1
  Hf  Hf20  1  0.30416894  0.31337073  0.86677559  1
  Hf  Hf21  1  0.00095874  0.60856122  0.74782613  1
  Hf  Hf22  1  0.90168783  0.29530046  0.89027520  1
  Hf  Hf23  1  0.30381155  0.91191738  0.38070555  1
  Hf  Hf24  1  0.89248915  0.89261285  0.38098358  1
  Hf  Hf25  1  0.09981779  0.28521887  0.86371144  1
  Hf  Hf26  1  0.19375546  0.79003338  0.26393181  1
  Hf  Hf27  1  0.39221570  0.02244669  0.25128788  1
  Hf  Hf28  1  0.29402128  0.10422312  0.86008425  1
  Hf  Hf29  1  -0.00627663  0.39074896  0.50357093  1
  Hf  Hf30  1  0.60329942  0.40631729  0.24750968  1
  Hf  Hf31  1  0.50348829  0.71113649  0.39381340  1
  Hf  Hf32  1  0.00425483  0.59953452  0.25825725  1
  Hf  Hf33  1  0.50443269  0.71282693  0.11522111  1
  Hf  Hf34  1  0.90887449  0.70550366  0.60127240  1
  Hf  Hf35  1  0.59821361  0.41995417  -0.00844408  1
  Hf  Hf36  1  0.70665190  0.29616649  0.89609189  1
  Hf  Hf37  1  0.69562426  0.29431212  0.10886529  1
  Hf  Hf38  1  0.50398526  0.12202310  0.11785711  1
  Hf  Hf39  1  0.69072681  0.08696118  0.62896598  1
  Zr  Zr40  1  0.80193501  -0.01497947  0.23413864  1
  Zr  Zr41  1  0.80786827  0.78808901  0.74704362  1
  Zr  Zr42  1  0.49146147  0.51366915  0.86829639  1
  Zr  Zr43  1  0.88523846  0.50433509  0.63195511  1
  Zr  Zr44  1  0.79192543  -0.01076332  0.75003436  1
  Zr  Zr45  1  0.40897527  0.80703721  0.25106177  1
  Zr  Zr46  1  0.39599837  0.80596117  0.74053645  1
  Zr  Zr47  1  0.10193600  0.70053226  0.87384227  1
  Zr  Zr48  1  0.59356875  0.00592210  -0.00848996  1
  Zr  Zr49  1  0.91636479  0.29117567  0.36223348  1
  Zr  Zr50  1  0.39340675  0.81147115  0.00609261  1
  Zr  Zr51  1  0.19272755  0.80802627  0.49777224  1
  Zr  Zr52  1  0.01642193  0.19148826  0.49801733  1
  Zr  Zr53  1  0.48960033  0.90516678  0.87058422  1
  Zr  Zr54  1  0.49212644  0.69949686  0.61247848  1
  Zr  Zr55  1  0.10288691  0.29873244  0.64096922  1
  Zr  Zr56  1  0.39994415  0.20499746  0.73366426  1
  Zr  Zr57  1  0.77973101  0.39309032  0.75094668  1
  Zr  Zr58  1  0.80808928  0.59102664  0.01016740  1
  Zr  Zr59  1  0.39483291  0.60396253  0.25186968  1
  Zr  Zr60  1  0.29784279  0.11405939  0.12023250  1
  Zr  Zr61  1  0.18719158  0.01143768  0.49595115  1
  Zr  Zr62  1  0.52913800  0.30960853  0.63009572  1
  Zr  Zr63  1  0.70508832  0.09255396  0.37355703  1
  Zr  Zr64  1  0.11462579  0.29975084  0.12066092  1
  Zr  Zr65  1  0.09384012  0.51023037  0.61545353  1
  Zr  Zr66  1  0.19100040  0.80392257  0.00737214  1
  Zr  Zr67  1  0.61215882  0.19874630  0.76103037  1
  Zr  Zr68  1  0.28609108  0.49774854  0.12560569  1
  Zr  Zr69  1  0.79384364  0.37886169  0.51192011  1
  Zr  Zr70  1  0.10080706  0.09649985  0.14541476  1
  Zr  Zr71  1  0.19587482  0.78542326  0.73030559  1
  Zr  Zr72  1  0.59679340  0.60962324  0.25238077  1
  Zr  Zr73  1  0.81828027  0.17998569  0.51574031  1
  Zr  Zr74  1  0.30594222  0.50007088  0.38791924  1
  Zr  Zr75  1  0.60985368  0.20327821  0.50205622  1
  Zr  Zr76  1  0.59336090  0.00175597  0.25115349  1
  Zr  Zr77  1  0.50720314  0.29862794  0.38108682  1
  Zr  Zr78  1  0.91281323  0.09470860  0.87963029  1
  Zr  Zr79  1  0.40643748  0.39517046  0.24646323  1
  Ta  Ta80  1  0.28419333  0.90040530  0.86722291  1
  Ta  Ta81  1  0.00605720  0.40871084  -0.00185765  1
  Ta  Ta82  1  0.61498258  0.80561511  0.51250641  1
  Ta  Ta83  1  0.30532732  0.70205522  0.39814874  1
  Ta  Ta84  1  0.69762217  0.89164405  0.88271290  1
  Ta  Ta85  1  0.19630736  0.40251602  -0.01022697  1
  Ta  Ta86  1  0.19811527  0.39391554  0.50165193  1
  Ta  Ta87  1  0.89037566  0.50409106  0.86878824  1
  Ta  Ta88  1  -0.00900159  -0.00563820  0.74333770  1
  Ta  Ta89  1  0.91254781  0.29090987  0.11506632  1
  Ta  Ta90  1  0.59279938  0.00106824  0.49874558  1
  Ta  Ta91  1  0.30545810  0.90975590  0.61235929  1
  Ta  Ta92  1  0.29754185  0.52125181  0.61109212  1
  Ta  Ta93  1  0.80463992  0.19538149  0.23104700  1
  Ta  Ta94  1  0.00841631  0.39872410  0.24599611  1
  Ta  Ta95  1  0.09226448  0.49462130  0.38729766  1
  Ta  Ta96  1  0.50444939  0.70500405  0.88330760  1
  Ta  Ta97  1  0.50103770  0.90713585  0.38791450  1
  Ta  Ta98  1  0.29157821  0.70155789  0.12663606  1
  Ta  Ta99  1  0.79975797  0.59594035  0.25187887  1
  Ta  Ta100  1  0.28525814  0.90869475  0.14039690  1
  Ta  Ta101  1  0.90370029  0.69592537  0.87589140  1
  Ta  Ta102  1  0.39523039  0.60119021  0.00471506  1
  Ta  Ta103  1  -0.00441655  0.79686548  0.00325996  1
  Ta  Ta104  1  0.68218811  0.89072661  0.12123338  1
  Ta  Ta105  1  0.09868016  0.68443197  0.12845691  1
  Ta  Ta106  1  0.81555068  0.19473603  0.74075484  1
  Ta  Ta107  1  0.20645259  0.20244603  -0.01050881  1
  Ta  Ta108  1  0.69804031  0.69902468  0.37739860  1
  Ta  Ta109  1  0.09487780  0.49779478  0.86912442  1
  Ta  Ta110  1  0.69382870  0.88630160  0.37509908  1
  Ta  Ta111  1  0.50081433  0.30724618  0.86930199  1
  Ta  Ta112  1  0.08872786  0.90567093  0.86657246  1
  Ta  Ta113  1  0.70313205  0.68336680  0.62293769  1
  Ta  Ta114  1  -0.01284695  0.39526655  0.75212399  1
  Ta  Ta115  1  0.19355013  0.59219173  0.00190102  1
  Ta  Ta116  1  0.70030073  0.10328445  0.11652146  1
  Ta  Ta117  1  0.19876015  -0.00969587  0.74388225  1
  Ta  Ta118  1  0.40365442  0.41456991  0.73272101  1
  Ta  Ta119  1  0.51224164  0.50908010  0.39017837  1
  Ti  Ti120  1  0.48212080  0.10687982  0.38064433  1
  Ti  Ti121  1  0.08638020  0.89427779  0.62114750  1
  Ti  Ti122  1  0.49361076  0.91097435  0.12344841  1
  Ti  Ti123  1  0.38335389  0.60872174  0.74012504  1
  Ti  Ti124  1  0.61337971  0.41368572  0.49437950  1
  Ti  Ti125  1  -0.00270907  0.80435020  0.74366011  1
  Ti  Ti126  1  0.91253126  0.09426034  0.13204922  1
  Ti  Ti127  1  0.40027234  0.00657338  0.74099003  1
  Ti  Ti128  1  0.60594308  0.59092123  0.75214416  1
  Ti  Ti129  1  0.50015220  0.30903578  0.11194459  1
  Ti  Ti130  1  0.08280918  0.90773526  0.36445433  1
  Ti  Ti131  1  0.80962313  0.40503604  0.00914414  1
  Ti  Ti132  1  0.40704965  0.18373255  0.52666076  1
  Ti  Ti133  1  0.91854513  0.50353736  0.12709010  1
  Ti  Ti134  1  0.59740961  0.20132760  0.24957932  1
  Ti  Ti135  1  0.19744494  0.59718558  0.26338347  1
  Ti  Ti136  1  0.00259538  0.59848494  -0.00086115  1
  Ti  Ti137  1  0.40873724  0.20917110  -0.01596080  1
  Ti  Ti138  1  0.49859033  0.50914377  0.11737343  1
  Ti  Ti139  1  0.50509284  0.91454243  0.61954629  1
  Ti  Ti140  1  0.68364516  0.48997004  0.63164133  1
  Ti  Ti141  1  0.01426915  0.18357075  0.00102844  1
  Ti  Ti142  1  0.59166026  0.00317757  0.76211787  1
  Ti  Ti143  1  0.11024063  0.10954930  0.35445041  1
  Ti  Ti144  1  0.50405083  0.51159366  0.62321092  1
  Ti  Ti145  1  0.70773370  0.10063142  0.88586383  1
  Ti  Ti146  1  0.29263823  0.51002842  0.87131697  1
  Ti  Ti147  1  0.90043056  0.89108009  0.87535857  1
  Ti  Ti148  1  0.10474654  0.69260174  0.60162087  1
  Ti  Ti149  1  0.79477354  0.79136715  0.24497615  1
  Ti  Ti150  1  0.78947249  -0.02615364  0.51531788  1
  Ti  Ti151  1  0.31152900  0.29935004  0.11604791  1
  Ti  Ti152  1  0.39345871  0.40813681  -0.00230057  1
  Ti  Ti153  1  0.89362742  0.49091758  0.37186413  1
  Ti  Ti154  1  0.91021452  0.70749991  0.13599458  1
  Ti  Ti155  1  -0.00359112  -0.01525781  0.00603158  1
  Ti  Ti156  1  0.09276636  0.69926767  0.39043843  1
  Ti  Ti157  1  0.22004008  0.19771350  0.25568637  1
  Ti  Ti158  1  0.69550898  0.50453155  0.12315218  1
  Ti  Ti159  1  -0.01460969  -0.00439774  0.51156605  1
  Mo  Mo160  1  -0.00770678  0.19824465  0.75114769  1
  Mo  Mo161  1  0.00448477  0.20698988  0.24530563  1
  Mo  Mo162  1  0.30419151  0.31078205  0.62486735  1
  Mo  Mo163  1  0.59168203  0.60346292  0.00261403  1
  Mo  Mo164  1  0.00176234  0.81080102  0.49830909  1
  Mo  Mo165  1  0.11135651  0.30047087  0.37070569  1
  Mo  Mo166  1  0.81163316  0.19270673  0.01755679  1
  Mo  Mo167  1  0.10012807  0.08930268  0.86196233  1
  Mo  Mo168  1  0.79201305  0.79581163  0.50351895  1
  Mo  Mo169  1  -0.00421815  0.59461338  0.48552256  1
  Mo  Mo170  1  0.90216608  0.08646690  0.62797886  1
  Mo  Mo171  1  0.60082722  0.80446090  -0.00659616  1
  Mo  Mo172  1  0.30577713  0.10537445  0.37821453  1
  Mo  Mo173  1  0.29575718  0.70127177  0.60250358  1
  Mo  Mo174  1  0.40253128  0.60068932  0.50188599  1
  Mo  Mo175  1  0.60626811  0.80986650  0.25462617  1
  Mo  Mo176  1  0.50034656  0.11187494  0.87562232  1
  Mo  Mo177  1  -0.01044146  0.79265086  0.25527388  1
  Mo  Mo178  1  0.09495556  0.50120244  0.12326087  1
  Mo  Mo179  1  0.70338582  0.50012718  0.87579117  1
  Mo  Mo180  1  0.79610598  0.60094622  0.74726798  1
  Mo  Mo181  1  0.20004666  -0.00193335  0.26343752  1
  Mo  Mo182  1  0.59659924  0.20455935  -0.01384670  1
  Mo  Mo183  1  0.70326802  0.49862553  0.36625891  1
  Mo  Mo184  1  0.90677204  0.29092566  0.63656023  1
  Mo  Mo185  1  0.39955410  0.01054371  0.50640882  1
  Mo  Mo186  1  0.59338898  0.40574016  0.76271757  1
  Mo  Mo187  1  0.40624193  0.81571784  0.50478601  1
  Mo  Mo188  1  0.90000780  0.89807013  0.61942177  1
  Mo  Mo189  1  0.60298695  0.59608812  0.50285673  1
  Mo  Mo190  1  0.50016551  0.08967310  0.62620952  1
  Mo  Mo191  1  0.89465404  0.89136464  0.12856098  1
  Mo  Mo192  1  0.20654653  0.60039111  0.74522070  1
  Mo  Mo193  1  0.41056612  0.21126384  0.24413159  1
  Mo  Mo194  1  -0.00138783  -0.00282558  0.25630627  1
  Mo  Mo195  1  0.70756998  0.29718302  0.63099248  1
  Mo  Mo196  1  0.19570760  0.59818963  0.48610321  1
  Mo  Mo197  1  0.69268383  0.89051038  0.62837065  1
  Mo  Mo198  1  0.29687232  0.09724538  0.64012579  1
  Mo  Mo199  1  0.20269190  0.19765552  0.74878460  1
