# generated using pymatgen
data_HfZrTaTiMo
_symmetry_space_group_name_H-M   'P 1'
_cell_length_a   15.21838330
_cell_length_b   15.21088342
_cell_length_c   16.84273334
_cell_angle_alpha   89.94793479
_cell_angle_beta   89.96960839
_cell_angle_gamma   90.01387511
_symmetry_Int_Tables_number   1
_chemical_formula_structural   HfZrTaTiMo
_chemical_formula_sum   'Hf40 Zr40 Ta40 Ti40 Mo40'
_cell_volume   3898.83876729
_cell_formula_units_Z   40
loop_
 _symmetry_equiv_pos_site_id
 _symmetry_equiv_pos_as_xyz
  1  'x, y, z'
loop_
 _atom_site_type_symbol
 _atom_site_label
 _atom_site_symmetry_multiplicity
 _atom_site_fract_x
 _atom_site_fract_y
 _atom_site_fract_z
 _atom_site_occupancy
  Hf  Hf0  1  0.70243395  0.70219204  0.12375963  1
  Hf  Hf1  1  0.71415104  0.69547688  0.61907271  1
  Hf  Hf2  1  0.09360552  0.49654587  0.39760732  1
  Hf  Hf3  1  0.70265098  0.29682935  0.12849883  1
  Hf  Hf4  1  0.59902711  0.60176823  0.74207788  1
  Hf  Hf5  1  0.00558368  0.59352445  0.73721647  1
  Hf  Hf6  1  0.01418772  0.00905539  0.74501487  1
  Hf  Hf7  1  0.89818328  0.09379569  0.12961771  1
  Hf  Hf8  1  0.10773178  0.88893772  0.61492896  1
  Hf  Hf9  1  -0.01099557  0.38718508  0.73325258  1
  Hf  Hf10  1  0.60140935  0.41371115  0.74209623  1
  Hf  Hf11  1  0.11346761  0.88374589  0.87480436  1
  Hf  Hf12  1  0.49218885  0.72338545  0.39020989  1
  Hf  Hf13  1  0.88768819  0.29842428  0.86860831  1
  Hf  Hf14  1  0.10081899  0.48812914  0.87714761  1
  Hf  Hf15  1  0.80320161  0.78890065  -0.01064529  1
  Hf  Hf16  1  0.18757152  0.17812005  0.75573352  1
  Hf  Hf17  1  0.49652557  0.51074380  0.12029894  1
  Hf  Hf18  1  0.59128476  0.62073877  0.25363951  1
  Hf  Hf19  1  0.70196138  0.50163338  0.12304088  1
  Hf  Hf20  1  -0.00515891  0.79776789  0.49560679  1
  Hf  Hf21  1  0.40197191  0.00627709  0.74339035  1
  Hf  Hf22  1  0.70468796  0.09259142  0.37817033  1
  Hf  Hf23  1  0.28708136  0.31573303  0.86341147  1
  Hf  Hf24  1  0.49814559  0.08879696  0.37765783  1
  Hf  Hf25  1  0.10738591  0.09369522  0.13510982  1
  Hf  Hf26  1  0.50861298  0.71600562  0.87452367  1
  Hf  Hf27  1  0.79835401  0.40153269  -0.00131005  1
  Hf  Hf28  1  0.20445288  0.19785484  -0.00971991  1
  Hf  Hf29  1  0.49587108  0.11635574  0.62479915  1
  Hf  Hf30  1  0.00431045  0.59157808  0.25158491  1
  Hf  Hf31  1  0.59821067  0.19409783  0.00584356  1
  Hf  Hf32  1  0.59615788  0.40921235  0.25072566  1
  Hf  Hf33  1  0.11138202  0.69261263  0.38665123  1
  Hf  Hf34  1  0.89942833  0.49238536  0.39235186  1
  Hf  Hf35  1  0.49166277  0.30263973  0.13241437  1
  Hf  Hf36  1  0.88129946  0.49900994  0.61963293  1
  Hf  Hf37  1  -0.00150438  0.19523474  0.00440845  1
  Hf  Hf38  1  0.31842297  0.89320018  0.37176466  1
  Hf  Hf39  1  0.90633541  0.88878291  0.86608770  1
  Zr  Zr40  1  0.71004900  0.10048203  0.87149559  1
  Zr  Zr41  1  0.68506937  0.50143687  0.39544493  1
  Zr  Zr42  1  0.38506087  0.61381115  0.24718943  1
  Zr  Zr43  1  0.21180408  -0.02116779  0.74760392  1
  Zr  Zr44  1  0.60768536  0.80504252  0.73219874  1
  Zr  Zr45  1  0.30126832  0.11103924  0.13911691  1
  Zr  Zr46  1  0.30921321  0.90754134  0.12879256  1
  Zr  Zr47  1  0.10632277  0.30719073  0.12474283  1
  Zr  Zr48  1  0.70546943  0.29754265  0.37936387  1
  Zr  Zr49  1  0.50873397  0.10363403  0.86193914  1
  Zr  Zr50  1  0.39919558  -0.00692055  0.51318033  1
  Zr  Zr51  1  0.39306144  0.81016606  0.74064096  1
  Zr  Zr52  1  0.01021398  0.79549277  0.25286623  1
  Zr  Zr53  1  0.49843367  0.30764622  0.62289507  1
  Zr  Zr54  1  0.90282869  0.68628248  0.12860891  1
  Zr  Zr55  1  0.50022689  0.30921545  0.38593484  1
  Zr  Zr56  1  0.69352540  0.30192003  0.86733465  1
  Zr  Zr57  1  0.90658230  0.29363080  0.39352024  1
  Zr  Zr58  1  0.69371884  0.88909852  0.86778522  1
  Zr  Zr59  1  0.48609623  0.50940758  0.38288217  1
  Zr  Zr60  1  0.39555673  0.41740766  0.74342682  1
  Zr  Zr61  1  0.10651968  0.30330704  0.38839458  1
  Zr  Zr62  1  0.40308783  0.01659490  -0.00813822  1
  Zr  Zr63  1  0.40071654  0.21054616  -0.00698814  1
  Zr  Zr64  1  0.09880400  0.27870830  0.61528545  1
  Zr  Zr65  1  0.70837803  0.30243579  0.63276802  1
  Zr  Zr66  1  0.29132453  0.71926154  0.87863368  1
  Zr  Zr67  1  0.79595880  0.59347668  0.26424050  1
  Zr  Zr68  1  0.89405053  0.88844543  0.13114737  1
  Zr  Zr69  1  0.39084233  0.40856069  -0.00397613  1
  Zr  Zr70  1  0.29133856  0.52246099  0.87190207  1
  Zr  Zr71  1  0.09648577  0.68655322  0.87172341  1
  Zr  Zr72  1  0.80436299  0.00478642  0.73700773  1
  Zr  Zr73  1  0.37500724  0.61000854  0.49948555  1
  Zr  Zr74  1  0.90328350  0.09337874  0.38341764  1
  Zr  Zr75  1  0.08719678  0.29059606  0.86955926  1
  Zr  Zr76  1  0.00311997  -0.01351621  0.00321605  1
  Zr  Zr77  1  0.39856563  0.61992509  0.00788353  1
  Zr  Zr78  1  0.61462411  0.00406071  0.52123594  1
  Zr  Zr79  1  0.60205481  0.19195797  0.25201230  1
  Ta  Ta80  1  0.59561257  -0.01549815  -0.00071916  1
  Ta  Ta81  1  0.29714391  0.10148359  0.36986474  1
  Ta  Ta82  1  0.89445554  0.89934812  0.37160050  1
  Ta  Ta83  1  0.20260240  0.21534905  0.26367772  1
  Ta  Ta84  1  -0.00518809  0.40435379  0.00099378  1
  Ta  Ta85  1  0.20204716  0.00007805  -0.00829123  1
  Ta  Ta86  1  0.59765433  0.81131661  0.51715731  1
  Ta  Ta87  1  0.79074645  -0.00815042  0.25140082  1
  Ta  Ta88  1  0.49276620  0.69974754  0.61465787  1
  Ta  Ta89  1  0.01638898  0.78196198  0.00793081  1
  Ta  Ta90  1  0.10094848  0.90130886  0.38072311  1
  Ta  Ta91  1  0.90955819  0.10056411  0.87479892  1
  Ta  Ta92  1  0.00203536  0.20075457  0.25139345  1
  Ta  Ta93  1  0.68997352  0.89213500  0.12194073  1
  Ta  Ta94  1  0.00469782  0.39679359  0.25130567  1
  Ta  Ta95  1  0.39561117  0.20974673  0.26422058  1
  Ta  Ta96  1  0.90106286  0.89257435  0.62792454  1
  Ta  Ta97  1  0.42677036  0.81577371  0.24498961  1
  Ta  Ta98  1  0.59080662  -0.02410059  0.25168070  1
  Ta  Ta99  1  0.90236752  0.30128725  0.12887853  1
  Ta  Ta100  1  0.80122204  0.19343649  0.00785337  1
  Ta  Ta101  1  0.38911404  0.20578691  0.49271680  1
  Ta  Ta102  1  0.49839033  0.08941952  0.13794391  1
  Ta  Ta103  1  0.69713998  0.08404869  0.12559948  1
  Ta  Ta104  1  0.69340170  0.70732502  0.39348506  1
  Ta  Ta105  1  0.50349697  0.50883579  0.87906310  1
  Ta  Ta106  1  0.09859066  0.09779800  0.37553897  1
  Ta  Ta107  1  0.89613584  0.50520356  0.86248076  1
  Ta  Ta108  1  0.80726566  0.19459374  0.24570175  1
  Ta  Ta109  1  0.60439649  0.00043860  0.72674836  1
  Ta  Ta110  1  0.89670344  0.28482492  0.60937875  1
  Ta  Ta111  1  0.79661923  -0.00350392  -0.00220051  1
  Ta  Ta112  1  0.19746140  -0.00510010  0.26196431  1
  Ta  Ta113  1  0.38716541  0.40381938  0.51032431  1
  Ta  Ta114  1  0.00150078  -0.00483701  0.25298538  1
  Ta  Ta115  1  0.10690150  0.68346027  0.61020980  1
  Ta  Ta116  1  0.61012294  0.60814800  -0.00959100  1
  Ta  Ta117  1  0.19740081  -0.00051544  0.49433585  1
  Ta  Ta118  1  0.29811408  0.29290229  0.63076864  1
  Ta  Ta119  1  0.29338700  0.31319305  0.13112840  1
  Ti  Ti120  1  -0.00848656  0.59513398  0.00020214  1
  Ti  Ti121  1  0.41859547  0.82179234  -0.00080977  1
  Ti  Ti122  1  0.21103338  0.79181123  0.25493023  1
  Ti  Ti123  1  0.39859848  0.60654499  0.74240175  1
  Ti  Ti124  1  0.11344834  0.88696308  0.12650028  1
  Ti  Ti125  1  0.60732342  0.20681932  0.50518052  1
  Ti  Ti126  1  0.79826570  0.80897436  0.49758241  1
  Ti  Ti127  1  0.29374248  0.71429671  0.11993519  1
  Ti  Ti128  1  0.28347456  0.50058893  0.12238679  1
  Ti  Ti129  1  0.20779090  0.19530410  0.49239356  1
  Ti  Ti130  1  0.79993984  0.60666532  0.49552251  1
  Ti  Ti131  1  0.39181461  0.20488639  0.75680985  1
  Ti  Ti132  1  0.69241007  0.89676395  0.38026044  1
  Ti  Ti133  1  0.90423473  0.70044313  0.62304915  1
  Ti  Ti134  1  0.09704837  0.50011983  0.12081646  1
  Ti  Ti135  1  0.28286884  0.49751907  0.37598836  1
  Ti  Ti136  1  0.00443133  0.79265594  0.74159499  1
  Ti  Ti137  1  0.19598187  0.59727533  0.24573790  1
  Ti  Ti138  1  0.60947133  0.19624906  0.74304766  1
  Ti  Ti139  1  0.22186753  0.79271110  0.49284211  1
  Ti  Ti140  1  0.80883563  -0.00387052  0.51346272  1
  Ti  Ti141  1  0.18824255  0.40937672  0.73251094  1
  Ti  Ti142  1  0.90096209  0.49063927  0.12786032  1
  Ti  Ti143  1  0.89766279  0.69916099  0.37830759  1
  Ti  Ti144  1  0.18635334  0.61073256  0.01317755  1
  Ti  Ti145  1  0.51094824  0.72592868  0.11690658  1
  Ti  Ti146  1  0.50032189  0.30992143  0.86478453  1
  Ti  Ti147  1  0.28696979  0.10232352  0.61974412  1
  Ti  Ti148  1  0.20543192  0.40104137  0.51397323  1
  Ti  Ti149  1  0.91614086  0.10138977  0.61139200  1
  Ti  Ti150  1  0.80518863  0.59702911  -0.01203713  1
  Ti  Ti151  1  0.28595914  0.51202247  0.62628351  1
  Ti  Ti152  1  0.70317821  0.50407729  0.87015770  1
  Ti  Ti153  1  0.78599413  0.39357586  0.50491835  1
  Ti  Ti154  1  0.80836974  0.39341937  0.25363459  1
  Ti  Ti155  1  0.59435899  0.40357479  -0.00531510  1
  Ti  Ti156  1  0.37763430  0.40504240  0.25421693  1
  Ti  Ti157  1  0.31399303  0.90612182  0.88262197  1
  Ti  Ti158  1  0.78670020  0.79738423  0.26182896  1
  Ti  Ti159  1  0.28844493  0.70930626  0.63026402  1
  Mo  Mo160  1  0.09692498  0.08679516  0.88111886  1
  Mo  Mo161  1  0.00052129  -0.01145019  0.49941041  1
  Mo  Mo162  1  0.69014041  0.50422815  0.60798818  1
  Mo  Mo163  1  -0.01127121  0.18664672  0.74425504  1
  Mo  Mo164  1  0.60342820  0.79612757  -0.00498469  1
  Mo  Mo165  1  0.90262342  0.69262998  0.86971916  1
  Mo  Mo166  1  0.71401846  0.68618530  0.86563012  1
  Mo  Mo167  1  0.82003034  0.20092300  0.74439675  1
  Mo  Mo168  1  0.20783867  0.80533438  0.00802864  1
  Mo  Mo169  1  0.18872253  0.78226705  0.73889081  1
  Mo  Mo170  1  0.19977461  0.59617100  0.50184026  1
  Mo  Mo171  1  0.40097480  0.00621872  0.25605382  1
  Mo  Mo172  1  0.51240115  0.90109551  0.38274770  1
  Mo  Mo173  1  0.29843253  0.70012872  0.36283019  1
  Mo  Mo174  1  0.00935012  0.18389716  0.50030038  1
  Mo  Mo175  1  0.19392584  0.41007865  0.00326871  1
  Mo  Mo176  1  0.71466526  0.11053814  0.62368741  1
  Mo  Mo177  1  0.79475867  0.18620953  0.50659441  1
  Mo  Mo178  1  0.50657001  0.90453624  0.12231802  1
  Mo  Mo179  1  0.79854445  0.59884064  0.75134874  1
  Mo  Mo180  1  0.39585026  0.80447478  0.51279014  1
  Mo  Mo181  1  0.79898405  0.41093675  0.74847102  1
  Mo  Mo182  1  0.71571410  0.89690824  0.62431166  1
  Mo  Mo183  1  0.10328526  0.08964296  0.60830122  1
  Mo  Mo184  1  0.49209028  0.51057561  0.61440520  1
  Mo  Mo185  1  0.61195289  0.79920566  0.25567927  1
  Mo  Mo186  1  0.11186003  0.69611219  0.12627714  1
  Mo  Mo187  1  0.20385666  0.59637239  0.73871769  1
  Mo  Mo188  1  0.09475424  0.49342750  0.60808730  1
  Mo  Mo189  1  0.59186204  0.40599052  0.51527237  1
  Mo  Mo190  1  0.29316413  0.10006235  0.87049132  1
  Mo  Mo191  1  -0.00377988  0.39683874  0.51853357  1
  Mo  Mo192  1  0.19857694  0.41434669  0.25220603  1
  Mo  Mo193  1  0.30121414  0.30944176  0.38165192  1
  Mo  Mo194  1  -0.01001714  0.60266505  0.50792771  1
  Mo  Mo195  1  0.81813219  0.78781549  0.74809282  1
  Mo  Mo196  1  0.50127250  0.90160956  0.62672502  1
  Mo  Mo197  1  0.29709475  0.89582925  0.61355355  1
  Mo  Mo198  1  0.59416938  0.60669629  0.51118037  1
  Mo  Mo199  1  0.50382653  0.90617029  0.86939174  1
