# generated using pymatgen
data_HfZrTaTiMo
_symmetry_space_group_name_H-M   'P 1'
_cell_length_a   15.20833654
_cell_length_b   15.21984604
_cell_length_c   16.85061439
_cell_angle_alpha   90.01038211
_cell_angle_beta   89.94249115
_cell_angle_gamma   90.09385881
_symmetry_Int_Tables_number   1
_chemical_formula_structural   HfZrTaTiMo
_chemical_formula_sum   'Hf40 Zr40 Ta40 Ti40 Mo40'
_cell_volume   3900.37986079
_cell_formula_units_Z   40
loop_
 _symmetry_equiv_pos_site_id
 _symmetry_equiv_pos_as_xyz
  1  'x, y, z'
loop_
 _atom_site_type_symbol
 _atom_site_label
 _atom_site_symmetry_multiplicity
 _atom_site_fract_x
 _atom_site_fract_y
 _atom_site_fract_z
 _atom_site_occupancy
  Hf  Hf0  1  0.60494188  0.59503920  0.26493187  1
  Hf  Hf1  1  0.69241574  0.91362304  0.39108743  1
  Hf  Hf2  1  0.19916382  0.60724025  0.24758657  1
  Hf  Hf3  1  0.10312887  0.71347538  0.37688110  1
  Hf  Hf4  1  -0.01219798  0.40400085  0.73603820  1
  Hf  Hf5  1  0.01803553  0.59668191  0.00389857  1
  Hf  Hf6  1  0.10389482  0.50238480  0.37690128  1
  Hf  Hf7  1  0.31243714  0.29155234  0.12422815  1
  Hf  Hf8  1  0.78827898  -0.01233608  0.01216171  1
  Hf  Hf9  1  0.80183632  0.78867401  0.74478411  1
  Hf  Hf10  1  0.19912694  0.19062539  0.27126922  1
  Hf  Hf11  1  0.69292180  0.11343298  0.87776359  1
  Hf  Hf12  1  0.29003756  0.28829969  0.86920298  1
  Hf  Hf13  1  0.59675806  0.02106847  0.73906001  1
  Hf  Hf14  1  0.00663249  0.79755022  0.74867893  1
  Hf  Hf15  1  0.19651447  0.39022805  0.73999735  1
  Hf  Hf16  1  0.30483526  0.87974642  0.37241043  1
  Hf  Hf17  1  0.90897545  0.10545890  0.87784054  1
  Hf  Hf18  1  0.40317992  -0.00442381  0.25498409  1
  Hf  Hf19  1  0.88926324  0.29968680  0.86575113  1
  Hf  Hf20  1  0.87855653  0.30802665  0.61027394  1
  Hf  Hf21  1  0.21502282  0.40356504  0.24827093  1
  Hf  Hf22  1  0.11527764  0.90812962  0.62891545  1
  Hf  Hf23  1  0.71074782  0.68118876  0.62558163  1
  Hf  Hf24  1  0.09917453  0.50805094  0.62748189  1
  Hf  Hf25  1  0.89176570  0.90266713  0.87337940  1
  Hf  Hf26  1  0.60141565  0.59811636  0.48705685  1
  Hf  Hf27  1  0.80243716  0.59206135  0.47410581  1
  Hf  Hf28  1  0.10101161  0.91014035  0.87200794  1
  Hf  Hf29  1  0.49410618  0.11583617  0.13744823  1
  Hf  Hf30  1  0.08709777  0.29260628  0.14068840  1
  Hf  Hf31  1  0.00563739  0.00395235  0.26404181  1
  Hf  Hf32  1  -0.00433160  0.01625097  0.74355776  1
  Hf  Hf33  1  0.30900802  0.08540450  0.62184972  1
  Hf  Hf34  1  0.90265082  0.69754935  0.88427136  1
  Hf  Hf35  1  0.29732186  0.70511256  0.11298480  1
  Hf  Hf36  1  0.71537876  0.69910278  0.12278203  1
  Hf  Hf37  1  0.90051751  0.90214874  0.62103566  1
  Hf  Hf38  1  0.60020895  0.81342534  0.24643346  1
  Hf  Hf39  1  0.59725716  0.59498731  0.75277473  1
  Zr  Zr40  1  0.30216247  0.50318156  0.87043152  1
  Zr  Zr41  1  0.10400861  0.90301868  0.12660008  1
  Zr  Zr42  1  0.58693277  0.79715564  0.74542926  1
  Zr  Zr43  1  0.39795192  0.18380130  -0.01158127  1
  Zr  Zr44  1  0.41078740  0.19294972  0.74775044  1
  Zr  Zr45  1  0.50503863  0.69376106  0.12677635  1
  Zr  Zr46  1  0.79542210  0.18393882  0.73584500  1
  Zr  Zr47  1  0.21513943  0.59931795  0.50527233  1
  Zr  Zr48  1  0.81023312  0.21772568  0.00771910  1
  Zr  Zr49  1  0.69711496  0.90353625  0.86176893  1
  Zr  Zr50  1  0.18276018  0.39399682  -0.00234118  1
  Zr  Zr51  1  0.70238468  0.91400890  0.62289208  1
  Zr  Zr52  1  0.41549717  0.38809485  -0.01072112  1
  Zr  Zr53  1  0.38535826  0.78567346  0.74357405  1
  Zr  Zr54  1  0.29913562  0.89582797  0.87253324  1
  Zr  Zr55  1  0.58913026  0.79560523  0.51542580  1
  Zr  Zr56  1  0.58235093  0.00620170  0.00715080  1
  Zr  Zr57  1  0.00627674  0.01021776  0.00287032  1
  Zr  Zr58  1  0.80243668  0.78932241  0.49315493  1
  Zr  Zr59  1  0.89259714  0.50160710  0.12575292  1
  Zr  Zr60  1  -0.00839210  0.61238132  0.24963741  1
  Zr  Zr61  1  0.69981158  0.11291240  0.13107137  1
  Zr  Zr62  1  0.10057322  0.50093844  0.86547855  1
  Zr  Zr63  1  0.48042049  0.49195851  0.37989432  1
  Zr  Zr64  1  0.69504127  0.48410660  0.12571926  1
  Zr  Zr65  1  0.39341925  0.58964250  0.24731996  1
  Zr  Zr66  1  0.89935602  0.49216829  0.88558445  1
  Zr  Zr67  1  0.59728697  0.39449717  0.74154758  1
  Zr  Zr68  1  0.80594022  0.79046215  0.26720727  1
  Zr  Zr69  1  0.01183389  0.00265692  0.48970125  1
  Zr  Zr70  1  0.60040679  0.23099870  0.00730559  1
  Zr  Zr71  1  0.79689776  -0.00394090  0.25393029  1
  Zr  Zr72  1  0.08679261  0.30834823  0.36873798  1
  Zr  Zr73  1  0.29674084  0.50033243  0.10513570  1
  Zr  Zr74  1  0.40745956  0.21262223  0.26812658  1
  Zr  Zr75  1  0.41425936  0.80560093  -0.00423343  1
  Zr  Zr76  1  0.21469562  0.00424145  0.48088981  1
  Zr  Zr77  1  0.52368284  0.09592060  0.38768220  1
  Zr  Zr78  1  0.91193668  0.10995142  0.13418944  1
  Zr  Zr79  1  0.61292048  0.80704503  0.00323828  1
  Ta  Ta80  1  -0.00720666  0.41071522  0.50659224  1
  Ta  Ta81  1  0.09961506  0.70534109  0.62454847  1
  Ta  Ta82  1  0.00328111  0.79654636  0.50382105  1
  Ta  Ta83  1  0.10889005  0.10314393  0.13301315  1
  Ta  Ta84  1  0.21002985  0.61967836  0.74457834  1
  Ta  Ta85  1  0.31491896  0.50817538  0.63768001  1
  Ta  Ta86  1  0.80152703  0.58473879  0.75674509  1
  Ta  Ta87  1  0.30332416  0.31889834  0.38609442  1
  Ta  Ta88  1  0.00311430  0.21006751  0.50606778  1
  Ta  Ta89  1  0.38740004  0.79134930  0.51239378  1
  Ta  Ta90  1  0.89351063  0.30445519  0.37654523  1
  Ta  Ta91  1  0.29597381  0.29455402  0.61692052  1
  Ta  Ta92  1  0.50204607  0.49598858  0.61512775  1
  Ta  Ta93  1  0.69844792  0.69014097  0.87787725  1
  Ta  Ta94  1  0.89613824  0.11049715  0.38272227  1
  Ta  Ta95  1  0.00672383  0.20988327  0.72999325  1
  Ta  Ta96  1  0.19712691  0.20210772  0.48858196  1
  Ta  Ta97  1  0.19796318  0.80232667  0.50348767  1
  Ta  Ta98  1  0.19693969  0.80270329  0.00066286  1
  Ta  Ta99  1  0.20125210  -0.00180400  0.26856372  1
  Ta  Ta100  1  0.50000105  0.48189444  0.12749041  1
  Ta  Ta101  1  0.09367526  0.49599177  0.13134128  1
  Ta  Ta102  1  0.59490129  0.59430564  -0.00702929  1
  Ta  Ta103  1  0.20997155  0.00951936  -0.00009022  1
  Ta  Ta104  1  0.88748861  0.30844940  0.14977192  1
  Ta  Ta105  1  0.50410827  0.09989364  0.60258338  1
  Ta  Ta106  1  0.38918133  0.19373908  0.49041041  1
  Ta  Ta107  1  0.50201788  0.30106161  0.39678915  1
  Ta  Ta108  1  0.10802274  0.11104966  0.61944392  1
  Ta  Ta109  1  0.70693063  0.48590214  0.61460190  1
  Ta  Ta110  1  0.49164399  0.70969846  0.37556751  1
  Ta  Ta111  1  0.89061158  0.51676682  0.61960789  1
  Ta  Ta112  1  0.11364917  0.11240339  0.86854743  1
  Ta  Ta113  1  0.69939289  0.48262237  0.88361758  1
  Ta  Ta114  1  0.79597434  0.59746565  0.27250854  1
  Ta  Ta115  1  0.29234515  0.09481262  0.13191587  1
  Ta  Ta116  1  0.89310794  0.88674054  0.12374480  1
  Ta  Ta117  1  0.49729505  0.89701931  0.38755465  1
  Ta  Ta118  1  0.11404173  0.70479153  0.87653791  1
  Ta  Ta119  1  0.49385861  0.29935203  0.60318972  1
  Ti  Ti120  1  -0.00024672  0.80375483  -0.00034792  1
  Ti  Ti121  1  0.70604177  0.10774936  0.59395145  1
  Ti  Ti122  1  0.10040111  0.70329225  0.12149570  1
  Ti  Ti123  1  -0.00306191  0.61001680  0.49884122  1
  Ti  Ti124  1  0.49323316  0.92006590  0.86257724  1
  Ti  Ti125  1  0.40482651  0.39561423  0.74468817  1
  Ti  Ti126  1  0.08466245  0.29317071  0.87326687  1
  Ti  Ti127  1  0.50154291  0.50129168  0.87335547  1
  Ti  Ti128  1  0.90965377  0.49185872  0.36969291  1
  Ti  Ti129  1  0.60300891  0.00613176  0.24609082  1
  Ti  Ti130  1  0.21263058  -0.00215069  0.74687883  1
  Ti  Ti131  1  0.40925755  0.59852341  -0.00288392  1
  Ti  Ti132  1  0.90404159  0.70273157  0.11466243  1
  Ti  Ti133  1  0.19270473  0.39627574  0.51113060  1
  Ti  Ti134  1  0.90873175  0.89541812  0.38361779  1
  Ti  Ti135  1  0.38453239  0.41166717  0.50825909  1
  Ti  Ti136  1  0.89752477  0.09766344  0.60818736  1
  Ti  Ti137  1  0.47918918  0.91212795  0.62231589  1
  Ti  Ti138  1  0.19802486  0.19497678  0.74184614  1
  Ti  Ti139  1  0.60975338  0.39927759  0.49736884  1
  Ti  Ti140  1  -0.00394860  0.60717884  0.74842494  1
  Ti  Ti141  1  0.39685184  -0.00317108  0.00837928  1
  Ti  Ti142  1  0.30474263  0.69271758  0.88480767  1
  Ti  Ti143  1  0.51702521  0.29453549  0.86673075  1
  Ti  Ti144  1  0.78600445  0.39453146  0.74440721  1
  Ti  Ti145  1  0.30834247  0.68603409  0.37750138  1
  Ti  Ti146  1  0.30927407  0.08746771  0.86468085  1
  Ti  Ti147  1  0.60390461  0.21028916  0.72916592  1
  Ti  Ti148  1  0.59213659  0.37914263  0.26142369  1
  Ti  Ti149  1  0.19004909  0.19466398  0.00102838  1
  Ti  Ti150  1  0.78634289  0.20214487  0.26297460  1
  Ti  Ti151  1  0.78758811  0.40217237  0.26857874  1
  Ti  Ti152  1  -0.01515425  0.37982835  0.00837802  1
  Ti  Ti153  1  0.47920688  0.67688795  0.62345972  1
  Ti  Ti154  1  0.00213653  0.80555796  0.25126080  1
  Ti  Ti155  1  0.19990265  0.80388987  0.24649723  1
  Ti  Ti156  1  0.30215621  0.90395862  0.12843075  1
  Ti  Ti157  1  0.79544532  0.59648422  -0.00345146  1
  Ti  Ti158  1  0.69771929  0.28643557  0.39070085  1
  Ti  Ti159  1  0.40160564  0.79786828  0.24301758  1
  Mo  Mo160  1  0.29898145  0.89630598  0.62260329  1
  Mo  Mo161  1  0.90741209  0.69081491  0.62612095  1
  Mo  Mo162  1  -0.01469335  0.20037189  0.26047276  1
  Mo  Mo163  1  0.69511514  0.48232867  0.37246917  1
  Mo  Mo164  1  0.69146266  0.30091040  0.60831530  1
  Mo  Mo165  1  0.80841935  0.00217279  0.49001037  1
  Mo  Mo166  1  0.19509918  0.80020795  0.75203366  1
  Mo  Mo167  1  0.90899454  0.70185738  0.37570886  1
  Mo  Mo168  1  0.01457070  0.20943816  -0.00019570  1
  Mo  Mo169  1  0.69980505  0.30713341  0.14338929  1
  Mo  Mo170  1  0.70869134  0.10329061  0.38820734  1
  Mo  Mo171  1  0.79212616  0.39280982  0.00405852  1
  Mo  Mo172  1  0.40578330  -0.01156574  0.49412781  1
  Mo  Mo173  1  0.09517997  0.10685091  0.37946783  1
  Mo  Mo174  1  0.09884000  0.30081400  0.61485765  1
  Mo  Mo175  1  0.80780675  0.79226499  -0.00001550  1
  Mo  Mo176  1  0.10126863  0.89382425  0.36967885  1
  Mo  Mo177  1  0.60928040  0.20401920  0.26151024  1
  Mo  Mo178  1  0.29166370  0.49641427  0.38121618  1
  Mo  Mo179  1  0.50989813  0.30741407  0.13537854  1
  Mo  Mo180  1  0.80412611  0.20138448  0.49486261  1
  Mo  Mo181  1  0.79922318  0.40513400  0.48358996  1
  Mo  Mo182  1  0.80178583  0.00872732  0.74325318  1
  Mo  Mo183  1  0.40515374  0.58844986  0.75328851  1
  Mo  Mo184  1  0.49483615  0.90725797  0.13302860  1
  Mo  Mo185  1  -0.00911441  0.40537719  0.24900274  1
  Mo  Mo186  1  0.19893057  0.60910354  0.00098120  1
  Mo  Mo187  1  0.60001339  0.40664197  -0.00394186  1
  Mo  Mo188  1  0.70046093  0.30271772  0.86839333  1
  Mo  Mo189  1  0.30812524  0.10045276  0.37758377  1
  Mo  Mo190  1  0.49940283  0.68739417  0.87913443  1
  Mo  Mo191  1  0.29260237  0.69897642  0.62510940  1
  Mo  Mo192  1  0.70364124  0.89882278  0.13055573  1
  Mo  Mo193  1  0.60093126  0.20531410  0.50660120  1
  Mo  Mo194  1  0.68861236  0.70148124  0.37185386  1
  Mo  Mo195  1  0.40601355  -0.00226747  0.74604908  1
  Mo  Mo196  1  0.40382404  0.39599445  0.25121790  1
  Mo  Mo197  1  0.50010535  0.10054605  0.87036370  1
  Mo  Mo198  1  0.40419029  0.60253719  0.50108674  1
  Mo  Mo199  1  0.60016601  -0.00490411  0.51219054  1
