# generated using pymatgen
data_HfZrTaTiMo
_symmetry_space_group_name_H-M   'P 1'
_cell_length_a   15.21950604
_cell_length_b   15.20445462
_cell_length_c   16.84702314
_cell_angle_alpha   90.00534289
_cell_angle_beta   90.00980480
_cell_angle_gamma   90.09842262
_symmetry_Int_Tables_number   1
_chemical_formula_structural   HfZrTaTiMo
_chemical_formula_sum   'Hf40 Zr40 Ta40 Ti40 Mo40'
_cell_volume   3898.46758435
_cell_formula_units_Z   40
loop_
 _symmetry_equiv_pos_site_id
 _symmetry_equiv_pos_as_xyz
  1  'x, y, z'
loop_
 _atom_site_type_symbol
 _atom_site_label
 _atom_site_symmetry_multiplicity
 _atom_site_fract_x
 _atom_site_fract_y
 _atom_site_fract_z
 _atom_site_occupancy
  Hf  Hf0  1  0.88510040  0.09939440  0.35830241  1
  Hf  Hf1  1  0.81717667  0.20236714  -0.00051449  1
  Hf  Hf2  1  0.28649023  0.29864588  0.38340255  1
  Hf  Hf3  1  0.70029073  0.10017281  0.87295452  1
  Hf  Hf4  1  0.60310907  0.19670180  0.01121887  1
  Hf  Hf5  1  0.02996791  0.80338653  0.50600311  1
  Hf  Hf6  1  0.59762392  0.40563519  0.25168792  1
  Hf  Hf7  1  0.49229141  0.10094140  0.87871399  1
  Hf  Hf8  1  0.49836144  0.89463001  0.12953177  1
  Hf  Hf9  1  0.19847223  -0.00782739  0.75142811  1
  Hf  Hf10  1  0.89194725  0.50197962  0.38213755  1
  Hf  Hf11  1  0.30680605  0.69942636  0.87848561  1
  Hf  Hf12  1  0.20739557  0.18809156  0.02256077  1
  Hf  Hf13  1  0.59997249  0.20764554  0.75466340  1
  Hf  Hf14  1  0.71241991  0.90807735  0.14026295  1
  Hf  Hf15  1  0.49970453  0.30441741  0.12058728  1
  Hf  Hf16  1  0.40785842  0.00161878  0.48678158  1
  Hf  Hf17  1  0.19138204  0.59913277  -0.00809993  1
  Hf  Hf18  1  0.69284494  0.49687395  0.62417667  1
  Hf  Hf19  1  0.30189484  0.09618399  0.61767326  1
  Hf  Hf20  1  0.38663415  0.01183863  0.01507921  1
  Hf  Hf21  1  0.22113751  0.79154743  0.26465427  1
  Hf  Hf22  1  0.41143570  0.59701477  0.74542424  1
  Hf  Hf23  1  0.89959367  0.89854799  0.37481726  1
  Hf  Hf24  1  0.81075770  -0.00001522  -0.00685913  1
  Hf  Hf25  1  0.00529796  -0.00440411  0.74151718  1
  Hf  Hf26  1  0.88050319  0.29450983  0.61950777  1
  Hf  Hf27  1  0.69744988  0.90419761  0.62658771  1
  Hf  Hf28  1  0.01968141  0.80244293  0.26100216  1
  Hf  Hf29  1  0.89888782  0.29697179  0.38172248  1
  Hf  Hf30  1  0.29831787  0.89469997  0.61521884  1
  Hf  Hf31  1  0.29649850  0.49236360  0.87987013  1
  Hf  Hf32  1  0.51850777  0.70630336  0.88889720  1
  Hf  Hf33  1  0.39593768  0.40077434  0.49700322  1
  Hf  Hf34  1  -0.01768313  0.60211329  -0.00108576  1
  Hf  Hf35  1  0.39131844  0.39834172  0.24702817  1
  Hf  Hf36  1  0.60182388  -0.00370865  0.00988037  1
  Hf  Hf37  1  0.31154769  0.70279675  0.61872940  1
  Hf  Hf38  1  -0.00135774  0.00854831  0.49484183  1
  Hf  Hf39  1  0.70779148  0.31607347  0.88479705  1
  Zr  Zr40  1  0.40415185  0.80895373  0.75903066  1
  Zr  Zr41  1  0.11989471  0.68225387  0.38161749  1
  Zr  Zr42  1  0.20367623  0.19833223  0.23072819  1
  Zr  Zr43  1  0.61715511  0.81350015  0.48325923  1
  Zr  Zr44  1  0.30737023  0.10249044  0.36946054  1
  Zr  Zr45  1  0.29150868  0.50944440  0.12404772  1
  Zr  Zr46  1  0.07897286  0.48675344  0.87431148  1
  Zr  Zr47  1  0.77703653  0.19078305  0.49289167  1
  Zr  Zr48  1  0.07838201  0.10100597  0.88609920  1
  Zr  Zr49  1  0.70608116  0.69593512  0.13864507  1
  Zr  Zr50  1  0.92003126  0.90397228  0.13770552  1
  Zr  Zr51  1  0.80694057  0.78667218  0.75644627  1
  Zr  Zr52  1  0.81292632  0.79034640  -0.00070629  1
  Zr  Zr53  1  0.29605835  0.29302003  0.60956516  1
  Zr  Zr54  1  0.51888615  0.70284216  0.61381914  1
  Zr  Zr55  1  0.88764047  0.09744790  0.62039661  1
  Zr  Zr56  1  0.49333015  0.27734206  0.36761168  1
  Zr  Zr57  1  0.28452851  0.51156202  0.37338566  1
  Zr  Zr58  1  0.70901607  0.68984832  0.36576877  1
  Zr  Zr59  1  0.92563547  0.89812487  0.87679894  1
  Zr  Zr60  1  0.71476066  0.31329677  0.12197695  1
  Zr  Zr61  1  0.09482631  0.10379331  0.36610964  1
  Zr  Zr62  1  0.18832260  0.20238380  0.74844368  1
  Zr  Zr63  1  0.19260576  0.60336139  0.74172887  1
  Zr  Zr64  1  0.50008486  0.50963152  0.88674695  1
  Zr  Zr65  1  0.89435149  0.10111100  0.13980475  1
  Zr  Zr66  1  0.90963232  0.69525532  0.38638101  1
  Zr  Zr67  1  0.79947259  0.00015129  0.76040993  1
  Zr  Zr68  1  0.49048337  0.30299640  0.88908331  1
  Zr  Zr69  1  0.50735770  0.29755038  0.61932342  1
  Zr  Zr70  1  0.41095760  0.79556382  0.26043457  1
  Zr  Zr71  1  0.89497416  0.89200084  0.61281433  1
  Zr  Zr72  1  0.50117854  0.90278714  0.62105481  1
  Zr  Zr73  1  0.19414046  0.39818428  0.73705798  1
  Zr  Zr74  1  0.92633997  0.30738183  0.87561981  1
  Zr  Zr75  1  0.11302473  0.69627852  0.12974480  1
  Zr  Zr76  1  0.29344614  0.09962296  0.87843437  1
  Zr  Zr77  1  0.59578011  0.41155572  0.75676129  1
  Zr  Zr78  1  0.18409010  0.40261002  0.24228038  1
  Zr  Zr79  1  -0.01342635  0.39327277  0.24297912  1
  Ta  Ta80  1  0.60677467  0.79923270  0.75458125  1
  Ta  Ta81  1  0.49876239  0.50304321  0.37639157  1
  Ta  Ta82  1  -0.00595073  0.60019484  0.73451807  1
  Ta  Ta83  1  0.68766465  0.10829710  0.63192527  1
  Ta  Ta84  1  0.31381103  0.70016233  0.11708567  1
  Ta  Ta85  1  0.01716681  0.79289896  0.73432339  1
  Ta  Ta86  1  -0.00091771  0.39604082  0.72716627  1
  Ta  Ta87  1  0.19369215  -0.01531444  0.49113909  1
  Ta  Ta88  1  0.00476959  0.59168603  0.24969036  1
  Ta  Ta89  1  0.50306799  0.69227279  0.11664199  1
  Ta  Ta90  1  0.49543138  0.50187251  0.61811648  1
  Ta  Ta91  1  -0.00637985  0.39682146  0.51540101  1
  Ta  Ta92  1  0.71387124  0.70105882  0.61798040  1
  Ta  Ta93  1  0.60091959  0.39585912  0.48875711  1
  Ta  Ta94  1  0.88385977  0.50641977  0.12752846  1
  Ta  Ta95  1  0.90134888  0.69769501  0.61384205  1
  Ta  Ta96  1  0.60910828  0.42123623  0.00351588  1
  Ta  Ta97  1  0.78482940  0.40111815  0.49763066  1
  Ta  Ta98  1  0.49773503  0.09991047  0.62775763  1
  Ta  Ta99  1  0.90747510  0.69551964  0.13569212  1
  Ta  Ta100  1  0.20579551  0.80107603  -0.00416687  1
  Ta  Ta101  1  0.29265330  0.89143746  0.12485744  1
  Ta  Ta102  1  0.60497490  0.01813706  0.49097903  1
  Ta  Ta103  1  0.18190299  0.38483127  0.00784768  1
  Ta  Ta104  1  0.09764545  0.09928608  0.61675735  1
  Ta  Ta105  1  0.69652338  0.30159800  0.36535735  1
  Ta  Ta106  1  0.17728244  -0.01251100  0.01350136  1
  Ta  Ta107  1  0.09287430  0.30269456  0.38845716  1
  Ta  Ta108  1  0.01010418  0.59135668  0.51948016  1
  Ta  Ta109  1  0.39469332  0.20399589  0.75013574  1
  Ta  Ta110  1  0.88818436  0.50231823  0.62470266  1
  Ta  Ta111  1  0.39268736  0.39686818  0.74322177  1
  Ta  Ta112  1  0.01955497  0.81148233  0.00612739  1
  Ta  Ta113  1  0.08835746  0.49240750  0.38517447  1
  Ta  Ta114  1  0.29189706  0.29822806  0.88253900  1
  Ta  Ta115  1  0.50214143  0.69701711  0.38386144  1
  Ta  Ta116  1  0.38779078  0.39944130  0.01046652  1
  Ta  Ta117  1  0.40222897  0.60066719  0.49940723  1
  Ta  Ta118  1  -0.00326441  0.20129058  0.74368693  1
  Ta  Ta119  1  0.69159034  0.88815263  0.87802499  1
  Ti  Ti120  1  0.29778027  0.90260268  0.88308333  1
  Ti  Ti121  1  0.70266095  0.91390279  0.35577177  1
  Ti  Ti122  1  0.08359359  0.49777925  0.11737843  1
  Ti  Ti123  1  0.01211003  0.21024226  0.01992741  1
  Ti  Ti124  1  0.40884300  0.18481857  0.22895330  1
  Ti  Ti125  1  0.18734353  0.19254904  0.50023443  1
  Ti  Ti126  1  0.39955241  0.00321257  0.75254803  1
  Ti  Ti127  1  0.19053782  -0.01245084  0.24619203  1
  Ti  Ti128  1  0.88492366  0.50351319  0.86032265  1
  Ti  Ti129  1  0.49401177  0.51168067  0.11821520  1
  Ti  Ti130  1  0.39148789  -0.00374794  0.24809711  1
  Ti  Ti131  1  0.59260146  0.01935751  0.23617215  1
  Ti  Ti132  1  0.39361650  0.60547387  0.25546989  1
  Ti  Ti133  1  0.59291223  -0.00372452  0.75573263  1
  Ti  Ti134  1  0.60579110  0.58936816  0.49283652  1
  Ti  Ti135  1  0.81490272  0.41334748  -0.00063711  1
  Ti  Ti136  1  0.18603829  0.40994449  0.51573856  1
  Ti  Ti137  1  0.50739900  0.91281685  0.36532763  1
  Ti  Ti138  1  0.90211401  0.68992000  0.86795529  1
  Ti  Ti139  1  0.49940180  0.90392025  0.88241017  1
  Ti  Ti140  1  0.79609569  0.60027275  0.50116913  1
  Ti  Ti141  1  0.80891555  0.79533001  0.25329545  1
  Ti  Ti142  1  0.19791761  0.80217932  0.75102233  1
  Ti  Ti143  1  0.61530696  0.79560175  0.00726632  1
  Ti  Ti144  1  0.79396708  0.41177373  0.25510392  1
  Ti  Ti145  1  0.79094470  0.20958907  0.24257094  1
  Ti  Ti146  1  0.59084778  0.60038182  0.25485173  1
  Ti  Ti147  1  0.20276897  0.59847763  0.51941542  1
  Ti  Ti148  1  0.58748860  0.19752976  0.49646529  1
  Ti  Ti149  1  0.79509283  0.40185265  0.74763236  1
  Ti  Ti150  1  0.09220759  0.71015706  0.87232534  1
  Ti  Ti151  1  0.40484667  0.80351134  0.00002300  1
  Ti  Ti152  1  0.69185862  0.51138720  0.12931702  1
  Ti  Ti153  1  0.80196108  0.20604488  0.75744204  1
  Ti  Ti154  1  0.78532527  -0.00761444  0.49158671  1
  Ti  Ti155  1  0.68043451  0.10799067  0.35457568  1
  Ti  Ti156  1  0.60157214  0.79895611  0.25493419  1
  Ti  Ti157  1  0.78186838  0.59778582  -0.00575698  1
  Ti  Ti158  1  0.62382736  0.60900254  0.75555649  1
  Ti  Ti159  1  0.00469679  0.20494117  0.23736860  1
  Mo  Mo160  1  0.60384293  0.20153961  0.23328039  1
  Mo  Mo161  1  0.80257291  0.79992707  0.49708405  1
  Mo  Mo162  1  0.22024829  0.79651125  0.48850761  1
  Mo  Mo163  1  0.10869074  0.90157886  0.37449498  1
  Mo  Mo164  1  0.00156691  0.00712699  0.00592003  1
  Mo  Mo165  1  0.08750618  0.28935258  0.60860278  1
  Mo  Mo166  1  0.90040444  0.30874486  0.12353550  1
  Mo  Mo167  1  0.90156421  0.10839642  0.87112986  1
  Mo  Mo168  1  0.79181046  0.00155370  0.25597771  1
  Mo  Mo169  1  -0.00302254  0.20146277  0.49950012  1
  Mo  Mo170  1  0.10860806  0.89482854  0.13295018  1
  Mo  Mo171  1  0.70887217  0.50696931  0.87573610  1
  Mo  Mo172  1  0.29781019  0.08320752  0.13879052  1
  Mo  Mo173  1  0.09643991  0.49856038  0.62352197  1
  Mo  Mo174  1  0.10549856  0.30119878  0.87965858  1
  Mo  Mo175  1  0.39387249  0.20544803  0.01410974  1
  Mo  Mo176  1  0.40032595  0.60492668  0.00274850  1
  Mo  Mo177  1  0.49699342  0.09659630  0.12494176  1
  Mo  Mo178  1  0.30218399  0.90051787  0.37751468  1
  Mo  Mo179  1  0.31261767  0.69386847  0.38922403  1
  Mo  Mo180  1  0.10919207  0.70584715  0.62440896  1
  Mo  Mo181  1  0.11163082  0.89144151  0.87573997  1
  Mo  Mo182  1  0.70747660  0.69773251  0.87769486  1
  Mo  Mo183  1  -0.00815797  0.40132618  0.01331963  1
  Mo  Mo184  1  0.08849943  0.08423785  0.13397295  1
  Mo  Mo185  1  0.40309029  0.19172541  0.49912037  1
  Mo  Mo186  1  0.69833671  0.10293701  0.13262317  1
  Mo  Mo187  1  0.09574686  0.30021935  0.12425470  1
  Mo  Mo188  1  0.00674549  0.00349848  0.25999578  1
  Mo  Mo189  1  0.50649576  0.09546095  0.36129279  1
  Mo  Mo190  1  0.69330253  0.49618878  0.37659595  1
  Mo  Mo191  1  0.80360972  0.59519366  0.74424404  1
  Mo  Mo192  1  0.30864786  0.50061722  0.62058844  1
  Mo  Mo193  1  0.80751252  0.59296137  0.24875988  1
  Mo  Mo194  1  0.40688461  0.80265695  0.47846248  1
  Mo  Mo195  1  0.30432567  0.29996372  0.12036050  1
  Mo  Mo196  1  0.60619004  0.60353998  0.00792122  1
  Mo  Mo197  1  0.11093650  0.90315493  0.62238758  1
  Mo  Mo198  1  0.69749920  0.29783705  0.62518610  1
  Mo  Mo199  1  0.19858708  0.59779352  0.24917932  1
