# generated using pymatgen
data_HfZrTaTiMo
_symmetry_space_group_name_H-M   'P 1'
_cell_length_a   15.19975658
_cell_length_b   15.19206477
_cell_length_c   16.78799419
_cell_angle_alpha   90.07080641
_cell_angle_beta   89.96876357
_cell_angle_gamma   90.10932300
_symmetry_Int_Tables_number   1
_chemical_formula_structural   HfZrTaTiMo
_chemical_formula_sum   'Hf40 Zr40 Ta40 Ti40 Mo40'
_cell_volume   3876.60061434
_cell_formula_units_Z   40
loop_
 _symmetry_equiv_pos_site_id
 _symmetry_equiv_pos_as_xyz
  1  'x, y, z'
loop_
 _atom_site_type_symbol
 _atom_site_label
 _atom_site_symmetry_multiplicity
 _atom_site_fract_x
 _atom_site_fract_y
 _atom_site_fract_z
 _atom_site_occupancy
  Hf  Hf0  1  0.71089399  0.89076628  0.88857413  1
  Hf  Hf1  1  0.50463655  0.88717610  0.11148255  1
  Hf  Hf2  1  0.70726144  0.88180940  0.13111885  1
  Hf  Hf3  1  0.90040009  0.09016432  0.62269367  1
  Hf  Hf4  1  0.29599576  0.11239674  0.86676892  1
  Hf  Hf5  1  0.40542372  0.79573647  0.23926414  1
  Hf  Hf6  1  0.88183708  0.30684771  0.39236964  1
  Hf  Hf7  1  0.40118012  0.78059261  0.75224967  1
  Hf  Hf8  1  0.11346098  0.88987235  0.37312768  1
  Hf  Hf9  1  -0.00830715  0.19991816  0.25988091  1
  Hf  Hf10  1  0.00924470  0.19611767  -0.00048143  1
  Hf  Hf11  1  0.90224327  0.51216432  0.64015391  1
  Hf  Hf12  1  0.61551940  0.00611923  0.01518393  1
  Hf  Hf13  1  0.80052192  0.79785810  0.48397202  1
  Hf  Hf14  1  0.90416155  0.09489143  0.86843693  1
  Hf  Hf15  1  0.79912818  0.00678974  0.26108017  1
  Hf  Hf16  1  0.60314736  0.60003801  0.50927528  1
  Hf  Hf17  1  0.20878930  0.21098317  0.24383390  1
  Hf  Hf18  1  0.48537474  0.28344346  0.37672291  1
  Hf  Hf19  1  0.59002221  -0.00059851  0.24446806  1
  Hf  Hf20  1  0.57620740  0.19517700  0.51363363  1
  Hf  Hf21  1  0.59979458  0.77822028  0.26613893  1
  Hf  Hf22  1  0.70564632  0.10406928  0.87485673  1
  Hf  Hf23  1  0.79498757  0.40263833  -0.01215170  1
  Hf  Hf24  1  0.79351642  0.60045063  0.00026884  1
  Hf  Hf25  1  0.10071301  0.89785763  0.12775960  1
  Hf  Hf26  1  0.90618782  0.90009551  0.13273100  1
  Hf  Hf27  1  0.69971693  0.31541398  0.12501039  1
  Hf  Hf28  1  0.49863449  0.10671146  0.87593961  1
  Hf  Hf29  1  0.78926331  0.40412178  0.74526142  1
  Hf  Hf30  1  0.21220393  0.80191790  0.23685350  1
  Hf  Hf31  1  0.09402604  0.10254417  0.13068297  1
  Hf  Hf32  1  0.11626259  0.50790184  0.86669063  1
  Hf  Hf33  1  0.89526290  0.71287167  0.86890950  1
  Hf  Hf34  1  0.80541710  -0.02634353  0.74037427  1
  Hf  Hf35  1  0.00527181  0.61175374  -0.00827866  1
  Hf  Hf36  1  0.30594295  0.70191724  0.37883171  1
  Hf  Hf37  1  0.09523451  0.50441222  0.37160014  1
  Hf  Hf38  1  0.32238273  0.90842362  0.38108600  1
  Hf  Hf39  1  0.00043482  0.39013370  0.75710623  1
  Zr  Zr40  1  0.19126978  0.00079985  -0.00318246  1
  Zr  Zr41  1  0.50219601  0.89495958  0.89626108  1
  Zr  Zr42  1  0.79954059  0.20500995  0.24777853  1
  Zr  Zr43  1  0.40092183  0.18597367  0.22876572  1
  Zr  Zr44  1  0.40327977  -0.00584732  0.74647983  1
  Zr  Zr45  1  0.09326629  0.49834697  0.12735487  1
  Zr  Zr46  1  0.59661474  0.40340483  0.73974662  1
  Zr  Zr47  1  0.59538774  0.20405914  0.01226631  1
  Zr  Zr48  1  0.29247406  0.88993794  0.87867509  1
  Zr  Zr49  1  0.39309871  0.01752485  0.01581493  1
  Zr  Zr50  1  -0.00039964  -0.00455881  0.26816613  1
  Zr  Zr51  1  0.19976900  0.39913109  -0.00071963  1
  Zr  Zr52  1  0.19564166  0.40340172  0.51219984  1
  Zr  Zr53  1  0.60541101  0.00032394  0.74787236  1
  Zr  Zr54  1  0.60933634  0.80773080  0.74576592  1
  Zr  Zr55  1  0.09946139  0.69761150  0.36944523  1
  Zr  Zr56  1  0.09915008  0.31433252  0.37235445  1
  Zr  Zr57  1  -0.00347164  0.40732040  -0.01647879  1
  Zr  Zr58  1  0.30093347  0.31571653  0.85434498  1
  Zr  Zr59  1  0.50313868  0.69427183  0.89815048  1
  Zr  Zr60  1  0.39701518  0.39375431  0.50370461  1
  Zr  Zr61  1  0.21591626  0.00666936  0.50946624  1
  Zr  Zr62  1  0.59888283  0.19973660  0.24009367  1
  Zr  Zr63  1  0.10402411  0.50082739  0.64015602  1
  Zr  Zr64  1  -0.00731579  0.19363676  0.49328633  1
  Zr  Zr65  1  0.11938696  0.10335837  0.37595990  1
  Zr  Zr66  1  0.89020704  0.28909593  0.87349725  1
  Zr  Zr67  1  0.81138608  0.00210390  0.48087265  1
  Zr  Zr68  1  0.21053006  0.59474268  0.24090710  1
  Zr  Zr69  1  0.59728972  0.41634008  -0.00826350  1
  Zr  Zr70  1  0.49450887  0.29773886  0.86694620  1
  Zr  Zr71  1  0.79206632  0.19747409  0.73632133  1
  Zr  Zr72  1  0.90960321  0.30425627  0.11999477  1
  Zr  Zr73  1  0.30793180  0.88773663  0.61896771  1
  Zr  Zr74  1  0.70659705  0.52117118  0.37467944  1
  Zr  Zr75  1  0.89977171  0.68278560  0.36897769  1
  Zr  Zr76  1  0.59171315  0.61457176  0.73783897  1
  Zr  Zr77  1  0.20077929  0.21031681  0.52002297  1
  Zr  Zr78  1  0.68739330  0.11355552  0.38867611  1
  Zr  Zr79  1  0.68369239  0.32111854  0.39294717  1
  Ta  Ta80  1  0.39380526  0.40565349  -0.00060414  1
  Ta  Ta81  1  0.48814102  0.51317602  0.62506485  1
  Ta  Ta82  1  0.90399063  0.90138380  0.88115652  1
  Ta  Ta83  1  0.69230405  0.51389116  0.86502563  1
  Ta  Ta84  1  0.10564531  0.28400255  0.86413075  1
  Ta  Ta85  1  0.59082668  0.41062502  0.24895634  1
  Ta  Ta86  1  0.19576446  -0.00679975  0.74319056  1
  Ta  Ta87  1  0.00457492  -0.01136521  0.48723584  1
  Ta  Ta88  1  0.37890274  0.78622559  0.01654972  1
  Ta  Ta89  1  0.00662254  -0.00537438  0.74937135  1
  Ta  Ta90  1  0.50654158  0.50432327  0.12471247  1
  Ta  Ta91  1  0.32185173  0.10823707  0.37659483  1
  Ta  Ta92  1  0.48679778  0.31340217  0.12125688  1
  Ta  Ta93  1  0.09372325  0.09280101  0.62719233  1
  Ta  Ta94  1  0.30168001  0.49443494  0.37032632  1
  Ta  Ta95  1  0.18873686  0.79291330  0.74849415  1
  Ta  Ta96  1  0.80027641  0.41525128  0.24968022  1
  Ta  Ta97  1  0.30635480  0.68816430  0.61798648  1
  Ta  Ta98  1  0.89302417  0.51440036  0.85796782  1
  Ta  Ta99  1  0.41983316  0.59491892  0.25583679  1
  Ta  Ta100  1  0.59400518  0.19800873  0.73040958  1
  Ta  Ta101  1  0.40191842  0.60077137  0.49340959  1
  Ta  Ta102  1  0.09097014  0.89469666  0.61890232  1
  Ta  Ta103  1  0.58787022  0.80078198  0.48452379  1
  Ta  Ta104  1  0.19268986  0.20044451  0.73195336  1
  Ta  Ta105  1  0.89881221  0.30055813  0.61915047  1
  Ta  Ta106  1  0.69445150  0.09256809  0.60866332  1
  Ta  Ta107  1  0.80748051  0.60491045  0.51639901  1
  Ta  Ta108  1  0.50692501  0.68789570  0.11200365  1
  Ta  Ta109  1  0.21475294  0.60941240  0.75054578  1
  Ta  Ta110  1  0.01333313  0.62314877  0.75911556  1
  Ta  Ta111  1  0.10191283  0.70249455  0.62088748  1
  Ta  Ta112  1  0.22000023  0.00521764  0.24409325  1
  Ta  Ta113  1  -0.00499761  0.81050969  0.74785033  1
  Ta  Ta114  1  0.89800063  0.70160348  0.13342928  1
  Ta  Ta115  1  0.80478159  0.79499942  0.26519548  1
  Ta  Ta116  1  0.38574321  0.18755810  0.52290683  1
  Ta  Ta117  1  0.00123276  0.60085113  0.50843338  1
  Ta  Ta118  1  0.20307138  0.59706328  0.50227893  1
  Ta  Ta119  1  0.48031732  0.50439140  0.86512659  1
  Ti  Ti120  1  0.71076720  0.89885364  0.60728418  1
  Ti  Ti121  1  0.69012098  0.29745825  0.86974054  1
  Ti  Ti122  1  0.90280513  0.71861751  0.63029489  1
  Ti  Ti123  1  0.79994711  0.18749694  0.01466951  1
  Ti  Ti124  1  -0.00385973  0.40525900  0.51259945  1
  Ti  Ti125  1  0.50414168  0.49197875  0.38004589  1
  Ti  Ti126  1  0.69921707  0.71212103  0.61926698  1
  Ti  Ti127  1  0.69383250  0.30494738  0.61015749  1
  Ti  Ti128  1  0.00066974  0.80274791  0.00009575  1
  Ti  Ti129  1  0.78991193  0.41800765  0.51784078  1
  Ti  Ti130  1  0.29440569  0.30045921  0.37643905  1
  Ti  Ti131  1  0.09398165  0.69872470  0.13068107  1
  Ti  Ti132  1  0.51337665  0.89508184  0.61559273  1
  Ti  Ti133  1  0.21591703  0.60211860  0.00937302  1
  Ti  Ti134  1  0.20239541  0.79391758  0.50300669  1
  Ti  Ti135  1  0.80667492  0.79606125  0.00820914  1
  Ti  Ti136  1  0.10736666  0.30826830  0.13092326  1
  Ti  Ti137  1  0.90082746  0.49563555  0.38183289  1
  Ti  Ti138  1  -0.01430002  0.59387092  0.24299043  1
  Ti  Ti139  1  0.29772682  0.68465476  0.88223382  1
  Ti  Ti140  1  0.42643592  0.00197725  0.50480042  1
  Ti  Ti141  1  -0.00586452  0.40073787  0.25026071  1
  Ti  Ti142  1  0.88780604  0.50290944  0.12402524  1
  Ti  Ti143  1  0.21414336  0.20312084  0.00741526  1
  Ti  Ti144  1  0.69673156  0.68092263  0.13094459  1
  Ti  Ti145  1  0.39983690  -0.00479866  0.23184166  1
  Ti  Ti146  1  0.10054566  0.09660258  0.86325531  1
  Ti  Ti147  1  0.39183181  0.39525058  0.25158834  1
  Ti  Ti148  1  0.30454680  0.49699138  0.63628864  1
  Ti  Ti149  1  0.31163190  0.49242232  0.13123143  1
  Ti  Ti150  1  0.81127554  0.00214266  0.01181107  1
  Ti  Ti151  1  0.79301050  0.61639291  0.74101493  1
  Ti  Ti152  1  0.48878233  0.30873304  0.62836507  1
  Ti  Ti153  1  0.19100626  0.78793779  0.00686919  1
  Ti  Ti154  1  0.09428863  0.89146282  0.87466341  1
  Ti  Ti155  1  0.39722007  0.19727023  0.72739728  1
  Ti  Ti156  1  -0.00334449  0.79758049  0.49777711  1
  Ti  Ti157  1  -0.00182425  -0.00025865  -0.00227550  1
  Ti  Ti158  1  0.69978807  0.70067251  0.87731711  1
  Ti  Ti159  1  0.69063897  0.90091170  0.37500082  1
  Mo  Mo160  1  0.39655337  0.58743823  0.00712285  1
  Mo  Mo161  1  0.30504132  0.50966152  0.87173842  1
  Mo  Mo162  1  0.08463050  0.29527354  0.63561233  1
  Mo  Mo163  1  0.29061742  0.09974932  0.12177753  1
  Mo  Mo164  1  0.29787463  0.30731683  0.64292839  1
  Mo  Mo165  1  0.49874933  0.09189525  0.62905504  1
  Mo  Mo166  1  0.49910956  0.68751189  0.37952702  1
  Mo  Mo167  1  0.61814798  0.78641379  0.00896756  1
  Mo  Mo168  1  0.49960666  0.90215429  0.37348602  1
  Mo  Mo169  1  0.40363937  0.79640862  0.50130741  1
  Mo  Mo170  1  0.00251522  0.19098797  0.74529998  1
  Mo  Mo171  1  0.70122713  0.50827202  0.62477569  1
  Mo  Mo172  1  0.39793954  0.60469452  0.74842929  1
  Mo  Mo173  1  0.59683267  0.59395267  0.25325999  1
  Mo  Mo174  1  0.29923633  0.09388811  0.63667184  1
  Mo  Mo175  1  0.90023666  0.10426618  0.38257715  1
  Mo  Mo176  1  0.60230623  -0.00966507  0.50004042  1
  Mo  Mo177  1  0.38804105  0.21487930  0.01036588  1
  Mo  Mo178  1  0.90042951  0.09518890  0.11829693  1
  Mo  Mo179  1  0.90935074  0.88984582  0.36638237  1
  Mo  Mo180  1  0.49203625  0.71241361  0.61298416  1
  Mo  Mo181  1  0.69907738  0.50365296  0.13216209  1
  Mo  Mo182  1  0.79171791  0.20910390  0.51622340  1
  Mo  Mo183  1  0.19922292  0.40117452  0.74594870  1
  Mo  Mo184  1  0.80041367  0.79585383  0.74348480  1
  Mo  Mo185  1  0.11047174  0.71363113  0.88047900  1
  Mo  Mo186  1  0.79642599  0.60188788  0.24065568  1
  Mo  Mo187  1  0.29881952  0.30823579  0.12091274  1
  Mo  Mo188  1  0.48908172  0.08390493  0.37673382  1
  Mo  Mo189  1  0.90865036  0.89434989  0.61536576  1
  Mo  Mo190  1  0.59067140  0.40600675  0.51389142  1
  Mo  Mo191  1  0.39985708  0.40787895  0.73813882  1
  Mo  Mo192  1  0.71228510  0.09643833  0.12552499  1
  Mo  Mo193  1  0.30435479  0.68497478  0.12382411  1
  Mo  Mo194  1  0.50188424  0.10185404  0.11836627  1
  Mo  Mo195  1  0.70068727  0.70124179  0.38197051  1
  Mo  Mo196  1  0.60365054  0.59570442  -0.00383078  1
  Mo  Mo197  1  0.00255715  0.78811659  0.24302628  1
  Mo  Mo198  1  0.20702972  0.40103326  0.24941908  1
  Mo  Mo199  1  0.29549637  0.89517917  0.11922894  1
