# generated using pymatgen
data_HfZrTaTiMo
_symmetry_space_group_name_H-M   'P 1'
_cell_length_a   15.20511947
_cell_length_b   15.21145800
_cell_length_c   16.83998413
_cell_angle_alpha   90.01241537
_cell_angle_beta   90.00657777
_cell_angle_gamma   89.91792450
_symmetry_Int_Tables_number   1
_chemical_formula_structural   HfZrTaTiMo
_chemical_formula_sum   'Hf40 Zr40 Ta40 Ti40 Mo40'
_cell_volume   3894.95010295
_cell_formula_units_Z   40
loop_
 _symmetry_equiv_pos_site_id
 _symmetry_equiv_pos_as_xyz
  1  'x, y, z'
loop_
 _atom_site_type_symbol
 _atom_site_label
 _atom_site_symmetry_multiplicity
 _atom_site_fract_x
 _atom_site_fract_y
 _atom_site_fract_z
 _atom_site_occupancy
  Hf  Hf0  1  0.88173561  0.71211157  0.13104445  1
  Hf  Hf1  1  0.00822385  0.60386190  0.00026402  1
  Hf  Hf2  1  0.29262183  0.08947959  0.38691055  1
  Hf  Hf3  1  0.49632888  0.50059786  0.61504252  1
  Hf  Hf4  1  0.29280159  0.48519455  0.87417843  1
  Hf  Hf5  1  0.18426176  0.19567631  0.26310034  1
  Hf  Hf6  1  0.20529007  0.80140538  0.25113543  1
  Hf  Hf7  1  0.90837962  0.10614699  0.11535448  1
  Hf  Hf8  1  0.31172822  0.29498816  0.36761889  1
  Hf  Hf9  1  0.40116650  0.00349099  0.74964354  1
  Hf  Hf10  1  0.71508017  0.88988033  0.38143237  1
  Hf  Hf11  1  0.50071002  0.87883049  0.13469918  1
  Hf  Hf12  1  0.70747055  0.88434044  0.12517390  1
  Hf  Hf13  1  0.19095226  0.79639618  0.50159764  1
  Hf  Hf14  1  0.90869996  0.49989321  0.12966657  1
  Hf  Hf15  1  0.41220938  0.59399129  0.26554620  1
  Hf  Hf16  1  0.80385762  0.59705033  0.76246596  1
  Hf  Hf17  1  0.39781173  0.20841233  0.00747712  1
  Hf  Hf18  1  0.49742685  0.10796612  0.38759521  1
  Hf  Hf19  1  -0.01076353  0.80753639  0.51429156  1
  Hf  Hf20  1  0.50172392  0.90314722  0.61084612  1
  Hf  Hf21  1  0.58933192  0.21852677  0.24511279  1
  Hf  Hf22  1  0.48640591  0.51494549  0.11963894  1
  Hf  Hf23  1  0.59623196  0.38909893  0.00913540  1
  Hf  Hf24  1  0.60696378  0.60163758  0.75906029  1
  Hf  Hf25  1  0.60730557  0.00528782  0.25179387  1
  Hf  Hf26  1  0.38820238  0.38713262  0.73183731  1
  Hf  Hf27  1  0.70647052  0.10147825  0.39551070  1
  Hf  Hf28  1  0.91024585  0.90812287  0.11432842  1
  Hf  Hf29  1  0.82248222  -0.00180610  0.51957013  1
  Hf  Hf30  1  0.20209609  0.79569174  0.00378338  1
  Hf  Hf31  1  0.90991072  0.32292963  0.63190364  1
  Hf  Hf32  1  0.77422167  0.60995926  0.26397221  1
  Hf  Hf33  1  0.09807427  0.70443970  0.13011863  1
  Hf  Hf34  1  0.48956223  0.70841380  0.87114537  1
  Hf  Hf35  1  0.80339338  0.01468881  -0.02145492  1
  Hf  Hf36  1  0.59843902  0.59630340  0.47931498  1
  Hf  Hf37  1  -0.00739131  0.19865570  0.25864397  1
  Hf  Hf38  1  0.60879426  0.19456662  -0.00397638  1
  Hf  Hf39  1  -0.01211405  0.20146042  -0.01798616  1
  Zr  Zr40  1  0.81214032  -0.00305476  0.25198037  1
  Zr  Zr41  1  0.30969998  0.89704334  0.38598729  1
  Zr  Zr42  1  0.09932129  0.88984105  0.85880595  1
  Zr  Zr43  1  0.69862688  0.51240412  0.12189256  1
  Zr  Zr44  1  0.21730538  0.58533017  0.01195713  1
  Zr  Zr45  1  0.30880651  0.89652187  0.87508181  1
  Zr  Zr46  1  0.00067052  0.58704624  0.75955188  1
  Zr  Zr47  1  0.70457867  0.10451499  0.12070042  1
  Zr  Zr48  1  0.79275866  0.19889531  0.25583038  1
  Zr  Zr49  1  0.80313070  0.80512954  0.74098741  1
  Zr  Zr50  1  -0.00016738  0.60273911  0.26081789  1
  Zr  Zr51  1  0.59983911  -0.01196268  -0.01442195  1
  Zr  Zr52  1  0.39895429  0.00154524  0.24734384  1
  Zr  Zr53  1  0.28997743  0.10322685  0.12914476  1
  Zr  Zr54  1  0.79670317  0.60144701  0.48337320  1
  Zr  Zr55  1  0.29695325  0.90140045  0.61759306  1
  Zr  Zr56  1  0.28378266  0.30909768  0.13729702  1
  Zr  Zr57  1  0.39768442  0.21912069  0.51686568  1
  Zr  Zr58  1  0.07652915  0.49268794  0.61005405  1
  Zr  Zr59  1  0.20035945  0.59393832  0.74754500  1
  Zr  Zr60  1  0.20332222  0.59055572  0.25640750  1
  Zr  Zr61  1  0.60531187  0.80395752  0.75621288  1
  Zr  Zr62  1  0.30311578  0.69015644  0.61249672  1
  Zr  Zr63  1  0.79249659  0.39440341  0.24981988  1
  Zr  Zr64  1  0.60468844  -0.00210046  0.76110825  1
  Zr  Zr65  1  0.00717282  0.39422960  0.26364855  1
  Zr  Zr66  1  0.29143484  0.49136693  0.60223759  1
  Zr  Zr67  1  0.17898731  0.38498898  0.74081990  1
  Zr  Zr68  1  0.60118956  0.40345907  0.74644341  1
  Zr  Zr69  1  0.48667027  0.50031743  0.88017047  1
  Zr  Zr70  1  0.39854663  -0.00127332  0.00546735  1
  Zr  Zr71  1  0.48983825  0.30175348  0.87297609  1
  Zr  Zr72  1  -0.00581789  0.19940181  0.51201779  1
  Zr  Zr73  1  0.80539351  0.60388004  -0.01018216  1
  Zr  Zr74  1  0.71230177  0.30605245  0.62881028  1
  Zr  Zr75  1  0.59941460  0.61017070  -0.01022736  1
  Zr  Zr76  1  0.59676004  0.19514564  0.74512343  1
  Zr  Zr77  1  0.51165951  0.89959981  0.38136936  1
  Zr  Zr78  1  0.10160026  0.91569913  0.38463619  1
  Zr  Zr79  1  0.50820369  0.69662021  0.62269655  1
  Ta  Ta80  1  0.19332301  -0.00168294  0.24708350  1
  Ta  Ta81  1  0.59817377  0.39900459  0.50403879  1
  Ta  Ta82  1  0.37933261  0.40838205  0.01466169  1
  Ta  Ta83  1  0.88952504  0.29389837  0.38848893  1
  Ta  Ta84  1  0.80026186  0.79597946  0.51925872  1
  Ta  Ta85  1  0.30036365  0.69297227  0.87367216  1
  Ta  Ta86  1  0.39782761  0.79867875  0.74656417  1
  Ta  Ta87  1  0.09614051  0.69462698  0.62106695  1
  Ta  Ta88  1  -0.00579013  0.00695482  0.74175505  1
  Ta  Ta89  1  -0.00537793  0.60588118  0.48290905  1
  Ta  Ta90  1  0.60488689  0.20829262  0.50991184  1
  Ta  Ta91  1  0.10957466  0.10530384  0.63820472  1
  Ta  Ta92  1  0.01031680  0.21294116  0.74625928  1
  Ta  Ta93  1  0.19469840  0.38300717  0.48844983  1
  Ta  Ta94  1  0.88884000  0.72168675  0.36967229  1
  Ta  Ta95  1  0.59338049  0.41721638  0.25016391  1
  Ta  Ta96  1  0.29577846  0.89431069  0.12453553  1
  Ta  Ta97  1  0.90933129  0.90508676  0.38006653  1
  Ta  Ta98  1  0.30317067  0.69818656  0.38079937  1
  Ta  Ta99  1  0.08653512  0.29104994  0.11793736  1
  Ta  Ta100  1  0.18912838  0.19350975  0.49746913  1
  Ta  Ta101  1  0.89803353  0.67978742  0.62429207  1
  Ta  Ta102  1  0.70720958  0.10149311  0.61690278  1
  Ta  Ta103  1  0.71088764  0.48345025  0.87935955  1
  Ta  Ta104  1  0.79607821  0.80591039  -0.01826028  1
  Ta  Ta105  1  0.91065214  0.71144824  0.87373992  1
  Ta  Ta106  1  0.80171531  0.38759010  0.00184065  1
  Ta  Ta107  1  0.00830260  0.00299828  -0.01981491  1
  Ta  Ta108  1  0.19524989  0.00490707  -0.00943713  1
  Ta  Ta109  1  0.39501089  0.19553853  0.73214199  1
  Ta  Ta110  1  -0.00195598  0.39849798  -0.00078266  1
  Ta  Ta111  1  0.11323965  0.47878507  0.12286052  1
  Ta  Ta112  1  0.50614553  0.09419998  0.61083428  1
  Ta  Ta113  1  0.91054162  0.09304712  0.38589080  1
  Ta  Ta114  1  0.32761587  0.69733632  0.13321888  1
  Ta  Ta115  1  -0.00201018  0.80533327  -0.00522171  1
  Ta  Ta116  1  0.71256320  0.51334296  0.62296214  1
  Ta  Ta117  1  0.48388116  0.10121754  0.87505831  1
  Ta  Ta118  1  0.01060907  0.00683399  0.25020831  1
  Ta  Ta119  1  0.71446872  0.28815181  0.86484172  1
  Ti  Ti120  1  0.10233244  0.90944647  0.11818957  1
  Ti  Ti121  1  0.10280040  0.90121224  0.63642556  1
  Ti  Ti122  1  0.10056463  0.30075147  0.87761242  1
  Ti  Ti123  1  0.30923459  0.49358243  0.38911701  1
  Ti  Ti124  1  0.40771290  0.78994546  0.49901931  1
  Ti  Ti125  1  0.49682207  0.10662855  0.12969139  1
  Ti  Ti126  1  0.09248529  0.70878593  0.37318759  1
  Ti  Ti127  1  0.19295257  0.19736348  -0.00730607  1
  Ti  Ti128  1  0.69728211  0.90420120  0.61882871  1
  Ti  Ti129  1  0.61324657  0.79311840  0.50296929  1
  Ti  Ti130  1  0.20529186  0.00345108  0.75345316  1
  Ti  Ti131  1  0.29995931  0.09149059  0.61181713  1
  Ti  Ti132  1  0.10665051  0.69755147  0.87486375  1
  Ti  Ti133  1  0.69460349  0.30581705  0.38543904  1
  Ti  Ti134  1  0.40567783  0.39327064  0.24261150  1
  Ti  Ti135  1  0.09611094  0.48829778  0.88459858  1
  Ti  Ti136  1  0.89819697  0.31876366  0.85898773  1
  Ti  Ti137  1  0.09790505  0.09831084  0.11546116  1
  Ti  Ti138  1  0.39670173  0.59714050  0.74692720  1
  Ti  Ti139  1  0.79769794  0.00860283  0.74706243  1
  Ti  Ti140  1  0.18851292  0.59438680  0.48353544  1
  Ti  Ti141  1  0.60556269  0.79871770  -0.01271476  1
  Ti  Ti142  1  0.50276924  0.31217548  0.37929323  1
  Ti  Ti143  1  0.88925007  0.29751193  0.12141154  1
  Ti  Ti144  1  0.79923565  0.40429521  0.49482330  1
  Ti  Ti145  1  0.90329442  0.90672235  0.86432611  1
  Ti  Ti146  1  0.50069485  0.70622132  0.37277753  1
  Ti  Ti147  1  0.89343435  0.49848163  0.36875339  1
  Ti  Ti148  1  0.01264860  0.00653000  0.52434984  1
  Ti  Ti149  1  0.10442897  0.10255998  0.86160620  1
  Ti  Ti150  1  0.89106125  0.11852123  0.85450910  1
  Ti  Ti151  1  0.20326991  0.78932189  0.74391615  1
  Ti  Ti152  1  0.29488890  0.28747926  0.87640072  1
  Ti  Ti153  1  -0.00083002  0.40386477  0.48073509  1
  Ti  Ti154  1  0.19433406  0.40255661  0.27057349  1
  Ti  Ti155  1  -0.00225016  0.81469377  0.24949451  1
  Ti  Ti156  1  0.40791834  0.79107517  0.00348797  1
  Ti  Ti157  1  0.00048649  0.79367316  0.73790577  1
  Ti  Ti158  1  0.61226799  0.77805258  0.25269062  1
  Ti  Ti159  1  0.21218569  0.19528179  0.74819546  1
  Mo  Mo160  1  0.51427841  0.70244268  0.12756344  1
  Mo  Mo161  1  0.80400723  0.40962616  0.75521493  1
  Mo  Mo162  1  0.90003010  0.10916959  0.64335138  1
  Mo  Mo163  1  0.80288834  0.21132592  -0.00927721  1
  Mo  Mo164  1  0.40131627  0.79234757  0.25295183  1
  Mo  Mo165  1  0.40271126  0.20341367  0.25135979  1
  Mo  Mo166  1  0.09233532  0.09383390  0.38325508  1
  Mo  Mo167  1  0.09734793  0.29615760  0.38276958  1
  Mo  Mo168  1  0.90589870  0.90012775  0.64003964  1
  Mo  Mo169  1  0.59498638  0.59795643  0.26533093  1
  Mo  Mo170  1  0.61087890  0.00007898  0.50443479  1
  Mo  Mo171  1  -0.00102673  0.40387449  0.75913103  1
  Mo  Mo172  1  0.80715232  0.80346141  0.25163807  1
  Mo  Mo173  1  0.69334641  0.71095796  0.37923016  1
  Mo  Mo174  1  0.69705809  0.30513642  0.12307162  1
  Mo  Mo175  1  0.71144083  0.89975223  0.87302838  1
  Mo  Mo176  1  0.29430006  0.10965497  0.87281018  1
  Mo  Mo177  1  0.39869093  0.60122308  0.47932521  1
  Mo  Mo178  1  0.29672167  0.49718857  0.13781959  1
  Mo  Mo179  1  0.80737833  0.19953991  0.74511203  1
  Mo  Mo180  1  0.90505279  0.49619874  0.88762378  1
  Mo  Mo181  1  0.70228695  0.69487375  0.62110457  1
  Mo  Mo182  1  0.70608316  0.70085441  0.87561219  1
  Mo  Mo183  1  0.19197846  0.38312484  -0.00206075  1
  Mo  Mo184  1  0.80033674  0.20765884  0.50172492  1
  Mo  Mo185  1  0.49546185  0.30159651  0.12884657  1
  Mo  Mo186  1  0.68773608  0.70936044  0.12145450  1
  Mo  Mo187  1  0.89258828  0.50242536  0.61537443  1
  Mo  Mo188  1  0.19258041  0.00499588  0.51598327  1
  Mo  Mo189  1  0.49376815  0.48452152  0.38036290  1
  Mo  Mo190  1  0.40432919  0.00234675  0.50369836  1
  Mo  Mo191  1  0.70257543  0.10470571  0.86791961  1
  Mo  Mo192  1  0.28310750  0.28608874  0.62063948  1
  Mo  Mo193  1  0.49613674  0.89861638  0.87888815  1
  Mo  Mo194  1  0.10382778  0.29774532  0.61906262  1
  Mo  Mo195  1  0.40097865  0.40085417  0.50214045  1
  Mo  Mo196  1  0.50165359  0.29991754  0.62447025  1
  Mo  Mo197  1  0.69309931  0.48512244  0.37587693  1
  Mo  Mo198  1  0.39354919  0.60777711  0.00076835  1
  Mo  Mo199  1  0.09978812  0.50170696  0.38674038  1
