# generated using pymatgen
data_HfZrTaTiMo
_symmetry_space_group_name_H-M   'P 1'
_cell_length_a   15.18113233
_cell_length_b   15.19634563
_cell_length_c   16.78668707
_cell_angle_alpha   90.02270424
_cell_angle_beta   89.98758599
_cell_angle_gamma   90.01435024
_symmetry_Int_Tables_number   1
_chemical_formula_structural   HfZrTaTiMo
_chemical_formula_sum   'Hf40 Zr40 Ta40 Ti40 Mo40'
_cell_volume   3872.65014972
_cell_formula_units_Z   40
loop_
 _symmetry_equiv_pos_site_id
 _symmetry_equiv_pos_as_xyz
  1  'x, y, z'
loop_
 _atom_site_type_symbol
 _atom_site_label
 _atom_site_symmetry_multiplicity
 _atom_site_fract_x
 _atom_site_fract_y
 _atom_site_fract_z
 _atom_site_occupancy
  Hf  Hf0  1  -0.01747443  0.19009047  0.73990831  1
  Hf  Hf1  1  0.00887438  0.59890383  0.52019055  1
  Hf  Hf2  1  0.80722185  0.01070304  0.50838460  1
  Hf  Hf3  1  0.20218934  0.40345379  -0.00709990  1
  Hf  Hf4  1  0.41128499  0.58711282  0.52036648  1
  Hf  Hf5  1  0.79963045  0.21197941  0.49270460  1
  Hf  Hf6  1  0.69227925  0.52584198  0.36183539  1
  Hf  Hf7  1  0.39329569  0.20276682  -0.01794172  1
  Hf  Hf8  1  0.40343133  0.59374422  0.73881185  1
  Hf  Hf9  1  0.18790830  -0.00393113  -0.00519937  1
  Hf  Hf10  1  0.12014486  0.10090356  0.62127048  1
  Hf  Hf11  1  0.11152670  0.88711429  0.62385414  1
  Hf  Hf12  1  0.71510298  0.90623083  0.12293909  1
  Hf  Hf13  1  0.30479818  0.67191728  0.37784935  1
  Hf  Hf14  1  0.29653278  0.26952364  0.61902017  1
  Hf  Hf15  1  0.80561620  0.00557891  0.73170789  1
  Hf  Hf16  1  0.39066063  -0.00435194  -0.01742895  1
  Hf  Hf17  1  0.51698560  0.68512107  0.38489672  1
  Hf  Hf18  1  0.08803797  0.29453260  0.88259109  1
  Hf  Hf19  1  0.80379606  0.60693231  -0.01204239  1
  Hf  Hf20  1  0.39603693  0.39338586  0.51283768  1
  Hf  Hf21  1  0.01139638  0.80019573  0.26260671  1
  Hf  Hf22  1  0.20680605  0.58778691  0.52583509  1
  Hf  Hf23  1  -0.00491580  -0.00503134  0.27203748  1
  Hf  Hf24  1  -0.00445910  0.19595718  0.24360101  1
  Hf  Hf25  1  -0.00280136  0.17855488  0.01454792  1
  Hf  Hf26  1  0.29822214  0.27859911  0.38277896  1
  Hf  Hf27  1  0.40725208  0.79941723  0.75459599  1
  Hf  Hf28  1  0.18962980  0.78760287  0.48714458  1
  Hf  Hf29  1  -0.00064385  0.40035773  0.24110801  1
  Hf  Hf30  1  0.58295772  0.20839765  0.24996851  1
  Hf  Hf31  1  0.09541629  0.89629098  0.86479199  1
  Hf  Hf32  1  0.09141776  0.30435453  0.62459581  1
  Hf  Hf33  1  0.19037246  -0.00991102  0.26690024  1
  Hf  Hf34  1  0.09143816  0.29261167  0.38160507  1
  Hf  Hf35  1  0.71141360  0.71643637  0.38074422  1
  Hf  Hf36  1  0.29703975  0.90055880  0.12969430  1
  Hf  Hf37  1  0.00789085  0.79836706  0.00226043  1
  Hf  Hf38  1  0.70867664  0.90838425  0.38275516  1
  Hf  Hf39  1  0.40159592  0.19678148  0.77189684  1
  Zr  Zr40  1  0.87974572  0.29161054  0.88106062  1
  Zr  Zr41  1  0.68629155  0.49891196  0.88402396  1
  Zr  Zr42  1  0.19864874  0.38783463  0.24492047  1
  Zr  Zr43  1  0.81762623  0.80688756  0.24640919  1
  Zr  Zr44  1  0.80728822  0.60185340  0.50457343  1
  Zr  Zr45  1  0.48862450  0.10016769  0.63508343  1
  Zr  Zr46  1  0.39061670  0.39296862  0.75189447  1
  Zr  Zr47  1  0.51147960  0.90147300  0.37381455  1
  Zr  Zr48  1  0.61115654  0.00963332  0.00755777  1
  Zr  Zr49  1  0.41083320  0.79133790  0.25313162  1
  Zr  Zr50  1  0.40693893  0.01959328  0.48822108  1
  Zr  Zr51  1  0.31162750  0.69158250  0.12591995  1
  Zr  Zr52  1  0.40350931  0.78966904  -0.01470175  1
  Zr  Zr53  1  -0.00624383  0.60478673  0.00161038  1
  Zr  Zr54  1  0.59523476  0.42397211  0.49697069  1
  Zr  Zr55  1  0.80313764  0.40349468  0.24326978  1
  Zr  Zr56  1  0.79604236  0.19416582  0.01816270  1
  Zr  Zr57  1  0.90326485  0.08294663  0.87524943  1
  Zr  Zr58  1  0.00280436  -0.00746173  0.49190732  1
  Zr  Zr59  1  0.57962092  0.41905541  0.25105868  1
  Zr  Zr60  1  0.00014000  -0.01139624  0.73177172  1
  Zr  Zr61  1  0.09081070  0.50649466  0.87295430  1
  Zr  Zr62  1  0.29812820  0.29213455  0.11570423  1
  Zr  Zr63  1  0.58610969  0.20155243  0.48896459  1
  Zr  Zr64  1  0.68693371  0.50927857  0.12406694  1
  Zr  Zr65  1  0.40218765  0.80186014  0.50268093  1
  Zr  Zr66  1  0.10526996  0.50773858  0.37613367  1
  Zr  Zr67  1  0.20844510  0.00057342  0.48272368  1
  Zr  Zr68  1  0.80185004  0.59952609  0.75882115  1
  Zr  Zr69  1  -0.01477610  0.40240936  0.75576351  1
  Zr  Zr70  1  0.20020663  0.78384236  0.26629089  1
  Zr  Zr71  1  0.51814229  0.10003825  0.87686423  1
  Zr  Zr72  1  0.20097838  0.60953382  -0.00482132  1
  Zr  Zr73  1  0.60114693  0.00092135  0.74767305  1
  Zr  Zr74  1  0.20305233  0.19805929  0.76811835  1
  Zr  Zr75  1  0.59197965  0.41730206  0.74481759  1
  Zr  Zr76  1  0.59944316  0.00504319  0.24578091  1
  Zr  Zr77  1  0.49584344  0.90000890  0.12202231  1
  Zr  Zr78  1  0.70279779  0.31086251  0.36831978  1
  Zr  Zr79  1  0.71010067  0.91310655  0.88113494  1
  Ta  Ta80  1  0.69875415  0.31442087  0.61877394  1
  Ta  Ta81  1  -0.01459003  0.39917301  0.50050206  1
  Ta  Ta82  1  0.79291545  0.40193564  0.00582423  1
  Ta  Ta83  1  0.52160849  0.69806274  0.62446268  1
  Ta  Ta84  1  0.39272195  0.39450281  0.24475050  1
  Ta  Ta85  1  0.51458789  0.69229935  0.86734704  1
  Ta  Ta86  1  0.90034655  0.88062628  0.87338004  1
  Ta  Ta87  1  0.69742550  0.89988126  0.61368267  1
  Ta  Ta88  1  0.61122674  0.79223623  0.00704783  1
  Ta  Ta89  1  0.61259548  0.79938168  0.74699883  1
  Ta  Ta90  1  0.41047854  0.58250862  0.24846595  1
  Ta  Ta91  1  0.49681999  0.31103687  0.11208136  1
  Ta  Ta92  1  0.51473107  0.31383154  0.88709846  1
  Ta  Ta93  1  0.48522370  0.11282489  0.11965058  1
  Ta  Ta94  1  0.69805937  0.11922601  0.62516017  1
  Ta  Ta95  1  0.39386400  0.02162989  0.25633850  1
  Ta  Ta96  1  0.60496419  0.21382700  0.00683701  1
  Ta  Ta97  1  0.20617520  0.58425423  0.24012590  1
  Ta  Ta98  1  -0.01124612  0.79116593  0.50435845  1
  Ta  Ta99  1  0.88919680  0.48849411  0.62785486  1
  Ta  Ta100  1  0.39227768  -0.00665533  0.76937154  1
  Ta  Ta101  1  -0.00019859  0.60494983  0.24179558  1
  Ta  Ta102  1  0.19275930  0.39597514  0.50877314  1
  Ta  Ta103  1  0.50548267  0.29561205  0.62530942  1
  Ta  Ta104  1  0.90168596  0.50302230  0.36884840  1
  Ta  Ta105  1  0.19899531  0.40331716  0.75317784  1
  Ta  Ta106  1  -0.01409478  0.40193748  0.00757086  1
  Ta  Ta107  1  0.20154580  0.59813508  0.73774203  1
  Ta  Ta108  1  0.70982388  0.70979632  0.61987955  1
  Ta  Ta109  1  -0.00024508  0.60285763  0.73578251  1
  Ta  Ta110  1  0.71405311  0.69758405  0.12717663  1
  Ta  Ta111  1  0.78704380  0.39042690  0.75319347  1
  Ta  Ta112  1  0.71364789  0.12179502  0.86962106  1
  Ta  Ta113  1  -0.00448399  0.19600554  0.50328641  1
  Ta  Ta114  1  0.60916976  0.79282246  0.23900306  1
  Ta  Ta115  1  0.30792814  0.91249269  0.62899851  1
  Ta  Ta116  1  0.39370559  0.59633149  -0.01499117  1
  Ta  Ta117  1  0.70615584  0.71656945  0.87531466  1
  Ta  Ta118  1  0.10139268  0.49778832  0.12079401  1
  Ta  Ta119  1  0.19923444  0.18240237  0.24869040  1
  Ti  Ti120  1  0.80668697  0.01063336  0.25427174  1
  Ti  Ti121  1  0.90845396  0.69533257  0.37690554  1
  Ti  Ti122  1  0.91750763  0.90795175  0.12364389  1
  Ti  Ti123  1  0.89674123  0.30011160  0.12183796  1
  Ti  Ti124  1  0.19901113  0.19228954  -0.01047768  1
  Ti  Ti125  1  0.09290604  0.08289266  0.12829573  1
  Ti  Ti126  1  0.80816487  0.80331215  0.74299525  1
  Ti  Ti127  1  0.80111379  0.20238361  0.25047893  1
  Ti  Ti128  1  0.69124245  0.51499719  0.62794698  1
  Ti  Ti129  1  0.81359227  0.79828179  0.00575199  1
  Ti  Ti130  1  0.51513159  0.88987340  0.87851960  1
  Ti  Ti131  1  0.30880962  0.89435716  0.37047399  1
  Ti  Ti132  1  0.48270987  0.50715777  0.11233037  1
  Ti  Ti133  1  0.09752853  0.70342373  0.85995810  1
  Ti  Ti134  1  0.30699596  0.48223638  0.37794371  1
  Ti  Ti135  1  0.50351680  0.89709321  0.62306093  1
  Ti  Ti136  1  0.30097351  0.71277119  0.62720107  1
  Ti  Ti137  1  0.69942338  0.10844639  0.13633546  1
  Ti  Ti138  1  0.20927606  0.79717974  0.75343907  1
  Ti  Ti139  1  0.10253527  0.69959768  0.12748912  1
  Ti  Ti140  1  0.10561448  0.89435355  0.12596941  1
  Ti  Ti141  1  0.82109218  0.00098351  0.00729806  1
  Ti  Ti142  1  0.61373332  0.21950739  0.75344474  1
  Ti  Ti143  1  0.89772812  0.11259826  0.37533466  1
  Ti  Ti144  1  0.60121771  0.00651859  0.50233228  1
  Ti  Ti145  1  0.69244426  0.10412194  0.36997325  1
  Ti  Ti146  1  0.88443373  0.29621889  0.62480728  1
  Ti  Ti147  1  0.48641819  0.30701480  0.37516246  1
  Ti  Ti148  1  0.39479461  0.40866516  -0.01057611  1
  Ti  Ti149  1  0.20995193  0.79831744  -0.01440906  1
  Ti  Ti150  1  0.49292008  0.50581028  0.87802706  1
  Ti  Ti151  1  0.20983695  -0.00187523  0.75856401  1
  Ti  Ti152  1  0.29207766  0.09629144  0.12249216  1
  Ti  Ti153  1  0.80019221  0.40813250  0.49345064  1
  Ti  Ti154  1  0.09299589  0.09282027  0.87313037  1
  Ti  Ti155  1  0.69239013  0.30744598  0.13046243  1
  Ti  Ti156  1  0.09932214  0.29197162  0.11572065  1
  Ti  Ti157  1  -0.00657605  0.78885958  0.73450950  1
  Ti  Ti158  1  0.59101748  0.60900697  0.00141554  1
  Ti  Ti159  1  0.89163504  0.51725583  0.12920710  1
  Mo  Mo160  1  0.90667692  0.70531076  0.86508692  1
  Mo  Mo161  1  0.29779875  0.30703652  0.88408471  1
  Mo  Mo162  1  -0.00104459  -0.01225876  0.00336660  1
  Mo  Mo163  1  0.90133161  0.30824521  0.37760659  1
  Mo  Mo164  1  0.39288357  0.20512457  0.23924468  1
  Mo  Mo165  1  0.29862473  0.10171340  0.36706132  1
  Mo  Mo166  1  0.09955602  0.10816876  0.37774857  1
  Mo  Mo167  1  0.29480813  0.89038117  0.86827431  1
  Mo  Mo168  1  0.89851566  0.69893671  0.63070745  1
  Mo  Mo169  1  0.81122508  0.80767676  0.50408703  1
  Mo  Mo170  1  0.60397681  0.61479511  0.75151906  1
  Mo  Mo171  1  0.90585831  0.70486355  0.12851275  1
  Mo  Mo172  1  0.30310167  0.49529486  0.12243466  1
  Mo  Mo173  1  0.80893561  0.60925967  0.25139578  1
  Mo  Mo174  1  0.49395905  0.11683057  0.36647430  1
  Mo  Mo175  1  0.51406832  0.68931385  0.11990591  1
  Mo  Mo176  1  0.28955410  0.09329226  0.87959942  1
  Mo  Mo177  1  0.89487569  0.89074706  0.62029221  1
  Mo  Mo178  1  0.29862574  0.50627931  0.86695036  1
  Mo  Mo179  1  0.79076056  0.20387929  0.73994887  1
  Mo  Mo180  1  0.48216045  0.50256988  0.37370956  1
  Mo  Mo181  1  0.10684213  0.70227378  0.63833911  1
  Mo  Mo182  1  0.69304588  0.30147047  0.88072871  1
  Mo  Mo183  1  0.60684577  0.60727305  0.50563745  1
  Mo  Mo184  1  0.09410964  0.67980662  0.37638074  1
  Mo  Mo185  1  0.09436335  0.49100057  0.63303432  1
  Mo  Mo186  1  0.89577936  0.49584946  0.87846609  1
  Mo  Mo187  1  0.50445308  0.49878650  0.62886808  1
  Mo  Mo188  1  0.89282982  0.89136081  0.38389398  1
  Mo  Mo189  1  0.60501315  0.80803948  0.50956375  1
  Mo  Mo190  1  0.19263499  0.19289058  0.49845282  1
  Mo  Mo191  1  0.30267199  0.08555952  0.63457110  1
  Mo  Mo192  1  0.29751187  0.69231619  0.86163065  1
  Mo  Mo193  1  0.90124557  0.10839250  0.61493074  1
  Mo  Mo194  1  0.59065957  0.40683022  0.00741948  1
  Mo  Mo195  1  0.89292476  0.08898285  0.13884619  1
  Mo  Mo196  1  0.09571934  0.88769251  0.38799392  1
  Mo  Mo197  1  0.39899698  0.19881899  0.50199646  1
  Mo  Mo198  1  0.29193334  0.48325616  0.63074011  1
  Mo  Mo199  1  0.59524437  0.61647401  0.24085045  1
