# generated using pymatgen
data_HfZrTaTiMo
_symmetry_space_group_name_H-M   'P 1'
_cell_length_a   15.21245961
_cell_length_b   15.22981339
_cell_length_c   16.84807675
_cell_angle_alpha   89.99836600
_cell_angle_beta   90.03111781
_cell_angle_gamma   90.01804645
_symmetry_Int_Tables_number   1
_chemical_formula_structural   HfZrTaTiMo
_chemical_formula_sum   'Hf40 Zr40 Ta40 Ti40 Mo40'
_cell_volume   3903.41086489
_cell_formula_units_Z   40
loop_
 _symmetry_equiv_pos_site_id
 _symmetry_equiv_pos_as_xyz
  1  'x, y, z'
loop_
 _atom_site_type_symbol
 _atom_site_label
 _atom_site_symmetry_multiplicity
 _atom_site_fract_x
 _atom_site_fract_y
 _atom_site_fract_z
 _atom_site_occupancy
  Hf  Hf0  1  0.78767629  -0.00349123  0.50559437  1
  Hf  Hf1  1  0.59501566  0.40232918  -0.02333320  1
  Hf  Hf2  1  0.70047823  0.69431676  0.86200641  1
  Hf  Hf3  1  0.30021416  0.49207912  0.36787661  1
  Hf  Hf4  1  0.09581181  0.10247471  0.61619297  1
  Hf  Hf5  1  0.60038481  0.80583118  0.74395933  1
  Hf  Hf6  1  0.09099353  0.10169524  0.38072407  1
  Hf  Hf7  1  0.40705237  0.80817156  -0.00340987  1
  Hf  Hf8  1  0.38660139  0.01017192  0.25495289  1
  Hf  Hf9  1  0.82365666  0.38413027  0.51019335  1
  Hf  Hf10  1  0.10254024  0.68862855  0.11810851  1
  Hf  Hf11  1  0.21036834  0.58470574  -0.01007757  1
  Hf  Hf12  1  0.10443011  0.69932820  0.37773688  1
  Hf  Hf13  1  0.09722766  0.28304642  0.12234297  1
  Hf  Hf14  1  0.70304517  0.69486625  0.63012478  1
  Hf  Hf15  1  0.60391415  0.80987974  0.50705112  1
  Hf  Hf16  1  0.18357592  -0.01352258  0.25315729  1
  Hf  Hf17  1  0.89437874  0.29491625  0.10481731  1
  Hf  Hf18  1  0.50077215  0.09834129  0.86602490  1
  Hf  Hf19  1  0.39412839  0.60429076  0.49613283  1
  Hf  Hf20  1  0.49593427  0.90035492  0.38497879  1
  Hf  Hf21  1  0.21311569  0.80183284  -0.00578198  1
  Hf  Hf22  1  0.67815491  0.09936862  0.38266515  1
  Hf  Hf23  1  0.31341972  0.50781460  0.12637154  1
  Hf  Hf24  1  0.69871608  0.29065244  0.62202554  1
  Hf  Hf25  1  0.80799952  0.81277490  0.25143271  1
  Hf  Hf26  1  0.81235171  0.60120637  0.25255681  1
  Hf  Hf27  1  0.19503640  0.59117166  0.49584480  1
  Hf  Hf28  1  0.91375035  0.49649132  0.37582934  1
  Hf  Hf29  1  0.39405129  0.80770201  0.73530446  1
  Hf  Hf30  1  0.60059403  0.60408625  0.49958512  1
  Hf  Hf31  1  0.09379315  0.29991425  0.36390611  1
  Hf  Hf32  1  -0.00846731  -0.01913974  0.74311947  1
  Hf  Hf33  1  0.49077932  0.11093668  0.12216377  1
  Hf  Hf34  1  0.79878827  0.40142128  0.24598165  1
  Hf  Hf35  1  0.50173958  0.29511189  0.39225993  1
  Hf  Hf36  1  0.70662911  0.49043619  0.39391615  1
  Hf  Hf37  1  0.79827337  0.42199937  -0.01573453  1
  Hf  Hf38  1  0.49702779  0.10340588  0.61654350  1
  Hf  Hf39  1  0.70973886  0.29073455  0.39254809  1
  Zr  Zr40  1  0.60422807  0.79947643  -0.00213501  1
  Zr  Zr41  1  0.70608433  0.70409394  0.37980758  1
  Zr  Zr42  1  0.01132829  0.60742881  0.75784770  1
  Zr  Zr43  1  0.28509726  0.67609428  0.64149955  1
  Zr  Zr44  1  0.12317623  0.50244531  0.64417814  1
  Zr  Zr45  1  0.40526058  0.19950244  -0.00780375  1
  Zr  Zr46  1  0.09338015  0.91175552  0.88559791  1
  Zr  Zr47  1  0.70485021  0.70218470  0.12708033  1
  Zr  Zr48  1  0.18326205  0.80760896  0.74196918  1
  Zr  Zr49  1  0.89213785  0.29647196  0.87858288  1
  Zr  Zr50  1  0.70318418  0.10406916  0.12045937  1
  Zr  Zr51  1  0.49518255  0.30136613  0.63310620  1
  Zr  Zr52  1  0.50485078  0.69522500  0.12713365  1
  Zr  Zr53  1  0.70502163  0.90917469  0.87040205  1
  Zr  Zr54  1  0.58897235  0.00246451  0.00596265  1
  Zr  Zr55  1  0.09874252  0.29901695  0.87134259  1
  Zr  Zr56  1  0.41525571  0.60092698  0.26307111  1
  Zr  Zr57  1  0.59802520  0.39488677  0.24946043  1
  Zr  Zr58  1  0.29215730  0.90694397  0.38786913  1
  Zr  Zr59  1  0.00223723  0.18492661  0.75862470  1
  Zr  Zr60  1  0.20022719  0.39950303  0.23372820  1
  Zr  Zr61  1  0.88726320  0.10707378  0.38117262  1
  Zr  Zr62  1  0.31088181  0.28849612  0.12348502  1
  Zr  Zr63  1  0.59416603  -0.00351942  0.24444641  1
  Zr  Zr64  1  0.90409774  0.91041467  0.11510768  1
  Zr  Zr65  1  0.32057499  0.69380394  0.86149228  1
  Zr  Zr66  1  0.01365023  0.80295900  0.24315333  1
  Zr  Zr67  1  -0.00248248  0.59268802  -0.01274892  1
  Zr  Zr68  1  0.29311022  0.29305342  0.87304246  1
  Zr  Zr69  1  0.49296587  0.90123678  0.86426115  1
  Zr  Zr70  1  0.02079307  0.40928931  0.50875683  1
  Zr  Zr71  1  0.10553513  0.70239195  0.87585322  1
  Zr  Zr72  1  0.80834306  0.20043677  0.24834233  1
  Zr  Zr73  1  0.30488542  0.72170916  0.14241959  1
  Zr  Zr74  1  0.50304698  0.50135515  0.62784351  1
  Zr  Zr75  1  0.60912244  0.59307282  0.26105383  1
  Zr  Zr76  1  0.08463824  0.08812553  0.11815223  1
  Zr  Zr77  1  0.81917638  0.80326353  0.50974893  1
  Zr  Zr78  1  0.69102252  0.29964622  0.10646791  1
  Zr  Zr79  1  0.88496989  0.10819454  0.62424600  1
  Ta  Ta80  1  0.20170253  0.39560145  0.00722338  1
  Ta  Ta81  1  0.20009363  0.79737101  0.50889788  1
  Ta  Ta82  1  0.19733404  0.01348078  0.74568299  1
  Ta  Ta83  1  0.50417537  0.49071140  0.39101478  1
  Ta  Ta84  1  0.08569258  0.89619554  0.38731979  1
  Ta  Ta85  1  0.29328661  0.10996666  0.61647762  1
  Ta  Ta86  1  0.60833400  0.40509463  0.76137814  1
  Ta  Ta87  1  0.38706262  0.41804112  0.75524327  1
  Ta  Ta88  1  -0.01500320  -0.00924067  0.50218097  1
  Ta  Ta89  1  0.07488711  0.70573022  0.61126870  1
  Ta  Ta90  1  0.29200295  0.91280023  0.61596926  1
  Ta  Ta91  1  0.28670842  0.08716199  0.11286798  1
  Ta  Ta92  1  -0.01323642  0.21655992  0.50408329  1
  Ta  Ta93  1  0.40243023  0.40943024  -0.00810471  1
  Ta  Ta94  1  0.91140253  0.50065914  0.63766310  1
  Ta  Ta95  1  0.10228665  0.49865257  0.36495478  1
  Ta  Ta96  1  0.48403895  0.09894056  0.39989753  1
  Ta  Ta97  1  0.91403922  0.70358360  0.37913783  1
  Ta  Ta98  1  0.81863073  0.80600211  0.73949764  1
  Ta  Ta99  1  0.78802018  0.00603369  0.74889130  1
  Ta  Ta100  1  0.61505597  0.59485891  -0.01104262  1
  Ta  Ta101  1  0.49754408  0.70124799  0.63038456  1
  Ta  Ta102  1  0.20512692  0.18472727  0.25210105  1
  Ta  Ta103  1  0.30687878  0.71496200  0.36646536  1
  Ta  Ta104  1  0.70598851  0.90679438  0.37033567  1
  Ta  Ta105  1  0.38835707  0.00863504  0.73907856  1
  Ta  Ta106  1  0.70656185  0.49029389  0.62313050  1
  Ta  Ta107  1  0.89501422  0.70613658  0.87353049  1
  Ta  Ta108  1  0.19798711  0.60530288  0.25122059  1
  Ta  Ta109  1  0.11668169  0.89660095  0.11124919  1
  Ta  Ta110  1  0.89675899  0.08368912  0.88019949  1
  Ta  Ta111  1  0.10301928  0.29850490  0.64219332  1
  Ta  Ta112  1  0.82008262  0.59534723  0.51179948  1
  Ta  Ta113  1  0.01120428  0.40583694  0.00074388  1
  Ta  Ta114  1  -0.00696136  0.39257921  0.23806157  1
  Ta  Ta115  1  0.80193349  0.59437995  0.74419326  1
  Ta  Ta116  1  0.49589907  0.30514837  0.85862976  1
  Ta  Ta117  1  0.90629395  0.50313443  0.11974679  1
  Ta  Ta118  1  0.39619470  0.79801853  0.51479895  1
  Ta  Ta119  1  0.90000431  0.69616441  0.11743232  1
  Ti  Ti120  1  -0.00575815  0.18863270  -0.01056964  1
  Ti  Ti121  1  0.58886929  0.20164387  0.25388871  1
  Ti  Ti122  1  0.69651942  0.91160329  0.63343256  1
  Ti  Ti123  1  0.00658474  0.59180445  0.24145775  1
  Ti  Ti124  1  -0.02362192  0.00454052  0.25795888  1
  Ti  Ti125  1  0.79870623  0.39713630  0.75553052  1
  Ti  Ti126  1  0.39832678  0.20227711  0.25802425  1
  Ti  Ti127  1  0.70680355  0.50747677  0.11732120  1
  Ti  Ti128  1  0.50185275  0.30535162  0.11830596  1
  Ti  Ti129  1  0.90649848  0.30161289  0.64642665  1
  Ti  Ti130  1  0.89549771  0.10175789  0.11584005  1
  Ti  Ti131  1  0.41097634  0.39533609  0.25159522  1
  Ti  Ti132  1  0.11035408  0.09983668  0.88782356  1
  Ti  Ti133  1  -0.00217922  0.79974046  0.00257819  1
  Ti  Ti134  1  0.19189272  0.00386355  0.50098193  1
  Ti  Ti135  1  0.21000520  0.39571694  0.50152190  1
  Ti  Ti136  1  0.28930011  0.30775011  0.63743144  1
  Ti  Ti137  1  0.38370191  0.21082368  0.50611240  1
  Ti  Ti138  1  0.80096630  0.79473083  0.00071225  1
  Ti  Ti139  1  0.29690310  0.91254618  0.86906022  1
  Ti  Ti140  1  0.48114434  0.89897631  0.13377887  1
  Ti  Ti141  1  0.49815238  0.91263233  0.61996002  1
  Ti  Ti142  1  0.39471327  0.40196092  0.50715021  1
  Ti  Ti143  1  0.29865454  0.29673620  0.37175249  1
  Ti  Ti144  1  0.68530736  0.10031178  0.61825321  1
  Ti  Ti145  1  0.09051019  0.89923103  0.61262992  1
  Ti  Ti146  1  0.41845520  0.60272524  -0.00634929  1
  Ti  Ti147  1  0.79861543  0.00225435  -0.00465780  1
  Ti  Ti148  1  0.18976633  0.21471734  0.50087029  1
  Ti  Ti149  1  0.90628907  0.50036070  0.86102259  1
  Ti  Ti150  1  0.60754517  0.19413421  0.75724437  1
  Ti  Ti151  1  0.50347424  0.52111838  0.86167344  1
  Ti  Ti152  1  0.79084464  0.19660562  0.76401892  1
  Ti  Ti153  1  0.58874124  0.79707537  0.25988866  1
  Ti  Ti154  1  0.89859348  0.89252975  0.88008199  1
  Ti  Ti155  1  0.29521563  0.09337214  0.88263357  1
  Ti  Ti156  1  0.38681486  0.19868406  0.74921825  1
  Ti  Ti157  1  0.51205621  0.49719804  0.11706086  1
  Ti  Ti158  1  0.29323908  0.10879788  0.39004247  1
  Ti  Ti159  1  0.70127164  0.90313759  0.12895739  1
  Mo  Mo160  1  0.40890737  0.81371586  0.25856372  1
  Mo  Mo161  1  0.69290479  0.29523431  0.87178032  1
  Mo  Mo162  1  0.30270021  0.90769666  0.12936127  1
  Mo  Mo163  1  0.31344992  0.49100355  0.88590761  1
  Mo  Mo164  1  0.49418723  0.70688944  0.38358602  1
  Mo  Mo165  1  0.00138247  0.80133714  0.49528678  1
  Mo  Mo166  1  0.90140170  0.69287213  0.62936151  1
  Mo  Mo167  1  -0.00114578  0.59948646  0.50024746  1
  Mo  Mo168  1  0.22386604  0.56847921  0.77680005  1
  Mo  Mo169  1  0.20666720  -0.00056848  -0.00271010  1
  Mo  Mo170  1  0.79495174  -0.00070627  0.25038784  1
  Mo  Mo171  1  -0.00575676  0.39958670  0.74853837  1
  Mo  Mo172  1  0.50885588  0.69826833  0.86878259  1
  Mo  Mo173  1  0.20157466  0.39211111  0.75528844  1
  Mo  Mo174  1  0.30691042  0.48647326  0.62299482  1
  Mo  Mo175  1  0.60109565  0.20647638  -0.02097048  1
  Mo  Mo176  1  0.10921403  0.48581193  0.86741964  1
  Mo  Mo177  1  0.41244390  0.60037809  0.74907032  1
  Mo  Mo178  1  0.80240379  0.60840068  -0.00470511  1
  Mo  Mo179  1  0.91130147  0.30165154  0.37271618  1
  Mo  Mo180  1  0.09971912  0.49330863  0.12598961  1
  Mo  Mo181  1  0.59322858  0.20099387  0.50348150  1
  Mo  Mo182  1  0.89917547  0.90294656  0.37127471  1
  Mo  Mo183  1  0.60255551  0.40057554  0.50622792  1
  Mo  Mo184  1  0.38802753  0.00386839  0.50925870  1
  Mo  Mo185  1  0.60523788  0.59610789  0.74275249  1
  Mo  Mo186  1  0.00210413  0.19533567  0.24717621  1
  Mo  Mo187  1  0.39127990  -0.00696227  0.00049432  1
  Mo  Mo188  1  0.79694210  0.19227786  -0.01330280  1
  Mo  Mo189  1  -0.00669932  -0.00325668  -0.00502176  1
  Mo  Mo190  1  0.80171314  0.19683951  0.50804472  1
  Mo  Mo191  1  0.59809577  0.00757471  0.74059449  1
  Mo  Mo192  1  0.90155074  0.89835890  0.62818613  1
  Mo  Mo193  1  0.20683079  0.18672803  0.74603973  1
  Mo  Mo194  1  0.70791513  0.50159312  0.86070283  1
  Mo  Mo195  1  -0.00517536  0.79981465  0.75082177  1
  Mo  Mo196  1  0.70352840  0.10402493  0.87743495  1
  Mo  Mo197  1  0.20044143  0.80093777  0.25252677  1
  Mo  Mo198  1  0.19450810  0.19610361  0.00027662  1
  Mo  Mo199  1  0.59447274  -0.00337204  0.50309841  1
