# generated using pymatgen
data_HfZrTaTiMo
_symmetry_space_group_name_H-M   'P 1'
_cell_length_a   15.21583924
_cell_length_b   15.21281486
_cell_length_c   16.83053788
_cell_angle_alpha   89.99018918
_cell_angle_beta   89.96590639
_cell_angle_gamma   89.94897858
_symmetry_Int_Tables_number   1
_chemical_formula_structural   HfZrTaTiMo
_chemical_formula_sum   'Hf40 Zr40 Ta40 Ti40 Mo40'
_cell_volume   3895.85900794
_cell_formula_units_Z   40
loop_
 _symmetry_equiv_pos_site_id
 _symmetry_equiv_pos_as_xyz
  1  'x, y, z'
loop_
 _atom_site_type_symbol
 _atom_site_label
 _atom_site_symmetry_multiplicity
 _atom_site_fract_x
 _atom_site_fract_y
 _atom_site_fract_z
 _atom_site_occupancy
  Hf  Hf0  1  0.09252354  0.50008623  0.63119127  1
  Hf  Hf1  1  -0.00139544  0.40882245  0.49086754  1
  Hf  Hf2  1  0.18414159  0.19410371  0.24520200  1
  Hf  Hf3  1  0.89018396  0.52123239  0.87702234  1
  Hf  Hf4  1  -0.01601626  0.21123539  0.24420606  1
  Hf  Hf5  1  0.50883576  0.10950979  0.36217550  1
  Hf  Hf6  1  0.88733473  0.29205650  0.38865303  1
  Hf  Hf7  1  0.08981878  0.30622009  0.11297999  1
  Hf  Hf8  1  0.50281171  0.87410702  0.36713344  1
  Hf  Hf9  1  0.50880501  0.68922699  0.62312648  1
  Hf  Hf10  1  0.29964970  0.30474120  0.62158215  1
  Hf  Hf11  1  0.90076633  0.72322122  0.38502086  1
  Hf  Hf12  1  0.59538355  0.79605264  0.00393770  1
  Hf  Hf13  1  0.68082930  0.28871992  0.36097965  1
  Hf  Hf14  1  0.38271119  -0.00513040  0.25751476  1
  Hf  Hf15  1  0.38856926  0.20086301  0.23986193  1
  Hf  Hf16  1  0.30351623  0.69762948  0.13768146  1
  Hf  Hf17  1  0.30108766  0.49942948  0.62524584  1
  Hf  Hf18  1  0.00507480  0.60396618  0.48795429  1
  Hf  Hf19  1  0.20361992  0.80006975  0.76509866  1
  Hf  Hf20  1  0.41014540  -0.00507049  0.01442726  1
  Hf  Hf21  1  0.20236434  0.40369639  0.77156805  1
  Hf  Hf22  1  0.59067807  0.58164681  0.48478898  1
  Hf  Hf23  1  0.58731653  0.19040852  0.74714557  1
  Hf  Hf24  1  0.70005314  0.27914462  0.12860549  1
  Hf  Hf25  1  0.90324409  0.91426177  0.11039726  1
  Hf  Hf26  1  0.79263278  0.80879140  0.24731141  1
  Hf  Hf27  1  0.19140344  0.40373188  0.25282314  1
  Hf  Hf28  1  0.78050364  0.39413188  0.50286257  1
  Hf  Hf29  1  0.90668562  0.31051485  0.62946482  1
  Hf  Hf30  1  0.80703809  0.60143791  0.25905721  1
  Hf  Hf31  1  0.79678067  0.60030068  0.48572118  1
  Hf  Hf32  1  0.18878683  -0.00016157  -0.01247627  1
  Hf  Hf33  1  0.00830580  0.02114537  0.24067096  1
  Hf  Hf34  1  0.10586201  0.71085072  0.12011571  1
  Hf  Hf35  1  0.09594489  0.70664677  0.62083075  1
  Hf  Hf36  1  0.89225087  0.11514335  0.86688371  1
  Hf  Hf37  1  0.60519680  0.59363994  0.75271234  1
  Hf  Hf38  1  0.19234530  0.59833070  0.76638867  1
  Hf  Hf39  1  0.30572626  0.89945064  0.62073718  1
  Zr  Zr40  1  0.91096076  0.91851150  0.38503445  1
  Zr  Zr41  1  0.39816759  0.59722810  0.48803184  1
  Zr  Zr42  1  -0.00359361  0.41223767  0.26465998  1
  Zr  Zr43  1  0.32322273  0.69331608  0.87813798  1
  Zr  Zr44  1  0.79826059  0.39961550  0.00228724  1
  Zr  Zr45  1  0.20654818  0.59210133  -0.01036166  1
  Zr  Zr46  1  0.59723113  -0.02952955  0.74417243  1
  Zr  Zr47  1  0.70004464  0.08035203  0.86126985  1
  Zr  Zr48  1  0.50054303  0.88953033  0.14533445  1
  Zr  Zr49  1  0.09202348  0.10742551  0.38615564  1
  Zr  Zr50  1  0.69431767  0.48482121  0.36239540  1
  Zr  Zr51  1  0.00956449  0.60293866  0.26484949  1
  Zr  Zr52  1  0.80683961  0.78562510  0.76080141  1
  Zr  Zr53  1  0.58684688  0.39805077  0.01166545  1
  Zr  Zr54  1  0.40616327  0.00920737  0.74564372  1
  Zr  Zr55  1  0.60857480  0.17866253  -0.00020211  1
  Zr  Zr56  1  0.39692524  0.20795803  0.49241493  1
  Zr  Zr57  1  0.29911426  0.70192865  0.62443585  1
  Zr  Zr58  1  0.71954151  0.09643326  0.38900936  1
  Zr  Zr59  1  0.79491942  0.41164236  0.74955310  1
  Zr  Zr60  1  0.67633691  0.48925151  0.62170739  1
  Zr  Zr61  1  0.00410960  0.81344744  0.24728147  1
  Zr  Zr62  1  0.40295777  -0.00033503  0.48277324  1
  Zr  Zr63  1  0.90586896  0.91733236  0.87743305  1
  Zr  Zr64  1  0.19970585  -0.00516637  0.75898509  1
  Zr  Zr65  1  0.10173646  0.10739546  0.63436344  1
  Zr  Zr66  1  0.20803158  0.20614074  0.76141004  1
  Zr  Zr67  1  0.42343735  0.80278349  0.75147749  1
  Zr  Zr68  1  0.90353092  0.69650874  0.11841216  1
  Zr  Zr69  1  0.90395724  0.10756445  0.63021727  1
  Zr  Zr70  1  0.80175928  0.79909045  -0.00844227  1
  Zr  Zr71  1  0.42001385  0.59900174  0.01816403  1
  Zr  Zr72  1  0.20534080  -0.00177647  0.49910859  1
  Zr  Zr73  1  0.30632952  0.11010481  0.88422543  1
  Zr  Zr74  1  0.80574031  0.39260340  0.24028067  1
  Zr  Zr75  1  0.49390723  0.50378089  0.88242712  1
  Zr  Zr76  1  0.40245891  0.20162996  0.01703572  1
  Zr  Zr77  1  0.62532269  -0.00912963  0.26542979  1
  Zr  Zr78  1  0.59816731  0.20488792  0.50599704  1
  Zr  Zr79  1  0.70574708  0.87878470  0.61663174  1
  Ta  Ta80  1  0.71173185  0.67866786  0.88430595  1
  Ta  Ta81  1  0.69606194  0.29036035  0.63073487  1
  Ta  Ta82  1  0.29104564  0.89232075  0.13001709  1
  Ta  Ta83  1  0.91439309  0.89309079  0.62303663  1
  Ta  Ta84  1  0.51108830  0.69107546  0.14898537  1
  Ta  Ta85  1  0.30904237  0.70869988  0.35687966  1
  Ta  Ta86  1  0.69878822  0.09271394  0.62432299  1
  Ta  Ta87  1  0.31964682  0.90081909  0.88257599  1
  Ta  Ta88  1  0.20220788  0.40583928  0.49202947  1
  Ta  Ta89  1  0.60323953  -0.01047234  0.49571206  1
  Ta  Ta90  1  0.38602645  0.40356076  0.22882846  1
  Ta  Ta91  1  0.88725249  0.11386843  0.10687689  1
  Ta  Ta92  1  0.58919341  0.38720445  0.76003898  1
  Ta  Ta93  1  -0.00568321  0.20387998  -0.01000471  1
  Ta  Ta94  1  0.51890999  0.09416166  0.14147352  1
  Ta  Ta95  1  0.69320930  0.49353897  0.88256501  1
  Ta  Ta96  1  0.28235589  0.30057738  0.11592138  1
  Ta  Ta97  1  0.49199850  0.49151163  0.34794398  1
  Ta  Ta98  1  0.38527296  0.40683182  0.01786367  1
  Ta  Ta99  1  0.27582559  0.09032691  0.12301451  1
  Ta  Ta100  1  0.11012927  0.91791708  0.12320296  1
  Ta  Ta101  1  0.69982940  0.29223641  0.87308243  1
  Ta  Ta102  1  0.50441857  0.88751115  0.60455741  1
  Ta  Ta103  1  0.20724305  0.80299623  -0.00901086  1
  Ta  Ta104  1  0.69121696  0.50941944  0.13039605  1
  Ta  Ta105  1  0.10245825  0.89557432  0.62396105  1
  Ta  Ta106  1  0.07956481  0.09376640  0.86434265  1
  Ta  Ta107  1  0.39940926  0.39405972  0.75923431  1
  Ta  Ta108  1  0.29688897  0.30460878  0.37264282  1
  Ta  Ta109  1  0.80512817  -0.00293986  0.51473762  1
  Ta  Ta110  1  0.30665486  0.10766009  0.62356980  1
  Ta  Ta111  1  0.11808796  0.71969546  0.38099935  1
  Ta  Ta112  1  0.08669209  0.70416105  0.88212818  1
  Ta  Ta113  1  0.71107813  0.68600785  0.62301452  1
  Ta  Ta114  1  -0.01506176  0.61514008  0.75384411  1
  Ta  Ta115  1  0.10054721  0.50565408  0.11718997  1
  Ta  Ta116  1  0.69907462  0.90879050  0.12063183  1
  Ta  Ta117  1  0.09739850  0.30652616  0.63155961  1
  Ta  Ta118  1  0.19648564  0.39839222  -0.01924757  1
  Ta  Ta119  1  0.50102609  0.08445941  0.88013763  1
  Ti  Ti120  1  0.49893071  0.09233607  0.61569316  1
  Ti  Ti121  1  0.89851118  0.30356057  0.11142742  1
  Ti  Ti122  1  0.49253901  0.30951288  0.35487791  1
  Ti  Ti123  1  0.30050388  0.49951794  0.36805111  1
  Ti  Ti124  1  0.40244691  0.20893370  0.75244533  1
  Ti  Ti125  1  0.19480177  0.20917321  0.50239044  1
  Ti  Ti126  1  0.00584651  0.81214710  0.75992398  1
  Ti  Ti127  1  0.50001834  0.29886993  0.13619268  1
  Ti  Ti128  1  0.89088493  0.51880909  0.63091544  1
  Ti  Ti129  1  0.00752336  0.00356656  0.50992790  1
  Ti  Ti130  1  0.90132621  0.70929604  0.61288038  1
  Ti  Ti131  1  0.49222758  0.29126080  0.88439839  1
  Ti  Ti132  1  0.90472300  0.50175238  0.11625227  1
  Ti  Ti133  1  0.80597775  -0.01100585  0.74011752  1
  Ti  Ti134  1  0.89857182  0.31066998  0.86453655  1
  Ti  Ti135  1  0.20401008  0.60344338  0.48864110  1
  Ti  Ti136  1  0.11359764  0.90452789  0.37430245  1
  Ti  Ti137  1  0.60610441  0.77742754  0.48919985  1
  Ti  Ti138  1  0.79440303  0.20391258  0.74405014  1
  Ti  Ti139  1  0.79537715  0.18341002  0.24946658  1
  Ti  Ti140  1  0.50032980  0.31515451  0.62419825  1
  Ti  Ti141  1  -0.00173522  0.60431174  -0.00456722  1
  Ti  Ti142  1  0.08594844  0.29784815  0.86774055  1
  Ti  Ti143  1  0.52082953  0.70688894  0.87354074  1
  Ti  Ti144  1  0.28729034  0.10386946  0.37062726  1
  Ti  Ti145  1  0.40026063  0.58896975  0.75034155  1
  Ti  Ti146  1  0.18896495  0.20259567  -0.00943712  1
  Ti  Ti147  1  0.20039354  0.59815223  0.25411479  1
  Ti  Ti148  1  0.81525291  0.00343156  0.24591749  1
  Ti  Ti149  1  0.40267222  0.79778999  0.00756976  1
  Ti  Ti150  1  0.71542495  0.88366359  0.39328286  1
  Ti  Ti151  1  0.39631456  0.79380019  0.48966343  1
  Ti  Ti152  1  0.09930586  0.30021261  0.38234038  1
  Ti  Ti153  1  0.70050389  0.69998896  0.12384381  1
  Ti  Ti154  1  0.01353994  0.81919720  -0.00658299  1
  Ti  Ti155  1  0.00470943  0.40985090  -0.01387759  1
  Ti  Ti156  1  0.78348913  0.00926921  -0.00478557  1
  Ti  Ti157  1  0.60379615  0.60320540  0.26103851  1
  Ti  Ti158  1  0.90498719  0.10845413  0.39674270  1
  Ti  Ti159  1  0.40914296  0.40550726  0.49152453  1
  Mo  Mo160  1  0.30611298  0.49587856  0.87677303  1
  Mo  Mo161  1  0.19861384  0.80778147  0.24789771  1
  Mo  Mo162  1  0.57751728  0.39055202  0.49342134  1
  Mo  Mo163  1  0.61532233  0.78967076  0.25163941  1
  Mo  Mo164  1  0.50052436  0.50176142  0.14353886  1
  Mo  Mo165  1  -0.00181931  -0.00387387  0.74317604  1
  Mo  Mo166  1  -0.00218959  0.21332399  0.75812901  1
  Mo  Mo167  1  0.50453227  0.89557571  0.88432215  1
  Mo  Mo168  1  0.00347625  0.41149170  0.75873663  1
  Mo  Mo169  1  0.00763695  0.21119301  0.50591418  1
  Mo  Mo170  1  0.90830155  0.70580076  0.88420245  1
  Mo  Mo171  1  0.80359795  0.79785764  0.50563152  1
  Mo  Mo172  1  -0.00307170  0.01207739  0.00405274  1
  Mo  Mo173  1  0.80117268  0.20560369  -0.01014551  1
  Mo  Mo174  1  0.79895305  0.60427116  0.74485067  1
  Mo  Mo175  1  0.59886563  0.19481913  0.24542364  1
  Mo  Mo176  1  0.59161563  0.39718002  0.23158735  1
  Mo  Mo177  1  0.28738381  0.88716614  0.36983740  1
  Mo  Mo178  1  0.79988611  0.19866005  0.51618475  1
  Mo  Mo179  1  0.40006273  0.79563152  0.24855408  1
  Mo  Mo180  1  0.70883839  0.08653843  0.12625736  1
  Mo  Mo181  1  0.60952264  0.78529826  0.75298392  1
  Mo  Mo182  1  0.28344433  0.49670855  0.12684461  1
  Mo  Mo183  1  0.01381420  0.81213941  0.50094812  1
  Mo  Mo184  1  0.79537039  0.59732260  0.01167130  1
  Mo  Mo185  1  0.89996885  0.50224300  0.37896261  1
  Mo  Mo186  1  0.69417971  0.70532173  0.37303331  1
  Mo  Mo187  1  0.30707979  0.30425391  0.89238279  1
  Mo  Mo188  1  0.50104508  0.68966159  0.35808758  1
  Mo  Mo189  1  0.48611448  0.48719371  0.63136240  1
  Mo  Mo190  1  0.10347388  0.89913397  0.87852288  1
  Mo  Mo191  1  0.19538476  0.00215447  0.24922650  1
  Mo  Mo192  1  0.11586203  0.50816447  0.38237973  1
  Mo  Mo193  1  0.68627013  0.88265524  0.87243622  1
  Mo  Mo194  1  0.08553340  0.50121757  0.87488148  1
  Mo  Mo195  1  0.09090662  0.10955887  0.11027764  1
  Mo  Mo196  1  0.59978510  -0.01126696  0.00184651  1
  Mo  Mo197  1  0.61265777  0.60030062  0.00868120  1
  Mo  Mo198  1  0.20807068  0.79660321  0.49670395  1
  Mo  Mo199  1  0.39436823  0.59271601  0.24808186  1
