# generated using pymatgen
data_HfZrTaTiMo
_symmetry_space_group_name_H-M   'P 1'
_cell_length_a   15.21856711
_cell_length_b   15.21609709
_cell_length_c   16.83070735
_cell_angle_alpha   89.92581683
_cell_angle_beta   90.01425135
_cell_angle_gamma   90.06910602
_symmetry_Int_Tables_number   1
_chemical_formula_structural   HfZrTaTiMo
_chemical_formula_sum   'Hf40 Zr40 Ta40 Ti40 Mo40'
_cell_volume   3897.43346207
_cell_formula_units_Z   40
loop_
 _symmetry_equiv_pos_site_id
 _symmetry_equiv_pos_as_xyz
  1  'x, y, z'
loop_
 _atom_site_type_symbol
 _atom_site_label
 _atom_site_symmetry_multiplicity
 _atom_site_fract_x
 _atom_site_fract_y
 _atom_site_fract_z
 _atom_site_occupancy
  Hf  Hf0  1  0.70985138  0.48944342  0.61207857  1
  Hf  Hf1  1  0.19329883  0.40654480  0.75309169  1
  Hf  Hf2  1  0.40362944  0.59230321  -0.00000418  1
  Hf  Hf3  1  0.91308626  0.48086008  0.12984511  1
  Hf  Hf4  1  0.29897302  0.49593080  0.12951326  1
  Hf  Hf5  1  0.39703403  0.60361821  0.74819451  1
  Hf  Hf6  1  0.60575152  0.60106924  0.01502940  1
  Hf  Hf7  1  0.42086301  0.81374477  0.48949961  1
  Hf  Hf8  1  0.80538655  0.00265895  0.72875498  1
  Hf  Hf9  1  0.10556669  0.89959318  0.62341032  1
  Hf  Hf10  1  0.71207198  0.68700786  0.60509608  1
  Hf  Hf11  1  0.88805153  0.32034318  0.62309489  1
  Hf  Hf12  1  0.59364514  0.38040086  0.73289882  1
  Hf  Hf13  1  0.31215868  0.91076947  0.60955436  1
  Hf  Hf14  1  0.19674546  0.60585838  0.49413417  1
  Hf  Hf15  1  0.09826363  0.90916048  0.38525049  1
  Hf  Hf16  1  0.69371454  0.88885466  0.61508910  1
  Hf  Hf17  1  0.60571874  -0.00673121  0.27101771  1
  Hf  Hf18  1  0.60150688  0.58938353  0.74550273  1
  Hf  Hf19  1  0.60705677  0.60311087  0.24973184  1
  Hf  Hf20  1  0.81421758  0.81100762  0.48703632  1
  Hf  Hf21  1  0.79574203  -0.01260887  0.00418173  1
  Hf  Hf22  1  0.40359363  0.40206541  0.73123875  1
  Hf  Hf23  1  0.19956303  0.40129937  -0.00323127  1
  Hf  Hf24  1  0.90906056  0.89813219  0.85854028  1
  Hf  Hf25  1  0.59412661  -0.00147925  0.73925693  1
  Hf  Hf26  1  0.29948625  0.70232313  0.88289197  1
  Hf  Hf27  1  0.40406704  0.19836371  0.00954111  1
  Hf  Hf28  1  0.11446401  0.69444147  0.64481918  1
  Hf  Hf29  1  -0.01644891  0.21665734  0.25720193  1
  Hf  Hf30  1  0.42112888  0.59462252  0.50290300  1
  Hf  Hf31  1  0.49952740  0.48623274  0.87911424  1
  Hf  Hf32  1  0.19080057  0.20917969  0.48589831  1
  Hf  Hf33  1  0.68237664  0.29009163  0.87859000  1
  Hf  Hf34  1  0.10010497  0.10068261  0.86602622  1
  Hf  Hf35  1  0.70617052  0.49243732  0.13228972  1
  Hf  Hf36  1  0.80406133  0.80878875  0.27609003  1
  Hf  Hf37  1  0.28013287  0.30045501  0.62536909  1
  Hf  Hf38  1  0.39617874  -0.00500002  -0.00760957  1
  Hf  Hf39  1  0.39985414  0.60930556  0.25077915  1
  Zr  Zr40  1  0.01261733  0.79411844  0.50172532  1
  Zr  Zr41  1  0.30129500  0.29486153  0.86461185  1
  Zr  Zr42  1  0.10710072  0.90912998  0.12821993  1
  Zr  Zr43  1  0.49839856  0.71384504  0.12629762  1
  Zr  Zr44  1  0.58302342  0.39966477  0.50480051  1
  Zr  Zr45  1  0.61136872  0.81160539  0.00070559  1
  Zr  Zr46  1  0.29839283  0.09661737  0.13557606  1
  Zr  Zr47  1  0.19599777  0.00543488  0.25563118  1
  Zr  Zr48  1  0.30542649  0.49418312  0.37755778  1
  Zr  Zr49  1  0.11411547  0.70647092  0.36513614  1
  Zr  Zr50  1  -0.01427711  0.21855388  0.49880578  1
  Zr  Zr51  1  0.91482492  0.68277911  0.37525248  1
  Zr  Zr52  1  0.89370085  0.09704360  0.86909157  1
  Zr  Zr53  1  0.00681491  0.60428711  -0.00097756  1
  Zr  Zr54  1  0.19848942  0.19431807  0.00619600  1
  Zr  Zr55  1  -0.00837134  0.40344735  0.76475240  1
  Zr  Zr56  1  0.79818927  0.38690271  0.00218904  1
  Zr  Zr57  1  0.00441199  0.00437148  0.00951186  1
  Zr  Zr58  1  -0.00772429  0.19784811  0.73673224  1
  Zr  Zr59  1  0.91373849  0.69042128  0.62462663  1
  Zr  Zr60  1  0.30580580  0.71209490  0.61957170  1
  Zr  Zr61  1  0.00002443  0.80590857  -0.00146101  1
  Zr  Zr62  1  0.59596821  0.19268360  0.24929615  1
  Zr  Zr63  1  0.18105754  0.40044944  0.25833961  1
  Zr  Zr64  1  0.08016188  0.49673193  0.62509107  1
  Zr  Zr65  1  0.29328587  0.70248161  0.10503114  1
  Zr  Zr66  1  0.80714464  0.60648957  0.01170127  1
  Zr  Zr67  1  0.20448740  0.00339911  0.74851919  1
  Zr  Zr68  1  0.29886723  0.10607525  0.61814393  1
  Zr  Zr69  1  0.69312125  0.49706540  0.88502300  1
  Zr  Zr70  1  0.51583714  0.71049715  0.62307854  1
  Zr  Zr71  1  0.10326927  0.70875286  0.12983676  1
  Zr  Zr72  1  0.51185556  0.91465265  0.13324348  1
  Zr  Zr73  1  -0.00906646  0.20718730  0.00572448  1
  Zr  Zr74  1  0.59788317  0.38927034  0.24620060  1
  Zr  Zr75  1  0.30046211  0.91083409  0.38682210  1
  Zr  Zr76  1  0.69084864  0.09681764  0.87178623  1
  Zr  Zr77  1  0.31099382  0.89414020  0.12736281  1
  Zr  Zr78  1  0.71461374  0.47780763  0.37615859  1
  Zr  Zr79  1  0.59045476  -0.00700652  0.49087255  1
  Ta  Ta80  1  0.10193304  0.70850101  0.86186832  1
  Ta  Ta81  1  0.28870948  0.50761827  0.62025475  1
  Ta  Ta82  1  0.01175313  0.58740321  0.24563321  1
  Ta  Ta83  1  0.48587208  0.30503581  0.37387673  1
  Ta  Ta84  1  0.49748241  0.10151970  0.61656638  1
  Ta  Ta85  1  0.60476175  0.79697745  0.75426777  1
  Ta  Ta86  1  0.60808082  0.79829008  0.27598752  1
  Ta  Ta87  1  0.50560151  0.90364768  0.87562843  1
  Ta  Ta88  1  0.70679292  0.89526813  0.86524799  1
  Ta  Ta89  1  0.17378737  0.40131057  0.49153136  1
  Ta  Ta90  1  0.59425420  0.19485832  0.02000942  1
  Ta  Ta91  1  0.79044670  0.18769503  0.00807959  1
  Ta  Ta92  1  0.88455781  0.29454715  0.87101080  1
  Ta  Ta93  1  0.50793637  0.70203806  0.87769450  1
  Ta  Ta94  1  0.81115062  0.59090208  0.25060095  1
  Ta  Ta95  1  0.80259719  0.59432133  0.75182409  1
  Ta  Ta96  1  0.78031855  0.20566388  0.73637047  1
  Ta  Ta97  1  0.88884944  0.89506608  0.13617893  1
  Ta  Ta98  1  0.00102503  0.39895054  -0.01452548  1
  Ta  Ta99  1  0.60675832  0.79179157  0.47382099  1
  Ta  Ta100  1  0.29781268  0.10683533  0.37658537  1
  Ta  Ta101  1  0.91949393  0.47268979  0.36531841  1
  Ta  Ta102  1  0.89620950  0.50262220  0.87865521  1
  Ta  Ta103  1  0.79007378  0.40135527  0.75674490  1
  Ta  Ta104  1  0.09801289  0.10932205  0.62045470  1
  Ta  Ta105  1  0.69507009  0.07977094  0.12955461  1
  Ta  Ta106  1  0.70653224  0.70137814  0.87266442  1
  Ta  Ta107  1  0.50275257  0.49985625  0.36823525  1
  Ta  Ta108  1  0.40958151  0.81351158  0.75671385  1
  Ta  Ta109  1  0.40031926  0.38948865  0.00771571  1
  Ta  Ta110  1  0.71456147  0.71882363  0.14001928  1
  Ta  Ta111  1  0.80323971  0.79422887  0.74093854  1
  Ta  Ta112  1  0.08709924  0.10130067  0.38031784  1
  Ta  Ta113  1  0.30336514  0.09977408  0.86922402  1
  Ta  Ta114  1  0.20356044  0.60174648  0.25413214  1
  Ta  Ta115  1  0.70963577  0.11071587  0.38537576  1
  Ta  Ta116  1  0.80625287  0.79732694  0.00067693  1
  Ta  Ta117  1  0.90013488  0.70217889  0.86520761  1
  Ta  Ta118  1  -0.01182750  0.00753503  0.25189004  1
  Ta  Ta119  1  0.70893915  0.68007909  0.38474490  1
  Ti  Ti120  1  0.18561318  0.20617355  0.26390406  1
  Ti  Ti121  1  0.21703756  0.79790759  0.25108118  1
  Ti  Ti122  1  0.89259673  0.10429774  0.37918374  1
  Ti  Ti123  1  0.00146671  0.81131303  0.25685555  1
  Ti  Ti124  1  0.70845176  0.28351968  0.12822986  1
  Ti  Ti125  1  0.40444211  0.00041274  0.75276233  1
  Ti  Ti126  1  0.68864442  0.28734164  0.61378205  1
  Ti  Ti127  1  0.20802851  0.82405514  -0.01572492  1
  Ti  Ti128  1  -0.00009752  0.60086049  0.76134780  1
  Ti  Ti129  1  0.90484605  0.70194491  0.14095923  1
  Ti  Ti130  1  0.29520927  0.30126992  0.13900066  1
  Ti  Ti131  1  0.88949638  0.10367442  0.13422835  1
  Ti  Ti132  1  0.50083685  0.10737178  0.86992483  1
  Ti  Ti133  1  0.69436474  0.10342484  0.61254547  1
  Ti  Ti134  1  0.49319912  0.48903471  0.13438150  1
  Ti  Ti135  1  0.82828842  0.57066852  0.49526171  1
  Ti  Ti136  1  0.41365727  0.81423284  0.26770119  1
  Ti  Ti137  1  0.31075711  0.70639385  0.38198184  1
  Ti  Ti138  1  0.81099887  0.36725580  0.24864835  1
  Ti  Ti139  1  0.59320303  0.20166314  0.48857790  1
  Ti  Ti140  1  0.49551714  0.29165851  0.87569489  1
  Ti  Ti141  1  0.38897579  0.39722400  0.51124120  1
  Ti  Ti142  1  0.10707190  0.50425610  0.11689664  1
  Ti  Ti143  1  0.08899790  0.30989511  0.12455832  1
  Ti  Ti144  1  0.29909214  0.30164216  0.36959993  1
  Ti  Ti145  1  0.79986623  0.00140832  0.26108602  1
  Ti  Ti146  1  0.40867551  0.19853804  0.74276166  1
  Ti  Ti147  1  0.59854919  0.00847507  0.00020431  1
  Ti  Ti148  1  0.21370556  0.80437125  0.75727112  1
  Ti  Ti149  1  0.10832607  0.51459246  0.87782653  1
  Ti  Ti150  1  -0.00907811  0.00435427  0.51296095  1
  Ti  Ti151  1  0.48453804  0.09971641  0.37725426  1
  Ti  Ti152  1  0.09820581  0.29535699  0.87269547  1
  Ti  Ti153  1  0.40065824  0.20880560  0.49655492  1
  Ti  Ti154  1  0.09390097  0.11181451  0.13581878  1
  Ti  Ti155  1  0.58717525  0.38580909  0.01903882  1
  Ti  Ti156  1  0.39927733  0.20319587  0.24721196  1
  Ti  Ti157  1  0.29986945  0.50043912  0.87643453  1
  Ti  Ti158  1  0.80671916  0.00508479  0.50570670  1
  Ti  Ti159  1  0.10405160  0.90435279  0.86372458  1
  Mo  Mo160  1  0.20108646  0.00377959  -0.01373830  1
  Mo  Mo161  1  0.88844495  0.50720712  0.63247054  1
  Mo  Mo162  1  0.71225207  0.90497952  0.38869999  1
  Mo  Mo163  1  0.60826123  0.59555343  0.48827847  1
  Mo  Mo164  1  0.20439366  0.59755683  0.75592991  1
  Mo  Mo165  1  0.50044388  0.90229141  0.62923153  1
  Mo  Mo166  1  0.50413977  0.69358071  0.37112892  1
  Mo  Mo167  1  0.49977365  0.90431810  0.36872403  1
  Mo  Mo168  1  0.58916963  0.19468114  0.74000877  1
  Mo  Mo169  1  0.69453307  0.28816543  0.37703179  1
  Mo  Mo170  1  -0.00214727  0.39755113  0.24461487  1
  Mo  Mo171  1  0.89037763  0.10451718  0.61768451  1
  Mo  Mo172  1  0.18697857  0.01449719  0.49778681  1
  Mo  Mo173  1  0.79330513  0.18272893  0.24592611  1
  Mo  Mo174  1  0.91148126  0.92520451  0.37621447  1
  Mo  Mo175  1  0.09900399  0.30060870  0.62494871  1
  Mo  Mo176  1  0.89707191  0.29009970  0.11814950  1
  Mo  Mo177  1  0.70892445  0.89625891  0.13582872  1
  Mo  Mo178  1  0.78833697  0.19358477  0.51086677  1
  Mo  Mo179  1  0.39701882  0.39352161  0.25130269  1
  Mo  Mo180  1  0.30210675  0.90349196  0.87042200  1
  Mo  Mo181  1  -0.01344465  0.41175100  0.49969584  1
  Mo  Mo182  1  0.00466620  0.80169945  0.75200340  1
  Mo  Mo183  1  0.07948364  0.31238503  0.37482685  1
  Mo  Mo184  1  0.01005436  0.58468069  0.49545964  1
  Mo  Mo185  1  0.48908530  0.28532270  0.61279635  1
  Mo  Mo186  1  0.87110764  0.29448046  0.37875219  1
  Mo  Mo187  1  0.40877171  0.80335934  -0.01850961  1
  Mo  Mo188  1  0.19590443  0.59767912  -0.00926270  1
  Mo  Mo189  1  0.80146492  0.38293122  0.49444296  1
  Mo  Mo190  1  0.90484435  0.90052821  0.63227247  1
  Mo  Mo191  1  0.20737272  0.80272924  0.50153923  1
  Mo  Mo192  1  0.40719559  0.01483220  0.25916071  1
  Mo  Mo193  1  0.48944332  0.29918111  0.12865287  1
  Mo  Mo194  1  0.40017743  0.01987084  0.49588875  1
  Mo  Mo195  1  0.19739986  0.20400398  0.74976753  1
  Mo  Mo196  1  0.49255246  0.49980260  0.62356827  1
  Mo  Mo197  1  0.09603897  0.50770761  0.37469037  1
  Mo  Mo198  1  -0.00063162  -0.00307189  0.72795853  1
  Mo  Mo199  1  0.49974128  0.09703731  0.13001994  1
