# generated using pymatgen
data_HfZrTaTiMo
_symmetry_space_group_name_H-M   'P 1'
_cell_length_a   15.16287073
_cell_length_b   15.17073854
_cell_length_c   16.82989282
_cell_angle_alpha   90.03603478
_cell_angle_beta   90.00566420
_cell_angle_gamma   89.98792000
_symmetry_Int_Tables_number   1
_chemical_formula_structural   HfZrTaTiMo
_chemical_formula_sum   'Hf40 Zr40 Ta40 Ti40 Mo40'
_cell_volume   3871.41214964
_cell_formula_units_Z   40
loop_
 _symmetry_equiv_pos_site_id
 _symmetry_equiv_pos_as_xyz
  1  'x, y, z'
loop_
 _atom_site_type_symbol
 _atom_site_label
 _atom_site_symmetry_multiplicity
 _atom_site_fract_x
 _atom_site_fract_y
 _atom_site_fract_z
 _atom_site_occupancy
  Hf  Hf0  1  0.39425143  0.59744518  0.75728865  1
  Hf  Hf1  1  0.88390025  0.70530696  0.37558962  1
  Hf  Hf2  1  0.69883591  0.30148470  0.86969472  1
  Hf  Hf3  1  0.09756364  0.69860840  0.12284751  1
  Hf  Hf4  1  0.70883848  0.52381001  0.38748980  1
  Hf  Hf5  1  0.58524152  0.00079136  -0.00137839  1
  Hf  Hf6  1  -0.00054269  0.60416428  -0.02120257  1
  Hf  Hf7  1  0.39235560  0.78811736  0.51233021  1
  Hf  Hf8  1  0.38192134  -0.00629280  0.25942239  1
  Hf  Hf9  1  0.51328800  0.09144357  0.62668604  1
  Hf  Hf10  1  0.90150990  0.31527809  0.11405549  1
  Hf  Hf11  1  0.89222973  0.71143300  0.86179263  1
  Hf  Hf12  1  0.47966003  0.10397039  0.14334113  1
  Hf  Hf13  1  0.79259897  0.00026659  0.22510906  1
  Hf  Hf14  1  0.40411519  -0.00915971  0.51161261  1
  Hf  Hf15  1  0.58882103  0.59603785  0.75021954  1
  Hf  Hf16  1  0.17767078  -0.00261977  0.50957982  1
  Hf  Hf17  1  0.60619225  -0.01171695  0.75384288  1
  Hf  Hf18  1  0.92135191  0.51934790  0.63040440  1
  Hf  Hf19  1  0.48884173  0.10402152  0.86607179  1
  Hf  Hf20  1  0.90626125  0.91685039  0.87333924  1
  Hf  Hf21  1  0.81940790  0.41308616  0.26308351  1
  Hf  Hf22  1  0.21457919  -0.01154856  -0.00137834  1
  Hf  Hf23  1  0.70528141  0.89537745  0.37536524  1
  Hf  Hf24  1  0.70411499  0.49773225  0.86952969  1
  Hf  Hf25  1  0.02436738  0.40654558  0.24969321  1
  Hf  Hf26  1  0.50495185  0.49584759  0.38368292  1
  Hf  Hf27  1  0.91614118  0.50881343  0.11678193  1
  Hf  Hf28  1  0.50510762  0.29797199  0.13417288  1
  Hf  Hf29  1  0.59469770  0.79889814  0.25085514  1
  Hf  Hf30  1  0.08324866  0.10290983  0.37234591  1
  Hf  Hf31  1  0.79779098  0.00262801  0.02116186  1
  Hf  Hf32  1  0.29145721  0.09357973  0.38631000  1
  Hf  Hf33  1  0.27882735  0.72625461  0.86148670  1
  Hf  Hf34  1  0.61075354  0.40200481  0.25065330  1
  Hf  Hf35  1  0.60408077  0.78967184  0.50203144  1
  Hf  Hf36  1  0.81386107  0.19801314  0.74318567  1
  Hf  Hf37  1  0.47817066  0.69964220  0.11794242  1
  Hf  Hf38  1  0.70020814  0.09680868  0.36523294  1
  Hf  Hf39  1  0.79240312  0.79040534  0.23494070  1
  Zr  Zr40  1  0.81285605  0.40220279  0.50870039  1
  Zr  Zr41  1  0.11537629  0.31239908  0.37717389  1
  Zr  Zr42  1  0.31209207  0.50275360  0.11108661  1
  Zr  Zr43  1  0.61546929  0.39497533  0.00546680  1
  Zr  Zr44  1  0.21156469  0.39259313  -0.00995418  1
  Zr  Zr45  1  0.89974301  0.69869067  0.12033866  1
  Zr  Zr46  1  0.49911935  0.90196842  0.37593722  1
  Zr  Zr47  1  0.20525289  0.19904529  0.24630638  1
  Zr  Zr48  1  0.20300415  0.61349389  -0.01006174  1
  Zr  Zr49  1  0.71198019  0.09878080  0.87628232  1
  Zr  Zr50  1  0.90288929  0.30740467  0.88823065  1
  Zr  Zr51  1  0.71849626  0.49755015  0.12303984  1
  Zr  Zr52  1  0.01462750  0.00962178  -0.00145683  1
  Zr  Zr53  1  0.40295877  0.80168956  0.74026744  1
  Zr  Zr54  1  0.28078914  0.09450163  0.86290763  1
  Zr  Zr55  1  0.39667638  0.39754133  0.51064686  1
  Zr  Zr56  1  0.39938473  0.60377532  0.25591947  1
  Zr  Zr57  1  0.70247038  0.89461452  0.88230708  1
  Zr  Zr58  1  0.41509660  0.39947754  0.74481433  1
  Zr  Zr59  1  0.60251328  0.20410879  0.74375329  1
  Zr  Zr60  1  0.01178366  0.39277796  0.74730954  1
  Zr  Zr61  1  0.70883710  0.29994516  0.38173469  1
  Zr  Zr62  1  0.38994619  0.81977076  -0.01499616  1
  Zr  Zr63  1  0.28346247  0.48846624  0.37906631  1
  Zr  Zr64  1  0.20499675  0.78799703  0.24691413  1
  Zr  Zr65  1  0.28358221  0.87616941  0.39192295  1
  Zr  Zr66  1  0.50331251  0.90273373  0.13166967  1
  Zr  Zr67  1  0.68368265  0.69561771  0.10710150  1
  Zr  Zr68  1  0.78491390  0.20718819  0.01778287  1
  Zr  Zr69  1  0.18866295  0.59128804  0.50698165  1
  Zr  Zr70  1  0.89993648  0.91740198  0.36201616  1
  Zr  Zr71  1  0.39634018  -0.00846773  0.73538607  1
  Zr  Zr72  1  -0.00721598  0.80265003  0.50667120  1
  Zr  Zr73  1  0.40322680  0.19291317  0.50957584  1
  Zr  Zr74  1  0.31784335  0.28967582  0.87292937  1
  Zr  Zr75  1  0.20662525  0.39536879  0.75801515  1
  Zr  Zr76  1  0.19317916  0.58281655  0.24735299  1
  Zr  Zr77  1  0.79960709  0.62405677  0.51975603  1
  Zr  Zr78  1  0.09075061  0.90073802  0.37362132  1
  Zr  Zr79  1  0.39142176  0.39560347  0.24775609  1
  Ta  Ta80  1  0.38958156  0.18271109  0.00339705  1
  Ta  Ta81  1  0.51086010  0.30120044  0.61820868  1
  Ta  Ta82  1  -0.00920825  0.60345580  0.26115496  1
  Ta  Ta83  1  0.40863261  0.60615963  -0.02178839  1
  Ta  Ta84  1  0.18787172  0.19564316  0.73969137  1
  Ta  Ta85  1  0.81280723  0.18567889  0.50179845  1
  Ta  Ta86  1  0.91105137  0.29606718  0.61944618  1
  Ta  Ta87  1  0.51227244  0.51001535  0.11441615  1
  Ta  Ta88  1  0.79999173  0.40239337  0.73134237  1
  Ta  Ta89  1  0.00268158  0.20372363  0.50275063  1
  Ta  Ta90  1  0.60648294  0.40075470  0.73703927  1
  Ta  Ta91  1  0.50262323  0.69114623  0.38349593  1
  Ta  Ta92  1  0.69402781  0.71188629  0.63987203  1
  Ta  Ta93  1  0.39892322  0.59747385  0.50575289  1
  Ta  Ta94  1  0.01724008  0.80681316  -0.01397358  1
  Ta  Ta95  1  0.69173933  0.69850789  0.87398585  1
  Ta  Ta96  1  0.10272379  0.26977446  0.89161129  1
  Ta  Ta97  1  0.30071790  0.28105266  0.11963945  1
  Ta  Ta98  1  0.91526179  0.89812671  0.12454339  1
  Ta  Ta99  1  0.79459590  0.60444350  0.74280796  1
  Ta  Ta100  1  0.28681256  0.09727277  0.62772963  1
  Ta  Ta101  1  0.30762471  0.29060147  0.37924089  1
  Ta  Ta102  1  0.91496605  0.29750710  0.38017641  1
  Ta  Ta103  1  0.60919594  0.60464671  0.25234109  1
  Ta  Ta104  1  0.89764905  0.50211081  0.86061923  1
  Ta  Ta105  1  0.80586356  0.80242703  0.00318629  1
  Ta  Ta106  1  0.79659848  0.60026771  -0.01457147  1
  Ta  Ta107  1  0.02653594  0.40974740  0.51164918  1
  Ta  Ta108  1  0.10023356  0.69313687  0.38308332  1
  Ta  Ta109  1  0.50309300  0.10407999  0.36501514  1
  Ta  Ta110  1  0.50486090  0.29246857  0.37527069  1
  Ta  Ta111  1  0.58225283  0.20135870  -0.00067199  1
  Ta  Ta112  1  0.09987183  0.29609919  0.10757867  1
  Ta  Ta113  1  0.69758413  0.90316959  0.62623199  1
  Ta  Ta114  1  0.72016504  0.09029663  0.62235837  1
  Ta  Ta115  1  0.60955993  0.19523382  0.50221202  1
  Ta  Ta116  1  0.08403625  0.68904008  0.63256676  1
  Ta  Ta117  1  0.19491951  0.20679562  0.51299640  1
  Ta  Ta118  1  -0.00311666  0.20552542  0.24197150  1
  Ta  Ta119  1  0.18360237  0.59891672  0.75647937  1
  Ti  Ti120  1  0.41649488  0.38769850  -0.00152472  1
  Ti  Ti121  1  0.39794353  0.20098324  0.73477781  1
  Ti  Ti122  1  0.30075366  0.89277634  0.12709635  1
  Ti  Ti123  1  0.10979401  0.10237563  0.12553855  1
  Ti  Ti124  1  -0.03056227  0.01275879  0.50592582  1
  Ti  Ti125  1  0.10524758  0.49187171  0.10920436  1
  Ti  Ti126  1  0.18954624  -0.00521133  0.24561782  1
  Ti  Ti127  1  0.28490980  0.69351977  0.63369797  1
  Ti  Ti128  1  0.79623800  0.21213647  0.23880495  1
  Ti  Ti129  1  0.50636815  0.48812793  0.88189547  1
  Ti  Ti130  1  0.28188526  0.89308313  0.61911272  1
  Ti  Ti131  1  -0.00217013  0.00996063  0.75311424  1
  Ti  Ti132  1  0.01545030  0.80633081  0.76002265  1
  Ti  Ti133  1  0.00514697  0.19723713  0.74937539  1
  Ti  Ti134  1  0.67251906  0.10818452  0.13809783  1
  Ti  Ti135  1  0.91346351  0.10686839  0.12821843  1
  Ti  Ti136  1  0.69224383  0.50698153  0.62044667  1
  Ti  Ti137  1  0.79037029  0.81630715  0.74958346  1
  Ti  Ti138  1  0.60814981  -0.00102717  0.50140546  1
  Ti  Ti139  1  0.29476247  0.29873889  0.62821812  1
  Ti  Ti140  1  0.88791465  0.92157801  0.63740305  1
  Ti  Ti141  1  0.80064937  0.81817964  0.51189775  1
  Ti  Ti142  1  0.91001420  0.11392527  0.88457962  1
  Ti  Ti143  1  0.08632345  0.10100167  0.62621181  1
  Ti  Ti144  1  0.59013686  0.79447808  -0.01181695  1
  Ti  Ti145  1  0.00245127  0.80138371  0.25147326  1
  Ti  Ti146  1  0.70722887  0.29564170  0.61592354  1
  Ti  Ti147  1  0.89391302  0.10874008  0.35976063  1
  Ti  Ti148  1  0.29458116  0.50069279  0.62992146  1
  Ti  Ti149  1  0.18604633  -0.01084873  0.74426697  1
  Ti  Ti150  1  0.50052015  0.68933811  0.62216989  1
  Ti  Ti151  1  0.39124884  0.78973013  0.25964248  1
  Ti  Ti152  1  0.10048935  0.89989336  0.12854324  1
  Ti  Ti153  1  0.09661444  0.49132589  0.87691481  1
  Ti  Ti154  1  0.60293699  0.40097140  0.50714891  1
  Ti  Ti155  1  0.59020138  0.79770751  0.75588124  1
  Ti  Ti156  1  0.08227298  0.89752653  0.62806718  1
  Ti  Ti157  1  0.89821588  0.72029863  0.64593396  1
  Ti  Ti158  1  0.30477648  0.50066123  0.87762068  1
  Ti  Ti159  1  0.91963857  0.50609019  0.39139080  1
  Mo  Mo160  1  0.19257614  0.80597589  0.00549892  1
  Mo  Mo161  1  0.69218174  0.70219393  0.37561514  1
  Mo  Mo162  1  0.19639624  0.18377874  0.00573536  1
  Mo  Mo163  1  0.18587056  0.79044252  0.52387642  1
  Mo  Mo164  1  0.90870488  0.10169675  0.62691772  1
  Mo  Mo165  1  0.49874614  0.70015532  0.87332961  1
  Mo  Mo166  1  0.80082356  0.59910897  0.25577570  1
  Mo  Mo167  1  0.59380899  0.60051849  -0.01233937  1
  Mo  Mo168  1  0.50249034  0.50071094  0.61844126  1
  Mo  Mo169  1  0.81251945  0.41379061  -0.00716303  1
  Mo  Mo170  1  0.79737229  0.00063866  0.49845839  1
  Mo  Mo171  1  0.40350393  0.00674137  -0.00273283  1
  Mo  Mo172  1  0.49686881  0.89870247  0.87390878  1
  Mo  Mo173  1  0.10832094  0.50337313  0.63522439  1
  Mo  Mo174  1  0.00166276  0.19632169  0.01100240  1
  Mo  Mo175  1  0.20255059  0.39182525  0.23165207  1
  Mo  Mo176  1  0.59983257  -0.00028782  0.24971270  1
  Mo  Mo177  1  0.12017416  0.89739008  0.86402163  1
  Mo  Mo178  1  0.08981537  0.09181092  0.86496953  1
  Mo  Mo179  1  0.80781808  0.00348318  0.75316921  1
  Mo  Mo180  1  0.29640809  0.90784620  0.86049357  1
  Mo  Mo181  1  0.70256093  0.29736295  0.13449895  1
  Mo  Mo182  1  0.00962637  0.40410877  -0.01204643  1
  Mo  Mo183  1  0.70118860  0.89579682  0.11043202  1
  Mo  Mo184  1  0.60335586  0.20224570  0.25516918  1
  Mo  Mo185  1  0.29508457  0.08704517  0.12898425  1
  Mo  Mo186  1  -0.00215186  0.60473824  0.76464238  1
  Mo  Mo187  1  0.09308410  0.50261692  0.37616918  1
  Mo  Mo188  1  0.51701715  0.88526922  0.61837596  1
  Mo  Mo189  1  0.30077291  0.70543078  0.11693589  1
  Mo  Mo190  1  0.50518151  0.29805601  0.87844454  1
  Mo  Mo191  1  0.20479228  0.39406340  0.51382617  1
  Mo  Mo192  1  -0.00366216  0.60611262  0.49765721  1
  Mo  Mo193  1  0.19233606  0.80237645  0.72694932  1
  Mo  Mo194  1  0.00291880  0.00988911  0.23405136  1
  Mo  Mo195  1  0.39729337  0.19970259  0.26261431  1
  Mo  Mo196  1  0.09369068  0.70452463  0.86438544  1
  Mo  Mo197  1  0.10310886  0.29368381  0.62600079  1
  Mo  Mo198  1  0.59353491  0.59713820  0.51292696  1
  Mo  Mo199  1  0.30229281  0.69274395  0.38670860  1
