# generated using pymatgen
data_HfZrTaTiMo
_symmetry_space_group_name_H-M   'P 1'
_cell_length_a   15.21783638
_cell_length_b   15.21622406
_cell_length_c   16.80436443
_cell_angle_alpha   89.98965661
_cell_angle_beta   89.96738982
_cell_angle_gamma   90.04743044
_symmetry_Int_Tables_number   1
_chemical_formula_structural   HfZrTaTiMo
_chemical_formula_sum   'Hf40 Zr40 Ta40 Ti40 Mo40'
_cell_volume   3891.18312720
_cell_formula_units_Z   40
loop_
 _symmetry_equiv_pos_site_id
 _symmetry_equiv_pos_as_xyz
  1  'x, y, z'
loop_
 _atom_site_type_symbol
 _atom_site_label
 _atom_site_symmetry_multiplicity
 _atom_site_fract_x
 _atom_site_fract_y
 _atom_site_fract_z
 _atom_site_occupancy
  Hf  Hf0  1  0.80281346  0.60853098  0.73806809  1
  Hf  Hf1  1  -0.00602177  0.60615967  0.26153809  1
  Hf  Hf2  1  0.19841830  0.00156769  0.25934444  1
  Hf  Hf3  1  -0.01204798  0.79544452  0.73281382  1
  Hf  Hf4  1  0.20757821  0.61092587  0.26854781  1
  Hf  Hf5  1  -0.00097224  0.39270405  0.00716552  1
  Hf  Hf6  1  0.71048648  0.29743264  0.61735936  1
  Hf  Hf7  1  0.38397274  0.21621761  -0.02008192  1
  Hf  Hf8  1  0.80173500  0.38802219  0.76813609  1
  Hf  Hf9  1  0.59369404  0.59864583  0.26639865  1
  Hf  Hf10  1  0.40479312  0.80738435  0.26877237  1
  Hf  Hf11  1  0.89731062  0.11649447  0.12292172  1
  Hf  Hf12  1  0.90333045  0.89661274  0.87439673  1
  Hf  Hf13  1  0.39771780  0.60656388  0.74898693  1
  Hf  Hf14  1  0.20302327  0.61747778  0.47672804  1
  Hf  Hf15  1  0.30089844  0.30864350  0.61578202  1
  Hf  Hf16  1  0.59669780  0.60891467  0.73547065  1
  Hf  Hf17  1  0.89842208  0.70491353  0.12699198  1
  Hf  Hf18  1  0.69090871  0.88397138  0.11003962  1
  Hf  Hf19  1  0.80057617  0.00330204  0.00036085  1
  Hf  Hf20  1  0.89107273  0.89277122  0.60085581  1
  Hf  Hf21  1  0.40223562  0.60475337  -0.00537087  1
  Hf  Hf22  1  0.49924548  0.71142204  0.12813995  1
  Hf  Hf23  1  0.89146826  0.70476947  0.87882748  1
  Hf  Hf24  1  0.79812689  -0.00508430  0.24560084  1
  Hf  Hf25  1  0.20170114  -0.00981763  -0.00108870  1
  Hf  Hf26  1  0.70437267  0.88743346  0.88341227  1
  Hf  Hf27  1  0.90009576  0.72457795  0.39230010  1
  Hf  Hf28  1  0.29201169  0.89266405  0.13696181  1
  Hf  Hf29  1  0.69273123  0.10112540  0.38728023  1
  Hf  Hf30  1  0.59978364  0.38982065  -0.00548993  1
  Hf  Hf31  1  0.21156057  0.41705713  0.48651395  1
  Hf  Hf32  1  0.70279941  0.29103368  0.12516996  1
  Hf  Hf33  1  0.40086700  0.02402936  -0.01758911  1
  Hf  Hf34  1  0.59489956  0.19062085  0.74554936  1
  Hf  Hf35  1  0.79283826  0.20893456  -0.02296687  1
  Hf  Hf36  1  0.50450639  0.50005405  0.12852131  1
  Hf  Hf37  1  0.21319230  0.39080358  0.00648733  1
  Hf  Hf38  1  0.10103753  0.49790739  0.14113206  1
  Hf  Hf39  1  0.51050183  0.91092012  0.87521116  1
  Zr  Zr40  1  0.89800219  0.09035827  0.38419177  1
  Zr  Zr41  1  0.80026050  0.59818477  0.51071068  1
  Zr  Zr42  1  0.21264232  0.39099220  0.25937432  1
  Zr  Zr43  1  0.80920122  0.39697786  -0.00664044  1
  Zr  Zr44  1  0.41594669  0.39115196  0.25234826  1
  Zr  Zr45  1  0.01496872  0.38787802  0.49946785  1
  Zr  Zr46  1  0.10771800  0.49721693  0.87881908  1
  Zr  Zr47  1  0.01237558  0.39319265  0.75110926  1
  Zr  Zr48  1  0.59604899  0.60330759  0.50261711  1
  Zr  Zr49  1  0.18472644  0.20632583  0.49344580  1
  Zr  Zr50  1  0.69440787  0.50408610  0.86974352  1
  Zr  Zr51  1  0.79947376  0.19371775  0.76066818  1
  Zr  Zr52  1  0.20966768  0.61164777  0.00485717  1
  Zr  Zr53  1  0.90738957  0.08945566  0.86728239  1
  Zr  Zr54  1  0.91598834  0.28575601  0.61836914  1
  Zr  Zr55  1  0.29360566  0.71740097  0.62181945  1
  Zr  Zr56  1  0.00097776  0.59826764  0.01132646  1
  Zr  Zr57  1  0.59965837  0.39972860  0.50910038  1
  Zr  Zr58  1  0.10283301  0.89920807  0.86062066  1
  Zr  Zr59  1  0.69470004  0.69678089  0.13159977  1
  Zr  Zr60  1  0.59395455  0.39723900  0.74221796  1
  Zr  Zr61  1  0.30417073  0.10398600  0.61880583  1
  Zr  Zr62  1  0.10518345  0.28508431  0.13177498  1
  Zr  Zr63  1  0.49784953  0.07159280  0.62362156  1
  Zr  Zr64  1  0.39404383  0.18687703  0.26226321  1
  Zr  Zr65  1  0.79830179  0.59673190  0.00260326  1
  Zr  Zr66  1  0.49268706  0.92107785  0.11743530  1
  Zr  Zr67  1  0.71892727  0.90087631  0.39391507  1
  Zr  Zr68  1  0.90399408  0.49173327  0.62593873  1
  Zr  Zr69  1  0.70903314  0.49600823  0.13501586  1
  Zr  Zr70  1  0.58962486  0.20239589  0.25682693  1
  Zr  Zr71  1  0.57736363  -0.00118443  0.26128577  1
  Zr  Zr72  1  0.10026925  0.70326184  0.86634208  1
  Zr  Zr73  1  0.00732230  0.59608705  0.48842698  1
  Zr  Zr74  1  0.11112482  0.71962564  0.13539378  1
  Zr  Zr75  1  0.90413918  0.89946529  0.11568061  1
  Zr  Zr76  1  0.67622773  0.09304054  0.11766010  1
  Zr  Zr77  1  0.09631442  0.69486434  0.62309505  1
  Zr  Zr78  1  0.71165024  0.49119155  0.37479493  1
  Zr  Zr79  1  0.38149393  0.80534213  -0.00790982  1
  Ta  Ta80  1  0.79765937  0.20294250  0.25712729  1
  Ta  Ta81  1  0.20218757  -0.00929453  0.50512336  1
  Ta  Ta82  1  0.01085871  0.00313067  0.51096579  1
  Ta  Ta83  1  0.30048494  0.09767729  0.12680358  1
  Ta  Ta84  1  0.00134942  -0.00221652  0.72887314  1
  Ta  Ta85  1  0.49659159  0.50562209  0.87248554  1
  Ta  Ta86  1  0.39714740  0.59985175  0.48423956  1
  Ta  Ta87  1  0.40132037  0.81463179  0.74663353  1
  Ta  Ta88  1  0.68974657  0.70452156  0.87608831  1
  Ta  Ta89  1  0.70312938  0.09265404  0.61478444  1
  Ta  Ta90  1  0.39216966  0.80632947  0.48813232  1
  Ta  Ta91  1  0.59870472  0.80849831  0.73821456  1
  Ta  Ta92  1  0.01105320  0.00827681  0.00154888  1
  Ta  Ta93  1  -0.00702534  0.20344389  0.25314085  1
  Ta  Ta94  1  0.70161414  0.70193753  0.37787845  1
  Ta  Ta95  1  0.29752247  0.90873247  0.85836526  1
  Ta  Ta96  1  0.67938863  0.90387648  0.60810621  1
  Ta  Ta97  1  0.89960559  0.29926363  0.38132428  1
  Ta  Ta98  1  0.00868213  0.19594978  0.75447026  1
  Ta  Ta99  1  0.40423222  0.40547869  0.00161321  1
  Ta  Ta100  1  0.40088079  0.60130194  0.27192494  1
  Ta  Ta101  1  0.59567214  0.19326580  0.50796411  1
  Ta  Ta102  1  0.30832122  0.50409059  0.13371902  1
  Ta  Ta103  1  0.30605824  0.49910216  0.87221671  1
  Ta  Ta104  1  0.70756445  0.29874329  0.38491006  1
  Ta  Ta105  1  0.67891944  0.08290258  0.87436128  1
  Ta  Ta106  1  0.90839174  0.50290620  0.86937027  1
  Ta  Ta107  1  0.60859610  0.38960468  0.25723858  1
  Ta  Ta108  1  0.00107045  0.19819839  -0.00785995  1
  Ta  Ta109  1  0.60330006  0.80289257  0.26864608  1
  Ta  Ta110  1  0.09774515  0.10901504  0.62665726  1
  Ta  Ta111  1  0.11136960  0.28643032  0.87880446  1
  Ta  Ta112  1  0.39662094  0.40154626  0.74909396  1
  Ta  Ta113  1  0.20939348  0.39894223  0.74886268  1
  Ta  Ta114  1  0.39003471  0.20128870  0.76224902  1
  Ta  Ta115  1  0.78965180  -0.01228848  0.73902554  1
  Ta  Ta116  1  -0.00076095  0.81721642  0.26045501  1
  Ta  Ta117  1  -0.00209968  0.00463967  0.25235145  1
  Ta  Ta118  1  0.49337105  0.71029175  0.61522775  1
  Ta  Ta119  1  0.89804793  0.09614481  0.62229009  1
  Ti  Ti120  1  0.10843176  0.08995804  0.86276918  1
  Ti  Ti121  1  0.49756448  0.30677463  0.86737592  1
  Ti  Ti122  1  0.59544512  0.60188538  -0.00255942  1
  Ti  Ti123  1  0.78702122  0.79560599  0.72938003  1
  Ti  Ti124  1  0.80665017  0.19958819  0.49884983  1
  Ti  Ti125  1  0.09305620  0.29574874  0.36391791  1
  Ti  Ti126  1  0.80285708  0.80027114  0.25613996  1
  Ti  Ti127  1  0.57937088  0.18969746  -0.01006407  1
  Ti  Ti128  1  0.19960315  0.19350377  0.25906064  1
  Ti  Ti129  1  0.19959561  0.20612654  0.74886617  1
  Ti  Ti130  1  0.29834748  0.09842571  0.39177071  1
  Ti  Ti131  1  0.50509125  0.29248445  0.39343524  1
  Ti  Ti132  1  0.48452119  0.49668614  0.61837546  1
  Ti  Ti133  1  0.29258340  0.71061515  0.86224311  1
  Ti  Ti134  1  0.10041076  0.09639921  0.12979713  1
  Ti  Ti135  1  0.70190367  0.49539613  0.62726722  1
  Ti  Ti136  1  0.09695710  0.49162979  0.36122495  1
  Ti  Ti137  1  0.11283563  0.49197732  0.62481909  1
  Ti  Ti138  1  0.29902960  0.90799717  0.37536566  1
  Ti  Ti139  1  0.30109829  0.51069059  0.62090261  1
  Ti  Ti140  1  0.31627122  0.30075103  0.39093187  1
  Ti  Ti141  1  0.48850197  0.29016748  0.62058646  1
  Ti  Ti142  1  0.30490328  0.69919514  0.13804536  1
  Ti  Ti143  1  0.49667176  0.48627347  0.38241810  1
  Ti  Ti144  1  0.09929857  0.90531663  0.13032625  1
  Ti  Ti145  1  0.90161411  0.48792197  0.37545288  1
  Ti  Ti146  1  0.11742322  0.89343412  0.62395065  1
  Ti  Ti147  1  0.09537835  0.09846731  0.37803061  1
  Ti  Ti148  1  0.59012939  0.80315124  0.49292700  1
  Ti  Ti149  1  0.19984631  0.59587443  0.74903476  1
  Ti  Ti150  1  0.21213250  -0.00095407  0.73568233  1
  Ti  Ti151  1  0.50244308  0.70846966  0.87175728  1
  Ti  Ti152  1  0.01484955  0.80680326  -0.00010532  1
  Ti  Ti153  1  0.80354743  0.60082256  0.25814214  1
  Ti  Ti154  1  0.19611303  0.18372006  -0.00495919  1
  Ti  Ti155  1  0.09088547  0.90061001  0.38426876  1
  Ti  Ti156  1  0.81787207  0.39209631  0.24533423  1
  Ti  Ti157  1  -0.00052626  0.59587851  0.74489800  1
  Ti  Ti158  1  0.31538777  0.29259164  0.12819120  1
  Ti  Ti159  1  0.48524923  0.09016325  0.39642316  1
  Mo  Mo160  1  0.40322229  0.00748582  0.76098479  1
  Mo  Mo161  1  0.59446923  0.00365855  -0.00017837  1
  Mo  Mo162  1  0.89997862  0.29665420  0.13097229  1
  Mo  Mo163  1  0.28119659  0.10476306  0.86198163  1
  Mo  Mo164  1  0.69188627  0.70997985  0.62049705  1
  Mo  Mo165  1  0.59165337  0.78725087  -0.00668256  1
  Mo  Mo166  1  0.47936004  0.12150322  0.11913501  1
  Mo  Mo167  1  0.49698781  0.10744524  0.86113339  1
  Mo  Mo168  1  0.20604555  0.80092901  0.74439399  1
  Mo  Mo169  1  0.19374350  0.80926434  0.26778488  1
  Mo  Mo170  1  0.89825400  0.70042801  0.61261077  1
  Mo  Mo171  1  0.19785810  0.81381352  0.48952299  1
  Mo  Mo172  1  0.40317437  0.20231141  0.49593141  1
  Mo  Mo173  1  0.30381176  0.71171503  0.37759776  1
  Mo  Mo174  1  0.01541916  0.80615999  0.50480750  1
  Mo  Mo175  1  0.68372710  0.28618886  0.87486826  1
  Mo  Mo176  1  0.91087758  0.90613309  0.39189469  1
  Mo  Mo177  1  0.80355837  0.79269376  -0.00346504  1
  Mo  Mo178  1  0.78793418  0.79210044  0.51076593  1
  Mo  Mo179  1  0.40549353  0.40588254  0.50335394  1
  Mo  Mo180  1  0.49995865  0.90362771  0.38328435  1
  Mo  Mo181  1  0.00412671  0.19163241  0.49572042  1
  Mo  Mo182  1  0.30975071  0.90871440  0.62827280  1
  Mo  Mo183  1  0.09807465  0.71665382  0.36756895  1
  Mo  Mo184  1  0.91937551  0.29804670  0.87321118  1
  Mo  Mo185  1  0.90451479  0.49586949  0.14499690  1
  Mo  Mo186  1  0.80612519  0.39300518  0.49740713  1
  Mo  Mo187  1  0.60843860  -0.00961998  0.74487466  1
  Mo  Mo188  1  0.50076509  0.29199897  0.11697653  1
  Mo  Mo189  1  0.20407257  0.80307255  -0.00216915  1
  Mo  Mo190  1  0.29513637  0.31084196  0.86936792  1
  Mo  Mo191  1  0.39155271  -0.00685305  0.49436182  1
  Mo  Mo192  1  0.79783015  0.00625536  0.51036560  1
  Mo  Mo193  1  0.30911940  0.49750530  0.37122198  1
  Mo  Mo194  1  -0.00466665  0.39545067  0.25296831  1
  Mo  Mo195  1  0.38910106  0.00835338  0.25875858  1
  Mo  Mo196  1  0.50470674  0.70140891  0.38504803  1
  Mo  Mo197  1  0.48709324  0.89038915  0.61886727  1
  Mo  Mo198  1  0.59187533  -0.00351959  0.49179961  1
  Mo  Mo199  1  0.11280910  0.29838986  0.63026779  1
