# generated using pymatgen
data_HfZrTaTiMo
_symmetry_space_group_name_H-M   'P 1'
_cell_length_a   15.19206444
_cell_length_b   15.18740948
_cell_length_c   16.79462934
_cell_angle_alpha   90.11643153
_cell_angle_beta   90.02726635
_cell_angle_gamma   90.07986069
_symmetry_Int_Tables_number   1
_chemical_formula_structural   HfZrTaTiMo
_chemical_formula_sum   'Hf40 Zr40 Ta40 Ti40 Mo40'
_cell_volume   3874.98076704
_cell_formula_units_Z   40
loop_
 _symmetry_equiv_pos_site_id
 _symmetry_equiv_pos_as_xyz
  1  'x, y, z'
loop_
 _atom_site_type_symbol
 _atom_site_label
 _atom_site_symmetry_multiplicity
 _atom_site_fract_x
 _atom_site_fract_y
 _atom_site_fract_z
 _atom_site_occupancy
  Hf  Hf0  1  0.69511829  0.30323221  0.12990251  1
  Hf  Hf1  1  0.52608779  0.90616352  0.13199821  1
  Hf  Hf2  1  0.78894872  0.39978165  0.72806074  1
  Hf  Hf3  1  0.41563933  0.79499806  -0.00461392  1
  Hf  Hf4  1  0.51446836  0.91166906  0.37597902  1
  Hf  Hf5  1  0.88905339  0.49950939  0.12291085  1
  Hf  Hf6  1  0.10972795  0.70346732  0.62906106  1
  Hf  Hf7  1  0.21367848  0.78799615  0.00851917  1
  Hf  Hf8  1  0.29708660  0.11229727  0.11401576  1
  Hf  Hf9  1  -0.00959153  0.60520269  -0.00759349  1
  Hf  Hf10  1  0.29727929  0.50182063  0.12874492  1
  Hf  Hf11  1  -0.01052087  -0.01174714  0.74991209  1
  Hf  Hf12  1  0.89102479  0.08603928  0.62067520  1
  Hf  Hf13  1  0.41008160  0.61738967  0.48927623  1
  Hf  Hf14  1  0.88765205  0.09069270  0.86701051  1
  Hf  Hf15  1  0.11252040  0.89970969  0.86367392  1
  Hf  Hf16  1  -0.00061745  0.20123871  0.49946167  1
  Hf  Hf17  1  0.79408741  0.60265290  0.25245900  1
  Hf  Hf18  1  -0.00428239  -0.01071184  -0.00491684  1
  Hf  Hf19  1  -0.00386642  0.18493474  0.00436520  1
  Hf  Hf20  1  0.70683023  0.50112401  0.39506317  1
  Hf  Hf21  1  0.69536770  0.30339909  0.87300362  1
  Hf  Hf22  1  0.30565403  0.71045010  0.36234956  1
  Hf  Hf23  1  0.28622749  0.31109899  0.89159476  1
  Hf  Hf24  1  0.39376233  0.38130224  0.48895403  1
  Hf  Hf25  1  0.80505666  0.80571542  0.74731391  1
  Hf  Hf26  1  -0.00190034  0.78458517  0.75744429  1
  Hf  Hf27  1  0.79877250  0.39650082  0.51932797  1
  Hf  Hf28  1  0.38333046  0.40602339  0.75301759  1
  Hf  Hf29  1  0.22495208  0.59371649  0.75200850  1
  Hf  Hf30  1  0.10065132  0.69891583  0.37389254  1
  Hf  Hf31  1  0.09375763  0.28310816  0.13842542  1
  Hf  Hf32  1  0.41948269  -0.00533056  -0.00867042  1
  Hf  Hf33  1  0.19504651  -0.00631432  0.00756604  1
  Hf  Hf34  1  0.61422570  0.00235170  0.73472524  1
  Hf  Hf35  1  0.10764283  0.48543370  0.88433370  1
  Hf  Hf36  1  0.72046066  0.89344074  0.12322349  1
  Hf  Hf37  1  0.80302709  -0.01293878  0.26353030  1
  Hf  Hf38  1  0.09369792  0.50388359  0.62751473  1
  Hf  Hf39  1  0.88265109  0.50299771  0.87384291  1
  Zr  Zr40  1  0.10138756  0.68935153  0.12346248  1
  Zr  Zr41  1  0.89200967  0.70658339  0.12596153  1
  Zr  Zr42  1  0.12245383  0.69291659  0.87492190  1
  Zr  Zr43  1  0.08602778  0.30329186  0.36000080  1
  Zr  Zr44  1  -0.00404980  0.20394060  0.74674202  1
  Zr  Zr45  1  0.66752612  0.30001013  0.38093310  1
  Zr  Zr46  1  -0.00662208  0.80527613  0.25574849  1
  Zr  Zr47  1  0.60113788  0.60391640  0.24856036  1
  Zr  Zr48  1  0.28982626  0.30767370  0.12010338  1
  Zr  Zr49  1  0.41423371  0.00143996  0.74979191  1
  Zr  Zr50  1  0.71346350  0.90186042  0.60795758  1
  Zr  Zr51  1  0.31129509  0.90640445  0.36827943  1
  Zr  Zr52  1  0.68294179  0.49736992  0.87156934  1
  Zr  Zr53  1  0.19824024  0.59998143  0.49715885  1
  Zr  Zr54  1  0.78752174  0.19789546  0.25840438  1
  Zr  Zr55  1  0.49436950  0.30211512  0.12821029  1
  Zr  Zr56  1  0.82294736  0.79974685  -0.01538609  1
  Zr  Zr57  1  0.89020601  0.29611980  0.86910716  1
  Zr  Zr58  1  0.10642743  0.10185998  0.62792701  1
  Zr  Zr59  1  0.11177273  0.89757978  0.62696739  1
  Zr  Zr60  1  0.69839757  0.10916084  0.88222638  1
  Zr  Zr61  1  0.68958131  0.09312996  0.12586353  1
  Zr  Zr62  1  0.59412464  0.19997391  0.73597199  1
  Zr  Zr63  1  -0.01219252  0.38586885  0.00790368  1
  Zr  Zr64  1  0.21663571  0.02231663  0.50087929  1
  Zr  Zr65  1  0.69139014  0.70029659  0.40369698  1
  Zr  Zr66  1  0.71233139  0.69317546  0.87481220  1
  Zr  Zr67  1  0.31790916  0.90003147  0.13183288  1
  Zr  Zr68  1  0.48365924  0.50830301  0.61883965  1
  Zr  Zr69  1  0.28906083  0.49554518  0.36881371  1
  Zr  Zr70  1  0.88521383  0.30324963  0.37433251  1
  Zr  Zr71  1  0.19711694  0.80731351  0.23826528  1
  Zr  Zr72  1  0.51212893  0.49783821  0.38506176  1
  Zr  Zr73  1  0.29720473  0.09870133  0.88450539  1
  Zr  Zr74  1  0.41822389  0.01597026  0.24969563  1
  Zr  Zr75  1  0.89691270  0.69100538  0.39585507  1
  Zr  Zr76  1  0.28356427  0.28014685  0.36442742  1
  Zr  Zr77  1  0.20642304  0.20816566  0.74814864  1
  Zr  Zr78  1  0.31714831  0.70401120  0.62359314  1
  Zr  Zr79  1  0.60210297  0.60309891  0.73481897  1
  Ta  Ta80  1  0.90248342  0.49727197  0.37614717  1
  Ta  Ta81  1  0.60015290  0.80755750  0.74419745  1
  Ta  Ta82  1  0.11048916  0.10894453  0.36597954  1
  Ta  Ta83  1  0.40087939  0.40058659  0.25805042  1
  Ta  Ta84  1  0.58522181  0.60537626  0.00130446  1
  Ta  Ta85  1  0.80571487  0.00419861  0.00569245  1
  Ta  Ta86  1  0.58778214  0.39554518  0.72956341  1
  Ta  Ta87  1  0.90995867  0.09666758  0.37291651  1
  Ta  Ta88  1  0.90976743  0.69007017  0.61025324  1
  Ta  Ta89  1  0.40651212  0.20745179  -0.00892306  1
  Ta  Ta90  1  0.77907722  0.19289324  0.50138651  1
  Ta  Ta91  1  0.10376106  0.91029622  0.37906616  1
  Ta  Ta92  1  0.61534649  0.80765296  0.25518376  1
  Ta  Ta93  1  0.40809723  0.79557502  0.75486949  1
  Ta  Ta94  1  0.70420399  0.89522374  0.39461800  1
  Ta  Ta95  1  0.70497737  0.69900162  0.60928107  1
  Ta  Ta96  1  0.39891096  0.20429052  0.75923151  1
  Ta  Ta97  1  0.50013926  0.30687100  0.87424910  1
  Ta  Ta98  1  0.70706286  0.91318643  0.87361515  1
  Ta  Ta99  1  0.78600044  0.40032164  0.00687754  1
  Ta  Ta100  1  0.40676025  0.60043171  0.25610525  1
  Ta  Ta101  1  0.08804985  0.49726599  0.36840753  1
  Ta  Ta102  1  0.50559901  0.69924459  0.86915511  1
  Ta  Ta103  1  0.20051975  0.00961870  0.24789447  1
  Ta  Ta104  1  0.90591187  0.89661142  0.39063582  1
  Ta  Ta105  1  0.10073244  0.30725132  0.61947073  1
  Ta  Ta106  1  0.60637061  0.81149098  -0.01148795  1
  Ta  Ta107  1  0.60359402  0.01664982  0.51055173  1
  Ta  Ta108  1  0.47210580  0.28660082  0.62105860  1
  Ta  Ta109  1  0.69490607  0.70158550  0.11170340  1
  Ta  Ta110  1  0.10097472  0.10020095  0.87114252  1
  Ta  Ta111  1  0.58796438  0.40545571  0.00209984  1
  Ta  Ta112  1  0.30672422  0.88718165  0.86945420  1
  Ta  Ta113  1  0.39953018  0.41345807  -0.00615014  1
  Ta  Ta114  1  0.90140200  0.10010161  0.14014942  1
  Ta  Ta115  1  0.31560192  0.69282823  0.13641512  1
  Ta  Ta116  1  0.39142214  0.60465877  -0.00563516  1
  Ta  Ta117  1  0.10161998  0.48904665  0.12333004  1
  Ta  Ta118  1  0.41051784  0.00175591  0.51046175  1
  Ta  Ta119  1  -0.00518414  0.41074674  0.50507181  1
  Ti  Ti120  1  0.09083800  0.08505921  0.13868824  1
  Ti  Ti121  1  0.01512639  0.79777552  0.49837958  1
  Ti  Ti122  1  0.09617381  0.29103379  0.88503304  1
  Ti  Ti123  1  0.31166309  0.90212502  0.62846000  1
  Ti  Ti124  1  0.59848821  0.20567368  0.00074060  1
  Ti  Ti125  1  0.78709268  0.19051304  0.73069624  1
  Ti  Ti126  1  0.19110619  0.39788096  0.74797849  1
  Ti  Ti127  1  0.50154587  0.71760257  0.37039092  1
  Ti  Ti128  1  -0.00404268  0.39858667  0.74725097  1
  Ti  Ti129  1  0.50381842  0.70566948  0.12978920  1
  Ti  Ti130  1  0.81045929  0.60149346  0.73086711  1
  Ti  Ti131  1  0.57761940  0.80210292  0.51378554  1
  Ti  Ti132  1  0.80446943  0.20536103  0.01324398  1
  Ti  Ti133  1  0.58197186  0.18923871  0.25390339  1
  Ti  Ti134  1  0.48903114  0.50450837  0.86795845  1
  Ti  Ti135  1  0.91922362  0.90656613  0.13118419  1
  Ti  Ti136  1  0.49263324  0.50739209  0.12554953  1
  Ti  Ti137  1  -0.00421996  0.59422708  0.24757925  1
  Ti  Ti138  1  0.29285014  0.48905406  0.61396455  1
  Ti  Ti139  1  0.90097106  0.29355547  0.62411906  1
  Ti  Ti140  1  0.59261051  0.40449830  0.24937491  1
  Ti  Ti141  1  0.79014454  0.40620406  0.24810762  1
  Ti  Ti142  1  0.21575937  0.00247359  0.74571406  1
  Ti  Ti143  1  0.90928748  0.88898455  0.60818548  1
  Ti  Ti144  1  0.19484534  0.59379919  0.24996319  1
  Ti  Ti145  1  0.68793027  0.50666966  0.11797148  1
  Ti  Ti146  1  0.00864697  -0.00014821  0.49582761  1
  Ti  Ti147  1  0.21481523  0.81001086  0.49648696  1
  Ti  Ti148  1  0.18958625  0.39066692  0.49720632  1
  Ti  Ti149  1  0.01294374  0.80267852  -0.00808491  1
  Ti  Ti150  1  -0.01428088  0.39811767  0.24004352  1
  Ti  Ti151  1  -0.00038859  0.59181503  0.75855981  1
  Ti  Ti152  1  0.49231438  0.11956766  0.38998293  1
  Ti  Ti153  1  0.51052394  0.10200306  0.87916618  1
  Ti  Ti154  1  0.39336019  0.20109039  0.25033419  1
  Ti  Ti155  1  0.80702579  0.00421469  0.48769869  1
  Ti  Ti156  1  0.68688904  0.09313100  0.37860742  1
  Ti  Ti157  1  0.50189463  0.10389890  0.11500839  1
  Ti  Ti158  1  0.59491359  0.39278363  0.52254073  1
  Ti  Ti159  1  0.79833127  0.79372482  0.26230675  1
  Mo  Mo160  1  0.29683647  0.50561659  0.88461870  1
  Mo  Mo161  1  0.50363459  0.71299417  0.63019837  1
  Mo  Mo162  1  0.89967742  0.89618208  0.87337017  1
  Mo  Mo163  1  0.80942435  0.58840539  0.51777050  1
  Mo  Mo164  1  0.19956839  0.21071142  0.50560118  1
  Mo  Mo165  1  0.40671579  0.60073068  0.75810133  1
  Mo  Mo166  1  0.00560728  -0.00379253  0.26101142  1
  Mo  Mo167  1  0.49121792  0.29762834  0.36680635  1
  Mo  Mo168  1  0.51609600  0.89899406  0.87014570  1
  Mo  Mo169  1  0.39874668  0.81291146  0.49894176  1
  Mo  Mo170  1  0.30295600  0.09733281  0.37096286  1
  Mo  Mo171  1  0.60851727  0.00043833  -0.00436242  1
  Mo  Mo172  1  0.61344834  0.00788470  0.26245543  1
  Mo  Mo173  1  0.31386667  0.69773881  0.87196859  1
  Mo  Mo174  1  0.00545451  0.59261045  0.49797485  1
  Mo  Mo175  1  0.60000417  0.60127822  0.51459677  1
  Mo  Mo176  1  0.69705877  0.50398788  0.61742767  1
  Mo  Mo177  1  0.81045874  0.80270095  0.50648370  1
  Mo  Mo178  1  0.78536971  0.59186856  0.00442707  1
  Mo  Mo179  1  0.20669583  0.59100546  0.00427814  1
  Mo  Mo180  1  0.29061749  0.30781439  0.62270320  1
  Mo  Mo181  1  0.49396132  0.10056978  0.61979651  1
  Mo  Mo182  1  0.09708224  0.90074480  0.12384019  1
  Mo  Mo183  1  0.31754820  0.11693367  0.63078945  1
  Mo  Mo184  1  0.49795423  0.89518686  0.62194602  1
  Mo  Mo185  1  0.90697776  0.68880591  0.86707728  1
  Mo  Mo186  1  0.21567572  0.80819214  0.74825451  1
  Mo  Mo187  1  0.88734750  0.29515995  0.13423594  1
  Mo  Mo188  1  0.19070250  0.39904209  0.00548265  1
  Mo  Mo189  1  0.18764879  0.40641014  0.24708617  1
  Mo  Mo190  1  0.79932292  -0.00234673  0.74524774  1
  Mo  Mo191  1  0.37938904  0.18738400  0.49896540  1
  Mo  Mo192  1  0.19841378  0.19144412  0.24333412  1
  Mo  Mo193  1  -0.00870725  0.18790120  0.25132016  1
  Mo  Mo194  1  0.68801864  0.29541788  0.61801781  1
  Mo  Mo195  1  0.70282465  0.10256521  0.61267149  1
  Mo  Mo196  1  0.57905211  0.20409161  0.50786963  1
  Mo  Mo197  1  0.18702528  0.19403575  -0.00277705  1
  Mo  Mo198  1  0.90697904  0.49938577  0.63561299  1
  Mo  Mo199  1  0.42285134  0.79282586  0.24446146  1
