# generated using pymatgen
data_HfZrTaTiMo
_symmetry_space_group_name_H-M   'P 1'
_cell_length_a   15.21569377
_cell_length_b   15.23092767
_cell_length_c   16.82487612
_cell_angle_alpha   89.99079305
_cell_angle_beta   89.88155236
_cell_angle_gamma   89.99249996
_symmetry_Int_Tables_number   1
_chemical_formula_structural   HfZrTaTiMo
_chemical_formula_sum   'Hf40 Zr40 Ta40 Ti40 Mo40'
_cell_volume   3899.14201003
_cell_formula_units_Z   40
loop_
 _symmetry_equiv_pos_site_id
 _symmetry_equiv_pos_as_xyz
  1  'x, y, z'
loop_
 _atom_site_type_symbol
 _atom_site_label
 _atom_site_symmetry_multiplicity
 _atom_site_fract_x
 _atom_site_fract_y
 _atom_site_fract_z
 _atom_site_occupancy
  Hf  Hf0  1  0.08666682  0.51083232  0.63777890  1
  Hf  Hf1  1  0.88206872  0.49841778  0.36749272  1
  Hf  Hf2  1  0.20120690  0.38708774  0.24906940  1
  Hf  Hf3  1  0.08954492  0.48743905  0.13143399  1
  Hf  Hf4  1  0.11295436  0.89666767  0.86662047  1
  Hf  Hf5  1  0.20706340  0.00708042  0.00190322  1
  Hf  Hf6  1  0.90766275  0.69103652  0.63150508  1
  Hf  Hf7  1  0.90474945  0.89316214  0.62751081  1
  Hf  Hf8  1  0.90149643  0.89648997  0.12521914  1
  Hf  Hf9  1  0.59201881  0.59824524  0.24805973  1
  Hf  Hf10  1  0.60395440  0.20464147  0.50235379  1
  Hf  Hf11  1  0.20291782  0.19754088  0.73409578  1
  Hf  Hf12  1  0.40961335  0.80167926  0.75587598  1
  Hf  Hf13  1  0.50305210  0.10057562  0.38005456  1
  Hf  Hf14  1  0.59566047  0.19218374  0.23349561  1
  Hf  Hf15  1  0.40450977  0.58831139  0.00285366  1
  Hf  Hf16  1  0.61663099  0.79474028  0.49927125  1
  Hf  Hf17  1  0.89538643  0.10184914  0.37201069  1
  Hf  Hf18  1  0.91314755  0.30552112  0.88060307  1
  Hf  Hf19  1  0.19843323  0.80319091  0.00387876  1
  Hf  Hf20  1  0.69620136  0.31152640  0.64441647  1
  Hf  Hf21  1  0.01572045  0.77936515  0.76157112  1
  Hf  Hf22  1  0.58647615  0.20719002  -0.00053241  1
  Hf  Hf23  1  0.39011811  0.40356718  0.50029256  1
  Hf  Hf24  1  -0.00346389  0.59699283  0.49034274  1
  Hf  Hf25  1  0.01176361  0.20532162  0.24522085  1
  Hf  Hf26  1  0.00374087  -0.00645946  0.49970979  1
  Hf  Hf27  1  0.11296490  0.08938557  0.12856567  1
  Hf  Hf28  1  0.80561530  0.20899145  0.23998132  1
  Hf  Hf29  1  0.59958549  0.58973555  0.50109455  1
  Hf  Hf30  1  0.80116273  0.20503756  0.50206541  1
  Hf  Hf31  1  0.31648669  0.10294908  0.61544883  1
  Hf  Hf32  1  0.69870827  0.30720929  0.36563351  1
  Hf  Hf33  1  0.89815939  0.09479338  0.63481955  1
  Hf  Hf34  1  0.60715016  0.77549809  0.75390813  1
  Hf  Hf35  1  -0.01289465  0.58033088  0.00279300  1
  Hf  Hf36  1  0.00274938  0.19658581  0.74857328  1
  Hf  Hf37  1  0.29351403  0.69948555  0.86880595  1
  Hf  Hf38  1  0.19789779  0.59842061  0.49967089  1
  Hf  Hf39  1  0.19683670  0.39804712  -0.00302277  1
  Zr  Zr40  1  0.21529951  0.79418419  0.49620925  1
  Zr  Zr41  1  0.40480177  0.38284352  0.00857635  1
  Zr  Zr42  1  0.31170129  0.91188566  0.86849989  1
  Zr  Zr43  1  -0.00072152  0.80076784  0.26314907  1
  Zr  Zr44  1  0.00031737  -0.00078962  0.24859169  1
  Zr  Zr45  1  0.08006330  0.50265889  0.85823889  1
  Zr  Zr46  1  -0.00530172  -0.00902178  -0.00595742  1
  Zr  Zr47  1  0.19477115  0.60141260  0.00276278  1
  Zr  Zr48  1  0.69076984  0.90255756  0.35390529  1
  Zr  Zr49  1  0.29689103  0.49827119  0.85927994  1
  Zr  Zr50  1  0.28665167  0.90839020  0.14103459  1
  Zr  Zr51  1  0.89457853  0.69397942  0.12594297  1
  Zr  Zr52  1  0.49265414  0.69083655  0.61523150  1
  Zr  Zr53  1  0.70501121  0.31155189  0.11064550  1
  Zr  Zr54  1  0.59538471  0.19227825  0.76160264  1
  Zr  Zr55  1  0.69944974  0.71406057  0.13857956  1
  Zr  Zr56  1  0.68650707  0.51903291  0.86756981  1
  Zr  Zr57  1  0.48777731  0.29167594  0.63390294  1
  Zr  Zr58  1  0.80946732  0.79981983  0.76707471  1
  Zr  Zr59  1  0.11126300  0.09762460  0.37362078  1
  Zr  Zr60  1  0.10432517  0.10295999  0.87273019  1
  Zr  Zr61  1  0.50043865  0.71184023  0.37462156  1
  Zr  Zr62  1  0.79192941  0.40566058  0.50819773  1
  Zr  Zr63  1  0.70202824  0.09714983  0.64050374  1
  Zr  Zr64  1  0.21127044  0.20986738  0.50427552  1
  Zr  Zr65  1  0.91166480  0.30866717  0.10775285  1
  Zr  Zr66  1  0.30807820  0.10728848  0.87144192  1
  Zr  Zr67  1  0.00479252  0.20096038  0.50941369  1
  Zr  Zr68  1  -0.00835603  0.59383376  0.25603294  1
  Zr  Zr69  1  0.40239373  0.80322989  0.00105303  1
  Zr  Zr70  1  0.78997872  0.60566683  0.50653670  1
  Zr  Zr71  1  0.10257922  0.70876506  0.13800956  1
  Zr  Zr72  1  0.49626435  0.70388000  0.12753972  1
  Zr  Zr73  1  0.40103515  0.02009062  0.24458767  1
  Zr  Zr74  1  0.49534895  0.49655668  0.37499254  1
  Zr  Zr75  1  0.70659761  0.89592162  0.63493159  1
  Zr  Zr76  1  0.30067683  0.50873974  0.63868098  1
  Zr  Zr77  1  0.80229427  0.80443562  -0.01229902  1
  Zr  Zr78  1  0.49901912  0.89882180  0.61659539  1
  Zr  Zr79  1  0.79463376  -0.00547028  0.49475889  1
  Ta  Ta80  1  0.39893668  0.40194815  0.23986169  1
  Ta  Ta81  1  0.58983903  0.39365413  0.23506370  1
  Ta  Ta82  1  -0.00730230  -0.00961754  0.75782819  1
  Ta  Ta83  1  0.20338339  -0.00164893  0.50907346  1
  Ta  Ta84  1  0.69803287  0.09681515  0.87986582  1
  Ta  Ta85  1  0.40220069  0.21772654  0.24561176  1
  Ta  Ta86  1  0.59736357  0.39985866  0.50557927  1
  Ta  Ta87  1  0.00505905  0.78734722  -0.01563412  1
  Ta  Ta88  1  0.50193286  0.09304891  0.61534451  1
  Ta  Ta89  1  0.69540095  0.90573564  0.87172733  1
  Ta  Ta90  1  0.78117195  0.59893539  0.00188885  1
  Ta  Ta91  1  0.60047481  -0.00018863  0.49818551  1
  Ta  Ta92  1  0.89619414  0.67361279  0.87356875  1
  Ta  Ta93  1  0.89774054  0.30512029  0.63907791  1
  Ta  Ta94  1  0.09597688  0.30786204  0.62625044  1
  Ta  Ta95  1  0.80454776  0.19360514  -0.01267798  1
  Ta  Ta96  1  0.71727938  0.69988498  0.35494002  1
  Ta  Ta97  1  0.41181468  0.00844964  0.01363383  1
  Ta  Ta98  1  0.11317989  0.89823853  0.37481390  1
  Ta  Ta99  1  0.30873044  0.89980286  0.61997572  1
  Ta  Ta100  1  0.11661726  0.69120214  0.36304318  1
  Ta  Ta101  1  0.30202300  0.29900729  0.86324044  1
  Ta  Ta102  1  0.01264576  0.19680139  -0.00138845  1
  Ta  Ta103  1  0.49949355  0.08913199  0.88150192  1
  Ta  Ta104  1  0.69933085  0.90686568  0.13391188  1
  Ta  Ta105  1  0.38950498  0.59772042  0.25136265  1
  Ta  Ta106  1  0.21811437  0.19305672  0.25637754  1
  Ta  Ta107  1  0.09437628  0.48943449  0.37079628  1
  Ta  Ta108  1  0.20675852  0.79909641  0.73926232  1
  Ta  Ta109  1  0.90514016  0.30454922  0.37453392  1
  Ta  Ta110  1  0.29516220  0.69930986  0.14296079  1
  Ta  Ta111  1  0.00820611  0.79178593  0.48909694  1
  Ta  Ta112  1  0.10395077  0.30320260  0.37822314  1
  Ta  Ta113  1  0.51067923  0.90574647  0.13286658  1
  Ta  Ta114  1  0.80425287  0.40635374  0.76362386  1
  Ta  Ta115  1  0.50412703  0.48750630  0.64331288  1
  Ta  Ta116  1  0.10282044  0.89334837  0.62652826  1
  Ta  Ta117  1  0.28753115  0.50253638  0.36791132  1
  Ta  Ta118  1  0.49265645  0.29997907  0.37510107  1
  Ta  Ta119  1  0.18951426  0.40479576  0.50150652  1
  Ti  Ti120  1  0.79547038  0.00850394  0.24163741  1
  Ti  Ti121  1  0.29696612  0.50023571  0.13101506  1
  Ti  Ti122  1  0.31137504  0.10769343  0.38724160  1
  Ti  Ti123  1  0.70124109  0.09694104  0.11187701  1
  Ti  Ti124  1  0.80082350  0.00075075  -0.00973939  1
  Ti  Ti125  1  0.49558513  0.90778197  0.37502762  1
  Ti  Ti126  1  0.51465818  0.68134276  0.88522763  1
  Ti  Ti127  1  0.60426693  -0.00517570  0.00280808  1
  Ti  Ti128  1  0.38778458  0.61367499  0.48975489  1
  Ti  Ti129  1  0.69301867  0.49755490  0.36234126  1
  Ti  Ti130  1  0.40742447  0.00735551  0.74532309  1
  Ti  Ti131  1  0.81099720  0.79359868  0.49533537  1
  Ti  Ti132  1  0.30956948  0.12751431  0.11503621  1
  Ti  Ti133  1  0.69760807  0.10153000  0.36724440  1
  Ti  Ti134  1  0.39916033  0.80480179  0.25483614  1
  Ti  Ti135  1  0.49730621  0.48671282  0.85958474  1
  Ti  Ti136  1  0.19645017  0.00092819  0.73068827  1
  Ti  Ti137  1  0.19089957  0.39856286  0.74753645  1
  Ti  Ti138  1  0.89172831  0.49499704  0.64050317  1
  Ti  Ti139  1  0.59428548  0.42477107  0.00932079  1
  Ti  Ti140  1  0.60504941  0.79710723  -0.00377859  1
  Ti  Ti141  1  0.69729983  0.50782142  0.13029352  1
  Ti  Ti142  1  0.30165985  0.31123387  0.63441576  1
  Ti  Ti143  1  0.80554262  0.41298167  -0.01251829  1
  Ti  Ti144  1  0.48899770  0.29455865  0.86384128  1
  Ti  Ti145  1  0.30441053  0.90744775  0.37355295  1
  Ti  Ti146  1  0.50711211  0.89949487  0.88133207  1
  Ti  Ti147  1  0.59697008  -0.00952208  0.75513302  1
  Ti  Ti148  1  0.29758949  0.70167754  0.63027616  1
  Ti  Ti149  1  0.10815974  0.30049276  0.87488874  1
  Ti  Ti150  1  -0.00577945  0.39847138  0.50243720  1
  Ti  Ti151  1  0.89333886  0.89334029  0.37155230  1
  Ti  Ti152  1  -0.01042410  0.39136571  0.25258303  1
  Ti  Ti153  1  0.40699128  0.60428038  0.75422474  1
  Ti  Ti154  1  0.11671097  0.28704374  0.11580463  1
  Ti  Ti155  1  0.69391777  0.50935826  0.64842583  1
  Ti  Ti156  1  0.88124604  0.49234307  0.13380144  1
  Ti  Ti157  1  0.89923303  0.10300699  0.11679049  1
  Ti  Ti158  1  0.69355702  0.30916600  0.88000049  1
  Ti  Ti159  1  0.80285472  0.19890638  0.77168040  1
  Mo  Mo160  1  0.49495635  0.29957395  0.12411774  1
  Mo  Mo161  1  0.59053977  0.59987551  0.74726060  1
  Mo  Mo162  1  0.89681124  0.09783969  0.87414295  1
  Mo  Mo163  1  -0.00405462  0.39109631  0.74463921  1
  Mo  Mo164  1  0.79471738  0.40283048  0.24644043  1
  Mo  Mo165  1  0.69390416  0.70431118  0.88621859  1
  Mo  Mo166  1  0.88646674  0.49507595  0.87421877  1
  Mo  Mo167  1  0.90073922  0.70518549  0.37865825  1
  Mo  Mo168  1  0.30274211  0.30481235  0.37500950  1
  Mo  Mo169  1  0.70595422  0.69419296  0.62505799  1
  Mo  Mo170  1  0.50349908  0.10017472  0.11403743  1
  Mo  Mo171  1  0.60246623  0.00936256  0.23901367  1
  Mo  Mo172  1  0.09911516  0.89719420  0.12509058  1
  Mo  Mo173  1  0.59693882  0.60117257  0.01011705  1
  Mo  Mo174  1  0.20037094  0.59141718  0.24940171  1
  Mo  Mo175  1  0.39424499  0.39622704  0.75293836  1
  Mo  Mo176  1  0.59936672  0.39617308  0.75974378  1
  Mo  Mo177  1  0.10173520  0.69393434  0.87896669  1
  Mo  Mo178  1  0.49893731  0.49934020  0.12956288  1
  Mo  Mo179  1  0.18610511  0.61998685  0.74381700  1
  Mo  Mo180  1  0.10141084  0.08864403  0.62716438  1
  Mo  Mo181  1  -0.01749671  0.59359622  0.75236537  1
  Mo  Mo182  1  0.20632983  0.00360409  0.25858398  1
  Mo  Mo183  1  0.79403431  0.59699677  0.24883041  1
  Mo  Mo184  1  0.40008468  0.19310740  0.75019128  1
  Mo  Mo185  1  0.39789295  -0.00305171  0.49080933  1
  Mo  Mo186  1  0.39755651  0.19826459  -0.00534937  1
  Mo  Mo187  1  0.10327504  0.70334638  0.62174122  1
  Mo  Mo188  1  0.80445839  0.80953100  0.25138917  1
  Mo  Mo189  1  0.30238163  0.70192459  0.35940679  1
  Mo  Mo190  1  0.20709175  0.80367693  0.26310549  1
  Mo  Mo191  1  0.20613841  0.20887681  -0.00410097  1
  Mo  Mo192  1  0.40601151  0.20697714  0.49358867  1
  Mo  Mo193  1  0.78880980  0.60743936  0.74515332  1
  Mo  Mo194  1  0.29506481  0.30106364  0.12522119  1
  Mo  Mo195  1  0.80335272  0.00520754  0.77019749  1
  Mo  Mo196  1  0.59152542  0.81110620  0.25148440  1
  Mo  Mo197  1  0.00487920  0.39373764  0.00083653  1
  Mo  Mo198  1  0.39914484  0.80457078  0.49006489  1
  Mo  Mo199  1  0.90501772  0.89577893  0.87651171  1
