# generated using pymatgen
data_HfZrTaTiMo
_symmetry_space_group_name_H-M   'P 1'
_cell_length_a   15.21892334
_cell_length_b   15.21720974
_cell_length_c   16.84639653
_cell_angle_alpha   90.05065743
_cell_angle_beta   89.97497417
_cell_angle_gamma   89.93966859
_symmetry_Int_Tables_number   1
_chemical_formula_structural   HfZrTaTiMo
_chemical_formula_sum   'Hf40 Zr40 Ta40 Ti40 Mo40'
_cell_volume   3901.44530538
_cell_formula_units_Z   40
loop_
 _symmetry_equiv_pos_site_id
 _symmetry_equiv_pos_as_xyz
  1  'x, y, z'
loop_
 _atom_site_type_symbol
 _atom_site_label
 _atom_site_symmetry_multiplicity
 _atom_site_fract_x
 _atom_site_fract_y
 _atom_site_fract_z
 _atom_site_occupancy
  Hf  Hf0  1  0.90408099  0.50210325  0.38280047  1
  Hf  Hf1  1  0.31098791  0.89128765  0.62236967  1
  Hf  Hf2  1  0.62572606  0.39074600  0.51386808  1
  Hf  Hf3  1  0.91721757  0.89159185  0.62266990  1
  Hf  Hf4  1  0.50987018  0.50078152  0.37231958  1
  Hf  Hf5  1  0.49218170  0.29017277  0.88362817  1
  Hf  Hf6  1  0.50151779  0.71995494  0.11664546  1
  Hf  Hf7  1  0.78611720  0.21583257  0.49611807  1
  Hf  Hf8  1  0.59784403  0.39040582  0.74535006  1
  Hf  Hf9  1  0.00955150  0.80671209  0.25166401  1
  Hf  Hf10  1  0.38179987  0.20021910  0.50034804  1
  Hf  Hf11  1  0.89943212  0.30113035  0.37549349  1
  Hf  Hf12  1  0.81318559  0.01327363  -0.01543187  1
  Hf  Hf13  1  0.11246167  0.50374313  0.62609766  1
  Hf  Hf14  1  0.70105874  0.49847181  0.88210108  1
  Hf  Hf15  1  0.59061504  0.80758189  0.49830882  1
  Hf  Hf16  1  0.58970349  0.59716909  0.74693635  1
  Hf  Hf17  1  0.47867861  0.70544328  0.63369245  1
  Hf  Hf18  1  0.90420871  0.28914668  0.62981821  1
  Hf  Hf19  1  -0.01222142  0.18712273  -0.00655773  1
  Hf  Hf20  1  0.29263475  0.30333100  0.88694351  1
  Hf  Hf21  1  0.51135878  0.90702647  0.62757881  1
  Hf  Hf22  1  0.20065553  0.59218176  0.24275781  1
  Hf  Hf23  1  0.59721723  0.39996563  0.23775161  1
  Hf  Hf24  1  0.79813967  0.01732979  0.48718930  1
  Hf  Hf25  1  0.00019325  0.60106507  0.25130879  1
  Hf  Hf26  1  0.38521281  0.80507038  0.76911547  1
  Hf  Hf27  1  0.49766397  0.50000947  0.89067199  1
  Hf  Hf28  1  0.51658638  0.91256291  0.88112341  1
  Hf  Hf29  1  0.90055515  0.90513570  0.12737952  1
  Hf  Hf30  1  0.30052589  0.70096137  0.35840443  1
  Hf  Hf31  1  0.69530084  0.29423754  0.87578436  1
  Hf  Hf32  1  0.49838696  0.28714441  0.62975771  1
  Hf  Hf33  1  0.50400265  0.50431265  0.10744054  1
  Hf  Hf34  1  0.30032465  0.48647727  0.10432147  1
  Hf  Hf35  1  0.89580916  0.29658667  0.85917081  1
  Hf  Hf36  1  0.71299153  0.91356772  0.63272643  1
  Hf  Hf37  1  0.49499880  0.70211406  0.88263694  1
  Hf  Hf38  1  0.29787066  0.87947301  0.13947040  1
  Hf  Hf39  1  0.90189292  0.50297446  0.11772025  1
  Zr  Zr40  1  0.40542874  0.60023551  0.23662840  1
  Zr  Zr41  1  0.11188992  0.30111428  0.36117251  1
  Zr  Zr42  1  0.10871696  0.91086199  0.61374733  1
  Zr  Zr43  1  0.18839263  0.18998988  0.00494342  1
  Zr  Zr44  1  0.79761191  0.58393013  0.52402080  1
  Zr  Zr45  1  0.00105470  0.61155685  0.74882910  1
  Zr  Zr46  1  0.80061950  0.40588521  0.24732613  1
  Zr  Zr47  1  0.70652005  0.08656184  0.12414540  1
  Zr  Zr48  1  0.10061231  0.71323828  0.62019605  1
  Zr  Zr49  1  0.89691920  0.08682515  0.63429286  1
  Zr  Zr50  1  0.90113437  0.50665544  0.88019867  1
  Zr  Zr51  1  0.80325246  0.60431070  0.73486891  1
  Zr  Zr52  1  0.79669873  0.40501504  0.72539251  1
  Zr  Zr53  1  0.37879043  0.60423257  0.49640664  1
  Zr  Zr54  1  0.47100451  0.29843259  0.35378757  1
  Zr  Zr55  1  0.10978670  0.70846531  0.12102617  1
  Zr  Zr56  1  0.22221601  0.79551462  0.49114121  1
  Zr  Zr57  1  0.91232684  0.90504232  0.38621500  1
  Zr  Zr58  1  0.69816718  0.68966063  0.38000285  1
  Zr  Zr59  1  0.41527870  0.01238541  0.75733828  1
  Zr  Zr60  1  -0.00112927  0.38261679  -0.00414546  1
  Zr  Zr61  1  0.39949442  0.01676658  0.24346119  1
  Zr  Zr62  1  0.00594899  0.39107549  0.50823085  1
  Zr  Zr63  1  0.59044839  0.18490124  0.01116384  1
  Zr  Zr64  1  0.41081264  0.39944000  0.50429745  1
  Zr  Zr65  1  0.10767119  0.50313417  0.88624788  1
  Zr  Zr66  1  -0.00080079  0.79304610  -0.01144605  1
  Zr  Zr67  1  0.50793436  0.09745561  0.37690495  1
  Zr  Zr68  1  0.09619894  0.09914637  0.36719077  1
  Zr  Zr69  1  0.59090009  0.59751015  0.51209233  1
  Zr  Zr70  1  0.69731678  0.70720309  0.87113056  1
  Zr  Zr71  1  0.39401258  -0.00893129  0.48860898  1
  Zr  Zr72  1  0.21389166  -0.00819372  0.75462678  1
  Zr  Zr73  1  0.80336756  0.79368027  0.50250172  1
  Zr  Zr74  1  0.09651385  0.08663670  0.86502292  1
  Zr  Zr75  1  0.21462394  0.39931259  0.50315683  1
  Zr  Zr76  1  0.61307150  0.60444319  0.24245398  1
  Zr  Zr77  1  0.78556222  0.19460678  0.26191243  1
  Zr  Zr78  1  0.10195134  0.49436495  0.10825721  1
  Zr  Zr79  1  0.79168739  0.81430248  -0.01161060  1
  Ta  Ta80  1  0.39420145  0.81652818  -0.00640950  1
  Ta  Ta81  1  0.10097025  0.10369628  0.63164836  1
  Ta  Ta82  1  0.69875759  0.29911923  0.12301990  1
  Ta  Ta83  1  0.50694317  0.90916431  0.12338805  1
  Ta  Ta84  1  0.60630215  0.00023213  0.24825852  1
  Ta  Ta85  1  0.30290774  0.50448981  0.88999410  1
  Ta  Ta86  1  0.10649962  0.29177181  0.64529618  1
  Ta  Ta87  1  0.09289396  0.08880440  0.13139436  1
  Ta  Ta88  1  0.91630843  0.91502001  0.86208891  1
  Ta  Ta89  1  0.68974582  0.90868156  0.37628410  1
  Ta  Ta90  1  0.90138230  0.10274218  0.13028351  1
  Ta  Ta91  1  0.09806018  0.29148293  0.13471143  1
  Ta  Ta92  1  0.01127282  -0.00548947  0.00219813  1
  Ta  Ta93  1  0.57899604  0.19212754  0.23135318  1
  Ta  Ta94  1  0.79770448  0.20657134  -0.00127469  1
  Ta  Ta95  1  0.30586574  0.50727757  0.63774961  1
  Ta  Ta96  1  0.47876240  0.30565351  0.12324679  1
  Ta  Ta97  1  0.89795787  0.29467509  0.13057743  1
  Ta  Ta98  1  0.79861045  0.79906862  0.25714010  1
  Ta  Ta99  1  0.09972424  0.29603689  0.85417814  1
  Ta  Ta100  1  0.29449947  0.30213942  0.63814986  1
  Ta  Ta101  1  0.69218247  0.71277840  0.63475450  1
  Ta  Ta102  1  0.30391564  0.48152409  0.36261430  1
  Ta  Ta103  1  0.38676240  0.61836847  0.00644100  1
  Ta  Ta104  1  0.59926084  0.80670658  0.25410332  1
  Ta  Ta105  1  0.68560994  0.08914766  0.87087621  1
  Ta  Ta106  1  0.81519232  0.80239620  0.75611240  1
  Ta  Ta107  1  0.39732590  0.40707833  0.75607871  1
  Ta  Ta108  1  0.60485133  0.39300482  0.00848290  1
  Ta  Ta109  1  0.81199727  0.61409041  -0.00060313  1
  Ta  Ta110  1  0.10920850  0.50672749  0.38050010  1
  Ta  Ta111  1  0.20736466  -0.01337722  0.00733332  1
  Ta  Ta112  1  0.10981905  0.89899556  0.38396044  1
  Ta  Ta113  1  0.00122363  0.60947985  0.50635360  1
  Ta  Ta114  1  0.80253128  -0.00170123  0.26581983  1
  Ta  Ta115  1  0.68573074  0.10351167  0.62879892  1
  Ta  Ta116  1  0.90542360  0.69912843  0.37749071  1
  Ta  Ta117  1  0.18920463  0.20237833  0.50653848  1
  Ta  Ta118  1  0.38765042  0.20207850  0.75343172  1
  Ta  Ta119  1  0.80499669  0.60633823  0.24788781  1
  Ti  Ti120  1  0.30109234  0.89865585  0.35472777  1
  Ti  Ti121  1  0.38889887  0.19253151  0.01907957  1
  Ti  Ti122  1  0.20532716  0.60583393  0.76134889  1
  Ti  Ti123  1  0.49251034  0.49939968  0.63102603  1
  Ti  Ti124  1  0.20300145  0.01681908  0.49353481  1
  Ti  Ti125  1  0.20787062  0.79402700  -0.00099639  1
  Ti  Ti126  1  0.29265314  0.11920416  0.36101262  1
  Ti  Ti127  1  0.19030543  -0.00722650  0.24267022  1
  Ti  Ti128  1  0.58298954  0.18136432  0.75419165  1
  Ti  Ti129  1  0.49481146  0.70671429  0.37088663  1
  Ti  Ti130  1  0.20611959  0.40340606  0.75455304  1
  Ti  Ti131  1  0.11938295  0.88779659  0.87287932  1
  Ti  Ti132  1  0.67536168  0.29494898  0.36682551  1
  Ti  Ti133  1  0.29418492  0.10367235  0.62784426  1
  Ti  Ti134  1  0.89786579  0.70359340  0.12637171  1
  Ti  Ti135  1  0.60427867  0.81094052  0.75271218  1
  Ti  Ti136  1  0.00176899  0.40887395  0.74402008  1
  Ti  Ti137  1  0.60985795  -0.01358966  0.00488294  1
  Ti  Ti138  1  0.28632153  0.70189987  0.87764159  1
  Ti  Ti139  1  0.79901225  0.39637271  0.00475721  1
  Ti  Ti140  1  0.61105095  0.61245365  0.00291297  1
  Ti  Ti141  1  -0.00603055  0.19796672  0.24991229  1
  Ti  Ti142  1  -0.00390429  0.18305046  0.49982170  1
  Ti  Ti143  1  0.40301343  0.00791783  0.00867004  1
  Ti  Ti144  1  0.70811230  0.50743330  0.11477443  1
  Ti  Ti145  1  0.21830376  0.38194143  0.24206493  1
  Ti  Ti146  1  0.00792138  0.40439213  0.24852733  1
  Ti  Ti147  1  0.71020082  0.48672484  0.37898326  1
  Ti  Ti148  1  0.30882558  0.09604563  0.88311034  1
  Ti  Ti149  1  0.78380021  0.18943033  0.75056648  1
  Ti  Ti150  1  -0.00377726  0.00201897  0.25064478  1
  Ti  Ti151  1  0.70101602  0.89147382  0.13263158  1
  Ti  Ti152  1  0.49307926  0.89441166  0.36868367  1
  Ti  Ti153  1  0.28990061  0.69376306  0.63679404  1
  Ti  Ti154  1  -0.00224271  0.18642270  0.75297315  1
  Ti  Ti155  1  0.01272443  0.80231939  0.76128431  1
  Ti  Ti156  1  0.70703435  0.70757407  0.12304144  1
  Ti  Ti157  1  0.10108677  0.70036616  0.38170276  1
  Ti  Ti158  1  0.49475628  0.09525449  0.61578111  1
  Ti  Ti159  1  0.59597873  0.19188886  0.49910165  1
  Mo  Mo160  1  0.38879104  0.59559014  0.75817754  1
  Mo  Mo161  1  0.60357299  0.00517852  0.50032796  1
  Mo  Mo162  1  0.68845537  0.49950828  0.63162707  1
  Mo  Mo163  1  0.20529679  0.19895071  0.75262766  1
  Mo  Mo164  1  0.01353685  0.01111713  0.49847384  1
  Mo  Mo165  1  0.19816100  0.59398846  0.49353990  1
  Mo  Mo166  1  0.00649457  0.79851674  0.48918404  1
  Mo  Mo167  1  0.20072574  0.18749800  0.23141992  1
  Mo  Mo168  1  0.59931610  0.80731807  0.00533644  1
  Mo  Mo169  1  0.90478197  0.70776657  0.87389939  1
  Mo  Mo170  1  0.29090771  0.09036187  0.12307393  1
  Mo  Mo171  1  0.91350980  0.49950549  0.61767745  1
  Mo  Mo172  1  0.39234744  0.40470558  0.24094281  1
  Mo  Mo173  1  0.69363970  0.28149678  0.63429398  1
  Mo  Mo174  1  0.09824658  0.90599634  0.12407131  1
  Mo  Mo175  1  0.00684005  -0.00721957  0.75086440  1
  Mo  Mo176  1  0.40434867  0.79696841  0.49451361  1
  Mo  Mo177  1  0.80337041  0.00178723  0.76064659  1
  Mo  Mo178  1  0.37474871  0.20963312  0.22505824  1
  Mo  Mo179  1  0.40985048  0.80521505  0.25020690  1
  Mo  Mo180  1  0.69151435  0.10313267  0.37037729  1
  Mo  Mo181  1  0.30151036  0.69932555  0.12377033  1
  Mo  Mo182  1  0.40482760  0.39809207  -0.00567971  1
  Mo  Mo183  1  0.19560264  0.38937839  -0.00563902  1
  Mo  Mo184  1  0.80814179  0.39819793  0.51948119  1
  Mo  Mo185  1  0.10522528  0.70072684  0.87828390  1
  Mo  Mo186  1  0.28830050  0.29909850  0.10785874  1
  Mo  Mo187  1  0.30297749  0.90497716  0.88895207  1
  Mo  Mo188  1  0.90029745  0.70922563  0.62547181  1
  Mo  Mo189  1  0.19730214  0.79216364  0.75757344  1
  Mo  Mo190  1  0.29036630  0.29091172  0.37023821  1
  Mo  Mo191  1  0.60718606  0.00671175  0.75047781  1
  Mo  Mo192  1  0.49356467  0.10424890  0.88463132  1
  Mo  Mo193  1  0.90188235  0.10563674  0.37173524  1
  Mo  Mo194  1  0.70838171  0.90536062  0.86254751  1
  Mo  Mo195  1  -0.00635889  0.60698416  -0.00037256  1
  Mo  Mo196  1  0.49704562  0.09545976  0.12336596  1
  Mo  Mo197  1  0.89276927  0.10368406  0.86301858  1
  Mo  Mo198  1  0.19804839  0.80113531  0.26140274  1
  Mo  Mo199  1  0.19915216  0.60828137  -0.00489322  1
