# generated using pymatgen
data_HfZrTaTiMo
_symmetry_space_group_name_H-M   'P 1'
_cell_length_a   15.22202262
_cell_length_b   15.19958979
_cell_length_c   16.86212423
_cell_angle_alpha   90.00357857
_cell_angle_beta   89.98793077
_cell_angle_gamma   89.93734908
_symmetry_Int_Tables_number   1
_chemical_formula_structural   HfZrTaTiMo
_chemical_formula_sum   'Hf40 Zr40 Ta40 Ti40 Mo40'
_cell_volume   3901.36195661
_cell_formula_units_Z   40
loop_
 _symmetry_equiv_pos_site_id
 _symmetry_equiv_pos_as_xyz
  1  'x, y, z'
loop_
 _atom_site_type_symbol
 _atom_site_label
 _atom_site_symmetry_multiplicity
 _atom_site_fract_x
 _atom_site_fract_y
 _atom_site_fract_z
 _atom_site_occupancy
  Hf  Hf0  1  0.50452705  0.88177108  0.11103391  1
  Hf  Hf1  1  0.19241115  0.40429460  -0.00133786  1
  Hf  Hf2  1  0.00369960  -0.00183356  0.23675895  1
  Hf  Hf3  1  0.19467097  0.59405623  0.48778588  1
  Hf  Hf4  1  0.60661092  0.61107866  0.24834112  1
  Hf  Hf5  1  0.00994912  0.01029365  0.01257364  1
  Hf  Hf6  1  0.69423087  0.70323115  0.65403263  1
  Hf  Hf7  1  0.39691499  0.41321338  0.74833277  1
  Hf  Hf8  1  0.31856161  0.91105874  0.37554281  1
  Hf  Hf9  1  0.89111629  0.89187582  0.10815015  1
  Hf  Hf10  1  0.48967429  0.08073192  0.37995118  1
  Hf  Hf11  1  0.89832286  0.32742317  0.12345061  1
  Hf  Hf12  1  0.50180037  0.49773001  0.37989422  1
  Hf  Hf13  1  -0.00677675  0.80289140  0.51476094  1
  Hf  Hf14  1  0.00568797  0.80478669  0.74416211  1
  Hf  Hf15  1  0.90873566  0.89926552  0.37433017  1
  Hf  Hf16  1  -0.00307824  0.20407456  0.24355941  1
  Hf  Hf17  1  0.19559306  0.61189982  0.02002270  1
  Hf  Hf18  1  0.78277277  0.21554277  0.01205532  1
  Hf  Hf19  1  0.50631536  0.50274101  0.11377503  1
  Hf  Hf20  1  0.89538246  0.67956796  0.12888598  1
  Hf  Hf21  1  0.89086277  0.10898725  0.87971074  1
  Hf  Hf22  1  0.78777796  0.39706672  0.51089517  1
  Hf  Hf23  1  0.89152727  0.31279179  0.87663265  1
  Hf  Hf24  1  0.10017155  0.89231830  0.88305671  1
  Hf  Hf25  1  0.29654304  0.92011209  0.87107079  1
  Hf  Hf26  1  0.31599256  0.91186532  0.13316861  1
  Hf  Hf27  1  0.39196756  0.19856583  0.26045297  1
  Hf  Hf28  1  0.69322655  0.09048731  0.36973778  1
  Hf  Hf29  1  0.19635182  0.41795869  0.75392509  1
  Hf  Hf30  1  0.89013135  0.10293192  0.36628004  1
  Hf  Hf31  1  0.20226046  0.19343885  -0.00041837  1
  Hf  Hf32  1  0.70248280  0.50661905  0.37757404  1
  Hf  Hf33  1  0.90302599  0.49936997  0.38874129  1
  Hf  Hf34  1  0.01087425  0.77803598  0.00660960  1
  Hf  Hf35  1  0.31304472  0.70478884  0.37628645  1
  Hf  Hf36  1  0.11449404  0.89034215  0.12117597  1
  Hf  Hf37  1  0.11664980  0.08728484  0.86420561  1
  Hf  Hf38  1  0.49840453  0.68394428  0.64092331  1
  Hf  Hf39  1  0.58751351  0.39333124  0.73981932  1
  Zr  Zr40  1  0.69555824  0.27619175  0.86022876  1
  Zr  Zr41  1  -0.00274796  0.20192469  0.74648542  1
  Zr  Zr42  1  0.60643449  0.18974676  0.50369319  1
  Zr  Zr43  1  0.80049513  0.39175400  0.73085236  1
  Zr  Zr44  1  -0.01034553  -0.00078636  0.74268402  1
  Zr  Zr45  1  0.49993756  0.30647246  0.88749662  1
  Zr  Zr46  1  0.79147907  -0.00364742  0.23711833  1
  Zr  Zr47  1  -0.00899603  0.00800303  0.51107570  1
  Zr  Zr48  1  0.68897727  0.70677181  0.10993377  1
  Zr  Zr49  1  0.19944543  0.60121275  0.25523484  1
  Zr  Zr50  1  0.02678366  0.58913276  0.73490734  1
  Zr  Zr51  1  0.30356809  0.51956877  0.88526959  1
  Zr  Zr52  1  0.80561386  0.18185110  0.51068773  1
  Zr  Zr53  1  0.09240540  0.48871481  0.14068132  1
  Zr  Zr54  1  0.69323989  0.07254021  0.88206949  1
  Zr  Zr55  1  0.88665445  0.91064435  0.88968307  1
  Zr  Zr56  1  0.30461662  0.92279064  0.62347127  1
  Zr  Zr57  1  0.88013909  0.69689821  0.37433905  1
  Zr  Zr58  1  0.50746644  0.89149097  0.63736265  1
  Zr  Zr59  1  0.70314918  0.48590076  0.86734230  1
  Zr  Zr60  1  0.89024135  0.70184727  0.64397846  1
  Zr  Zr61  1  0.00343003  0.21075437  0.00740007  1
  Zr  Zr62  1  0.11912705  0.68559756  0.86922112  1
  Zr  Zr63  1  0.20199078  0.00782569  0.25901640  1
  Zr  Zr64  1  0.11242185  0.30896982  0.62029327  1
  Zr  Zr65  1  0.30185657  0.71660010  0.61093851  1
  Zr  Zr66  1  -0.00208637  0.57267336  -0.00254004  1
  Zr  Zr67  1  0.08881743  0.71141545  0.37822548  1
  Zr  Zr68  1  0.50286699  0.30085716  0.38545676  1
  Zr  Zr69  1  0.48789023  0.29615055  0.12115694  1
  Zr  Zr70  1  0.09915026  0.30364502  0.86890272  1
  Zr  Zr71  1  0.89909304  0.69568743  0.85852105  1
  Zr  Zr72  1  0.60660391  0.38975181  0.24312850  1
  Zr  Zr73  1  0.11489478  0.10583720  0.62140585  1
  Zr  Zr74  1  0.72561854  0.49783795  0.12697047  1
  Zr  Zr75  1  0.40585209  0.63067340  0.00940644  1
  Zr  Zr76  1  0.49381388  0.30855213  0.60185874  1
  Zr  Zr77  1  0.79034306  0.79435695  0.24504344  1
  Zr  Zr78  1  0.30453227  0.49911293  0.61170000  1
  Zr  Zr79  1  0.48655278  0.09302558  0.61764114  1
  Ta  Ta80  1  0.22327641  0.80011319  0.00265994  1
  Ta  Ta81  1  0.22413162  0.19585075  0.75301862  1
  Ta  Ta82  1  0.90277934  0.49666163  0.61750683  1
  Ta  Ta83  1  0.30759967  0.49792506  0.12672569  1
  Ta  Ta84  1  0.70072383  0.88911009  0.37885133  1
  Ta  Ta85  1  0.30718304  0.30521359  0.87932758  1
  Ta  Ta86  1  0.68706202  0.09446989  0.12104489  1
  Ta  Ta87  1  0.49511199  0.10503507  0.87035956  1
  Ta  Ta88  1  0.30579686  0.71631066  0.13909565  1
  Ta  Ta89  1  0.29618644  0.11277308  0.13201542  1
  Ta  Ta90  1  -0.00060132  0.40297597  0.73688147  1
  Ta  Ta91  1  0.19288115  0.20885822  0.26322759  1
  Ta  Ta92  1  0.40853255  0.21272363  0.74816603  1
  Ta  Ta93  1  0.37342941  0.18997184  0.48582651  1
  Ta  Ta94  1  0.40889388  0.59875061  0.49623595  1
  Ta  Ta95  1  0.00508016  0.79588162  0.24030518  1
  Ta  Ta96  1  -0.00136343  0.59872505  0.51045880  1
  Ta  Ta97  1  0.62081872  0.38663984  0.00819117  1
  Ta  Ta98  1  0.89061168  0.10607540  0.12210345  1
  Ta  Ta99  1  0.70681132  0.29598100  0.37555478  1
  Ta  Ta100  1  0.58446100  0.78839957  -0.02638251  1
  Ta  Ta101  1  0.21015225  0.01456722  0.48631625  1
  Ta  Ta102  1  0.29991357  0.29289889  0.61469373  1
  Ta  Ta103  1  0.60720827  0.78822924  0.50541782  1
  Ta  Ta104  1  0.79072035  0.80257385  0.50863562  1
  Ta  Ta105  1  0.40699906  0.60299289  0.24389134  1
  Ta  Ta106  1  0.90940384  0.29069282  0.61248093  1
  Ta  Ta107  1  0.58456785  0.18409881  0.00875150  1
  Ta  Ta108  1  0.59201765  -0.01501004  0.24405990  1
  Ta  Ta109  1  0.80146902  0.59225409  -0.01177616  1
  Ta  Ta110  1  0.39191053  0.79612730  0.76383407  1
  Ta  Ta111  1  0.59815728  0.18731703  0.24522476  1
  Ta  Ta112  1  0.40208943  0.01516475  -0.00355131  1
  Ta  Ta113  1  0.78818112  0.21131721  0.23983959  1
  Ta  Ta114  1  0.69676612  0.68747110  0.85699318  1
  Ta  Ta115  1  0.79053754  0.60778749  0.51492883  1
  Ta  Ta116  1  0.41766812  0.79974116  0.25491224  1
  Ta  Ta117  1  0.01359494  0.40000806  0.49536708  1
  Ta  Ta118  1  0.08722805  0.10041771  0.38048572  1
  Ta  Ta119  1  0.11023037  0.90150083  0.62265371  1
  Ti  Ti120  1  0.59413623  0.80628430  0.77188016  1
  Ti  Ti121  1  0.78662302  0.82758075  0.76431596  1
  Ti  Ti122  1  0.51243613  0.69935345  0.37976382  1
  Ti  Ti123  1  0.60266027  0.80038055  0.25136921  1
  Ti  Ti124  1  0.60843667  0.59762405  -0.00851533  1
  Ti  Ti125  1  0.39156290  0.20451959  0.00203336  1
  Ti  Ti126  1  0.60371020  0.17320647  0.73751723  1
  Ti  Ti127  1  0.20230748  0.80938718  0.74670540  1
  Ti  Ti128  1  0.60327421  0.59709964  0.50622648  1
  Ti  Ti129  1  0.19552932  0.81708511  0.48969525  1
  Ti  Ti130  1  0.69444708  0.90453246  0.09228275  1
  Ti  Ti131  1  0.39602931  0.40390382  0.25069559  1
  Ti  Ti132  1  0.50152774  0.91394394  0.87407840  1
  Ti  Ti133  1  0.78941230  0.78767801  -0.01687726  1
  Ti  Ti134  1  0.49042958  0.68515235  0.86032379  1
  Ti  Ti135  1  0.41459474  0.80352786  0.49885163  1
  Ti  Ti136  1  0.78986769  -0.00970975  0.50702575  1
  Ti  Ti137  1  0.20558476  0.39672446  0.47877025  1
  Ti  Ti138  1  0.19941769  0.80545352  0.26028583  1
  Ti  Ti139  1  0.39068276  0.01961485  0.75394831  1
  Ti  Ti140  1  0.90761661  0.49931201  0.86012625  1
  Ti  Ti141  1  -0.00593736  0.59608515  0.25635394  1
  Ti  Ti142  1  0.00617720  0.39869128  0.27017363  1
  Ti  Ti143  1  0.29615303  0.30956260  0.12684493  1
  Ti  Ti144  1  0.51307894  0.89202867  0.37970492  1
  Ti  Ti145  1  0.30845186  0.49760679  0.37363189  1
  Ti  Ti146  1  0.87679468  0.90969944  0.63337573  1
  Ti  Ti147  1  0.60360048  -0.01808119  0.50667178  1
  Ti  Ti148  1  0.20249174  0.39553463  0.26563239  1
  Ti  Ti149  1  0.23007376  0.61558416  0.74143566  1
  Ti  Ti150  1  0.48791859  0.08606569  0.13043317  1
  Ti  Ti151  1  0.20897168  0.00486496  0.00972627  1
  Ti  Ti152  1  0.90132350  0.29469164  0.38647624  1
  Ti  Ti153  1  0.50046219  0.49762837  0.88996119  1
  Ti  Ti154  1  0.69849456  0.28274151  0.62960757  1
  Ti  Ti155  1  0.18938014  0.20923148  0.47644243  1
  Ti  Ti156  1  0.81057997  0.40258819  0.26184565  1
  Ti  Ti157  1  0.10760925  0.29665349  0.13018853  1
  Ti  Ti158  1  0.11281219  0.70080521  0.61814113  1
  Ti  Ti159  1  0.68782553  0.50703198  0.63352911  1
  Mo  Mo160  1  0.41161568  -0.00244837  0.24541497  1
  Mo  Mo161  1  0.00188048  0.20416054  0.49636883  1
  Mo  Mo162  1  0.40178822  0.59891675  0.75105338  1
  Mo  Mo163  1  0.10391764  0.50430197  0.61356063  1
  Mo  Mo164  1  0.69179510  0.88970853  0.89013477  1
  Mo  Mo165  1  0.09718719  0.49891929  0.36997899  1
  Mo  Mo166  1  0.80277124  0.59334142  0.25776896  1
  Mo  Mo167  1  0.80832359  0.41166580  -0.00620127  1
  Mo  Mo168  1  0.10151465  0.90299518  0.38026915  1
  Mo  Mo169  1  0.69533710  0.29536272  0.12881470  1
  Mo  Mo170  1  0.31170670  0.11341214  0.87516631  1
  Mo  Mo171  1  0.79978776  0.18580772  0.73323979  1
  Mo  Mo172  1  0.78450667  0.00567124  0.74817721  1
  Mo  Mo173  1  0.68954479  0.70212603  0.38522715  1
  Mo  Mo174  1  0.90355110  0.50052309  0.13735019  1
  Mo  Mo175  1  0.29801918  0.30865394  0.37134954  1
  Mo  Mo176  1  0.09820950  0.49383044  0.87284919  1
  Mo  Mo177  1  0.10547200  0.70338902  0.13980651  1
  Mo  Mo178  1  0.30162188  0.71569101  0.87297594  1
  Mo  Mo179  1  0.09114750  0.30127999  0.37437404  1
  Mo  Mo180  1  -0.00110115  0.39918635  -0.00331661  1
  Mo  Mo181  1  0.59157639  0.58530804  0.76062466  1
  Mo  Mo182  1  0.60513349  0.40748699  0.50845808  1
  Mo  Mo183  1  0.59131225  -0.00956874  0.75428703  1
  Mo  Mo184  1  0.69628282  0.89234205  0.62990623  1
  Mo  Mo185  1  0.89346962  0.09886161  0.62982222  1
  Mo  Mo186  1  0.69693975  0.07320622  0.63119393  1
  Mo  Mo187  1  0.49848090  0.70345947  0.12633796  1
  Mo  Mo188  1  0.39975902  0.81410963  -0.01726248  1
  Mo  Mo189  1  0.39761968  0.40490158  0.00418698  1
  Mo  Mo190  1  0.40409243  -0.00396289  0.49881792  1
  Mo  Mo191  1  0.39141647  0.40216560  0.49104998  1
  Mo  Mo192  1  0.80381839  0.58819873  0.74475845  1
  Mo  Mo193  1  0.10753851  0.10737756  0.12968392  1
  Mo  Mo194  1  0.29413752  0.10386065  0.36922129  1
  Mo  Mo195  1  0.50371164  0.50017422  0.61175410  1
  Mo  Mo196  1  0.58643263  -0.00126384  0.00337340  1
  Mo  Mo197  1  0.29902494  0.11515037  0.62005504  1
  Mo  Mo198  1  0.20058203  0.00072200  0.74616304  1
  Mo  Mo199  1  0.79799458  0.00642822  0.01394260  1
