# generated using pymatgen
data_HfZrTaTiMo
_symmetry_space_group_name_H-M   'P 1'
_cell_length_a   15.21218121
_cell_length_b   15.21514972
_cell_length_c   16.84251819
_cell_angle_alpha   89.96821534
_cell_angle_beta   90.04074103
_cell_angle_gamma   90.08634059
_symmetry_Int_Tables_number   1
_chemical_formula_structural   HfZrTaTiMo
_chemical_formula_sum   'Hf40 Zr40 Ta40 Ti40 Mo40'
_cell_volume   3898.28939324
_cell_formula_units_Z   40
loop_
 _symmetry_equiv_pos_site_id
 _symmetry_equiv_pos_as_xyz
  1  'x, y, z'
loop_
 _atom_site_type_symbol
 _atom_site_label
 _atom_site_symmetry_multiplicity
 _atom_site_fract_x
 _atom_site_fract_y
 _atom_site_fract_z
 _atom_site_occupancy
  Hf  Hf0  1  0.29544250  0.69572809  0.62112887  1
  Hf  Hf1  1  0.70353302  0.08954742  0.87777042  1
  Hf  Hf2  1  0.60463909  0.19301805  0.74443439  1
  Hf  Hf3  1  0.58231854  0.38137840  0.26196056  1
  Hf  Hf4  1  0.78480722  0.58918900  0.50462076  1
  Hf  Hf5  1  0.08677262  0.50033050  0.60850763  1
  Hf  Hf6  1  0.30459444  0.90561574  0.12840864  1
  Hf  Hf7  1  0.67657937  0.10508262  0.12170150  1
  Hf  Hf8  1  0.60591970  0.41210303  0.49740652  1
  Hf  Hf9  1  0.20532599  0.20401190  0.74029007  1
  Hf  Hf10  1  0.52067419  0.88838848  0.63545535  1
  Hf  Hf11  1  0.68801378  0.71083870  0.62701658  1
  Hf  Hf12  1  0.09039473  0.30362305  0.61480392  1
  Hf  Hf13  1  0.09982694  0.68508912  0.87512413  1
  Hf  Hf14  1  0.11079055  0.31632689  0.87180444  1
  Hf  Hf15  1  0.50601213  0.68637514  0.10909314  1
  Hf  Hf16  1  0.39705641  0.38933071  -0.00791162  1
  Hf  Hf17  1  0.20409523  0.79229613  0.00022568  1
  Hf  Hf18  1  0.21597226  0.20489540  0.01404602  1
  Hf  Hf19  1  0.80694735  0.19707472  0.01020593  1
  Hf  Hf20  1  0.69519441  0.69123507  0.38020268  1
  Hf  Hf21  1  0.40672108  0.79078326  0.74565410  1
  Hf  Hf22  1  0.10839653  0.69390721  0.13410071  1
  Hf  Hf23  1  0.88598532  0.90312426  0.88968267  1
  Hf  Hf24  1  0.39152745  0.77891099  0.24081093  1
  Hf  Hf25  1  0.08314054  0.29765470  0.36464625  1
  Hf  Hf26  1  0.60043232  0.00427223  0.25948381  1
  Hf  Hf27  1  0.78607657  0.40323736  0.24646398  1
  Hf  Hf28  1  0.80549600  0.40809644  -0.00204306  1
  Hf  Hf29  1  -0.01348300  0.60167539  0.74256386  1
  Hf  Hf30  1  0.90797935  0.30710390  0.87712990  1
  Hf  Hf31  1  0.10567909  0.90536337  0.13879114  1
  Hf  Hf32  1  0.80320526  0.60099377  0.23298336  1
  Hf  Hf33  1  0.18977809  0.19175298  0.48792640  1
  Hf  Hf34  1  0.09117531  0.89497822  0.87662960  1
  Hf  Hf35  1  0.19410516  0.60602972  0.49261013  1
  Hf  Hf36  1  0.30067596  0.69357345  0.86713294  1
  Hf  Hf37  1  0.09651183  0.92003289  0.35577915  1
  Hf  Hf38  1  0.80672990  0.00264861  0.22778022  1
  Hf  Hf39  1  0.29823438  0.30870768  0.61045842  1
  Zr  Zr40  1  0.73005467  0.10508376  0.37663288  1
  Zr  Zr41  1  0.09090813  0.09051711  0.62529482  1
  Zr  Zr42  1  0.40669395  -0.00578324  0.26281616  1
  Zr  Zr43  1  0.38927076  0.40539890  0.74711744  1
  Zr  Zr44  1  0.52065190  0.11130723  0.39496506  1
  Zr  Zr45  1  0.50461226  0.89643853  0.87291528  1
  Zr  Zr46  1  0.20013344  0.00324789  -0.00060183  1
  Zr  Zr47  1  0.19741020  0.40391830  0.48322494  1
  Zr  Zr48  1  0.51172594  0.90529261  0.11015719  1
  Zr  Zr49  1  0.49407927  0.29270965  0.86375317  1
  Zr  Zr50  1  0.46981688  0.10246825  0.10119792  1
  Zr  Zr51  1  0.27670950  0.49366098  0.87239573  1
  Zr  Zr52  1  0.20344394  0.60527201  0.25905667  1
  Zr  Zr53  1  0.30424875  0.09669731  0.87080712  1
  Zr  Zr54  1  0.49756539  0.08961950  0.88076583  1
  Zr  Zr55  1  0.89054292  0.49303092  0.38413064  1
  Zr  Zr56  1  -0.00111071  0.19587405  0.75411274  1
  Zr  Zr57  1  0.50632698  0.30991170  0.62329389  1
  Zr  Zr58  1  0.90155990  0.69627980  0.88509087  1
  Zr  Zr59  1  0.41080198  -0.02034861  0.49742791  1
  Zr  Zr60  1  0.59022939  0.61362610  0.75963054  1
  Zr  Zr61  1  -0.00197247  0.82270845  0.49799143  1
  Zr  Zr62  1  0.28817589  0.49597855  0.13868170  1
  Zr  Zr63  1  0.89437245  0.71246927  0.37771813  1
  Zr  Zr64  1  0.01335392  0.22007869  0.00954800  1
  Zr  Zr65  1  0.71437340  0.89396419  0.37479285  1
  Zr  Zr66  1  0.29979027  0.09456864  0.38265593  1
  Zr  Zr67  1  0.60475170  0.41737414  0.76732798  1
  Zr  Zr68  1  0.89678649  0.30262649  0.62375498  1
  Zr  Zr69  1  -0.01039717  0.01276335  0.01614820  1
  Zr  Zr70  1  0.49889874  0.47644140  0.11991662  1
  Zr  Zr71  1  0.29454997  0.88251778  0.37296166  1
  Zr  Zr72  1  0.60366803  0.58810079  0.25097976  1
  Zr  Zr73  1  0.79334591  0.79821632  0.22050251  1
  Zr  Zr74  1  0.32212456  0.29747643  0.14368355  1
  Zr  Zr75  1  0.62344326  -0.00573860  0.50093504  1
  Zr  Zr76  1  0.19372749  -0.00594503  0.75039690  1
  Zr  Zr77  1  0.81019837  0.79820294  0.74920627  1
  Zr  Zr78  1  0.59369783  0.79471721  0.24829151  1
  Zr  Zr79  1  0.43573364  0.20476233  0.26001474  1
  Ta  Ta80  1  0.11144756  0.31934157  0.14854679  1
  Ta  Ta81  1  0.31552816  0.30541756  0.37266002  1
  Ta  Ta82  1  0.79251818  0.59259720  0.75117951  1
  Ta  Ta83  1  0.29754978  0.29230066  0.87007287  1
  Ta  Ta84  1  0.38764138  0.59563482  -0.00059765  1
  Ta  Ta85  1  0.19577649  0.79236431  0.74540796  1
  Ta  Ta86  1  0.83200287  -0.00120979  0.50463181  1
  Ta  Ta87  1  0.30668956  0.69367710  0.38518506  1
  Ta  Ta88  1  0.70258061  0.70591703  0.88607925  1
  Ta  Ta89  1  0.09297277  0.70454276  0.62295624  1
  Ta  Ta90  1  -0.00316569  0.79570158  0.01742278  1
  Ta  Ta91  1  0.80566151  0.20689192  0.23717468  1
  Ta  Ta92  1  0.70857296  0.29636339  0.87336103  1
  Ta  Ta93  1  0.39716330  0.79660714  -0.00003425  1
  Ta  Ta94  1  0.89947217  0.09910307  0.87684975  1
  Ta  Ta95  1  0.60397327  0.40334222  -0.02142756  1
  Ta  Ta96  1  0.88952463  0.29256127  0.37937328  1
  Ta  Ta97  1  0.59748598  0.20915903  -0.00781592  1
  Ta  Ta98  1  0.29640382  0.89745324  0.62254167  1
  Ta  Ta99  1  0.58278251  0.60472924  0.50783322  1
  Ta  Ta100  1  0.70090030  0.29953195  0.38150499  1
  Ta  Ta101  1  0.30887865  0.50165854  0.37051881  1
  Ta  Ta102  1  0.10470907  0.11533099  0.14296777  1
  Ta  Ta103  1  0.39840837  0.59167034  0.73783262  1
  Ta  Ta104  1  0.20728112  0.19905541  0.25930318  1
  Ta  Ta105  1  0.69447588  0.49841777  0.63190888  1
  Ta  Ta106  1  0.68815982  0.30756442  0.11861477  1
  Ta  Ta107  1  0.19152840  0.39772532  0.00942124  1
  Ta  Ta108  1  0.00419067  0.41356735  0.75172111  1
  Ta  Ta109  1  0.10199655  0.71684333  0.36495312  1
  Ta  Ta110  1  0.50536029  0.09573068  0.61807153  1
  Ta  Ta111  1  0.30421043  0.09463458  0.61117214  1
  Ta  Ta112  1  0.71967716  0.91247548  0.63944250  1
  Ta  Ta113  1  0.18879108  -0.00923780  0.50191517  1
  Ta  Ta114  1  -0.00895227  0.80336275  0.23890461  1
  Ta  Ta115  1  0.40296674  0.00010312  0.73390057  1
  Ta  Ta116  1  0.89823739  0.69900366  0.61602482  1
  Ta  Ta117  1  0.80960050  0.60133133  0.01361010  1
  Ta  Ta118  1  0.18507029  0.58574705  0.00784846  1
  Ta  Ta119  1  0.19194188  0.58339074  0.73689370  1
  Ti  Ti120  1  0.70859655  0.09727126  0.63117307  1
  Ti  Ti121  1  -0.00553068  0.60317527  0.25051175  1
  Ti  Ti122  1  0.61444604  0.20762242  0.51611901  1
  Ti  Ti123  1  0.00240911  0.79955265  0.74423239  1
  Ti  Ti124  1  0.80348963  0.19777818  0.75267218  1
  Ti  Ti125  1  -0.01648467  -0.01044244  0.75548223  1
  Ti  Ti126  1  0.39960650  0.19356755  0.73350436  1
  Ti  Ti127  1  0.09533493  0.89790881  0.62724505  1
  Ti  Ti128  1  -0.00518804  0.60983343  0.49382021  1
  Ti  Ti129  1  0.79821387  0.80842222  0.51088755  1
  Ti  Ti130  1  0.80628271  0.41065885  0.76256056  1
  Ti  Ti131  1  0.39863707  0.58214324  0.51408038  1
  Ti  Ti132  1  0.09005288  0.50417036  0.37446950  1
  Ti  Ti133  1  0.69392689  0.50225529  0.11356029  1
  Ti  Ti134  1  0.00645985  0.42859593  0.00875329  1
  Ti  Ti135  1  0.40719179  0.20745954  0.50169311  1
  Ti  Ti136  1  0.79922726  0.79934590  0.02047792  1
  Ti  Ti137  1  0.89629097  0.08710411  0.63283384  1
  Ti  Ti138  1  0.61291283  0.80351314  -0.00048362  1
  Ti  Ti139  1  0.90273721  0.91307726  0.36428266  1
  Ti  Ti140  1  0.40843002  0.78427795  0.50692755  1
  Ti  Ti141  1  0.90703952  0.31155971  0.12716861  1
  Ti  Ti142  1  0.19683588  0.80167313  0.50170698  1
  Ti  Ti143  1  0.60373929  0.59019257  -0.01652163  1
  Ti  Ti144  1  0.49022741  0.69323783  0.37870663  1
  Ti  Ti145  1  0.78753186  -0.00791935  0.01937602  1
  Ti  Ti146  1  0.69421803  0.90159518  0.86171661  1
  Ti  Ti147  1  0.30409803  0.89608846  0.86968906  1
  Ti  Ti148  1  0.89026178  0.49204784  0.61471436  1
  Ti  Ti149  1  0.71006617  0.30853669  0.63433528  1
  Ti  Ti150  1  -0.00571905  0.01637986  0.23403983  1
  Ti  Ti151  1  -0.00989301  0.18701897  0.49746700  1
  Ti  Ti152  1  -0.00955879  0.40929595  0.24849607  1
  Ti  Ti153  1  0.09678063  0.10629659  0.87772327  1
  Ti  Ti154  1  0.49834714  0.69814968  0.88606957  1
  Ti  Ti155  1  0.49509651  0.49669857  0.38069618  1
  Ti  Ti156  1  0.80198891  0.19823266  0.50931850  1
  Ti  Ti157  1  0.40852321  0.59073159  0.24841868  1
  Ti  Ti158  1  0.92314571  0.10478453  0.36472809  1
  Ti  Ti159  1  0.59546939  0.80038189  0.49468132  1
  Mo  Mo160  1  0.50281745  0.87408269  0.38098079  1
  Mo  Mo161  1  0.38673092  -0.01380643  -0.00709364  1
  Mo  Mo162  1  0.69147641  0.49994765  0.37509436  1
  Mo  Mo163  1  0.69466836  0.69265510  0.10058701  1
  Mo  Mo164  1  0.19925022  0.79942366  0.25198525  1
  Mo  Mo165  1  0.49765448  0.50534639  0.62341785  1
  Mo  Mo166  1  0.49681359  0.69785471  0.61997183  1
  Mo  Mo167  1  0.08632200  0.50130085  0.87474455  1
  Mo  Mo168  1  0.79216352  0.38737261  0.50454021  1
  Mo  Mo169  1  0.80599875  0.00849787  0.75362131  1
  Mo  Mo170  1  0.39398445  0.20132123  -0.00574733  1
  Mo  Mo171  1  0.90500540  0.90356383  0.11820167  1
  Mo  Mo172  1  0.30643880  0.69468947  0.11583204  1
  Mo  Mo173  1  0.29108018  0.09757883  0.13661249  1
  Mo  Mo174  1  0.90523958  0.49765327  0.13154216  1
  Mo  Mo175  1  0.40260285  0.40447501  0.49443108  1
  Mo  Mo176  1  0.62417821  0.20632055  0.25536553  1
  Mo  Mo177  1  0.00579137  0.01279521  0.49299021  1
  Mo  Mo178  1  0.19581306  0.40075660  0.27339724  1
  Mo  Mo179  1  0.90566342  0.50425607  0.87562044  1
  Mo  Mo180  1  -0.00751392  0.21155713  0.23899105  1
  Mo  Mo181  1  0.60986181  0.79708149  0.76111879  1
  Mo  Mo182  1  0.90932284  0.90207304  0.62784290  1
  Mo  Mo183  1  0.19112422  0.40088104  0.73855544  1
  Mo  Mo184  1  0.09601014  0.10395539  0.35671672  1
  Mo  Mo185  1  0.51655765  0.29165633  0.11488714  1
  Mo  Mo186  1  0.60445185  0.00215498  0.73978013  1
  Mo  Mo187  1  0.89736772  0.11326296  0.12442404  1
  Mo  Mo188  1  0.00119547  0.59983697  0.01003449  1
  Mo  Mo189  1  0.09120078  0.49602382  0.13941059  1
  Mo  Mo190  1  0.60626481  -0.00444603  -0.00443326  1
  Mo  Mo191  1  0.71169421  0.51136181  0.88192300  1
  Mo  Mo192  1  0.50403158  0.29989798  0.39876305  1
  Mo  Mo193  1  0.20430751  0.00902798  0.24611037  1
  Mo  Mo194  1  0.69361795  0.90111251  0.12034072  1
  Mo  Mo195  1  0.29177428  0.49873545  0.62146704  1
  Mo  Mo196  1  0.48930144  0.51309717  0.88473764  1
  Mo  Mo197  1  0.40073307  0.40492267  0.26402573  1
  Mo  Mo198  1  0.90850819  0.69713527  0.12018888  1
  Mo  Mo199  1  -0.01233540  0.40208049  0.48918331  1
