# generated using pymatgen
data_HfZrTaTiMo
_symmetry_space_group_name_H-M   'P 1'
_cell_length_a   15.21566294
_cell_length_b   15.21798940
_cell_length_c   16.84931087
_cell_angle_alpha   90.02136651
_cell_angle_beta   89.97540424
_cell_angle_gamma   89.91451518
_symmetry_Int_Tables_number   1
_chemical_formula_structural   HfZrTaTiMo
_chemical_formula_sum   'Hf40 Zr40 Ta40 Ti40 Mo40'
_cell_volume   3901.48324200
_cell_formula_units_Z   40
loop_
 _symmetry_equiv_pos_site_id
 _symmetry_equiv_pos_as_xyz
  1  'x, y, z'
loop_
 _atom_site_type_symbol
 _atom_site_label
 _atom_site_symmetry_multiplicity
 _atom_site_fract_x
 _atom_site_fract_y
 _atom_site_fract_z
 _atom_site_occupancy
  Hf  Hf0  1  0.51442140  0.70119349  0.10895023  1
  Hf  Hf1  1  0.40690462  0.20011794  0.74840580  1
  Hf  Hf2  1  0.49507735  0.09166288  0.37083102  1
  Hf  Hf3  1  0.00765794  0.18089841  0.23756783  1
  Hf  Hf4  1  0.50057735  0.50383871  0.88541937  1
  Hf  Hf5  1  0.38667718  0.59707314  0.51443047  1
  Hf  Hf6  1  0.39758365  0.80545730  -0.00186880  1
  Hf  Hf7  1  0.70588001  0.50855576  0.39456798  1
  Hf  Hf8  1  0.01017093  0.79492822  0.49139938  1
  Hf  Hf9  1  0.29369683  0.29354782  0.61745692  1
  Hf  Hf10  1  0.80248379  0.00013960  0.49442754  1
  Hf  Hf11  1  0.72495593  0.69971620  0.11617028  1
  Hf  Hf12  1  0.18899665  0.00809461  0.25724514  1
  Hf  Hf13  1  0.60326764  0.39093631  0.75358547  1
  Hf  Hf14  1  0.40148630  0.60881919  0.25046880  1
  Hf  Hf15  1  0.50085026  0.50065284  0.11674282  1
  Hf  Hf16  1  0.89980055  0.50725613  0.62766962  1
  Hf  Hf17  1  0.30396163  0.07574368  0.61294057  1
  Hf  Hf18  1  0.89686012  0.28632180  0.88166448  1
  Hf  Hf19  1  0.79770178  0.60495725  0.75978546  1
  Hf  Hf20  1  0.70564781  0.89860113  0.11189691  1
  Hf  Hf21  1  0.61166921  0.80240085  0.24683860  1
  Hf  Hf22  1  0.49948860  0.69784173  0.40135879  1
  Hf  Hf23  1  0.61336823  0.80099850  0.74375107  1
  Hf  Hf24  1  0.70189968  0.08980502  0.87593349  1
  Hf  Hf25  1  0.59671852  0.59771985  0.74561904  1
  Hf  Hf26  1  0.09032673  0.50749856  0.86522843  1
  Hf  Hf27  1  0.19607943  0.61089542  0.74460442  1
  Hf  Hf28  1  0.09437997  0.30696661  0.62684933  1
  Hf  Hf29  1  -0.01026845  0.16963348  0.01844858  1
  Hf  Hf30  1  0.28737109  0.51180170  0.37304780  1
  Hf  Hf31  1  0.30134765  0.90208398  0.13019013  1
  Hf  Hf32  1  -0.00133195  0.40153710  0.00349991  1
  Hf  Hf33  1  0.50093412  0.49942352  0.38299746  1
  Hf  Hf34  1  0.39867579  0.39368180  0.49969088  1
  Hf  Hf35  1  0.60904971  0.19499091  0.49987578  1
  Hf  Hf36  1  0.61165737  0.60233062  0.25111080  1
  Hf  Hf37  1  0.89288805  0.09692273  0.61958420  1
  Hf  Hf38  1  0.69785515  0.49621563  0.61674741  1
  Hf  Hf39  1  0.81006699  0.38966179  0.49995366  1
  Zr  Zr40  1  0.10082620  0.29944382  0.86978645  1
  Zr  Zr41  1  0.80756221  0.80410666  0.50214066  1
  Zr  Zr42  1  0.18442520  -0.00712014  0.00739624  1
  Zr  Zr43  1  0.29824716  0.50334517  0.87205586  1
  Zr  Zr44  1  0.60433083  -0.00381240  0.51196742  1
  Zr  Zr45  1  0.09808921  0.51576979  0.62163311  1
  Zr  Zr46  1  0.49675334  0.70098154  0.87212825  1
  Zr  Zr47  1  -0.01688371  0.61347803  -0.00279865  1
  Zr  Zr48  1  0.38724626  -0.00142891  0.76337370  1
  Zr  Zr49  1  0.89214319  0.30449856  0.12562303  1
  Zr  Zr50  1  0.79617756  0.41339930  0.25075744  1
  Zr  Zr51  1  0.19737975  0.20287329  0.00530900  1
  Zr  Zr52  1  0.40088192  0.00677766  -0.00564365  1
  Zr  Zr53  1  0.91015581  0.30762844  0.35716676  1
  Zr  Zr54  1  0.69429480  0.71086739  0.39700647  1
  Zr  Zr55  1  0.08973445  0.71462065  0.86286088  1
  Zr  Zr56  1  0.40815592  0.80284493  0.24693952  1
  Zr  Zr57  1  0.70506207  0.50572601  0.10645314  1
  Zr  Zr58  1  0.01546254  0.58279563  0.26726323  1
  Zr  Zr59  1  0.20377632  0.18920208  0.75251249  1
  Zr  Zr60  1  0.09941200  0.88182149  0.14110946  1
  Zr  Zr61  1  0.59887474  0.39806728  0.24924180  1
  Zr  Zr62  1  0.79153910  0.18752802  0.75139390  1
  Zr  Zr63  1  0.59576970  0.19912948  0.24035869  1
  Zr  Zr64  1  0.90703057  0.10244635  0.37652723  1
  Zr  Zr65  1  0.51870032  0.89316082  0.38579971  1
  Zr  Zr66  1  0.10225126  0.09552826  0.61684658  1
  Zr  Zr67  1  0.49014011  0.91106811  0.63327534  1
  Zr  Zr68  1  0.17229896  0.40655548  0.25818242  1
  Zr  Zr69  1  0.39156135  0.39528494  0.00603975  1
  Zr  Zr70  1  0.39911422  0.40308968  0.74529560  1
  Zr  Zr71  1  0.51549763  0.90760415  0.86662294  1
  Zr  Zr72  1  0.30936982  0.90991404  0.37743316  1
  Zr  Zr73  1  0.19664577  0.40620327  0.00434884  1
  Zr  Zr74  1  0.08193481  0.09215374  0.87396698  1
  Zr  Zr75  1  0.27419254  0.71254449  0.61418003  1
  Zr  Zr76  1  0.90716606  0.89160499  0.13459832  1
  Zr  Zr77  1  0.28174705  0.51237936  0.13679398  1
  Zr  Zr78  1  0.40579584  0.19244033  0.49955029  1
  Zr  Zr79  1  0.79868791  -0.00022854  0.24837285  1
  Ta  Ta80  1  0.91755378  0.89281446  0.62811496  1
  Ta  Ta81  1  0.81285042  0.61047647  0.26176028  1
  Ta  Ta82  1  0.19333419  0.40015081  0.48886450  1
  Ta  Ta83  1  0.39728697  0.39622657  0.25243263  1
  Ta  Ta84  1  0.39618611  0.60504637  0.73311616  1
  Ta  Ta85  1  0.39620201  0.20216053  0.00018191  1
  Ta  Ta86  1  0.82511371  0.80091972  -0.01546598  1
  Ta  Ta87  1  0.70825447  0.69661931  0.61374855  1
  Ta  Ta88  1  0.90566053  0.89794243  0.36742811  1
  Ta  Ta89  1  0.51008139  0.11104491  0.87434846  1
  Ta  Ta90  1  0.39346181  0.19837329  0.25189537  1
  Ta  Ta91  1  0.59928088  -0.00326355  0.24249385  1
  Ta  Ta92  1  0.29692880  0.29938423  0.14072236  1
  Ta  Ta93  1  0.19739874  0.20114479  0.25807677  1
  Ta  Ta94  1  0.80139344  0.39323960  0.75393977  1
  Ta  Ta95  1  0.82041877  0.00346925  -0.00262925  1
  Ta  Ta96  1  0.49534357  0.29719084  0.88118654  1
  Ta  Ta97  1  0.51178906  0.29484321  0.62500283  1
  Ta  Ta98  1  0.79106935  0.19515976  0.00449869  1
  Ta  Ta99  1  0.69758198  0.09690943  0.36778879  1
  Ta  Ta100  1  -0.01114141  0.20326379  0.74165287  1
  Ta  Ta101  1  0.69132339  0.29419398  0.88396916  1
  Ta  Ta102  1  0.38701300  0.60741279  0.00432159  1
  Ta  Ta103  1  0.29578464  0.10706382  0.12995353  1
  Ta  Ta104  1  0.90383178  0.51346711  0.12601608  1
  Ta  Ta105  1  0.79286376  0.19862829  0.23902865  1
  Ta  Ta106  1  0.20108280  0.39797032  0.75128465  1
  Ta  Ta107  1  0.00210343  0.40189747  0.49542209  1
  Ta  Ta108  1  0.11805144  0.89603654  0.63150020  1
  Ta  Ta109  1  0.60128147  0.38839809  0.50046691  1
  Ta  Ta110  1  -0.00273531  0.00088225  0.74431188  1
  Ta  Ta111  1  -0.00962467  0.60258023  0.48451035  1
  Ta  Ta112  1  0.29415582  0.70616484  0.87260348  1
  Ta  Ta113  1  0.50256561  0.70196424  0.61750561  1
  Ta  Ta114  1  0.62160080  0.79499744  -0.01502950  1
  Ta  Ta115  1  0.29702757  0.70466552  0.38993719  1
  Ta  Ta116  1  -0.00471227  0.20978592  0.50176978  1
  Ta  Ta117  1  0.29809896  0.29963746  0.36999581  1
  Ta  Ta118  1  0.19007357  0.61348036  -0.00216877  1
  Ta  Ta119  1  0.70843141  0.29062979  0.62697323  1
  Ti  Ti120  1  0.01415541  -0.00718637  0.49340855  1
  Ti  Ti121  1  0.10459988  0.68449350  0.13130305  1
  Ti  Ti122  1  0.70016511  0.29377594  0.37216855  1
  Ti  Ti123  1  0.79146502  0.61126954  -0.02432742  1
  Ti  Ti124  1  0.49996977  0.29691935  0.37233878  1
  Ti  Ti125  1  0.29649635  0.10182270  0.38088114  1
  Ti  Ti126  1  0.60095798  0.39433535  -0.00203851  1
  Ti  Ti127  1  0.89683159  0.49971468  0.86910987  1
  Ti  Ti128  1  0.29056996  0.70853259  0.12401473  1
  Ti  Ti129  1  0.79954530  0.19977251  0.50022177  1
  Ti  Ti130  1  0.70031489  0.09805138  0.11793350  1
  Ti  Ti131  1  0.09912012  0.30137380  0.12869535  1
  Ti  Ti132  1  0.91567713  0.90392310  0.86577751  1
  Ti  Ti133  1  0.59387536  0.19775254  0.00598164  1
  Ti  Ti134  1  0.28745034  0.89375863  0.87741256  1
  Ti  Ti135  1  0.40486634  0.00448946  0.24241948  1
  Ti  Ti136  1  0.80039883  0.40254498  -0.00674879  1
  Ti  Ti137  1  0.80268770  0.79613578  0.26411948  1
  Ti  Ti138  1  0.29532854  0.10463679  0.88046742  1
  Ti  Ti139  1  0.01737620  0.80777328  -0.00088594  1
  Ti  Ti140  1  0.19353086  0.81384947  0.48886090  1
  Ti  Ti141  1  0.71582242  0.91080322  0.63820510  1
  Ti  Ti142  1  0.81632416  0.79742904  0.74847537  1
  Ti  Ti143  1  0.28876255  0.49382855  0.62285473  1
  Ti  Ti144  1  0.49520172  0.09800236  0.12133883  1
  Ti  Ti145  1  0.60584944  0.00012148  -0.00107945  1
  Ti  Ti146  1  0.69621969  0.49736010  0.88067636  1
  Ti  Ti147  1  0.49126232  0.29520884  0.12436971  1
  Ti  Ti148  1  0.69451160  0.30122017  0.11534205  1
  Ti  Ti149  1  -0.00792635  0.40119153  0.74878120  1
  Ti  Ti150  1  0.91440277  0.70294266  0.13493115  1
  Ti  Ti151  1  0.50857330  0.90361668  0.11600115  1
  Ti  Ti152  1  0.71910259  0.89865258  0.86634192  1
  Ti  Ti153  1  0.39762726  0.81479035  0.51132486  1
  Ti  Ti154  1  0.38567662  0.79615682  0.74308157  1
  Ti  Ti155  1  0.10562997  0.90087841  0.86245266  1
  Ti  Ti156  1  0.50052728  0.49645370  0.61820976  1
  Ti  Ti157  1  0.19044878  0.19975898  0.48648407  1
  Ti  Ti158  1  0.00469991  0.78488351  0.27345613  1
  Ti  Ti159  1  0.20097297  0.78706529  0.26584771  1
  Mo  Mo160  1  0.08802035  0.50817465  0.11916943  1
  Mo  Mo161  1  0.11464338  0.69271756  0.37945915  1
  Mo  Mo162  1  0.80713224  -0.01440217  0.74927725  1
  Mo  Mo163  1  -0.00736154  -0.02162116  -0.00169407  1
  Mo  Mo164  1  0.51082369  0.10510996  0.63593156  1
  Mo  Mo165  1  0.10189634  0.10120489  0.38770701  1
  Mo  Mo166  1  0.90432354  0.69933582  0.62720793  1
  Mo  Mo167  1  -0.00364672  0.39634170  0.24138721  1
  Mo  Mo168  1  0.19811956  -0.00663314  0.75685837  1
  Mo  Mo169  1  0.59615303  0.59361598  0.51662175  1
  Mo  Mo170  1  0.07414754  0.71236123  0.63202429  1
  Mo  Mo171  1  0.89784532  0.50058820  0.38033914  1
  Mo  Mo172  1  0.70439178  0.90851402  0.37143375  1
  Mo  Mo173  1  0.80786911  0.60001250  0.50157983  1
  Mo  Mo174  1  0.89751652  0.09049007  0.87076380  1
  Mo  Mo175  1  0.20637034  0.81179443  0.75090023  1
  Mo  Mo176  1  0.09805901  0.89929438  0.36664795  1
  Mo  Mo177  1  -0.01362123  0.60433209  0.75324015  1
  Mo  Mo178  1  0.61049957  0.01523038  0.74085584  1
  Mo  Mo179  1  0.18231122  0.60964687  0.50132480  1
  Mo  Mo180  1  0.89942402  0.69941945  0.37222841  1
  Mo  Mo181  1  0.60246008  0.60312454  -0.00951721  1
  Mo  Mo182  1  0.39928445  -0.00021329  0.49737860  1
  Mo  Mo183  1  0.20282197  0.79005534  0.00073184  1
  Mo  Mo184  1  0.89060543  0.09072184  0.12926034  1
  Mo  Mo185  1  0.09557864  0.49276339  0.38935906  1
  Mo  Mo186  1  0.10110386  0.09185871  0.12693154  1
  Mo  Mo187  1  0.69754733  0.09885274  0.62909683  1
  Mo  Mo188  1  0.90055075  0.30228887  0.62862302  1
  Mo  Mo189  1  0.70259077  0.70920004  0.87192172  1
  Mo  Mo190  1  0.30500750  0.29262186  0.87309952  1
  Mo  Mo191  1  0.60508295  0.80370098  0.52758905  1
  Mo  Mo192  1  0.20472730  0.61387125  0.25427264  1
  Mo  Mo193  1  0.19420455  -0.00085484  0.48612443  1
  Mo  Mo194  1  0.09916126  0.28991462  0.37930720  1
  Mo  Mo195  1  -0.00001951  0.80647646  0.74365486  1
  Mo  Mo196  1  0.89707258  0.71175195  0.86965517  1
  Mo  Mo197  1  0.00255484  -0.01022077  0.26083038  1
  Mo  Mo198  1  0.59886396  0.20219538  0.75236576  1
  Mo  Mo199  1  0.29416041  0.90007186  0.61735648  1
