# generated using pymatgen
data_HfZrTaTiMo
_symmetry_space_group_name_H-M   'P 1'
_cell_length_a   15.19358275
_cell_length_b   15.21180775
_cell_length_c   16.81108670
_cell_angle_alpha   89.96298438
_cell_angle_beta   90.03862233
_cell_angle_gamma   89.97170655
_symmetry_Int_Tables_number   1
_chemical_formula_structural   HfZrTaTiMo
_chemical_formula_sum   'Hf40 Zr40 Ta40 Ti40 Mo40'
_cell_volume   3885.40745715
_cell_formula_units_Z   40
loop_
 _symmetry_equiv_pos_site_id
 _symmetry_equiv_pos_as_xyz
  1  'x, y, z'
loop_
 _atom_site_type_symbol
 _atom_site_label
 _atom_site_symmetry_multiplicity
 _atom_site_fract_x
 _atom_site_fract_y
 _atom_site_fract_z
 _atom_site_occupancy
  Hf  Hf0  1  0.28888643  0.90752943  0.63791056  1
  Hf  Hf1  1  0.20778039  0.19453310  0.75091196  1
  Hf  Hf2  1  0.50452447  0.69717456  0.37623611  1
  Hf  Hf3  1  0.32614881  0.89871404  0.10907992  1
  Hf  Hf4  1  0.68738229  0.48351384  0.87685744  1
  Hf  Hf5  1  0.48710680  0.89825340  0.38461043  1
  Hf  Hf6  1  0.30115115  0.32278367  0.11396776  1
  Hf  Hf7  1  0.37613387  0.40922808  0.26246406  1
  Hf  Hf8  1  -0.00757671  0.80745767  0.01750471  1
  Hf  Hf9  1  0.39960229  0.20332358  0.25182152  1
  Hf  Hf10  1  0.19869746  0.79052135  0.23576573  1
  Hf  Hf11  1  0.70060977  0.09652629  0.63363489  1
  Hf  Hf12  1  0.59198204  0.78787864  0.76552976  1
  Hf  Hf13  1  0.41492371  0.41835653  0.73195675  1
  Hf  Hf14  1  0.50180193  0.28711003  0.12384238  1
  Hf  Hf15  1  0.30524651  0.11141795  0.11716137  1
  Hf  Hf16  1  0.20918638  -0.00520406  0.24391026  1
  Hf  Hf17  1  0.89910802  0.29450628  0.14697574  1
  Hf  Hf18  1  -0.00013083  0.40202294  0.49537371  1
  Hf  Hf19  1  0.79705333  0.59129878  0.75217362  1
  Hf  Hf20  1  0.70010296  0.68521946  0.87776937  1
  Hf  Hf21  1  0.60524917  0.00266111  -0.01520171  1
  Hf  Hf22  1  0.40373872  -0.00000208  0.25237672  1
  Hf  Hf23  1  0.81676016  0.19350988  0.00824313  1
  Hf  Hf24  1  0.69764881  0.69362724  0.62902704  1
  Hf  Hf25  1  0.60781493  0.59869541  0.01387274  1
  Hf  Hf26  1  -0.00397026  0.60176127  0.74970412  1
  Hf  Hf27  1  0.80258197  0.40072987  0.48261020  1
  Hf  Hf28  1  0.89857174  0.70180621  0.62185721  1
  Hf  Hf29  1  0.19559318  0.59707486  -0.00668116  1
  Hf  Hf30  1  0.81700630  0.20126818  0.74121309  1
  Hf  Hf31  1  0.19464169  0.20769328  -0.01211491  1
  Hf  Hf32  1  0.70203734  0.10710832  0.13588978  1
  Hf  Hf33  1  0.78856281  0.39286904  0.00470745  1
  Hf  Hf34  1  -0.00868836  0.38843934  0.74326726  1
  Hf  Hf35  1  0.09571332  0.09803541  0.36596562  1
  Hf  Hf36  1  0.89766530  0.90070539  0.88149515  1
  Hf  Hf37  1  -0.00717411  -0.00893670  0.48963152  1
  Hf  Hf38  1  0.71421525  0.70434555  0.36985294  1
  Hf  Hf39  1  0.59183903  0.40181279  0.25412185  1
  Zr  Zr40  1  0.51693219  0.32079900  0.86192564  1
  Zr  Zr41  1  0.80394180  0.20445887  0.48983977  1
  Zr  Zr42  1  0.01219506  0.40702583  0.26425670  1
  Zr  Zr43  1  0.79223095  0.00215154  0.48004594  1
  Zr  Zr44  1  0.00461345  0.38834410  -0.00757824  1
  Zr  Zr45  1  0.08516992  0.68272474  0.37003558  1
  Zr  Zr46  1  0.59713767  0.79951952  0.50206117  1
  Zr  Zr47  1  0.29623409  0.70456639  0.37656373  1
  Zr  Zr48  1  0.29644210  0.10806022  0.38259184  1
  Zr  Zr49  1  0.09339617  0.09244360  0.88042389  1
  Zr  Zr50  1  0.60711091  0.40093309  0.49605863  1
  Zr  Zr51  1  0.49848735  0.90299810  0.63818084  1
  Zr  Zr52  1  0.19464432  0.79802017  0.00594298  1
  Zr  Zr53  1  0.69749259  0.89810017  0.63043678  1
  Zr  Zr54  1  0.40860998  0.61107869  0.52405609  1
  Zr  Zr55  1  0.71564230  0.09918731  0.87092350  1
  Zr  Zr56  1  0.08635324  0.10547753  0.13632756  1
  Zr  Zr57  1  0.29997035  0.68647270  0.12035475  1
  Zr  Zr58  1  0.59629613  0.80532787  0.24557070  1
  Zr  Zr59  1  0.40189113  0.00615019  0.50618552  1
  Zr  Zr60  1  0.91298852  0.50976969  0.12032436  1
  Zr  Zr61  1  0.20617492  0.59361329  0.51277876  1
  Zr  Zr62  1  0.51094998  0.29865355  0.63025992  1
  Zr  Zr63  1  0.00503523  0.18472589  0.73107625  1
  Zr  Zr64  1  0.60676369  0.19353461  0.49846360  1
  Zr  Zr65  1  0.10002896  0.50076634  0.86236264  1
  Zr  Zr66  1  0.48259832  0.49570796  0.12061388  1
  Zr  Zr67  1  0.40867523  0.20356628  -0.01883089  1
  Zr  Zr68  1  0.58735995  0.80463313  -0.01291593  1
  Zr  Zr69  1  0.40261994  0.60552679  0.25027537  1
  Zr  Zr70  1  0.10310465  0.88678224  0.36531482  1
  Zr  Zr71  1  0.19170422  -0.00171546  0.00762762  1
  Zr  Zr72  1  0.59918940  0.00281143  0.25829410  1
  Zr  Zr73  1  0.89601841  0.89976240  0.62103045  1
  Zr  Zr74  1  0.49473926  0.30001319  0.38102693  1
  Zr  Zr75  1  0.10054073  0.29865900  0.12826545  1
  Zr  Zr76  1  0.78876430  0.78920783  0.01916940  1
  Zr  Zr77  1  0.31113537  0.50901695  0.85379619  1
  Zr  Zr78  1  -0.00790673  0.19289917  0.50320295  1
  Zr  Zr79  1  0.38704513  0.01590089  0.76673895  1
  Ta  Ta80  1  0.19618803  0.80012755  0.50608872  1
  Ta  Ta81  1  0.29197328  0.70253728  0.86193290  1
  Ta  Ta82  1  0.60726327  0.60298631  0.23805053  1
  Ta  Ta83  1  0.90254745  0.69178335  0.89033178  1
  Ta  Ta84  1  0.09691379  0.70458861  0.62904563  1
  Ta  Ta85  1  0.10141578  0.49911526  0.63104882  1
  Ta  Ta86  1  0.10751130  0.29689560  0.61359257  1
  Ta  Ta87  1  0.81034996  -0.00772739  0.01471982  1
  Ta  Ta88  1  0.70160037  0.30104900  0.14586925  1
  Ta  Ta89  1  0.11700968  0.49158726  0.12128150  1
  Ta  Ta90  1  0.89154049  0.49328483  0.61991521  1
  Ta  Ta91  1  0.39857997  0.20719772  0.51055404  1
  Ta  Ta92  1  0.40693380  -0.00080263  -0.02587669  1
  Ta  Ta93  1  0.61171640  0.59466870  0.50437357  1
  Ta  Ta94  1  0.81078736  -0.00390584  0.75274191  1
  Ta  Ta95  1  0.89271304  0.88184493  0.36069171  1
  Ta  Ta96  1  0.08278346  0.67925845  0.12949929  1
  Ta  Ta97  1  0.71434558  0.30896947  0.63179600  1
  Ta  Ta98  1  0.49610887  0.71575427  0.11965855  1
  Ta  Ta99  1  0.39133834  0.41581011  0.51475211  1
  Ta  Ta100  1  0.49788830  0.50741937  0.38343700  1
  Ta  Ta101  1  0.50353050  0.08671648  0.11455360  1
  Ta  Ta102  1  0.90514482  0.51712224  0.36934013  1
  Ta  Ta103  1  0.09512839  0.89364397  0.62355174  1
  Ta  Ta104  1  0.10635860  0.29282972  0.38788629  1
  Ta  Ta105  1  0.18515080  0.80497096  0.75547587  1
  Ta  Ta106  1  0.28543003  0.90260012  0.87414288  1
  Ta  Ta107  1  0.80024566  0.79769185  0.76252216  1
  Ta  Ta108  1  0.19920033  -0.00829386  0.49738227  1
  Ta  Ta109  1  0.28770973  0.31405012  0.39921834  1
  Ta  Ta110  1  0.38608320  0.80398247  0.51270742  1
  Ta  Ta111  1  0.09246693  0.70707454  0.87357315  1
  Ta  Ta112  1  0.70201816  0.50814000  0.36139511  1
  Ta  Ta113  1  0.79563856  0.79843364  0.23258544  1
  Ta  Ta114  1  0.40334279  0.60021835  -0.01145263  1
  Ta  Ta115  1  0.30414475  0.30842448  0.86516798  1
  Ta  Ta116  1  0.39685418  0.80869213  0.24845582  1
  Ta  Ta117  1  0.20127628  0.57351490  0.25113517  1
  Ta  Ta118  1  0.61560369  0.20855206  -0.00052770  1
  Ta  Ta119  1  0.50313092  0.10210611  0.64091110  1
  Ti  Ti120  1  0.08026695  0.90640275  0.13778372  1
  Ti  Ti121  1  0.59125119  0.39676606  0.00966277  1
  Ti  Ti122  1  0.80370339  0.59868762  0.49622012  1
  Ti  Ti123  1  0.90310995  0.09288379  0.15001549  1
  Ti  Ti124  1  0.18631293  0.00166453  0.75481327  1
  Ti  Ti125  1  0.90111748  0.29286673  0.87633069  1
  Ti  Ti126  1  -0.00249147  0.59814643  0.50574655  1
  Ti  Ti127  1  0.29659923  0.30400013  0.61961339  1
  Ti  Ti128  1  -0.00814018  0.80274969  0.75433919  1
  Ti  Ti129  1  0.41025544  0.61557321  0.73556514  1
  Ti  Ti130  1  0.71142241  0.49828262  0.13484867  1
  Ti  Ti131  1  0.80136884  0.80132347  0.49214469  1
  Ti  Ti132  1  0.20239747  0.39923969  0.73932873  1
  Ti  Ti133  1  0.89387544  0.49837863  0.88689886  1
  Ti  Ti134  1  0.51269812  0.11674800  0.86103997  1
  Ti  Ti135  1  -0.00256209  -0.00516544  0.74165875  1
  Ti  Ti136  1  0.08814050  0.90072732  0.87962000  1
  Ti  Ti137  1  0.79943567  -0.00662801  0.25875277  1
  Ti  Ti138  1  0.40084983  0.79713456  -0.02445735  1
  Ti  Ti139  1  0.12612558  0.48725048  0.38504127  1
  Ti  Ti140  1  0.90974089  0.09705265  0.88147031  1
  Ti  Ti141  1  0.68810070  0.90646585  0.12464343  1
  Ti  Ti142  1  0.50009458  0.10710140  0.37804944  1
  Ti  Ti143  1  0.60236550  0.00168578  0.49222412  1
  Ti  Ti144  1  0.58950113  0.58168331  0.73959354  1
  Ti  Ti145  1  -0.01658882  0.78523964  0.23890321  1
  Ti  Ti146  1  0.20250359  0.21792425  0.25463392  1
  Ti  Ti147  1  -0.00277894  0.79199324  0.49393737  1
  Ti  Ti148  1  0.21344776  0.40476953  -0.01730197  1
  Ti  Ti149  1  0.39695990  0.80368962  0.76305138  1
  Ti  Ti150  1  0.29761177  0.10837986  0.61855297  1
  Ti  Ti151  1  0.09705653  0.29651372  0.86608932  1
  Ti  Ti152  1  0.70492010  0.29092911  0.86253880  1
  Ti  Ti153  1  0.40090594  0.20846843  0.75095603  1
  Ti  Ti154  1  0.81559612  0.60797231  0.24441280  1
  Ti  Ti155  1  0.10640445  0.08706521  0.61496380  1
  Ti  Ti156  1  0.29278667  0.70902240  0.64313862  1
  Ti  Ti157  1  0.60531790  -0.00732561  0.76961993  1
  Ti  Ti158  1  0.80200083  0.40103713  0.75093905  1
  Ti  Ti159  1  0.70010384  0.11510290  0.35783660  1
  Mo  Mo160  1  0.79882685  0.41126432  0.26014353  1
  Mo  Mo161  1  0.29631264  0.50475631  0.64403202  1
  Mo  Mo162  1  0.90102823  0.08972268  0.62406342  1
  Mo  Mo163  1  0.69778707  0.69074461  0.13180088  1
  Mo  Mo164  1  0.19842748  0.60978723  0.73945951  1
  Mo  Mo165  1  0.90269635  0.30102470  0.35834040  1
  Mo  Mo166  1  0.50020626  0.70810626  0.63087006  1
  Mo  Mo167  1  0.00761577  0.59843658  0.25033628  1
  Mo  Mo168  1  0.89672675  0.69506676  0.11960736  1
  Mo  Mo169  1  0.29593735  0.89379036  0.37993607  1
  Mo  Mo170  1  0.90075393  0.30836702  0.62185350  1
  Mo  Mo171  1  0.20027472  0.39950752  0.51744965  1
  Mo  Mo172  1  0.20137909  0.19253152  0.50925988  1
  Mo  Mo173  1  0.59460990  0.19895996  0.25001542  1
  Mo  Mo174  1  0.70502260  0.30544488  0.35216145  1
  Mo  Mo175  1  0.89376284  0.90562384  0.14282238  1
  Mo  Mo176  1  0.80313362  0.58734036  0.00021205  1
  Mo  Mo177  1  0.50709196  0.51133599  0.87612826  1
  Mo  Mo178  1  0.29300632  0.49828878  0.11494991  1
  Mo  Mo179  1  0.70849404  0.89746140  0.87122089  1
  Mo  Mo180  1  0.30544133  0.50218250  0.38677028  1
  Mo  Mo181  1  0.00275426  0.60155805  -0.00793241  1
  Mo  Mo182  1  0.20259812  0.39333469  0.25844935  1
  Mo  Mo183  1  0.79951243  0.20156266  0.26030947  1
  Mo  Mo184  1  0.89759630  0.69773552  0.37675174  1
  Mo  Mo185  1  0.70878988  0.49824769  0.62292319  1
  Mo  Mo186  1  0.40028529  0.40668269  -0.01456446  1
  Mo  Mo187  1  0.89894390  0.09525945  0.35470982  1
  Mo  Mo188  1  0.49517118  0.90227956  0.86473396  1
  Mo  Mo189  1  0.70068685  0.90202408  0.37537285  1
  Mo  Mo190  1  0.60719804  0.19808468  0.74663941  1
  Mo  Mo191  1  -0.00646930  -0.01222504  0.25978262  1
  Mo  Mo192  1  0.61826887  0.40546509  0.73958498  1
  Mo  Mo193  1  0.51156302  0.50836225  0.61639103  1
  Mo  Mo194  1  0.48807216  0.68428312  0.87138998  1
  Mo  Mo195  1  -0.00034287  0.19990159  0.26757703  1
  Mo  Mo196  1  -0.01674955  0.00762111  0.01239415  1
  Mo  Mo197  1  0.49996391  0.90563129  0.11478774  1
  Mo  Mo198  1  -0.00581489  0.19789400  -0.00066105  1
  Mo  Mo199  1  0.29983407  0.10879370  0.87680543  1
