# generated using pymatgen
data_HfZrTaTiMo
_symmetry_space_group_name_H-M   'P 1'
_cell_length_a   15.21854519
_cell_length_b   15.20343908
_cell_length_c   16.85089793
_cell_angle_alpha   90.00108463
_cell_angle_beta   89.97182497
_cell_angle_gamma   89.99130639
_symmetry_Int_Tables_number   1
_chemical_formula_structural   HfZrTaTiMo
_chemical_formula_sum   'Hf40 Zr40 Ta40 Ti40 Mo40'
_cell_volume   3898.86292645
_cell_formula_units_Z   40
loop_
 _symmetry_equiv_pos_site_id
 _symmetry_equiv_pos_as_xyz
  1  'x, y, z'
loop_
 _atom_site_type_symbol
 _atom_site_label
 _atom_site_symmetry_multiplicity
 _atom_site_fract_x
 _atom_site_fract_y
 _atom_site_fract_z
 _atom_site_occupancy
  Hf  Hf0  1  0.70838209  0.10116490  0.63206609  1
  Hf  Hf1  1  0.39794520  0.19240519  0.72316292  1
  Hf  Hf2  1  0.41780108  0.38064481  0.01440988  1
  Hf  Hf3  1  0.40163902  0.59392654  0.75580049  1
  Hf  Hf4  1  0.49229661  0.70238009  0.12886719  1
  Hf  Hf5  1  0.51906059  0.49518596  0.12522224  1
  Hf  Hf6  1  0.30535577  0.50500169  0.61515804  1
  Hf  Hf7  1  0.21066156  0.01651892  0.01097831  1
  Hf  Hf8  1  0.19728147  0.20227054  0.73248838  1
  Hf  Hf9  1  0.10021763  0.29806540  0.86358209  1
  Hf  Hf10  1  0.49470375  0.47691735  0.87151992  1
  Hf  Hf11  1  0.10526689  0.53112001  0.37544364  1
  Hf  Hf12  1  0.79494881  0.01249191  0.49962967  1
  Hf  Hf13  1  0.91255380  0.69487671  0.36389774  1
  Hf  Hf14  1  0.48102641  0.08977827  0.86874583  1
  Hf  Hf15  1  0.50471408  0.10490318  0.13419044  1
  Hf  Hf16  1  0.29234505  0.69029742  0.12485794  1
  Hf  Hf17  1  0.40805511  0.38678552  0.24973114  1
  Hf  Hf18  1  0.60700049  0.59104902  0.27186578  1
  Hf  Hf19  1  -0.00217160  0.00471999  0.49527967  1
  Hf  Hf20  1  0.20625122  0.00109066  0.75104841  1
  Hf  Hf21  1  0.10071121  0.51689207  0.63089549  1
  Hf  Hf22  1  0.09981616  0.89672636  0.37447009  1
  Hf  Hf23  1  0.20706118  0.39114783  -0.00276401  1
  Hf  Hf24  1  -0.00166002  0.20888059  0.25520284  1
  Hf  Hf25  1  0.00516176  0.41101092  0.24636079  1
  Hf  Hf26  1  0.81248020  -0.00188903  -0.02803678  1
  Hf  Hf27  1  0.19889414  0.20602694  0.50685581  1
  Hf  Hf28  1  0.80075639  0.42060969  0.74992693  1
  Hf  Hf29  1  0.30363948  0.49497181  0.12684413  1
  Hf  Hf30  1  0.39963053  0.59824375  0.26480931  1
  Hf  Hf31  1  0.09808184  0.90696300  0.11806114  1
  Hf  Hf32  1  0.58634247  -0.00672140  0.74156043  1
  Hf  Hf33  1  0.40691739  0.61113395  0.49187680  1
  Hf  Hf34  1  0.60839532  -0.01627626  0.00138717  1
  Hf  Hf35  1  0.90612838  0.90226778  0.62889077  1
  Hf  Hf36  1  0.07791705  0.31099419  0.62932516  1
  Hf  Hf37  1  0.49253590  0.89525549  0.37169852  1
  Hf  Hf38  1  0.89072349  0.30044693  0.12053142  1
  Hf  Hf39  1  0.40959630  -0.00989705  0.01232061  1
  Zr  Zr40  1  -0.01990756  0.21311038  0.49308700  1
  Zr  Zr41  1  0.58992437  0.78840300  0.49037637  1
  Zr  Zr42  1  0.09882950  0.31983112  0.38297410  1
  Zr  Zr43  1  0.70808146  0.68408600  0.63466644  1
  Zr  Zr44  1  0.59402470  0.78723484  -0.01164895  1
  Zr  Zr45  1  0.50134067  0.69612153  0.62923750  1
  Zr  Zr46  1  0.00526132  0.79521419  0.50025114  1
  Zr  Zr47  1  0.20206501  0.01067225  0.24664452  1
  Zr  Zr48  1  0.31038755  0.30374777  0.86541601  1
  Zr  Zr49  1  0.60196885  0.38760188  0.74035789  1
  Zr  Zr50  1  0.79227968  0.20396940  -0.01748824  1
  Zr  Zr51  1  -0.01134152  0.01594327  0.24773274  1
  Zr  Zr52  1  0.79713312  0.58849820  -0.01292549  1
  Zr  Zr53  1  0.68115720  0.29349784  0.12801723  1
  Zr  Zr54  1  0.90403466  0.51936719  0.13308715  1
  Zr  Zr55  1  -0.01308492  0.80339851  0.23687212  1
  Zr  Zr56  1  0.69921626  0.68652529  0.12825353  1
  Zr  Zr57  1  -0.01288326  0.60195193  0.76496963  1
  Zr  Zr58  1  0.20239875  0.59628305  -0.02596776  1
  Zr  Zr59  1  0.40715158  0.20251083  0.51687000  1
  Zr  Zr60  1  0.80532507  0.00303757  0.76555086  1
  Zr  Zr61  1  0.39904275  -0.01364063  0.51338059  1
  Zr  Zr62  1  -0.00465138  0.60804823  -0.01545802  1
  Zr  Zr63  1  0.08978843  0.69499477  0.11697309  1
  Zr  Zr64  1  0.36883761  0.19175715  0.01841604  1
  Zr  Zr65  1  0.61725708  -0.00480346  0.24386703  1
  Zr  Zr66  1  0.79767985  0.79772716  -0.00513142  1
  Zr  Zr67  1  0.29824916  0.90290966  0.37088740  1
  Zr  Zr68  1  0.40181357  0.59441617  -0.01646929  1
  Zr  Zr69  1  0.58141771  0.19782163  -0.00509354  1
  Zr  Zr70  1  0.80642969  0.59330774  0.49230229  1
  Zr  Zr71  1  0.79448313  0.21656843  0.76080859  1
  Zr  Zr72  1  0.31407451  0.88903987  0.13715180  1
  Zr  Zr73  1  0.79948092  0.79661357  0.49149769  1
  Zr  Zr74  1  0.09332624  0.73015815  0.87075735  1
  Zr  Zr75  1  0.72793518  0.08619365  0.11887939  1
  Zr  Zr76  1  0.28509459  0.69747175  0.37895532  1
  Zr  Zr77  1  0.00799491  -0.00172943  0.75450521  1
  Zr  Zr78  1  0.70072401  0.88513566  0.63420654  1
  Zr  Zr79  1  0.90511635  0.32404669  0.88089792  1
  Ta  Ta80  1  0.19307071  0.78610634  0.24946437  1
  Ta  Ta81  1  0.59524952  -0.00246215  0.51009354  1
  Ta  Ta82  1  0.10541531  0.12222590  0.12391740  1
  Ta  Ta83  1  0.90612205  0.69680009  0.63333363  1
  Ta  Ta84  1  0.79543572  0.18710695  0.25330923  1
  Ta  Ta85  1  0.90255518  0.49906220  0.62504362  1
  Ta  Ta86  1  0.60860222  0.19285855  0.51128837  1
  Ta  Ta87  1  0.49121157  0.88979424  0.86701323  1
  Ta  Ta88  1  0.59196807  0.79230967  0.25908676  1
  Ta  Ta89  1  0.11698838  0.90610051  0.61676200  1
  Ta  Ta90  1  0.79512704  0.39386896  0.25447070  1
  Ta  Ta91  1  0.69887975  0.89262590  0.86039082  1
  Ta  Ta92  1  0.59469248  0.78568182  0.76044976  1
  Ta  Ta93  1  0.09262800  0.09936790  0.61738265  1
  Ta  Ta94  1  0.60859941  0.58332869  0.76252039  1
  Ta  Ta95  1  0.70778587  0.48666177  0.12802201  1
  Ta  Ta96  1  0.87525200  0.91668937  0.12587622  1
  Ta  Ta97  1  0.78419551  0.80654482  0.25234323  1
  Ta  Ta98  1  0.59175753  0.19809436  0.73309771  1
  Ta  Ta99  1  0.29879450  0.49167618  0.38730388  1
  Ta  Ta100  1  0.90487247  0.49423908  0.36990735  1
  Ta  Ta101  1  0.90554036  0.12068120  0.63283765  1
  Ta  Ta102  1  0.71040912  0.48074545  0.38211833  1
  Ta  Ta103  1  0.60135621  0.58840235  -0.01966338  1
  Ta  Ta104  1  0.10147130  0.91589389  0.89071375  1
  Ta  Ta105  1  0.00606174  0.20668533  0.00483991  1
  Ta  Ta106  1  0.39849474  0.79610088  -0.00853826  1
  Ta  Ta107  1  0.30124110  0.90723572  0.87702010  1
  Ta  Ta108  1  0.50792201  0.09810786  0.37746017  1
  Ta  Ta109  1  0.20522018  0.21156549  0.25890646  1
  Ta  Ta110  1  0.20821896  0.40723909  0.25454295  1
  Ta  Ta111  1  0.20353918  0.60606922  0.76232820  1
  Ta  Ta112  1  0.60366795  0.39198399  0.26592192  1
  Ta  Ta113  1  0.10628214  0.10844167  0.88213170  1
  Ta  Ta114  1  0.30627201  0.30395777  0.38396005  1
  Ta  Ta115  1  0.60396051  0.38895918  0.50127456  1
  Ta  Ta116  1  0.50885501  0.49609837  0.61264647  1
  Ta  Ta117  1  0.69728027  0.90866572  0.37800295  1
  Ta  Ta118  1  0.10574675  0.10562773  0.38209119  1
  Ta  Ta119  1  0.29116230  0.70430848  0.62598495  1
  Ti  Ti120  1  0.59540631  0.20102832  0.25992734  1
  Ti  Ti121  1  0.30566898  0.10371562  0.38221638  1
  Ti  Ti122  1  0.10868410  0.31010346  0.12647641  1
  Ti  Ti123  1  0.19812103  0.41105875  0.50576748  1
  Ti  Ti124  1  0.88257622  0.10679351  0.37624750  1
  Ti  Ti125  1  0.30757008  0.71265066  0.86821020  1
  Ti  Ti126  1  0.28631870  0.08324990  0.61351128  1
  Ti  Ti127  1  -0.01659776  0.81413379  0.00591606  1
  Ti  Ti128  1  0.20764067  0.40899986  0.74364618  1
  Ti  Ti129  1  0.50036146  0.29157201  0.38563917  1
  Ti  Ti130  1  0.40067475  0.38903867  0.72856655  1
  Ti  Ti131  1  0.49843244  0.48440470  0.38900568  1
  Ti  Ti132  1  0.10005818  0.71237850  0.63865455  1
  Ti  Ti133  1  0.29287202  0.10612212  0.87166825  1
  Ti  Ti134  1  0.20187898  0.81067535  0.75124193  1
  Ti  Ti135  1  0.62119548  0.39560903  -0.00994552  1
  Ti  Ti136  1  0.40922756  0.00038438  0.24683279  1
  Ti  Ti137  1  0.39582518  -0.01090460  0.72997791  1
  Ti  Ti138  1  0.68062096  0.10459044  0.86511999  1
  Ti  Ti139  1  0.92197193  0.11421667  0.86788010  1
  Ti  Ti140  1  0.50240491  0.28339144  0.86531460  1
  Ti  Ti141  1  0.00067971  0.41113362  0.00752841  1
  Ti  Ti142  1  0.80398098  0.38495035  0.50756300  1
  Ti  Ti143  1  0.10933395  0.50745868  0.12636579  1
  Ti  Ti144  1  0.20702315  0.80046938  0.50455581  1
  Ti  Ti145  1  0.39598808  0.19607284  0.25202253  1
  Ti  Ti146  1  0.09555200  0.48720533  0.86417611  1
  Ti  Ti147  1  0.00738782  0.60780319  0.50554608  1
  Ti  Ti148  1  0.60952853  0.59502751  0.48156110  1
  Ti  Ti149  1  0.88580701  0.30664955  0.37182345  1
  Ti  Ti150  1  -0.00256588  0.01333178  0.00461203  1
  Ti  Ti151  1  0.39785409  0.80408038  0.74669252  1
  Ti  Ti152  1  0.80218164  0.59843128  0.25739302  1
  Ti  Ti153  1  -0.00876404  0.41587052  0.49968144  1
  Ti  Ti154  1  0.70008501  0.28214873  0.38061213  1
  Ti  Ti155  1  0.70618060  0.68990727  0.86256681  1
  Ti  Ti156  1  0.70143590  0.49607429  0.61431599  1
  Ti  Ti157  1  0.82061426  0.79353978  0.76136384  1
  Ti  Ti158  1  0.20560292  0.80668394  -0.00150257  1
  Ti  Ti159  1  0.89281810  0.90579872  0.36900265  1
  Mo  Mo160  1  0.49807752  0.69595755  0.37333704  1
  Mo  Mo161  1  0.80165751  0.40256882  0.00366618  1
  Mo  Mo162  1  0.79391568  0.20577533  0.50012820  1
  Mo  Mo163  1  0.70376992  0.69672575  0.36731683  1
  Mo  Mo164  1  0.88633641  0.71203158  0.13192045  1
  Mo  Mo165  1  0.50300157  0.09216587  0.62302912  1
  Mo  Mo166  1  0.49814180  0.88830183  0.63187012  1
  Mo  Mo167  1  0.29272650  0.31185098  0.61944432  1
  Mo  Mo168  1  0.50095500  0.29939657  0.13836414  1
  Mo  Mo169  1  0.70296564  0.48803490  0.87554175  1
  Mo  Mo170  1  0.79579385  0.60283991  0.75377919  1
  Mo  Mo171  1  0.40025590  0.79772373  0.25079595  1
  Mo  Mo172  1  0.91718643  0.89242618  0.87582837  1
  Mo  Mo173  1  0.19552297  0.00595393  0.49544801  1
  Mo  Mo174  1  0.10148893  0.70960790  0.37235537  1
  Mo  Mo175  1  0.89538034  0.71133538  0.87121759  1
  Mo  Mo176  1  0.01090472  0.80790982  0.74242100  1
  Mo  Mo177  1  0.69819299  0.88504488  0.12644396  1
  Mo  Mo178  1  0.29284530  0.49180536  0.86131250  1
  Mo  Mo179  1  0.19606300  0.59285947  0.24594188  1
  Mo  Mo180  1  0.70609815  0.30229069  0.61705991  1
  Mo  Mo181  1  0.19057154  0.20564551  0.00123080  1
  Mo  Mo182  1  0.90836175  0.10507387  0.11841181  1
  Mo  Mo183  1  0.40252036  0.40097020  0.49903018  1
  Mo  Mo184  1  0.39517169  0.79689341  0.51003179  1
  Mo  Mo185  1  0.00140686  0.40391000  0.74487101  1
  Mo  Mo186  1  0.29653996  0.10165620  0.14309132  1
  Mo  Mo187  1  0.50289375  0.30389488  0.61559160  1
  Mo  Mo188  1  0.68861306  0.29925541  0.87419209  1
  Mo  Mo189  1  0.28788695  0.29388041  0.14023721  1
  Mo  Mo190  1  -0.00167264  0.19904813  0.74819965  1
  Mo  Mo191  1  0.80450932  -0.00301499  0.25992794  1
  Mo  Mo192  1  0.29578100  0.88885775  0.62604677  1
  Mo  Mo193  1  0.50068279  0.69427695  0.86490008  1
  Mo  Mo194  1  0.88883489  0.30991798  0.62728162  1
  Mo  Mo195  1  0.69119376  0.10211240  0.37924289  1
  Mo  Mo196  1  0.00038919  0.60409110  0.24634040  1
  Mo  Mo197  1  0.90456535  0.50201280  0.87889329  1
  Mo  Mo198  1  0.19328291  0.61173360  0.51247131  1
  Mo  Mo199  1  0.50772521  0.89045329  0.13354473  1
