# generated using pymatgen
data_HfZrTaTiMo
_symmetry_space_group_name_H-M   'P 1'
_cell_length_a   15.16940179
_cell_length_b   15.18331079
_cell_length_c   16.80005795
_cell_angle_alpha   89.94242509
_cell_angle_beta   89.99299903
_cell_angle_gamma   90.01028382
_symmetry_Int_Tables_number   1
_chemical_formula_structural   HfZrTaTiMo
_chemical_formula_sum   'Hf40 Zr40 Ta40 Ti40 Mo40'
_cell_volume   3869.41656467
_cell_formula_units_Z   40
loop_
 _symmetry_equiv_pos_site_id
 _symmetry_equiv_pos_as_xyz
  1  'x, y, z'
loop_
 _atom_site_type_symbol
 _atom_site_label
 _atom_site_symmetry_multiplicity
 _atom_site_fract_x
 _atom_site_fract_y
 _atom_site_fract_z
 _atom_site_occupancy
  Hf  Hf0  1  0.09249830  0.29292589  0.13036470  1
  Hf  Hf1  1  0.09788883  0.69656242  0.12416324  1
  Hf  Hf2  1  0.90528926  0.10976661  0.13060731  1
  Hf  Hf3  1  0.20623784  -0.00832122  0.77093927  1
  Hf  Hf4  1  0.39825769  0.20466596  -0.02468534  1
  Hf  Hf5  1  0.90329321  0.89407021  0.37110255  1
  Hf  Hf6  1  -0.00829500  -0.01352209  0.74718593  1
  Hf  Hf7  1  0.10224938  0.28521741  0.63393721  1
  Hf  Hf8  1  0.69210919  0.90201187  0.38402338  1
  Hf  Hf9  1  0.40625477  0.60196994  0.24761373  1
  Hf  Hf10  1  0.61429238  0.59689098  0.25860219  1
  Hf  Hf11  1  -0.00730784  0.01310493  -0.00474696  1
  Hf  Hf12  1  0.60068327  -0.00420791  0.24431824  1
  Hf  Hf13  1  0.49349960  0.10276490  0.12084615  1
  Hf  Hf14  1  0.29030307  0.90200581  0.11770981  1
  Hf  Hf15  1  0.32043964  0.50567831  0.63422243  1
  Hf  Hf16  1  0.50876367  0.47866894  0.38063783  1
  Hf  Hf17  1  0.27742748  0.70745144  0.36566556  1
  Hf  Hf18  1  0.58850255  0.80584615  0.74182075  1
  Hf  Hf19  1  0.10463567  0.08029544  0.37174859  1
  Hf  Hf20  1  0.41967259  0.00389576  0.76495914  1
  Hf  Hf21  1  0.29485756  0.91192335  0.63035055  1
  Hf  Hf22  1  0.29702717  0.50847286  0.11126048  1
  Hf  Hf23  1  0.10543733  0.49541349  0.87740942  1
  Hf  Hf24  1  0.88287412  0.68606645  0.13302544  1
  Hf  Hf25  1  0.29945850  0.51037566  0.88692076  1
  Hf  Hf26  1  0.01448444  0.59997747  0.73940317  1
  Hf  Hf27  1  0.71096915  0.31711022  0.12573947  1
  Hf  Hf28  1  0.59797821  0.60151238  0.49722129  1
  Hf  Hf29  1  0.79808502  -0.00183459  0.24864693  1
  Hf  Hf30  1  0.60511763  0.59411014  0.74945512  1
  Hf  Hf31  1  0.60272355  0.18104136  0.52066083  1
  Hf  Hf32  1  0.18458843  0.80886164  0.50416001  1
  Hf  Hf33  1  0.00407679  -0.01687400  0.50648044  1
  Hf  Hf34  1  0.59517264  0.39361525  0.75561622  1
  Hf  Hf35  1  0.10985375  0.30137938  0.37157566  1
  Hf  Hf36  1  0.00628211  0.18962986  0.49854053  1
  Hf  Hf37  1  0.89702213  0.89078355  0.12337485  1
  Hf  Hf38  1  0.09503525  0.89364588  0.11778545  1
  Hf  Hf39  1  0.50655304  0.30550484  0.11231476  1
  Zr  Zr40  1  0.40322517  0.40205216  0.23559610  1
  Zr  Zr41  1  0.39295383  0.80481749  0.49801768  1
  Zr  Zr42  1  0.88080444  0.89894311  0.88168715  1
  Zr  Zr43  1  0.90314904  0.50575655  0.86473332  1
  Zr  Zr44  1  0.80502071  0.20681035  0.49953634  1
  Zr  Zr45  1  0.49826770  0.89932279  0.12118818  1
  Zr  Zr46  1  0.29890708  0.48608701  0.37024680  1
  Zr  Zr47  1  0.40778319  0.22531136  0.49103977  1
  Zr  Zr48  1  0.08275915  0.88303597  0.88600470  1
  Zr  Zr49  1  0.89973924  0.50488116  0.61788599  1
  Zr  Zr50  1  0.10378620  0.09357800  0.13112859  1
  Zr  Zr51  1  0.10165616  0.50168816  0.37864220  1
  Zr  Zr52  1  0.21083468  0.18438755  0.50232887  1
  Zr  Zr53  1  0.69818006  0.49663575  0.61010557  1
  Zr  Zr54  1  0.40320237  0.79775422  -0.01200023  1
  Zr  Zr55  1  0.48990120  0.69612712  0.62709394  1
  Zr  Zr56  1  0.39491211  0.59921741  0.49228224  1
  Zr  Zr57  1  0.59602327  0.18607567  0.74471397  1
  Zr  Zr58  1  0.40553625  0.40238564  0.77174858  1
  Zr  Zr59  1  0.29570019  0.10272652  0.12240674  1
  Zr  Zr60  1  0.89967897  0.31096994  0.37340005  1
  Zr  Zr61  1  0.60738022  0.20601322  -0.01265668  1
  Zr  Zr62  1  0.52220979  0.10447268  0.37084378  1
  Zr  Zr63  1  0.90868008  0.50240535  0.39006515  1
  Zr  Zr64  1  0.39310987  0.00233568  -0.02672364  1
  Zr  Zr65  1  -0.00096795  0.60462639  0.00005808  1
  Zr  Zr66  1  0.90049188  0.10030235  0.63577144  1
  Zr  Zr67  1  0.68255135  0.89484073  0.87884634  1
  Zr  Zr68  1  0.79503971  0.40992494  0.75484425  1
  Zr  Zr69  1  0.40014987  0.01395563  0.49951691  1
  Zr  Zr70  1  0.68426582  0.91577270  0.61464809  1
  Zr  Zr71  1  0.39951332  0.21005773  0.25761935  1
  Zr  Zr72  1  0.20568335  0.20263940  0.76588447  1
  Zr  Zr73  1  0.69869434  0.10271101  0.12076746  1
  Zr  Zr74  1  0.18950049  0.19613786  -0.01664165  1
  Zr  Zr75  1  0.21566852  0.39193142  0.51244360  1
  Zr  Zr76  1  0.19331498  0.60587999  0.51542276  1
  Zr  Zr77  1  0.81599297  0.20867118  -0.00572300  1
  Zr  Zr78  1  0.39273134  0.80668832  0.25168785  1
  Zr  Zr79  1  0.68174847  0.30088626  0.38162248  1
  Ta  Ta80  1  0.00600788  0.39438292  0.51752112  1
  Ta  Ta81  1  0.39473698  0.00395206  0.25779965  1
  Ta  Ta82  1  0.50587903  0.70494396  0.37371695  1
  Ta  Ta83  1  0.38918487  0.80561760  0.76412716  1
  Ta  Ta84  1  0.70950360  0.49132404  0.39419420  1
  Ta  Ta85  1  0.60445348  0.79275606  0.25360185  1
  Ta  Ta86  1  0.70650108  0.70503683  0.61869637  1
  Ta  Ta87  1  0.90320555  0.71370878  0.61832732  1
  Ta  Ta88  1  0.11603681  0.08068300  0.63276109  1
  Ta  Ta89  1  0.31441455  0.10985935  0.64018078  1
  Ta  Ta90  1  0.19459112  0.40865590  0.74441551  1
  Ta  Ta91  1  0.61623494  0.61480964  -0.00061504  1
  Ta  Ta92  1  0.19255408  0.78560265  -0.01037255  1
  Ta  Ta93  1  0.19198850  0.60289077  0.24265408  1
  Ta  Ta94  1  0.51793362  0.50682044  0.11215965  1
  Ta  Ta95  1  -0.01349370  0.78662446  0.75271880  1
  Ta  Ta96  1  0.80494414  0.40452510  -0.01096101  1
  Ta  Ta97  1  0.70996171  0.69750280  0.86825630  1
  Ta  Ta98  1  0.18531541  0.78912592  0.75531887  1
  Ta  Ta99  1  0.29815292  0.70528583  0.12401234  1
  Ta  Ta100  1  0.31760335  0.30113108  0.64025785  1
  Ta  Ta101  1  0.51105081  0.69950618  0.12413794  1
  Ta  Ta102  1  0.80792094  0.62012216  0.74651616  1
  Ta  Ta103  1  0.29682216  0.30169094  0.11176457  1
  Ta  Ta104  1  0.79809620  0.80935204  0.73850110  1
  Ta  Ta105  1  -0.00218131  0.19717949  0.26085756  1
  Ta  Ta106  1  0.79686690  0.20407505  0.25769841  1
  Ta  Ta107  1  0.79336859  0.01163739  0.49843678  1
  Ta  Ta108  1  0.40756847  0.40422867  -0.00528869  1
  Ta  Ta109  1  0.80440721  0.61885960  0.48985070  1
  Ta  Ta110  1  0.90016915  0.30098333  0.63987719  1
  Ta  Ta111  1  0.19212339  0.40482744  0.23374207  1
  Ta  Ta112  1  -0.00827532  0.39617677  0.00330355  1
  Ta  Ta113  1  0.70400920  0.09278566  0.87244571  1
  Ta  Ta114  1  0.29089911  0.69595342  0.87192569  1
  Ta  Ta115  1  0.89126345  0.10684031  0.85940625  1
  Ta  Ta116  1  0.79250190  0.78052548  0.00237029  1
  Ta  Ta117  1  -0.00473796  0.57597499  0.23973170  1
  Ta  Ta118  1  0.49510758  0.89976494  0.37322744  1
  Ta  Ta119  1  0.79201733  0.00013543  0.00476927  1
  Ti  Ti120  1  0.00018597  0.77997874  0.25619055  1
  Ti  Ti121  1  0.19839672  -0.00117248  -0.02227932  1
  Ti  Ti122  1  0.60420661  0.20719142  0.24578698  1
  Ti  Ti123  1  0.20564233  0.20460826  0.25249519  1
  Ti  Ti124  1  0.69566603  0.87973141  0.11610461  1
  Ti  Ti125  1  0.80282426  0.80693061  0.49957533  1
  Ti  Ti126  1  0.28940226  0.91298968  0.37841386  1
  Ti  Ti127  1  0.59430029  -0.00491522  -0.00224956  1
  Ti  Ti128  1  0.18780283  0.40103172  0.00863053  1
  Ti  Ti129  1  0.80609007  0.41699999  0.25151797  1
  Ti  Ti130  1  0.61572166  0.41243879  -0.01285763  1
  Ti  Ti131  1  0.50982078  0.70477558  0.87663529  1
  Ti  Ti132  1  0.90183795  0.31119938  0.13863252  1
  Ti  Ti133  1  0.00146585  -0.00842966  0.25020547  1
  Ti  Ti134  1  0.40964233  0.20563333  0.77364993  1
  Ti  Ti135  1  0.00029773  0.21174738  -0.01118748  1
  Ti  Ti136  1  0.60672204  0.40280559  0.24600556  1
  Ti  Ti137  1  0.71188200  0.29629938  0.86766426  1
  Ti  Ti138  1  0.40769764  0.60747352  0.00180908  1
  Ti  Ti139  1  0.20347248  0.60231547  0.74217258  1
  Ti  Ti140  1  0.28503939  0.31642532  0.88147284  1
  Ti  Ti141  1  0.89783595  0.09574054  0.37174326  1
  Ti  Ti142  1  0.08683799  0.88373934  0.63236459  1
  Ti  Ti143  1  0.78337670  0.00490138  0.74257344  1
  Ti  Ti144  1  0.08403608  0.10781385  0.86377598  1
  Ti  Ti145  1  0.10516467  0.88102709  0.36379227  1
  Ti  Ti146  1  0.80126537  0.60481480  0.27308411  1
  Ti  Ti147  1  0.70435753  0.29714512  0.62705566  1
  Ti  Ti148  1  0.51118944  0.51041704  0.88925766  1
  Ti  Ti149  1  -0.00499822  0.78602504  0.49229754  1
  Ti  Ti150  1  0.29801158  0.10377756  0.37072090  1
  Ti  Ti151  1  0.00759080  0.60604258  0.50921919  1
  Ti  Ti152  1  0.20309644  -0.01041652  0.25022356  1
  Ti  Ti153  1  0.71450830  0.51376770  0.12421950  1
  Ti  Ti154  1  0.91925388  0.30059861  0.85142203  1
  Ti  Ti155  1  0.40750847  0.60770506  0.76074958  1
  Ti  Ti156  1  0.80058671  0.59188720  -0.00789194  1
  Ti  Ti157  1  0.79017931  0.79038639  0.25796394  1
  Ti  Ti158  1  0.59201579  0.80256212  0.50284692  1
  Ti  Ti159  1  0.29408927  0.71101882  0.63598482  1
  Mo  Mo160  1  0.69971096  0.50669919  0.87818476  1
  Mo  Mo161  1  0.50393021  0.30486028  0.36832970  1
  Mo  Mo162  1  0.50925045  0.30947085  0.88690713  1
  Mo  Mo163  1  0.49937572  0.08315294  0.62571414  1
  Mo  Mo164  1  0.59608080  -0.00631362  0.49472262  1
  Mo  Mo165  1  0.70603586  0.10180661  0.62930762  1
  Mo  Mo166  1  0.50234999  0.89157146  0.87932179  1
  Mo  Mo167  1  0.00948695  0.39899631  0.73610693  1
  Mo  Mo168  1  0.48855144  0.90324328  0.62250414  1
  Mo  Mo169  1  0.29785864  0.10371050  0.86668029  1
  Mo  Mo170  1  0.70087674  0.70492983  0.38576069  1
  Mo  Mo171  1  0.00240013  0.19493539  0.75011567  1
  Mo  Mo172  1  0.58780474  0.38503293  0.51608359  1
  Mo  Mo173  1  0.60281124  0.79354834  0.00265403  1
  Mo  Mo174  1  0.29873517  0.30488649  0.36627761  1
  Mo  Mo175  1  0.10686005  0.49472488  0.62454697  1
  Mo  Mo176  1  0.49960735  0.48656996  0.62286849  1
  Mo  Mo177  1  0.79653438  0.20409778  0.75321299  1
  Mo  Mo178  1  0.09403814  0.49327043  0.12115764  1
  Mo  Mo179  1  0.49588481  0.29815585  0.63243710  1
  Mo  Mo180  1  0.71139109  0.09944074  0.37034647  1
  Mo  Mo181  1  0.51572600  0.09738263  0.87998031  1
  Mo  Mo182  1  0.40903466  0.40152483  0.50925447  1
  Mo  Mo183  1  0.69943608  0.69511810  0.13158939  1
  Mo  Mo184  1  0.90030425  0.70756878  0.87370516  1
  Mo  Mo185  1  0.88856078  0.48855419  0.12344597  1
  Mo  Mo186  1  0.20677798  0.60325561  0.00401941  1
  Mo  Mo187  1  0.60175984  -0.00247490  0.75347528  1
  Mo  Mo188  1  0.09973799  0.68803035  0.87405033  1
  Mo  Mo189  1  0.89205369  0.89458001  0.61917343  1
  Mo  Mo190  1  0.19765020  -0.00098752  0.50625527  1
  Mo  Mo191  1  0.19110813  0.80034873  0.24746395  1
  Mo  Mo192  1  0.08441739  0.69341116  0.36661861  1
  Mo  Mo193  1  -0.01376025  0.79523997  0.00225852  1
  Mo  Mo194  1  -0.00063468  0.39682777  0.24543962  1
  Mo  Mo195  1  0.90441802  0.70102859  0.37026532  1
  Mo  Mo196  1  0.29156148  0.88927030  0.87258574  1
  Mo  Mo197  1  0.09876807  0.70434022  0.62720265  1
  Mo  Mo198  1  0.80069940  0.40058465  0.50923841  1
  Mo  Mo199  1  0.09200338  0.31146205  0.87184055  1
