# generated using pymatgen
data_HfZrTaTiMo
_symmetry_space_group_name_H-M   'P 1'
_cell_length_a   15.21620767
_cell_length_b   15.20851199
_cell_length_c   16.82923311
_cell_angle_alpha   90.03996573
_cell_angle_beta   89.91244144
_cell_angle_gamma   89.95293526
_symmetry_Int_Tables_number   1
_chemical_formula_structural   HfZrTaTiMo
_chemical_formula_sum   'Hf40 Zr40 Ta40 Ti40 Mo40'
_cell_volume   3894.54492282
_cell_formula_units_Z   40
loop_
 _symmetry_equiv_pos_site_id
 _symmetry_equiv_pos_as_xyz
  1  'x, y, z'
loop_
 _atom_site_type_symbol
 _atom_site_label
 _atom_site_symmetry_multiplicity
 _atom_site_fract_x
 _atom_site_fract_y
 _atom_site_fract_z
 _atom_site_occupancy
  Hf  Hf0  1  0.89463764  0.09760813  0.36735039  1
  Hf  Hf1  1  0.38230065  0.61052786  0.49203579  1
  Hf  Hf2  1  0.29743977  0.71529383  0.12838004  1
  Hf  Hf3  1  0.61483602  0.58359535  0.01484059  1
  Hf  Hf4  1  0.10150227  0.31407383  0.12065104  1
  Hf  Hf5  1  0.20047568  0.59015839  0.76520516  1
  Hf  Hf6  1  0.30172218  0.71610932  0.87201999  1
  Hf  Hf7  1  0.29104733  0.50377016  0.13605823  1
  Hf  Hf8  1  0.51162498  0.28405782  0.37589565  1
  Hf  Hf9  1  0.60888577  0.38937908  0.50583952  1
  Hf  Hf10  1  0.49404090  0.88987350  0.88911350  1
  Hf  Hf11  1  0.49230515  0.47676015  0.11815052  1
  Hf  Hf12  1  0.69467740  0.70861046  0.88858091  1
  Hf  Hf13  1  0.70187650  0.90043383  0.62311282  1
  Hf  Hf14  1  0.90637094  0.71789220  0.62763496  1
  Hf  Hf15  1  0.70861608  0.08071149  0.88162455  1
  Hf  Hf16  1  0.90922193  0.51104879  0.62517720  1
  Hf  Hf17  1  0.60758618  -0.02209126  0.01683014  1
  Hf  Hf18  1  0.80295262  0.81662461  0.76507062  1
  Hf  Hf19  1  0.80631415  0.19218022  0.51616392  1
  Hf  Hf20  1  0.20707729  0.19380420  -0.00131130  1
  Hf  Hf21  1  0.90747218  0.09668514  0.13129171  1
  Hf  Hf22  1  0.40415744  0.20208500  -0.00006384  1
  Hf  Hf23  1  0.39980586  0.18602406  0.50342739  1
  Hf  Hf24  1  0.29547681  0.90144192  0.37621474  1
  Hf  Hf25  1  0.61655610  0.38517667  0.24098533  1
  Hf  Hf26  1  0.10671309  0.30035117  0.86814962  1
  Hf  Hf27  1  0.49349267  0.50048029  0.62551748  1
  Hf  Hf28  1  0.89828179  0.30222275  0.11465202  1
  Hf  Hf29  1  0.70408764  0.29015923  0.87453544  1
  Hf  Hf30  1  -0.01287860  0.62208685  0.24950863  1
  Hf  Hf31  1  0.59999193  0.60157906  0.75131379  1
  Hf  Hf32  1  0.09155755  0.72167315  0.11386149  1
  Hf  Hf33  1  0.29793082  0.29533299  0.63581060  1
  Hf  Hf34  1  0.49703026  0.69366276  0.88839155  1
  Hf  Hf35  1  0.88943963  0.72017843  0.10618343  1
  Hf  Hf36  1  0.49741868  0.09319196  0.87606149  1
  Hf  Hf37  1  0.40419261  0.18081652  0.24615406  1
  Hf  Hf38  1  0.49979657  0.07771107  0.37098533  1
  Hf  Hf39  1  0.29111222  0.28813136  0.37846252  1
  Zr  Zr40  1  0.49483092  0.48625064  0.88137857  1
  Zr  Zr41  1  0.58972675  -0.00562937  0.49871579  1
  Zr  Zr42  1  -0.00810349  0.21558590  0.26237820  1
  Zr  Zr43  1  -0.01300384  0.00205856  0.75869685  1
  Zr  Zr44  1  0.49376608  0.69393791  0.11008898  1
  Zr  Zr45  1  0.00099197  0.61374113  0.49353956  1
  Zr  Zr46  1  0.09460646  0.10246659  0.62124540  1
  Zr  Zr47  1  0.70532544  0.70242219  0.62372138  1
  Zr  Zr48  1  0.40400491  0.80874178  0.49520785  1
  Zr  Zr49  1  0.60985300  0.18504045  0.74409647  1
  Zr  Zr50  1  0.59914263  0.60058854  0.50029687  1
  Zr  Zr51  1  0.50821933  0.50393583  0.37534704  1
  Zr  Zr52  1  0.69951762  0.89567357  0.36403291  1
  Zr  Zr53  1  0.09637187  0.89346836  0.62416470  1
  Zr  Zr54  1  0.27543645  0.50010540  0.36566593  1
  Zr  Zr55  1  0.09420057  0.51190822  0.10727375  1
  Zr  Zr56  1  0.19784756  0.20069830  0.24916705  1
  Zr  Zr57  1  0.31162200  0.30409885  0.12860778  1
  Zr  Zr58  1  0.81219713  0.39686898  0.50416374  1
  Zr  Zr59  1  0.48904425  0.70336962  0.63146001  1
  Zr  Zr60  1  0.79496501  0.59608719  0.23404839  1
  Zr  Zr61  1  0.59113294  -0.01548186  0.23336224  1
  Zr  Zr62  1  0.00799411  0.21319433  0.49125567  1
  Zr  Zr63  1  0.80177523  -0.00192924  0.49546339  1
  Zr  Zr64  1  0.70421870  0.10512674  0.13580022  1
  Zr  Zr65  1  0.10182604  0.09621570  0.12457336  1
  Zr  Zr66  1  0.08804990  0.72559587  0.37192576  1
  Zr  Zr67  1  0.40274616  0.39286304  0.26092109  1
  Zr  Zr68  1  0.48995152  0.08925795  0.63509167  1
  Zr  Zr69  1  0.18971038  0.39845694  0.50602513  1
  Zr  Zr70  1  0.22672076  0.40577816  -0.01356610  1
  Zr  Zr71  1  0.60335478  0.39461783  0.74414888  1
  Zr  Zr72  1  0.81569114  0.40241990  0.74669956  1
  Zr  Zr73  1  0.70098435  0.69137936  0.36953518  1
  Zr  Zr74  1  0.09731373  0.70687032  0.88412041  1
  Zr  Zr75  1  0.71085681  0.49799539  0.87630823  1
  Zr  Zr76  1  0.40322726  0.60776276  0.25403994  1
  Zr  Zr77  1  0.39777987  0.40047815  0.49993771  1
  Zr  Zr78  1  0.71867965  0.27584140  0.37082670  1
  Zr  Zr79  1  0.90459807  0.30835191  0.88583551  1
  Ta  Ta80  1  -0.00630887  0.60269310  0.76301068  1
  Ta  Ta81  1  0.00191643  0.00418272  -0.01289976  1
  Ta  Ta82  1  0.60488990  0.78755831  0.22768870  1
  Ta  Ta83  1  0.29612908  0.09065750  0.38271631  1
  Ta  Ta84  1  0.89945205  0.50295322  0.37287673  1
  Ta  Ta85  1  0.38480674  0.58454174  -0.00208915  1
  Ta  Ta86  1  0.18254560  0.60922487  0.24964125  1
  Ta  Ta87  1  0.09280725  0.49881279  0.88887723  1
  Ta  Ta88  1  0.29690837  0.09381529  0.86857494  1
  Ta  Ta89  1  0.80745921  0.60917597  0.75722311  1
  Ta  Ta90  1  0.81275957  0.19059560  0.73858927  1
  Ta  Ta91  1  0.60443534  0.59023099  0.23271363  1
  Ta  Ta92  1  -0.00070878  0.80114705  0.76510340  1
  Ta  Ta93  1  0.38416540  -0.01515741  0.23642427  1
  Ta  Ta94  1  0.89346654  0.70325731  0.89162598  1
  Ta  Ta95  1  0.70820226  0.48808388  0.36910325  1
  Ta  Ta96  1  0.29279449  0.50970492  0.63112203  1
  Ta  Ta97  1  0.18630727  0.82315283  0.24280304  1
  Ta  Ta98  1  0.81473963  0.39003378  0.24436770  1
  Ta  Ta99  1  0.38948777  0.41007487  0.74898035  1
  Ta  Ta100  1  0.10129194  0.69498362  0.63749871  1
  Ta  Ta101  1  0.20355507  0.61123163  -0.00722787  1
  Ta  Ta102  1  0.60873899  0.18788451  0.51191343  1
  Ta  Ta103  1  0.81647711  -0.02008653  0.24759618  1
  Ta  Ta104  1  0.10244111  0.10006329  0.87119448  1
  Ta  Ta105  1  0.49682888  0.29335530  0.63220583  1
  Ta  Ta106  1  0.60141672  0.80177924  0.49547759  1
  Ta  Ta107  1  0.31257943  0.29644456  0.85919934  1
  Ta  Ta108  1  0.10129674  0.30622983  0.63968030  1
  Ta  Ta109  1  0.11314667  0.90416568  0.86855740  1
  Ta  Ta110  1  0.19851591  0.78982314  0.50713172  1
  Ta  Ta111  1  0.30353901  0.90038320  0.62505624  1
  Ta  Ta112  1  0.00367366  0.42226546  0.25057338  1
  Ta  Ta113  1  0.59802418  0.80520602  0.75594115  1
  Ta  Ta114  1  0.90126247  0.50391495  0.10522974  1
  Ta  Ta115  1  0.29032963  0.71072590  0.36068551  1
  Ta  Ta116  1  0.37902401  -0.00644295  0.00650136  1
  Ta  Ta117  1  0.60357565  0.19137978  -0.00053771  1
  Ta  Ta118  1  0.49744617  0.89642114  0.63306381  1
  Ta  Ta119  1  0.70801799  0.50344137  0.62847747  1
  Ti  Ti120  1  0.20189728  0.19215089  0.75140494  1
  Ti  Ti121  1  0.50206559  0.71439689  0.36346889  1
  Ti  Ti122  1  0.01247222  -0.01276054  0.25476584  1
  Ti  Ti123  1  0.10904332  0.10379046  0.38611036  1
  Ti  Ti124  1  0.91656232  0.29998813  0.62951839  1
  Ti  Ti125  1  0.19918405  0.00653372  0.24802250  1
  Ti  Ti126  1  0.19579727  0.00021887  0.00004201  1
  Ti  Ti127  1  0.00372272  0.41135947  0.49546405  1
  Ti  Ti128  1  0.47454582  0.88191222  0.11414053  1
  Ti  Ti129  1  0.20886971  0.82126245  0.00314532  1
  Ti  Ti130  1  0.39456294  -0.00373603  0.75610675  1
  Ti  Ti131  1  0.01019476  0.41040226  0.75453605  1
  Ti  Ti132  1  0.70459283  0.29517957  0.62971795  1
  Ti  Ti133  1  0.80166856  0.59983180  0.49455784  1
  Ti  Ti134  1  0.81253192  0.79760502  0.49039039  1
  Ti  Ti135  1  0.79654871  0.00737606  0.74413197  1
  Ti  Ti136  1  0.20385592  0.00317490  0.50581818  1
  Ti  Ti137  1  -0.00673880  0.82412971  -0.01415445  1
  Ti  Ti138  1  0.10264169  0.50205815  0.63321686  1
  Ti  Ti139  1  0.49350181  0.09002772  0.11909619  1
  Ti  Ti140  1  0.39553146  0.80585130  0.75174951  1
  Ti  Ti141  1  0.78422676  0.82042252  -0.00474538  1
  Ti  Ti142  1  0.29137785  0.70276425  0.64015720  1
  Ti  Ti143  1  0.00361944  0.19933708  -0.00440909  1
  Ti  Ti144  1  0.19154889  0.60248989  0.49941309  1
  Ti  Ti145  1  0.89979910  0.10623700  0.87937883  1
  Ti  Ti146  1  0.09452871  0.91502354  0.39110290  1
  Ti  Ti147  1  0.90456649  0.50940423  0.89727501  1
  Ti  Ti148  1  0.60012984  0.37676244  0.00569123  1
  Ti  Ti149  1  0.81100700  -0.00478305  0.00810031  1
  Ti  Ti150  1  0.78775649  0.40510711  0.00904360  1
  Ti  Ti151  1  0.29612543  0.09515704  0.62797748  1
  Ti  Ti152  1  0.79785005  0.19680863  0.00247185  1
  Ti  Ti153  1  0.09908192  0.32517838  0.36828002  1
  Ti  Ti154  1  0.20240098  -0.00756593  0.74838233  1
  Ti  Ti155  1  0.49986288  0.29137124  0.86604878  1
  Ti  Ti156  1  0.90678896  0.91346968  0.61749960  1
  Ti  Ti157  1  -0.00239998  0.20076034  0.75162699  1
  Ti  Ti158  1  0.51714014  0.27772032  0.12896433  1
  Ti  Ti159  1  0.60399879  -0.01262900  0.75378316  1
  Mo  Mo160  1  0.69963991  0.09523000  0.63056157  1
  Mo  Mo161  1  0.09098957  0.51217724  0.37133946  1
  Mo  Mo162  1  0.19906007  0.80289854  0.74328481  1
  Mo  Mo163  1  0.38910888  0.79949719  -0.00247024  1
  Mo  Mo164  1  0.60032021  0.79892037  0.01799933  1
  Mo  Mo165  1  -0.01554301  0.82098756  0.24700218  1
  Mo  Mo166  1  0.39042582  -0.00537944  0.50464591  1
  Mo  Mo167  1  0.39612269  0.60037906  0.75023823  1
  Mo  Mo168  1  0.09007040  0.90600721  0.11641697  1
  Mo  Mo169  1  0.40058404  0.80541307  0.25334459  1
  Mo  Mo170  1  0.29637971  0.91046382  0.87088845  1
  Mo  Mo171  1  0.30054130  0.50309996  0.87219252  1
  Mo  Mo172  1  0.49633639  0.88654016  0.36093745  1
  Mo  Mo173  1  -0.00209230  0.60975371  -0.00574405  1
  Mo  Mo174  1  0.30403574  0.09420980  0.12148244  1
  Mo  Mo175  1  0.80858824  0.79612468  0.24741493  1
  Mo  Mo176  1  0.20251516  0.19553765  0.50347629  1
  Mo  Mo177  1  0.90194601  0.10185162  0.62695336  1
  Mo  Mo178  1  0.79935108  0.19687035  0.24616116  1
  Mo  Mo179  1  0.70612355  0.48561941  0.12438657  1
  Mo  Mo180  1  -0.00082507  0.81212711  0.50434202  1
  Mo  Mo181  1  0.91362899  0.88921141  0.37675378  1
  Mo  Mo182  1  0.90746538  0.31274238  0.37245606  1
  Mo  Mo183  1  0.60097413  0.18652884  0.24955641  1
  Mo  Mo184  1  0.18676374  0.40928791  0.25099801  1
  Mo  Mo185  1  0.69597540  0.09870292  0.35868585  1
  Mo  Mo186  1  0.39707836  0.19627838  0.75371107  1
  Mo  Mo187  1  0.00031301  0.00357085  0.49407060  1
  Mo  Mo188  1  0.00036750  0.39799905  -0.00524601  1
  Mo  Mo189  1  0.89413964  0.91167323  0.88109761  1
  Mo  Mo190  1  0.19645483  0.39886839  0.75277425  1
  Mo  Mo191  1  0.91436640  0.90718153  0.11818769  1
  Mo  Mo192  1  0.41345858  0.38928447  -0.00569313  1
  Mo  Mo193  1  0.69344812  0.90331509  0.87609854  1
  Mo  Mo194  1  0.72394917  0.88678948  0.13351613  1
  Mo  Mo195  1  0.88829581  0.70990221  0.37496544  1
  Mo  Mo196  1  0.70252046  0.29481025  0.11749757  1
  Mo  Mo197  1  0.69977533  0.70162863  0.11590708  1
  Mo  Mo198  1  0.80097034  0.60227273  0.00526106  1
  Mo  Mo199  1  0.28215732  0.90430031  0.12711594  1
