# generated using pymatgen
data_In86.4Cu28.8Se144
_symmetry_space_group_name_H-M   'P 1'
_cell_length_a   17.28000000
_cell_length_b   17.28000000
_cell_length_c   23.08000000
_cell_angle_alpha   90.00000000
_cell_angle_beta   90.00000000
_cell_angle_gamma   90.00000000
_symmetry_Int_Tables_number   1
_chemical_formula_structural   In86.4Cu28.8Se144
_chemical_formula_sum   'In86.4 Cu28.8 Se144'
_cell_volume   6891.65107200
_cell_formula_units_Z   1
loop_
 _symmetry_equiv_pos_site_id
 _symmetry_equiv_pos_as_xyz
  1  'x, y, z'
loop_
 _atom_site_type_symbol
 _atom_site_label
 _atom_site_symmetry_multiplicity
 _atom_site_fract_x
 _atom_site_fract_y
 _atom_site_fract_z
 _atom_site_occupancy
  In  In2  1  0.00000000  0.16666667  0.12500000  1.0
  In  In2  1  0.00000000  0.16666667  0.62500000  1.0
  In  In2  1  0.00000000  0.50000000  0.12500000  1.0
  In  In2  1  0.00000000  0.50000000  0.62500000  1.0
  In  In2  1  0.00000000  0.83333333  0.12500000  1.0
  In  In2  1  0.00000000  0.83333333  0.62500000  1.0
  In  In2  1  0.33333333  0.16666667  0.12500000  1.0
  In  In2  1  0.33333333  0.16666667  0.62500000  1.0
  In  In2  1  0.33333333  0.50000000  0.12500000  1.0
  In  In2  1  0.33333333  0.50000000  0.62500000  1.0
  In  In2  1  0.33333333  0.83333333  0.12500000  1.0
  In  In2  1  0.33333333  0.83333333  0.62500000  1.0
  In  In2  1  0.66666667  0.16666667  0.12500000  1.0
  In  In2  1  0.66666667  0.16666667  0.62500000  1.0
  In  In2  1  0.66666667  0.50000000  0.12500000  1.0
  In  In2  1  0.66666667  0.50000000  0.62500000  1.0
  In  In2  1  0.66666667  0.83333333  0.12500000  1.0
  In  In2  1  0.66666667  0.83333333  0.62500000  1.0
  In  In2  1  0.16666667  0.00000000  0.37500000  1.0
  In  In2  1  0.16666667  0.00000000  0.87500000  1.0
  In  In2  1  0.16666667  0.33333333  0.37500000  1.0
  In  In2  1  0.16666667  0.33333333  0.87500000  1.0
  In  In2  1  0.16666667  0.66666667  0.37500000  1.0
  In  In2  1  0.16666667  0.66666667  0.87500000  1.0
  In  In2  1  0.50000000  0.00000000  0.37500000  1.0
  In  In2  1  0.50000000  0.00000000  0.87500000  1.0
  In  In2  1  0.50000000  0.33333333  0.37500000  1.0
  In  In2  1  0.50000000  0.33333333  0.87500000  1.0
  In  In2  1  0.50000000  0.66666667  0.37500000  1.0
  In  In2  1  0.50000000  0.66666667  0.87500000  1.0
  In  In2  1  0.83333333  0.00000000  0.37500000  1.0
  In  In2  1  0.83333333  0.00000000  0.87500000  1.0
  In  In2  1  0.83333333  0.33333333  0.37500000  1.0
  In  In2  1  0.83333333  0.33333333  0.87500000  1.0
  In  In2  1  0.83333333  0.66666667  0.37500000  1.0
  In  In2  1  0.83333333  0.66666667  0.87500000  1.0
  In  In2  1  0.00000000  0.16666667  0.37500000  1.0
  In  In2  1  0.00000000  0.16666667  0.87500000  1.0
  In  In2  1  0.00000000  0.50000000  0.37500000  1.0
  In  In2  1  0.00000000  0.50000000  0.87500000  1.0
  In  In2  1  0.00000000  0.83333333  0.37500000  1.0
  In  In2  1  0.00000000  0.83333333  0.87500000  1.0
  In  In2  1  0.33333333  0.16666667  0.37500000  1.0
  In  In2  1  0.33333333  0.16666667  0.87500000  1.0
  In  In2  1  0.33333333  0.50000000  0.37500000  1.0
  In  In2  1  0.33333333  0.50000000  0.87500000  1.0
  In  In2  1  0.33333333  0.83333333  0.37500000  1.0
  In  In2  1  0.33333333  0.83333333  0.87500000  1.0
  In  In2  1  0.66666667  0.16666667  0.37500000  1.0
  In  In2  1  0.66666667  0.16666667  0.87500000  1.0
  In  In2  1  0.66666667  0.50000000  0.37500000  1.0
  In  In2  1  0.66666667  0.50000000  0.87500000  1.0
  In  In2  1  0.66666667  0.83333333  0.37500000  1.0
  In  In2  1  0.66666667  0.83333333  0.87500000  1.0
  In  In2  1  0.16666667  0.00000000  0.12500000  1.0
  In  In2  1  0.16666667  0.00000000  0.62500000  1.0
  In  In2  1  0.16666667  0.33333333  0.12500000  1.0
  In  In2  1  0.16666667  0.33333333  0.62500000  1.0
  In  In2  1  0.16666667  0.66666667  0.12500000  1.0
  In  In2  1  0.16666667  0.66666667  0.62500000  1.0
  In  In2  1  0.50000000  0.00000000  0.12500000  1.0
  In  In2  1  0.50000000  0.00000000  0.62500000  1.0
  In  In2  1  0.50000000  0.33333333  0.12500000  1.0
  In  In2  1  0.50000000  0.33333333  0.62500000  1.0
  In  In2  1  0.50000000  0.66666667  0.12500000  1.0
  In  In2  1  0.50000000  0.66666667  0.62500000  1.0
  In  In2  1  0.83333333  0.00000000  0.12500000  1.0
  In  In2  1  0.83333333  0.00000000  0.62500000  1.0
  In  In2  1  0.83333333  0.33333333  0.12500000  1.0
  In  In2  1  0.83333333  0.33333333  0.62500000  1.0
  In  In2  1  0.83333333  0.66666667  0.12500000  1.0
  In  In2  1  0.83333333  0.66666667  0.62500000  1.0
  In  In  1  0.00000000  0.33333333  0.25000000  1.0
  In  In  1  0.50000000  0.50000000  0.50000000  1.0
  In  In  1  0.00000000  0.00000000  0.75000000  1.0
  In  In  1  0.16666667  0.83333333  0.50000000  1.0
  In  In  1  0.66666667  0.33333333  0.75000000  1.0
  In  In  1  0.66666667  0.00000000  0.25000000  1.0
  In  In  1  0.33333333  0.00000000  0.25000000  1.0
  In  In  1  0.66666667  0.66666667  0.25000000  1.0
  In  In  1  0.00000000  0.66666667  0.75000000  1.0
  In  In  1  0.83333333  0.16666667  0.00000000  1.0
  In  In  1  0.50000000  0.16666667  0.00000000  1.0
  In  In  1  0.83333333  0.50000000  0.50000000  1.0
  In  In  1  0.33333333  0.00000000  0.75000000  1.0
  In  In  1  0.50000000  0.83333333  0.00000000  1.0
  Cu  Cu  1  0.33333333  0.00000000  0.50000000  1.0
  Cu  Cu  1  0.50000000  0.16666667  0.25000000  1.0
  Cu  Cu  1  0.66666667  0.33333333  0.50000000  1.0
  Cu  Cu  1  0.83333333  0.83333333  0.75000000  1.0
  Cu  Cu  1  0.33333333  0.00000000  0.00000000  1.0
  Cu  Cu  1  0.33333333  0.33333333  0.00000000  1.0
  Cu  Cu  1  0.33333333  0.66666667  0.50000000  1.0
  Cu  Cu  1  0.66666667  0.66666667  0.50000000  1.0
  Cu  Cu  1  0.50000000  0.50000000  0.25000000  1.0
  Cu  Cu  1  0.83333333  0.83333333  0.25000000  1.0
  Cu  Cu  1  0.66666667  0.00000000  0.50000000  1.0
  Cu  Cu  1  0.16666667  0.16666667  0.25000000  1.0
  Cu  Cu  1  0.33333333  0.33333333  0.50000000  1.0
  Cu  Cu  1  0.66666667  0.00000000  0.00000000  1.0
  Cu  Cu  1  0.00000000  0.00000000  0.50000000  1.0
  Cu  Cu  1  0.16666667  0.83333333  0.25000000  1.0
  Cu  Cu  1  0.50000000  0.83333333  0.25000000  1.0
  Cu  Cu  1  0.00000000  0.33333333  0.00000000  1.0
  Cu  Cu  1  0.50000000  0.83333333  0.75000000  1.0
  Cu  Cu  1  0.00000000  0.66666667  0.00000000  1.0
  Cu  Cu  1  0.16666667  0.83333333  0.75000000  1.0
  Cu  Cu  1  0.16666667  0.16666667  0.75000000  1.0
  Cu  Cu  1  0.16666667  0.50000000  0.25000000  1.0
  Cu  Cu  1  0.00000000  0.33333333  0.50000000  1.0
  Cu  Cu  1  0.83333333  0.50000000  0.25000000  1.0
  Cu  Cu  1  0.66666667  0.33333333  0.00000000  1.0
  Cu  Cu  1  0.83333333  0.50000000  0.75000000  1.0
  Cu  Cu  1  0.00000000  0.66666667  0.50000000  1.0
  Cu  Cu  1  0.50000000  0.50000000  0.75000000  1.0
  Se  Se144  1  0.08333333  0.08333333  0.06250000  1.0
  Se  Se145  1  0.08333333  0.08333333  0.56250000  1.0
  Se  Se146  1  0.08333333  0.41666667  0.06250000  1.0
  Se  Se147  1  0.08333333  0.41666667  0.56250000  1.0
  Se  Se148  1  0.08333333  0.75000000  0.06250000  1.0
  Se  Se149  1  0.08333333  0.75000000  0.56250000  1.0
  Se  Se150  1  0.41666667  0.08333333  0.06250000  1.0
  Se  Se151  1  0.41666667  0.08333333  0.56250000  1.0
  Se  Se152  1  0.41666667  0.41666667  0.06250000  1.0
  Se  Se153  1  0.41666667  0.41666667  0.56250000  1.0
  Se  Se154  1  0.41666667  0.75000000  0.06250000  1.0
  Se  Se155  1  0.41666667  0.75000000  0.56250000  1.0
  Se  Se156  1  0.75000000  0.08333333  0.06250000  1.0
  Se  Se157  1  0.75000000  0.08333333  0.56250000  1.0
  Se  Se158  1  0.75000000  0.41666667  0.06250000  1.0
  Se  Se159  1  0.75000000  0.41666667  0.56250000  1.0
  Se  Se160  1  0.75000000  0.75000000  0.06250000  1.0
  Se  Se161  1  0.75000000  0.75000000  0.56250000  1.0
  Se  Se162  1  0.25000000  0.25000000  0.06250000  1.0
  Se  Se163  1  0.25000000  0.25000000  0.56250000  1.0
  Se  Se164  1  0.25000000  0.58333333  0.06250000  1.0
  Se  Se165  1  0.25000000  0.58333333  0.56250000  1.0
  Se  Se166  1  0.25000000  0.91666667  0.06250000  1.0
  Se  Se167  1  0.25000000  0.91666667  0.56250000  1.0
  Se  Se168  1  0.58333333  0.25000000  0.06250000  1.0
  Se  Se169  1  0.58333333  0.25000000  0.56250000  1.0
  Se  Se170  1  0.58333333  0.58333333  0.06250000  1.0
  Se  Se171  1  0.58333333  0.58333333  0.56250000  1.0
  Se  Se172  1  0.58333333  0.91666667  0.06250000  1.0
  Se  Se173  1  0.58333333  0.91666667  0.56250000  1.0
  Se  Se174  1  0.91666667  0.25000000  0.06250000  1.0
  Se  Se175  1  0.91666667  0.25000000  0.56250000  1.0
  Se  Se176  1  0.91666667  0.58333333  0.06250000  1.0
  Se  Se177  1  0.91666667  0.58333333  0.56250000  1.0
  Se  Se178  1  0.91666667  0.91666667  0.06250000  1.0
  Se  Se179  1  0.91666667  0.91666667  0.56250000  1.0
  Se  Se180  1  0.08333333  0.25000000  0.43750000  1.0
  Se  Se181  1  0.08333333  0.25000000  0.93750000  1.0
  Se  Se182  1  0.08333333  0.58333333  0.43750000  1.0
  Se  Se183  1  0.08333333  0.58333333  0.93750000  1.0
  Se  Se184  1  0.08333333  0.91666667  0.43750000  1.0
  Se  Se185  1  0.08333333  0.91666667  0.93750000  1.0
  Se  Se186  1  0.41666667  0.25000000  0.43750000  1.0
  Se  Se187  1  0.41666667  0.25000000  0.93750000  1.0
  Se  Se188  1  0.41666667  0.58333333  0.43750000  1.0
  Se  Se189  1  0.41666667  0.58333333  0.93750000  1.0
  Se  Se190  1  0.41666667  0.91666667  0.43750000  1.0
  Se  Se191  1  0.41666667  0.91666667  0.93750000  1.0
  Se  Se192  1  0.75000000  0.25000000  0.43750000  1.0
  Se  Se193  1  0.75000000  0.25000000  0.93750000  1.0
  Se  Se194  1  0.75000000  0.58333333  0.43750000  1.0
  Se  Se195  1  0.75000000  0.58333333  0.93750000  1.0
  Se  Se196  1  0.75000000  0.91666667  0.43750000  1.0
  Se  Se197  1  0.75000000  0.91666667  0.93750000  1.0
  Se  Se198  1  0.25000000  0.08333333  0.43750000  1.0
  Se  Se199  1  0.25000000  0.08333333  0.93750000  1.0
  Se  Se200  1  0.25000000  0.41666667  0.43750000  1.0
  Se  Se201  1  0.25000000  0.41666667  0.93750000  1.0
  Se  Se202  1  0.25000000  0.75000000  0.43750000  1.0
  Se  Se203  1  0.25000000  0.75000000  0.93750000  1.0
  Se  Se204  1  0.58333333  0.08333333  0.43750000  1.0
  Se  Se205  1  0.58333333  0.08333333  0.93750000  1.0
  Se  Se206  1  0.58333333  0.41666667  0.43750000  1.0
  Se  Se207  1  0.58333333  0.41666667  0.93750000  1.0
  Se  Se208  1  0.58333333  0.75000000  0.43750000  1.0
  Se  Se209  1  0.58333333  0.75000000  0.93750000  1.0
  Se  Se210  1  0.91666667  0.08333333  0.43750000  1.0
  Se  Se211  1  0.91666667  0.08333333  0.93750000  1.0
  Se  Se212  1  0.91666667  0.41666667  0.43750000  1.0
  Se  Se213  1  0.91666667  0.41666667  0.93750000  1.0
  Se  Se214  1  0.91666667  0.75000000  0.43750000  1.0
  Se  Se215  1  0.91666667  0.75000000  0.93750000  1.0
  Se  Se216  1  0.25000000  0.25000000  0.31250000  1.0
  Se  Se217  1  0.25000000  0.25000000  0.81250000  1.0
  Se  Se218  1  0.25000000  0.58333333  0.31250000  1.0
  Se  Se219  1  0.25000000  0.58333333  0.81250000  1.0
  Se  Se220  1  0.25000000  0.91666667  0.31250000  1.0
  Se  Se221  1  0.25000000  0.91666667  0.81250000  1.0
  Se  Se222  1  0.58333333  0.25000000  0.31250000  1.0
  Se  Se223  1  0.58333333  0.25000000  0.81250000  1.0
  Se  Se224  1  0.58333333  0.58333333  0.31250000  1.0
  Se  Se225  1  0.58333333  0.58333333  0.81250000  1.0
  Se  Se226  1  0.58333333  0.91666667  0.31250000  1.0
  Se  Se227  1  0.58333333  0.91666667  0.81250000  1.0
  Se  Se228  1  0.91666667  0.25000000  0.31250000  1.0
  Se  Se229  1  0.91666667  0.25000000  0.81250000  1.0
  Se  Se230  1  0.91666667  0.58333333  0.31250000  1.0
  Se  Se231  1  0.91666667  0.58333333  0.81250000  1.0
  Se  Se232  1  0.91666667  0.91666667  0.31250000  1.0
  Se  Se233  1  0.91666667  0.91666667  0.81250000  1.0
  Se  Se234  1  0.08333333  0.08333333  0.31250000  1.0
  Se  Se235  1  0.08333333  0.08333333  0.81250000  1.0
  Se  Se236  1  0.08333333  0.41666667  0.31250000  1.0
  Se  Se237  1  0.08333333  0.41666667  0.81250000  1.0
  Se  Se238  1  0.08333333  0.75000000  0.31250000  1.0
  Se  Se239  1  0.08333333  0.75000000  0.81250000  1.0
  Se  Se240  1  0.41666667  0.08333333  0.31250000  1.0
  Se  Se241  1  0.41666667  0.08333333  0.81250000  1.0
  Se  Se242  1  0.41666667  0.41666667  0.31250000  1.0
  Se  Se243  1  0.41666667  0.41666667  0.81250000  1.0
  Se  Se244  1  0.41666667  0.75000000  0.31250000  1.0
  Se  Se245  1  0.41666667  0.75000000  0.81250000  1.0
  Se  Se246  1  0.75000000  0.08333333  0.31250000  1.0
  Se  Se247  1  0.75000000  0.08333333  0.81250000  1.0
  Se  Se248  1  0.75000000  0.41666667  0.31250000  1.0
  Se  Se249  1  0.75000000  0.41666667  0.81250000  1.0
  Se  Se250  1  0.75000000  0.75000000  0.31250000  1.0
  Se  Se251  1  0.75000000  0.75000000  0.81250000  1.0
  Se  Se252  1  0.25000000  0.08333333  0.18750000  1.0
  Se  Se253  1  0.25000000  0.08333333  0.68750000  1.0
  Se  Se254  1  0.25000000  0.41666667  0.18750000  1.0
  Se  Se255  1  0.25000000  0.41666667  0.68750000  1.0
  Se  Se256  1  0.25000000  0.75000000  0.18750000  1.0
  Se  Se257  1  0.25000000  0.75000000  0.68750000  1.0
  Se  Se258  1  0.58333333  0.08333333  0.18750000  1.0
  Se  Se259  1  0.58333333  0.08333333  0.68750000  1.0
  Se  Se260  1  0.58333333  0.41666667  0.18750000  1.0
  Se  Se261  1  0.58333333  0.41666667  0.68750000  1.0
  Se  Se262  1  0.58333333  0.75000000  0.18750000  1.0
  Se  Se263  1  0.58333333  0.75000000  0.68750000  1.0
  Se  Se264  1  0.91666667  0.08333333  0.18750000  1.0
  Se  Se265  1  0.91666667  0.08333333  0.68750000  1.0
  Se  Se266  1  0.91666667  0.41666667  0.18750000  1.0
  Se  Se267  1  0.91666667  0.41666667  0.68750000  1.0
  Se  Se268  1  0.91666667  0.75000000  0.18750000  1.0
  Se  Se269  1  0.91666667  0.75000000  0.68750000  1.0
  Se  Se270  1  0.08333333  0.25000000  0.18750000  1.0
  Se  Se271  1  0.08333333  0.25000000  0.68750000  1.0
  Se  Se272  1  0.08333333  0.58333333  0.18750000  1.0
  Se  Se273  1  0.08333333  0.58333333  0.68750000  1.0
  Se  Se274  1  0.08333333  0.91666667  0.18750000  1.0
  Se  Se275  1  0.08333333  0.91666667  0.68750000  1.0
  Se  Se276  1  0.41666667  0.25000000  0.18750000  1.0
  Se  Se277  1  0.41666667  0.25000000  0.68750000  1.0
  Se  Se278  1  0.41666667  0.58333333  0.18750000  1.0
  Se  Se279  1  0.41666667  0.58333333  0.68750000  1.0
  Se  Se280  1  0.41666667  0.91666667  0.18750000  1.0
  Se  Se281  1  0.41666667  0.91666667  0.68750000  1.0
  Se  Se282  1  0.75000000  0.25000000  0.18750000  1.0
  Se  Se283  1  0.75000000  0.25000000  0.68750000  1.0
  Se  Se284  1  0.75000000  0.58333333  0.18750000  1.0
  Se  Se285  1  0.75000000  0.58333333  0.68750000  1.0
  Se  Se286  1  0.75000000  0.91666667  0.18750000  1.0
  Se  Se287  1  0.75000000  0.91666667  0.68750000  1.0















































































































































































































































































































































































































































































































































































































































































































































































































































































































































































































































