# generated using pymatgen
data_V85Zn86O256
_symmetry_space_group_name_H-M   'P 1'
_cell_length_a   16.94499542
_cell_length_b   16.95986046
_cell_length_c   16.96599719
_cell_angle_alpha   89.96467459
_cell_angle_beta   89.92061431
_cell_angle_gamma   89.91483159
_symmetry_Int_Tables_number   1
_chemical_formula_structural   V85Zn86O256
_chemical_formula_sum   'V85 Zn86 O256'
_cell_volume   4875.75800609
_cell_formula_units_Z   1
loop_
 _symmetry_equiv_pos_site_id
 _symmetry_equiv_pos_as_xyz
  1  'x, y, z'
loop_
 _atom_site_type_symbol
 _atom_site_label
 _atom_site_symmetry_multiplicity
 _atom_site_fract_x
 _atom_site_fract_y
 _atom_site_fract_z
 _atom_site_occupancy
  V  V0  1  0.50116975  0.00128453  0.00021170  1
  V  V1  1  0.11822384  0.86443414  0.75394102  1
  V  V2  1  0.13273926  -0.02301575  0.11991811  1
  V  V3  1  0.62626738  0.12740958  0.00178352  1
  V  V4  1  0.26564412  0.62540540  0.37712588  1
  V  V5  1  0.75135365  0.12510690  0.87539042  1
  V  V6  1  0.50104247  0.24633857  0.74562667  1
  V  V7  1  -0.00186948  0.38197281  0.88015225  1
  V  V8  1  0.62522766  0.24081750  0.37225116  1
  V  V9  1  0.25154817  0.50079033  0.75845562  1
  V  V10  1  0.87389841  0.37019437  0.49783972  1
  V  V11  1  0.50033554  0.87413143  0.87654955  1
  V  V12  1  0.62495594  0.50098744  0.62613519  1
  V  V13  1  0.75087048  0.62637103  0.87408845  1
  V  V14  1  0.12211931  0.12413707  0.00765026  1
  V  V15  1  0.63386464  0.62441090  0.49146682  1
  V  V16  1  0.63076702  0.37407607  0.24989608  1
  V  V17  1  0.12423424  0.86287607  0.27271187  1
  V  V18  1  0.62160467  0.88631430  0.25780497  1
  V  V19  1  0.61542989  0.12325568  0.50809878  1
  V  V20  1  0.49804742  0.12479784  0.12523961  1
  V  V21  1  0.49269631  0.50241081  -0.00174273  1
  V  V22  1  0.25100460  0.12591581  0.87623713  1
  V  V23  1  0.37502761  0.75213022  0.62128220  1
  V  V24  1  0.00126234  0.25452980  0.75427105  1
  V  V25  1  0.25308287  0.37620917  0.12550180  1
  V  V26  1  0.87721180  0.87434115  -0.00138377  1
  V  V27  1  0.12557096  0.62766824  0.00185284  1
  V  V28  1  0.75317238  0.75929114  0.49640004  1
  V  V29  1  0.37572073  0.00073602  0.87520327  1
  V  V30  1  0.49107058  0.37936390  0.87365638  1
  V  V31  1  0.77479238  0.00891363  0.24548808  1
  V  V32  1  0.37921445  0.87853255  0.48144722  1
  V  V33  1  0.00660750  0.12553691  0.62967653  1
  V  V34  1  0.49764922  0.00177417  0.49425302  1
  V  V35  1  0.12827953  0.25151634  0.37705491  1
  V  V36  1  0.86394517  0.76241711  0.63165443  1
  V  V37  1  0.49870420  0.50210641  0.48641236  1
  V  V38  1  0.12611526  0.38095438  0.75144997  1
  V  V39  1  0.74731590  0.24741196  0.49938879  1
  V  V40  1  0.36823440  0.11562995  0.25124241  1
  V  V41  1  0.37797103  0.12352710  0.74172772  1
  V  V42  1  0.75701049  0.37415538  0.11803489  1
  V  V43  1  0.49986256  0.75023382  0.75034985  1
  V  V44  1  0.50040399  0.75489942  0.25916569  1
  V  V45  1  0.49581319  0.24820131  0.24929186  1
  V  V46  1  -0.00341245  0.37156680  0.37103922  1
  V  V47  1  0.88931186  0.24106176  0.11811159  1
  V  V48  1  0.24891737  0.75648608  0.00312918  1
  V  V49  1  0.25452922  0.37685927  0.62337360  1
  V  V50  1  0.88244415  -0.00549239  0.87051236  1
  V  V51  1  0.12498999  0.25153838  0.87744550  1
  V  V52  1  0.87734961  0.12614221  0.75262131  1
  V  V53  1  0.79058115  0.11420966  0.38367553  1
  V  V54  1  0.75135471  -0.00406822  0.73960544  1
  V  V55  1  0.87666229  0.25165151  0.62586118  1
  V  V56  1  0.12264326  0.50899369  0.13129225  1
  V  V57  1  -0.00202437  0.49895024  0.49723894  1
  V  V58  1  0.12405204  0.50334444  0.62546644  1
  V  V59  1  0.25111863  0.25195699  0.00320564  1
  V  V60  1  0.87128923  0.49716892  0.88269866  1
  V  V61  1  -0.00335183  0.74552349  0.26685050  1
  V  V62  1  0.62528502  0.37530124  0.75185762  1
  V  V63  1  0.25212357  0.62875130  0.87838738  1
  V  V64  1  0.25275558  0.87285019  0.62470711  1
  V  V65  1  0.62239461  0.62724360  0.00338949  1
  V  V66  1  0.88088688  0.74269254  0.12392356  1
  V  V67  1  0.37544406  0.62149984  0.75392200  1
  V  V68  1  0.62467968  0.75120565  0.87722019  1
  V  V69  1  0.37707849  0.37870956  0.49132005  1
  V  V70  1  -0.00565436  0.50574107  0.00909460  1
  V  V71  1  0.49823939  0.62816921  0.14014156  1
  V  V72  1  0.75508216  0.50240023  0.75064434  1
  V  V73  1  0.26612531  0.50512428  0.25591326  1
  V  V74  1  -0.00042919  -0.00025191  0.00343025  1
  V  V75  1  0.12560212  0.37697606  0.25330393  1
  V  V76  1  0.50070338  0.62392557  0.62353007  1
  V  V77  1  -0.01298956  0.62509575  0.62830862  1
  V  V78  1  0.12202989  0.62942033  0.48923171  1
  V  V79  1  0.37273520  0.75458723  0.13011491  1
  V  V80  1  0.86201899  0.50350646  0.36826674  1
  V  V81  1  0.12948590  0.12723516  0.50234038  1
  V  V82  1  0.62829519  0.50035798  0.13108073  1
  V  V83  1  0.24927615  0.10893770  0.37386673  1
  V  V84  1  0.13133337  0.00033844  0.62814187  1
  Zn  Zn85  1  -0.08320893  -0.04562384  0.42706690  1
  Zn  Zn86  1  0.25179899  -0.00420981  0.75359425  1
  Zn  Zn87  1  0.36964650  0.87754902  0.00428413  1
  Zn  Zn88  1  0.75124573  0.87754220  0.12641374  1
  Zn  Zn89  1  0.25660564  0.25096264  0.49904125  1
  Zn  Zn90  1  0.38103016  0.24741423  0.61995677  1
  Zn  Zn91  1  0.62513717  0.25081652  0.87617776  1
  Zn  Zn92  1  0.74855969  0.75521766  0.00257335  1
  Zn  Zn93  1  0.61744154  -0.00682979  0.62183205  1
  Zn  Zn94  1  0.75124528  0.37286105  0.62701058  1
  Zn  Zn95  1  0.62990374  0.74893326  0.37061284  1
  Zn  Zn96  1  0.63118713  0.87145694  0.74658317  1
  Zn  Zn97  1  -0.00985977  0.75704410  0.76083418  1
  Zn  Zn98  1  0.37191475  0.37950756  -0.00353362  1
  Zn  Zn99  1  0.49753453  0.37815905  0.36915188  1
  Zn  Zn100  1  -0.03603661  0.20370004  0.27141973  1
  Zn  Zn101  1  0.62843868  0.00068148  0.12599941  1
  Zn  Zn102  1  0.24270318  0.75813955  0.49127722  1
  Zn  Zn103  1  0.86543594  0.62202830  0.24753533  1
  Zn  Zn104  1  0.25325263  -0.01799461  0.24728608  1
  Zn  Zn105  1  0.75507850  0.25338962  -0.00243220  1
  Zn  Zn106  1  0.37073189  0.24933506  0.12473850  1
  Zn  Zn107  1  0.15388461  0.16963368  0.20536518  1
  Zn  Zn108  1  0.19382651  0.19264719  0.69192393  1
  Zn  Zn109  1  0.18806199  0.69014163  0.19223862  1
  Zn  Zn110  1  0.18569776  0.68567049  0.68173919  1
  Zn  Zn111  1  0.69425267  0.18589720  0.18725436  1
  Zn  Zn112  1  0.68744932  0.18640020  0.68775804  1
  Zn  Zn113  1  0.69056731  0.69640647  0.18699153  1
  Zn  Zn114  1  0.68634113  0.68614383  0.68826070  1
  Zn  Zn115  1  0.31126055  0.31039956  0.31208808  1
  Zn  Zn116  1  0.31435730  0.31108481  0.81170075  1
  Zn  Zn117  1  0.30782784  0.80544866  0.30860663  1
  Zn  Zn118  1  0.31051441  0.81052368  0.81327525  1
  Zn  Zn119  1  0.81062045  0.30446342  0.30772679  1
  Zn  Zn120  1  0.81289550  0.31422764  0.81589743  1
  Zn  Zn121  1  0.81545580  0.81666558  0.31196580  1
  Zn  Zn122  1  0.81386452  0.81304616  0.81225417  1
  Zn  Zn123  1  0.18841388  0.44321611  0.43772795  1
  Zn  Zn124  1  0.18542095  0.44373580  0.93899912  1
  Zn  Zn125  1  0.08138052  0.93907430  0.45000510  1
  Zn  Zn126  1  0.18484227  0.93454465  0.93146810  1
  Zn  Zn127  1  0.68275363  0.42931779  0.44045570  1
  Zn  Zn128  1  0.67992389  0.43915082  0.93965286  1
  Zn  Zn129  1  0.72848313  0.92131351  0.41920976  1
  Zn  Zn130  1  0.69040884  0.94037667  0.93509416  1
  Zn  Zn131  1  0.30970357  0.06223537  0.06484835  1
  Zn  Zn132  1  0.31291824  0.05741243  0.56041145  1
  Zn  Zn133  1  0.31407664  0.56833811  0.06990934  1
  Zn  Zn134  1  0.31308576  0.56167756  0.56146444  1
  Zn  Zn135  1  0.81651347  0.06628349  0.06301748  1
  Zn  Zn136  1  0.81235978  0.06927153  0.56144693  1
  Zn  Zn137  1  0.80789303  0.56358970  0.06512541  1
  Zn  Zn138  1  0.81023303  0.55763610  0.55850532  1
  Zn  Zn139  1  0.44203930  0.43726096  0.18623412  1
  Zn  Zn140  1  0.43779779  0.43827167  0.68292467  1
  Zn  Zn141  1  0.43930754  0.93550981  0.18727029  1
  Zn  Zn142  1  0.44664776  0.93806534  0.68426614  1
  Zn  Zn143  1  0.93677267  0.43310629  0.18990790  1
  Zn  Zn144  1  0.93563832  0.44120265  0.68925462  1
  Zn  Zn145  1  0.94673814  0.92773108  0.18278919  1
  Zn  Zn146  1  0.96515888  0.91773250  0.63031123  1
  Zn  Zn147  1  0.05013259  0.04708273  0.29911562  1
  Zn  Zn148  1  0.06483375  0.05953423  0.81404001  1
  Zn  Zn149  1  0.05625057  0.56360660  0.31196215  1
  Zn  Zn150  1  0.04455660  0.60008477  0.83296251  1
  Zn  Zn151  1  0.55617536  0.06009127  0.31773797  1
  Zn  Zn152  1  0.56524358  0.06324379  0.81194422  1
  Zn  Zn153  1  0.68738588  0.55957850  0.30937915  1
  Zn  Zn154  1  0.56339328  0.56224753  0.81462909  1
  Zn  Zn155  1  0.43508959  0.18610155  0.43366502  1
  Zn  Zn156  1  0.43770542  0.19131320  0.93480600  1
  Zn  Zn157  1  0.44120956  0.68920135  0.43859953  1
  Zn  Zn158  1  0.43331002  0.68743886  0.94080701  1
  Zn  Zn159  1  0.93801533  0.16705556  0.44694073  1
  Zn  Zn160  1  0.93750078  0.18857225  0.94344460  1
  Zn  Zn161  1  0.92850140  0.68550385  0.44230541  1
  Zn  Zn162  1  0.93422871  0.68656601  0.93886960  1
  Zn  Zn163  1  0.06736347  0.32083627  0.06182124  1
  Zn  Zn164  1  0.06449021  0.31344721  0.56188917  1
  Zn  Zn165  1  0.05323953  0.80608345  0.05440247  1
  Zn  Zn166  1  0.05598493  0.80375103  0.55655188  1
  Zn  Zn167  1  0.56236022  0.31276797  0.06268474  1
  Zn  Zn168  1  0.56166242  0.31431293  0.56306494  1
  Zn  Zn169  1  0.56349346  0.81632810  0.06900480  1
  Zn  Zn170  1  0.56561416  0.81603422  0.55998318  1
  O  O171  1  0.13421763  0.10941022  0.10814886  1
  O  O172  1  0.12638129  0.12389651  0.62562438  1
  O  O173  1  0.13079889  0.61384632  0.12215780  1
  O  O174  1  0.11722173  0.61885783  0.61343992  1
  O  O175  1  0.61888159  0.12400738  0.11780008  1
  O  O176  1  0.62857247  0.12418221  0.61028621  1
  O  O177  1  0.62009621  0.61971818  0.11902731  1
  O  O178  1  0.61929383  0.61902974  0.61750098  1
  O  O179  1  0.37602687  0.37247246  0.38717768  1
  O  O180  1  0.38688497  0.37557531  0.87493255  1
  O  O181  1  0.36712473  0.87179566  0.38430468  1
  O  O182  1  0.38098644  0.88374973  0.87741703  1
  O  O183  1  0.88031541  0.37611633  0.37665549  1
  O  O184  1  0.88195955  0.38790952  0.87515749  1
  O  O185  1  0.83809290  0.88508000  0.39682345  1
  O  O186  1  0.87202962  0.88499106  0.88127498  1
  O  O187  1  0.24130431  0.01071932  0.36708473  1
  O  O188  1  0.25961831  0.00551179  0.87454663  1
  O  O189  1  0.25009117  0.50635924  0.36258016  1
  O  O190  1  0.25351915  0.50222309  0.86291776  1
  O  O191  1  0.74708983  0.01773599  0.35836270  1
  O  O192  1  0.75925475  0.01166131  0.86910744  1
  O  O193  1  0.75796811  0.49087719  0.37659009  1
  O  O194  1  0.75243771  0.50321728  0.87238998  1
  O  O195  1  0.24459602  0.49891484  0.13809639  1
  O  O196  1  0.24673949  0.49252099  0.63314823  1
  O  O197  1  0.23679672  0.99420396  0.12391801  1
  O  O198  1  0.24863204  0.99078714  0.63218160  1
  O  O199  1  0.73621769  0.48962062  0.11962049  1
  O  O200  1  0.74465794  0.49718791  0.63467617  1
  O  O201  1  0.75137090  1.00475619  0.13720499  1
  O  O202  1  0.75425121  1.00783180  0.63738706  1
  O  O203  1  0.00955245  0.37950793  0.26299780  1
  O  O204  1  0.00456126  0.37654310  0.76188819  1
  O  O205  1  0.01338417  0.85997250  0.24847676  1
  O  O206  1  0.01454700  0.87208651  0.73302567  1
  O  O207  1  0.50962736  0.36580373  0.24824973  1
  O  O208  1  0.50558394  0.37320635  0.75611762  1
  O  O209  1  0.51289932  0.87098900  0.24896314  1
  O  O210  1  0.49680380  0.86852088  0.76507814  1
  O  O211  1  0.48892973  0.12964721  0.24675973  1
  O  O212  1  0.49173534  0.13455428  0.75782593  1
  O  O213  1  0.50779332  0.63682093  0.23917528  1
  O  O214  1  0.49284739  0.62846982  0.74651759  1
  O  O215  1  1.04650402  0.13818323  0.24068571  1
  O  O216  1  0.99861242  0.13454454  0.74905407  1
  O  O217  1  0.99191018  0.63993380  0.25378025  1
  O  O218  1  1.00338780  0.61546696  0.72650666  1
  O  O219  1  0.36519456  0.25464675  0.00167979  1
  O  O220  1  0.37611788  0.26004884  0.50295952  1
  O  O221  1  0.36573200  0.75217309  0.00793805  1
  O  O222  1  0.37719815  0.76136332  0.50623080  1
  O  O223  1  0.87201324  0.25336078  0.01067300  1
  O  O224  1  0.87043225  0.25147428  0.50656813  1
  O  O225  1  0.87559191  0.75615580  0.00775579  1
  O  O226  1  0.85925234  0.74476202  0.51232293  1
  O  O227  1  0.13215118  0.24712366  0.49485400  1
  O  O228  1  0.12996021  0.24281414  0.99643835  1
  O  O229  1  0.12818453  0.73647485  0.50405590  1
  O  O230  1  0.13097125  0.73444226  1.00758531  1
  O  O231  1  0.62610280  0.24561672  0.49292823  1
  O  O232  1  0.62505724  0.23788812  0.99770875  1
  O  O233  1  0.62972406  0.73636057  0.49911616  1
  O  O234  1  0.62437263  0.74345878  0.99636753  1
  O  O235  1  0.49886471  0.24451896  0.13529423  1
  O  O236  1  0.49923898  0.25641480  0.64114112  1
  O  O237  1  0.49514954  0.74468655  0.13164212  1
  O  O238  1  0.49328437  0.74292417  0.62976698  1
  O  O239  1  0.98932427  0.25991669  0.11509899  1
  O  O240  1  0.99980638  0.24499548  0.63472254  1
  O  O241  1  0.98457195  0.75189344  0.13063236  1
  O  O242  1  0.98157730  0.73828101  0.62357645  1
  O  O243  1  0.01356891  0.25656507  0.37587029  1
  O  O244  1  0.00449678  0.26270227  0.87451009  1
  O  O245  1  -0.01375583  0.75030963  0.36590317  1
  O  O246  1  0.00697980  0.70710710  0.85964400  1
  O  O247  1  0.50487448  0.25231684  0.36185878  1
  O  O248  1  0.50255386  0.26079664  0.86499685  1
  O  O249  1  0.50531741  0.74551256  0.36219877  1
  O  O250  1  0.50267788  0.75665240  0.87323125  1
  O  O251  1  0.24582298  0.12770917  0.49508415  1
  O  O252  1  0.24543962  0.13196215  0.99361383  1
  O  O253  1  0.24264054  0.61956447  0.48819641  1
  O  O254  1  0.24704611  0.62933925  0.99499332  1
  O  O255  1  0.73605855  0.13175930  0.48833423  1
  O  O256  1  0.74307535  0.12522672  0.99263340  1
  O  O257  1  0.73693859  0.63009872  0.50578221  1
  O  O258  1  0.73520057  0.62526937  0.99491699  1
  O  O259  1  0.24917231  0.37429174  0.00847499  1
  O  O260  1  0.25860776  0.38039877  0.50778692  1
  O  O261  1  0.24787895  0.85944074  -0.00771203  1
  O  O262  1  0.26808431  0.87301886  0.51614088  1
  O  O263  1  0.73785858  0.37206738  0.01400582  1
  O  O264  1  0.75446588  0.36422629  0.50360931  1
  O  O265  1  0.76285325  0.87798816  0.00039354  1
  O  O266  1  0.73004638  0.85423983  0.51405743  1
  O  O267  1  0.12869856  0.49377696  0.24703888  1
  O  O268  1  0.13643377  0.49646672  0.74347308  1
  O  O269  1  0.12350217  0.97455035  0.23361001  1
  O  O270  1  0.12956565  0.99415711  0.74136623  1
  O  O271  1  0.62309333  0.48782110  0.24270384  1
  O  O272  1  0.63276075  0.49317785  0.74774985  1
  O  O273  1  0.61895396  0.99273723  0.24813786  1
  O  O274  1  0.64186805  1.00589010  0.74786410  1
  O  O275  1  0.36942814  0.01042666  0.24270504  1
  O  O276  1  0.37820929  0.00620436  0.76091877  1
  O  O277  1  0.36424109  0.49982121  0.24659433  1
  O  O278  1  0.36817821  0.51447215  0.74021899  1
  O  O279  1  0.87373227  -0.00149858  0.24393834  1
  O  O280  1  0.86549604  0.00945583  0.75833646  1
  O  O281  1  0.87730209  0.49842556  0.26535004  1
  O  O282  1  0.86072274  0.49597707  0.75998327  1
  O  O283  1  0.11888407  0.37333629  0.37205669  1
  O  O284  1  0.11923529  0.37456316  0.86964793  1
  O  O285  1  0.12832834  0.86827733  0.37088464  1
  O  O286  1  0.12440529  0.87825466  0.85272002  1
  O  O287  1  0.62439192  0.36033670  0.36684519  1
  O  O288  1  0.61650178  0.37463949  0.86433628  1
  O  O289  1  0.63456024  0.87454288  0.35989731  1
  O  O290  1  0.61793288  0.87036615  0.87206042  1
  O  O291  1  0.37929238  0.12814830  0.13163447  1
  O  O292  1  0.36643158  0.12645125  0.63906963  1
  O  O293  1  0.38864791  0.63813839  0.12155631  1
  O  O294  1  0.37830352  0.63556978  0.62884781  1
  O  O295  1  0.87996028  0.14108027  0.12277032  1
  O  O296  1  0.88813138  0.13168830  0.63194421  1
  O  O297  1  0.87155866  0.63889048  0.12431259  1
  O  O298  1  0.88502159  0.62171405  0.61873815  1
  O  O299  1  0.24592163  0.26273549  0.11746327  1
  O  O300  1  0.25223406  0.26725318  0.62551418  1
  O  O301  1  0.26082926  0.74024763  0.11774458  1
  O  O302  1  0.25885856  0.75385012  0.62025980  1
  O  O303  1  0.75695678  0.26091857  0.12135373  1
  O  O304  1  0.75767643  0.24912099  0.61884683  1
  O  O305  1  0.76445298  0.75751883  0.12134305  1
  O  O306  1  0.76035882  0.74069056  0.62051689  1
  O  O307  1  0.23828593  0.24984976  0.37825878  1
  O  O308  1  0.24362363  0.24809881  0.88225606  1
  O  O309  1  0.25166461  0.73009450  0.37607168  1
  O  O310  1  0.25427242  0.73851211  0.88531540  1
  O  O311  1  0.74340219  0.23802092  0.37899187  1
  O  O312  1  0.74970306  0.23858721  0.87639880  1
  O  O313  1  0.74871795  0.74939661  0.39167815  1
  O  O314  1  0.74476342  0.74180442  0.87769727  1
  O  O315  1  0.01121542  0.11378245  -0.00712428  1
  O  O316  1  0.02095395  0.13522816  0.51653043  1
  O  O317  1  0.01028783  0.61265526  0.00106784  1
  O  O318  1  0.00470833  0.61954584  0.50527331  1
  O  O319  1  0.50639702  0.12193488  0.00252345  1
  O  O320  1  0.50160146  0.11643454  0.49793553  1
  O  O321  1  0.50870219  0.62077226  0.00436961  1
  O  O322  1  0.50995849  0.61949183  0.50435456  1
  O  O323  1  0.49426982  0.38386790  0.49912586  1
  O  O324  1  0.49997168  0.38329908  0.99223559  1
  O  O325  1  0.48588740  0.88119016  0.49861172  1
  O  O326  1  0.50050275  0.88145287  0.98972436  1
  O  O327  1  0.99524021  0.37736597  0.48943490  1
  O  O328  1  1.01094866  0.39109457  0.98650088  1
  O  O329  1  0.99854667  0.89314099  0.51931420  1
  O  O330  1  0.98743415  0.88203705  0.99577339  1
  O  O331  1  0.50597897  0.49636268  0.38805295  1
  O  O332  1  0.50528466  0.49261191  0.88572051  1
  O  O333  1  0.49311886  1.00123067  0.39248222  1
  O  O334  1  0.49548349  0.99411148  0.87978916  1
  O  O335  1  0.98996162  0.49060287  0.38073665  1
  O  O336  1  0.98859061  0.50155180  0.88156893  1
  O  O337  1  1.00995044  0.99968433  0.38645897  1
  O  O338  1  0.98832405  1.00400471  0.88146600  1
  O  O339  1  0.01400107  -0.00649461  0.11062160  1
  O  O340  1  0.01351329  0.02005230  0.63490242  1
  O  O341  1  0.00901033  0.49145148  0.11950519  1
  O  O342  1  0.00077086  0.50585359  0.61574684  1
  O  O343  1  0.49968340  0.00702691  0.11435758  1
  O  O344  1  0.49738063  0.00124800  0.60711103  1
  O  O345  1  0.50962631  0.50831792  0.12161313  1
  O  O346  1  0.50826192  0.50665536  0.61994482  1
  O  O347  1  0.24684335  0.38832122  0.24666800  1
  O  O348  1  0.24961024  0.38334980  0.74480295  1
  O  O349  1  0.22928676  0.86527240  0.25012382  1
  O  O350  1  0.24302373  0.87241427  0.74002629  1
  O  O351  1  0.73662555  0.36674059  0.23731977  1
  O  O352  1  0.74098386  0.38101928  0.75116410  1
  O  O353  1  0.74331398  0.89556755  0.24804402  1
  O  O354  1  0.75003576  0.89362503  0.75702678  1
  O  O355  1  0.25184215  0.12467401  0.25722835  1
  O  O356  1  0.25932154  0.12514294  0.76066950  1
  O  O357  1  0.24697475  0.61363691  0.26357442  1
  O  O358  1  0.25452163  0.62039588  0.75650213  1
  O  O359  1  0.75495584  0.11358012  0.25548388  1
  O  O360  1  0.75645482  0.12083382  0.75748963  1
  O  O361  1  0.75090259  0.62514570  0.24737731  1
  O  O362  1  0.74026175  0.61343425  0.76222998  1
  O  O363  1  0.36092304  0.13191380  0.36314155  1
  O  O364  1  0.37080678  0.11819785  0.86955349  1
  O  O365  1  0.36411189  0.62098544  0.38425170  1
  O  O366  1  0.36613244  0.62511881  0.86624523  1
  O  O367  1  0.87954990  0.16083969  0.34888429  1
  O  O368  1  0.86993272  0.12036882  0.87174520  1
  O  O369  1  0.87333544  0.60492313  0.37808383  1
  O  O370  1  0.85700036  0.61309019  0.88353473  1
  O  O371  1  0.13579881  0.38628125  0.13351955  1
  O  O372  1  0.13152445  0.38255936  0.63095319  1
  O  O373  1  0.12541647  0.87815491  0.11110262  1
  O  O374  1  0.13584037  0.88381198  0.62699173  1
  O  O375  1  0.62874374  0.38169621  0.13112154  1
  O  O376  1  0.62549286  0.38158206  0.63727245  1
  O  O377  1  0.63056628  0.88082652  0.13668339  1
  O  O378  1  0.61221203  0.87960394  0.63698133  1
  O  O379  1  0.13616481  0.27132837  0.25996565  1
  O  O380  1  0.12103856  0.25971952  0.75853781  1
  O  O381  1  0.11097203  0.75430992  0.25033074  1
  O  O382  1  0.12295749  0.76194818  0.74022813  1
  O  O383  1  0.61877824  0.25082192  0.25482907  1
  O  O384  1  0.61982534  0.25762261  0.75185770  1
  O  O385  1  0.61889743  0.76489922  0.24953968  1
  O  O386  1  0.61687309  0.74763250  0.75987003  1
  O  O387  1  0.38155205  0.24404828  0.24669991  1
  O  O388  1  0.38298937  0.24112702  0.74929381  1
  O  O389  1  0.38667960  0.75568723  0.24253313  1
  O  O390  1  0.37901548  0.73837401  0.74481910  1
  O  O391  1  0.88089960  0.26643386  0.22567340  1
  O  O392  1  0.88205427  0.24709081  0.74698094  1
  O  O393  1  0.88294412  0.75370225  0.24159811  1
  O  O394  1  0.87261979  0.74870978  0.73705883  1
  O  O395  1  0.38774604  0.49250376  0.50723804  1
  O  O396  1  0.38906847  0.50101755  1.00874739  1
  O  O397  1  0.38008380  0.98538778  0.50172298  1
  O  O398  1  0.38028289  1.00047111  0.98994353  1
  O  O399  1  0.87657109  0.48860622  0.48959830  1
  O  O400  1  0.88262877  0.50397936  0.99632947  1
  O  O401  1  0.86502281  1.06322995  0.46105869  1
  O  O402  1  0.88299476  0.99589323  0.99473850  1
  O  O403  1  0.12024841  0.00137015  0.00243678  1
  O  O404  1  0.13505471  0.01369189  0.51969719  1
  O  O405  1  0.12103603  0.50865608  0.01199781  1
  O  O406  1  0.11645737  0.50365779  0.50685079  1
  O  O407  1  0.62024997  0.01154440  -0.00030924  1
  O  O408  1  0.61121803  0.00979565  0.49868805  1
  O  O409  1  0.61401280  0.50813344  0.00863768  1
  O  O410  1  0.62205738  0.50731856  0.50563564  1
  O  O411  1  0.36262896  0.37556056  0.12479623  1
  O  O412  1  0.36826670  0.37432727  0.61635989  1
  O  O413  1  0.38057398  0.86127388  0.12062276  1
  O  O414  1  0.37188395  0.86089988  0.63363415  1
  O  O415  1  0.85804118  0.38174299  0.12287184  1
  O  O416  1  0.87617180  0.36839748  0.61885398  1
  O  O417  1  0.87441766  0.86740869  0.11505806  1
  O  O418  1  0.86651206  0.86132518  0.62787319  1
  O  O419  1  0.13332924  0.13596414  0.38866945  1
  O  O420  1  0.13239826  0.12935048  0.88304777  1
  O  O421  1  0.12923830  0.61372818  0.38692874  1
  O  O422  1  0.14412395  0.61005725  0.88991991  1
  O  O423  1  0.61579913  0.13650705  0.38267688  1
  O  O424  1  0.63436752  0.12626715  0.88250462  1
  O  O425  1  0.62714514  0.62248577  0.38959084  1
  O  O426  1  0.63072797  0.62945223  0.88409290  1
