# generated using pymatgen
data_V85Zn86O256
_symmetry_space_group_name_H-M   'P 1'
_cell_length_a   16.93741364
_cell_length_b   16.92396507
_cell_length_c   16.93332808
_cell_angle_alpha   90.02298662
_cell_angle_beta   89.93357455
_cell_angle_gamma   90.10806697
_symmetry_Int_Tables_number   1
_chemical_formula_structural   V85Zn86O256
_chemical_formula_sum   'V85 Zn86 O256'
_cell_volume   4853.89567770
_cell_formula_units_Z   1
loop_
 _symmetry_equiv_pos_site_id
 _symmetry_equiv_pos_as_xyz
  1  'x, y, z'
loop_
 _atom_site_type_symbol
 _atom_site_label
 _atom_site_symmetry_multiplicity
 _atom_site_fract_x
 _atom_site_fract_y
 _atom_site_fract_z
 _atom_site_occupancy
  V  V0  1  0.37510915  0.00771785  0.36896539  1
  V  V1  1  0.00064945  0.49898071  -0.00341254  1
  V  V2  1  0.63319448  0.25044823  0.87401612  1
  V  V3  1  0.50109063  0.49618889  0.51137905  1
  V  V4  1  -0.00351871  0.62279449  0.62467076  1
  V  V5  1  0.24960367  0.62640733  0.37622445  1
  V  V6  1  0.12973585  0.74985624  0.87219422  1
  V  V7  1  0.25466750  0.37815301  0.61370299  1
  V  V8  1  0.12134957  0.87536101  0.24930489  1
  V  V9  1  0.74952313  0.49907701  0.74036476  1
  V  V10  1  0.62877168  0.24825679  0.37511435  1
  V  V11  1  0.49742932  0.12734269  0.64408566  1
  V  V12  1  0.12259667  0.62749634  0.49924888  1
  V  V13  1  0.49456147  0.50132875  -0.00053455  1
  V  V14  1  0.49419843  0.36567541  0.87413461  1
  V  V15  1  0.63175355  -0.00400088  0.62264477  1
  V  V16  1  0.25250719  0.01060496  0.74988316  1
  V  V17  1  0.37434090  0.62571706  0.25183867  1
  V  V18  1  0.25038865  0.74589030  -0.00245206  1
  V  V19  1  0.37460093  0.75007173  0.62735582  1
  V  V20  1  0.62872376  0.87290796  0.25146246  1
  V  V21  1  0.86965630  0.37208983  0.49543218  1
  V  V22  1  0.24952187  0.00521248  0.24680393  1
  V  V23  1  0.75655924  0.62489937  0.87710924  1
  V  V24  1  0.62893576  0.75145353  0.87728073  1
  V  V25  1  0.12473327  0.23340638  0.87937866  1
  V  V26  1  0.49894468  0.62594046  0.12623240  1
  V  V27  1  0.37427196  0.49657286  0.38197368  1
  V  V28  1  0.75647907  0.00509116  0.74653938  1
  V  V29  1  0.74905000  0.36669254  0.62356445  1
  V  V30  1  0.62372939  0.62757263  0.49651184  1
  V  V31  1  0.00097775  0.87721710  0.38397068  1
  V  V32  1  0.74720059  0.63397003  0.37240098  1
  V  V33  1  0.88097130  0.75160757  0.14361268  1
  V  V34  1  -0.00264772  0.62805733  0.13505424  1
  V  V35  1  0.49861399  0.12451628  0.12904449  1
  V  V36  1  0.24353652  0.12414201  0.38165915  1
  V  V37  1  0.61959791  0.37530656  0.74372299  1
  V  V38  1  0.63529566  0.13177498  0.00066508  1
  V  V39  1  -0.00066327  0.75355832  0.74893020  1
  V  V40  1  0.50139006  0.00026169  -0.00020783  1
  V  V41  1  0.62487770  0.37561561  0.24685511  1
  V  V42  1  0.50082018  0.00502050  0.50070750  1
  V  V43  1  0.11967002  0.75003623  0.36957725  1
  V  V44  1  0.12068708  0.01068087  0.61852117  1
  V  V45  1  0.37547278  0.87487586  -0.00424840  1
  V  V46  1  0.00827488  0.36969834  0.87651050  1
  V  V47  1  0.62181519  0.50203151  0.12511398  1
  V  V48  1  0.49383742  0.24683504  0.25119727  1
  V  V49  1  0.62841645  0.00066844  0.12296946  1
  V  V50  1  0.10443333  0.33851899  0.72051521  1
  V  V51  1  0.87576578  0.61583231  0.75104251  1
  V  V52  1  0.86689232  0.75685413  0.62226288  1
  V  V53  1  0.87580191  0.00447725  0.37330696  1
  V  V54  1  0.12650781  0.62418720  -0.00432941  1
  V  V55  1  0.86018825  0.26024012  0.11657278  1
  V  V56  1  0.12177397  0.50326360  0.62772862  1
  V  V57  1  0.37388842  0.75181912  0.12520663  1
  V  V58  1  -0.00209740  0.87669468  0.88784374  1
  V  V59  1  0.76383714  0.75327744  -0.00040989  1
  V  V60  1  0.49576009  0.37358270  0.38106318  1
  V  V61  1  0.12401538  0.49945964  0.12663263  1
  V  V62  1  -0.00052399  0.14132359  0.11979565  1
  V  V63  1  0.50438954  0.62102969  0.62771748  1
  V  V64  1  0.88072924  0.00040534  0.88475716  1
  V  V65  1  0.36617942  0.50473091  0.87548924  1
  V  V66  1  0.75186175  0.50503593  0.24819845  1
  V  V67  1  0.11430672  0.00403904  0.11178919  1
  V  V68  1  0.50367048  0.87139282  0.37445689  1
  V  V69  1  -0.00567579  0.37082402  0.37120500  1
  V  V70  1  0.37306547  0.01452988  0.87054755  1
  V  V71  1  0.37056171  0.24672029  0.12620979  1
  V  V72  1  0.11792272  0.24449478  0.38834192  1
  V  V73  1  0.24878422  0.49676572  0.25086354  1
  V  V74  1  0.24237284  0.50230966  0.75433877  1
  V  V75  1  0.89252578  0.13329047  0.73589406  1
  V  V76  1  0.37403495  0.87529304  0.49959577  1
  V  V77  1  0.87360672  0.50724452  0.37012335  1
  V  V78  1  0.50127780  0.75123653  0.25207012  1
  V  V79  1  0.24742966  0.23773007  -0.00529001  1
  V  V80  1  0.75780770  0.87813642  0.12032349  1
  V  V81  1  0.63422985  0.87432282  0.74766485  1
  V  V82  1  0.83504930  0.44315790  0.93202351  1
  V  V83  1  0.12093906  0.36295995  0.24996828  1
  V  V84  1  0.50194771  0.74961748  0.75212982  1
  Zn  Zn85  1  0.86825527  0.88362140  0.50598877  1
  Zn  Zn86  1  0.24889125  0.75141525  0.50209353  1
  Zn  Zn87  1  0.62530982  0.62943993  0.00104796  1
  Zn  Zn88  1  0.87881793  0.13659635  0.24904121  1
  Zn  Zn89  1  0.24966408  0.87837630  0.62835045  1
  Zn  Zn90  1  0.74956945  0.37935506  0.10478247  1
  Zn  Zn91  1  0.37182999  0.62371138  0.75244029  1
  Zn  Zn92  1  0.73988993  0.75620724  0.50051844  1
  Zn  Zn93  1  0.76117905  0.13032015  0.87650990  1
  Zn  Zn94  1  0.62701380  0.12530587  0.50014118  1
  Zn  Zn95  1  -0.00466277  0.49978170  0.49870748  1
  Zn  Zn96  1  0.24733789  0.87815839  0.12344141  1
  Zn  Zn97  1  0.24732641  0.37077658  0.12482638  1
  Zn  Zn98  1  0.50296073  0.87582052  0.87419926  1
  Zn  Zn99  1  0.75380333  0.00485405  0.24828658  1
  Zn  Zn100  1  0.74875618  0.24470929  0.50495129  1
  Zn  Zn101  1  0.38000172  0.24631595  0.62644256  1
  Zn  Zn102  1  0.25623469  0.25178034  0.49900352  1
  Zn  Zn103  1  0.36858464  0.37426790  0.00075761  1
  Zn  Zn104  1  0.12873264  0.87949533  0.74801565  1
  Zn  Zn105  1  0.00110977  0.02495875  0.50235559  1
  Zn  Zn106  1  0.75009864  0.12429127  0.37297825  1
  Zn  Zn107  1  0.18535751  0.18062462  0.18859933  1
  Zn  Zn108  1  0.20279789  0.18222073  0.68814567  1
  Zn  Zn109  1  0.18660646  0.68766579  0.18631835  1
  Zn  Zn110  1  0.18982180  0.68496524  0.68925407  1
  Zn  Zn111  1  0.69197587  0.18890025  0.18911347  1
  Zn  Zn112  1  0.68214918  0.18492598  0.69099252  1
  Zn  Zn113  1  0.68823465  0.69030744  0.18756462  1
  Zn  Zn114  1  0.68613744  0.68317200  0.68715871  1
  Zn  Zn115  1  0.31024312  0.30965778  0.31383297  1
  Zn  Zn116  1  0.30057939  0.31258806  0.80706660  1
  Zn  Zn117  1  0.30849413  0.81612012  0.31372862  1
  Zn  Zn118  1  0.31153305  0.81704670  0.81093489  1
  Zn  Zn119  1  0.81314960  0.31430296  0.30156256  1
  Zn  Zn120  1  0.81177141  0.30730351  0.80565715  1
  Zn  Zn121  1  0.81284662  0.81992445  0.31633403  1
  Zn  Zn122  1  0.81590555  0.81573390  0.80958419  1
  Zn  Zn123  1  0.17914053  0.43892834  0.43628211  1
  Zn  Zn124  1  0.18716867  0.42735106  0.93798734  1
  Zn  Zn125  1  0.18830471  0.93897627  0.44072308  1
  Zn  Zn126  1  0.19088511  0.93547681  0.93252125  1
  Zn  Zn127  1  0.68319778  0.44127646  0.43727032  1
  Zn  Zn128  1  0.66948406  0.44518142  0.92950324  1
  Zn  Zn129  1  0.69151678  0.93474537  0.43815429  1
  Zn  Zn130  1  0.69399462  0.94002333  0.93623113  1
  Zn  Zn131  1  0.31288770  0.06184005  0.06346630  1
  Zn  Zn132  1  0.31505510  0.06363404  0.56454779  1
  Zn  Zn133  1  0.30988103  0.56311653  0.06383357  1
  Zn  Zn134  1  0.31304938  0.56235967  0.56486129  1
  Zn  Zn135  1  0.81949002  0.06733510  0.06374109  1
  Zn  Zn136  1  0.81344666  0.06574542  0.55802079  1
  Zn  Zn137  1  0.81151628  0.57152603  0.07093456  1
  Zn  Zn138  1  0.81068750  0.56181383  0.55986051  1
  Zn  Zn139  1  0.43439380  0.43392561  0.18969273  1
  Zn  Zn140  1  0.41439472  0.40194650  0.70879910  1
  Zn  Zn141  1  0.43634630  0.93757577  0.18637292  1
  Zn  Zn142  1  0.44222544  0.93710915  0.68938518  1
  Zn  Zn143  1  0.93573845  0.43367839  0.18496975  1
  Zn  Zn144  1  0.96060847  0.38928223  0.66007480  1
  Zn  Zn145  1  0.94151654  0.93608541  0.19164131  1
  Zn  Zn146  1  0.94101814  0.94008256  0.69104415  1
  Zn  Zn147  1  0.05912901  0.06388314  0.30583167  1
  Zn  Zn148  1  0.06070023  0.06089295  0.80725105  1
  Zn  Zn149  1  0.06190621  0.55839161  0.31305882  1
  Zn  Zn150  1  0.05796155  0.56175957  0.81522889  1
  Zn  Zn151  1  0.56447162  0.06026571  0.31076449  1
  Zn  Zn152  1  0.56665666  0.05930700  0.81682056  1
  Zn  Zn153  1  0.56270094  0.56226350  0.31640580  1
  Zn  Zn154  1  0.56340621  0.56043811  0.81351289  1
  Zn  Zn155  1  0.43218722  0.18912869  0.44382227  1
  Zn  Zn156  1  0.44037534  0.18862320  0.94378418  1
  Zn  Zn157  1  0.43863339  0.68734666  0.43944558  1
  Zn  Zn158  1  0.43775021  0.68620061  0.93536282  1
  Zn  Zn159  1  0.93527759  0.19010287  0.43649143  1
  Zn  Zn160  1  0.94152250  0.18381770  0.94124112  1
  Zn  Zn161  1  0.93712865  0.68838501  0.43582756  1
  Zn  Zn162  1  0.94106075  0.68751054  0.93881653  1
  Zn  Zn163  1  0.06471393  0.31312559  0.05751700  1
  Zn  Zn164  1  0.05455950  0.20083822  0.58218827  1
  Zn  Zn165  1  0.06245899  0.81326922  0.06565686  1
  Zn  Zn166  1  0.06362330  0.81637536  0.56582806  1
  Zn  Zn167  1  0.56088964  0.31279411  0.06082341  1
  Zn  Zn168  1  0.56252619  0.31050466  0.56330673  1
  Zn  Zn169  1  0.56602170  0.81300527  0.06206582  1
  Zn  Zn170  1  0.56206686  0.81325376  0.56354224  1
  O  O171  1  0.11455074  0.11245126  0.12672167  1
  O  O172  1  0.12991711  0.11610551  0.62684959  1
  O  O173  1  0.11957449  0.62135804  0.11456714  1
  O  O174  1  0.11857491  0.62217885  0.61705853  1
  O  O175  1  0.62099238  0.12090776  0.11875873  1
  O  O176  1  0.61550282  0.11229762  0.62447530  1
  O  O177  1  0.61614134  0.62075676  0.12499782  1
  O  O178  1  0.61078785  0.62466016  0.62089163  1
  O  O179  1  0.38634853  0.38231625  0.36865404  1
  O  O180  1  0.38091946  0.38590391  0.87806374  1
  O  O181  1  0.38098724  0.88268882  0.38198304  1
  O  O182  1  0.37977567  0.87498744  0.88743135  1
  O  O183  1  0.87610672  0.38628812  0.37178599  1
  O  O184  1  0.88420412  0.37447543  0.87028372  1
  O  O185  1  0.88606919  0.88367439  0.37680659  1
  O  O186  1  0.88381943  0.88803783  0.86840742  1
  O  O187  1  0.25566717  0.00373017  0.36895601  1
  O  O188  1  0.26579639  -0.00315702  0.86981179  1
  O  O189  1  0.25584453  0.50392742  0.37117921  1
  O  O190  1  0.25400217  0.49281681  0.86821631  1
  O  O191  1  0.76368964  -0.00106428  0.37129439  1
  O  O192  1  0.76406925  0.00112551  0.86631016  1
  O  O193  1  0.75356461  0.50818553  0.36666037  1
  O  O194  1  0.76094061  0.50524597  0.87333042  1
  O  O195  1  0.24286935  0.49849721  0.13333714  1
  O  O196  1  0.24039499  0.49906509  0.62943815  1
  O  O197  1  0.24332511  1.00008332  0.13214639  1
  O  O198  1  0.24452255  1.00090399  0.63189476  1
  O  O199  1  0.74225421  0.50086180  0.13109872  1
  O  O200  1  0.75061180  0.49463873  0.63639188  1
  O  O201  1  0.75007324  0.99245085  0.12485738  1
  O  O202  1  0.74130114  1.00318147  0.63163926  1
  O  O203  1  0.00870944  0.38495684  0.26073122  1
  O  O204  1  0.01392348  0.38708004  0.76268443  1
  O  O205  1  0.01530783  0.87962843  0.26395190  1
  O  O206  1  0.00221491  0.86160112  0.75618204  1
  O  O207  1  0.50776439  0.36905351  0.25608875  1
  O  O208  1  0.51312614  0.39404849  0.76467201  1
  O  O209  1  0.50561687  0.87199596  0.25603822  1
  O  O210  1  0.51395304  0.86780865  0.75260879  1
  O  O211  1  0.50608684  0.13199091  0.23761397  1
  O  O212  1  0.50331465  0.12013650  0.74238980  1
  O  O213  1  0.49468467  0.63103886  0.24769926  1
  O  O214  1  0.49925811  0.62843228  0.74373405  1
  O  O215  1  0.99492552  0.11395408  0.22645313  1
  O  O216  1  0.99258546  0.12498920  0.74217788  1
  O  O217  1  1.00887985  0.62066302  0.23391825  1
  O  O218  1  0.99156840  0.63384926  0.74833580  1
  O  O219  1  0.36568180  0.25124409  0.00759851  1
  O  O220  1  0.37024110  0.24988377  0.51133071  1
  O  O221  1  0.36895863  0.75409963  0.00224893  1
  O  O222  1  0.37640195  0.75801405  0.50826257  1
  O  O223  1  0.88008822  0.24681818  0.01732181  1
  O  O224  1  0.86279379  0.26837889  0.48291109  1
  O  O225  1  0.86587927  0.74781526  0.00480839  1
  O  O226  1  0.87658336  0.74680311  0.51718844  1
  O  O227  1  0.13023491  0.24972059  0.48884716  1
  O  O228  1  0.13870016  0.24933900  0.99426224  1
  O  O229  1  0.12606531  0.74076599  0.49529726  1
  O  O230  1  0.13225673  0.74458441  0.99551993  1
  O  O231  1  0.62597011  0.24955883  0.48790962  1
  O  O232  1  0.61892633  0.24182238  0.99125462  1
  O  O233  1  0.62128932  0.73477037  0.50572967  1
  O  O234  1  0.63705165  0.74953132  0.99426386  1
  O  O235  1  0.49401590  0.24388184  0.13125119  1
  O  O236  1  0.50708228  0.22950042  0.62316038  1
  O  O237  1  0.49315965  0.74638124  0.12983886  1
  O  O238  1  0.49193397  0.74295066  0.63131658  1
  O  O239  1  1.00208959  0.24409282  0.12425107  1
  O  O240  1  1.03314265  0.28969775  0.65156065  1
  O  O241  1  0.98801078  0.74496091  0.12318371  1
  O  O242  1  0.99428996  0.74305522  0.63314948  1
  O  O243  1  0.00589091  0.25933874  0.37144668  1
  O  O244  1  0.01155553  0.25815292  0.88380104  1
  O  O245  1  0.01223367  0.75658586  0.37774924  1
  O  O246  1  0.00813077  0.75401127  0.86852320  1
  O  O247  1  0.50419332  0.25532735  0.36870968  1
  O  O248  1  0.50385198  0.26260096  0.88035919  1
  O  O249  1  0.49409435  0.76408813  0.37032202  1
  O  O250  1  0.51023546  0.74920739  0.86977963  1
  O  O251  1  0.25403788  0.12139922  0.48468422  1
  O  O252  1  0.25423550  0.13846663  1.00159077  1
  O  O253  1  0.24182716  0.62688085  0.49380501  1
  O  O254  1  0.24282787  0.63705176  1.00325927  1
  O  O255  1  0.74496046  0.12900977  0.49201690  1
  O  O256  1  0.73833032  0.12017442  0.99714213  1
  O  O257  1  0.74023982  0.62721085  0.49216966  1
  O  O258  1  0.74953925  0.63303239  0.99277971  1
  O  O259  1  0.25098719  0.36200151  0.00732049  1
  O  O260  1  0.23979364  0.37851529  0.51101431  1
  O  O261  1  0.25755038  0.86264174  -0.00014884  1
  O  O262  1  0.26430862  0.87337712  0.50150168  1
  O  O263  1  0.75868601  0.39495808  -0.01365357  1
  O  O264  1  0.74947216  0.37849796  0.50843298  1
  O  O265  1  0.74750689  0.86821253  0.01283711  1
  O  O266  1  0.75566551  0.86678372  0.49677118  1
  O  O267  1  0.13277208  0.49205258  0.24782129  1
  O  O268  1  0.12796508  0.51305203  0.73956359  1
  O  O269  1  0.13229871  0.99311129  0.24144847  1
  O  O270  1  0.13594857  1.00158375  0.74210061  1
  O  O271  1  0.62544798  0.49341761  0.24397075  1
  O  O272  1  0.64046807  0.48938136  0.76410842  1
  O  O273  1  0.62620788  0.98902869  0.24085261  1
  O  O274  1  0.63320996  0.99244941  0.74553536  1
  O  O275  1  0.36481103  -0.00854380  0.25834102  1
  O  O276  1  0.37453415  -0.00752705  0.76583212  1
  O  O277  1  0.36945234  0.50428144  0.25976613  1
  O  O278  1  0.36171912  0.49586392  0.75982670  1
  O  O279  1  0.87601530  -0.00341709  0.26404732  1
  O  O280  1  0.87023789  0.00765127  0.75361220  1
  O  O281  1  0.86151752  0.49659757  0.25374427  1
  O  O282  1  0.86723167  0.51409247  0.75000795  1
  O  O283  1  0.11423862  0.36835211  0.36996015  1
  O  O284  1  0.11777169  0.36310415  0.86932161  1
  O  O285  1  0.12242508  0.86847994  0.37224221  1
  O  O286  1  0.11764425  0.86681757  0.87116855  1
  O  O287  1  0.61318474  0.37196505  0.36635990  1
  O  O288  1  0.61559233  0.36653938  0.86913123  1
  O  O289  1  0.61506143  0.88219382  0.36415086  1
  O  O290  1  0.62703087  0.86848750  0.86815609  1
  O  O291  1  0.38556616  0.13505116  0.12167099  1
  O  O292  1  0.39347109  0.12113516  0.62627253  1
  O  O293  1  0.37939034  0.63073357  0.13268333  1
  O  O294  1  0.38620903  0.63269991  0.62554818  1
  O  O295  1  0.88262076  0.13751857  0.12669101  1
  O  O296  1  0.87193276  0.12224496  0.63763851  1
  O  O297  1  0.88302300  0.64104312  0.12615635  1
  O  O298  1  0.87941632  0.63021283  0.63174188  1
  O  O299  1  0.25594561  0.24543043  0.12009489  1
  O  O300  1  0.24649465  0.26883062  0.62294814  1
  O  O301  1  0.25665430  0.75243365  0.11647488  1
  O  O302  1  0.26394541  0.75011596  0.62510585  1
  O  O303  1  0.75408159  0.25882705  0.11878313  1
  O  O304  1  0.74114450  0.26282380  0.62529163  1
  O  O305  1  0.76237005  0.75470213  0.12029436  1
  O  O306  1  0.76462855  0.74337646  0.62711723  1
  O  O307  1  0.24181868  0.24056776  0.37519773  1
  O  O308  1  0.24398663  0.25268197  0.88768101  1
  O  O309  1  0.23975408  0.74427516  0.37784726  1
  O  O310  1  0.23765058  0.75263519  0.87986519  1
  O  O311  1  0.73361767  0.25712263  0.36716555  1
  O  O312  1  0.73760131  0.24940390  0.87482984  1
  O  O313  1  0.75604927  0.73659993  0.37281507  1
  O  O314  1  0.74949554  0.74627386  0.88123319  1
  O  O315  1  -0.00296879  0.11897430  0.02070152  1
  O  O316  1  -0.00211075  0.13827967  0.51043428  1
  O  O317  1  0.00785244  0.61971517  0.00754462  1
  O  O318  1  0.00629140  0.62301078  0.50496541  1
  O  O319  1  0.50889612  0.12011686  0.01182288  1
  O  O320  1  0.50297117  0.11041619  0.49709116  1
  O  O321  1  0.49936351  0.61798641  0.00738054  1
  O  O322  1  0.50420354  0.61818592  0.50596581  1
  O  O323  1  0.50618795  0.38278937  0.49117315  1
  O  O324  1  0.49626366  0.38469316  0.99280386  1
  O  O325  1  0.49394749  0.88276728  0.49336335  1
  O  O326  1  0.49350506  0.88156242  1.00039419  1
  O  O327  1  0.98504766  0.38111878  0.48195904  1
  O  O328  1  1.00449380  0.38592942  0.99001086  1
  O  O329  1  0.99845015  0.87535054  0.48980869  1
  O  O330  1  1.00074011  0.86675428  0.98664857  1
  O  O331  1  0.49232016  0.49205866  0.38128380  1
  O  O332  1  0.49434027  0.49616686  0.88729491  1
  O  O333  1  0.49330596  0.99185814  0.37877962  1
  O  O334  1  0.49093820  0.99713424  0.88200712  1
  O  O335  1  0.98819411  0.49662529  0.37497729  1
  O  O336  1  1.00062049  0.49408688  0.88874950  1
  O  O337  1  0.99560874  0.99542915  0.37960014  1
  O  O338  1  0.98996341  0.99061155  0.86907063  1
  O  O339  1  0.01334290  -0.00731505  0.12135443  1
  O  O340  1  0.01747418  -0.00368432  0.62480910  1
  O  O341  1  0.00345712  0.50599149  0.11515957  1
  O  O342  1  0.00598240  0.50249442  0.62164802  1
  O  O343  1  0.50454101  0.00719788  0.12071716  1
  O  O344  1  0.50665012  0.00636093  0.61810312  1
  O  O345  1  0.49882021  0.50344278  0.11687549  1
  O  O346  1  0.49080158  0.50587224  0.61347868  1
  O  O347  1  0.24151672  0.38088219  0.24951390  1
  O  O348  1  0.22977657  0.38662967  0.73559627  1
  O  O349  1  0.23964360  0.88559812  0.25021184  1
  O  O350  1  0.24980125  0.88774610  0.74797732  1
  O  O351  1  0.73392689  0.38710624  0.24973861  1
  O  O352  1  0.74583306  0.38155135  0.74278340  1
  O  O353  1  0.74306505  0.87533672  0.23960456  1
  O  O354  1  0.74097594  0.88447766  0.75182110  1
  O  O355  1  0.24790736  0.11147283  0.25953296  1
  O  O356  1  0.26414374  0.11096561  0.75058520  1
  O  O357  1  0.25394739  0.61809590  0.25616528  1
  O  O358  1  0.25407705  0.60906699  0.74577190  1
  O  O359  1  0.75593646  0.12253180  0.25352568  1
  O  O360  1  0.74888024  0.11318438  0.75525884  1
  O  O361  1  0.74023675  0.61378068  0.25667078  1
  O  O362  1  0.75398045  0.61749722  0.75688030  1
  O  O363  1  0.37142190  0.11160038  0.37484395  1
  O  O364  1  0.38194213  0.11252847  0.87964711  1
  O  O365  1  0.37100696  0.61911731  0.36954697  1
  O  O366  1  0.37879507  0.60934759  0.87321748  1
  O  O367  1  0.87644365  0.11643547  0.36844518  1
  O  O368  1  0.88001357  0.11342528  0.86729879  1
  O  O369  1  0.86668602  0.61456189  0.37850817  1
  O  O370  1  0.86450839  0.63407617  0.86685476  1
  O  O371  1  0.12275214  0.38204697  0.13426608  1
  O  O372  1  0.13227475  0.39557588  0.62490416  1
  O  O373  1  0.12673615  0.88074622  0.13349994  1
  O  O374  1  0.13049905  0.88538093  0.62788939  1
  O  O375  1  0.62559655  0.38231652  0.12961828  1
  O  O376  1  0.62890483  0.37516868  0.63694376  1
  O  O377  1  0.63444141  0.88152997  0.12956364  1
  O  O378  1  0.61941193  0.88600457  0.63347408  1
  O  O379  1  0.13029606  0.26083933  0.25537132  1
  O  O380  1  0.14221442  0.24889154  0.76323850  1
  O  O381  1  0.13164710  0.75929081  0.25891228  1
  O  O382  1  0.11799269  0.74690596  0.75735471  1
  O  O383  1  0.61349254  0.25840333  0.25167197  1
  O  O384  1  0.62535473  0.26179750  0.76007081  1
  O  O385  1  0.61730834  0.76450535  0.24258608  1
  O  O386  1  0.62480638  0.75637625  0.75512299  1
  O  O387  1  0.38707805  0.25191223  0.24545675  1
  O  O388  1  0.37915546  0.29183561  0.73170098  1
  O  O389  1  0.37907395  0.74759083  0.24565429  1
  O  O390  1  0.38164307  0.74863537  0.74461058  1
  O  O391  1  0.87358608  0.25355566  0.22815399  1
  O  O392  1  0.87370101  0.23204489  0.75208511  1
  O  O393  1  0.87426915  0.75171510  0.24180033  1
  O  O394  1  0.88060606  0.74292317  0.74096566  1
  O  O395  1  0.38196253  0.50817001  0.48622306  1
  O  O396  1  0.37801203  0.49841355  0.99602353  1
  O  O397  1  0.38238588  0.99245124  0.49357578  1
  O  O398  1  0.37804397  0.99265162  0.99177144  1
  O  O399  1  0.86963216  0.49215030  0.48698555  1
  O  O400  1  0.88299775  0.50780615  1.00112828  1
  O  O401  1  0.88123794  1.00104766  0.48816638  1
  O  O402  1  0.87129526  1.00176856  0.98341847  1
  O  O403  1  0.13377069  -0.00780157  0.01496269  1
  O  O404  1  0.12514508  0.00024570  0.51463719  1
  O  O405  1  0.12077247  0.50690234  0.00411931  1
  O  O406  1  0.12167252  0.51443036  0.50487824  1
  O  O407  1  0.62074978  0.00605770  0.00403652  1
  O  O408  1  0.61754166  -0.00247752  0.50738164  1
  O  O409  1  0.61189775  0.50665627  0.00644703  1
  O  O410  1  0.61222680  0.51273636  0.49597283  1
  O  O411  1  0.37409705  0.35918029  0.12571383  1
  O  O412  1  0.35367504  0.39716394  0.61130118  1
  O  O413  1  0.37313776  0.87085960  0.11225298  1
  O  O414  1  0.37898884  0.86764294  0.61688050  1
  O  O415  1  0.86902564  0.36708258  0.12027704  1
  O  O416  1  0.86231295  0.37846117  0.60910872  1
  O  O417  1  0.87063377  0.86369995  0.13003441  1
  O  O418  1  0.88184174  0.85991307  0.62732032  1
  O  O419  1  0.13101311  0.13305931  0.36722527  1
  O  O420  1  0.11746954  0.13403954  0.87565829  1
  O  O421  1  0.12692990  0.63104178  0.38030515  1
  O  O422  1  0.11768927  0.63334911  0.88859572  1
  O  O423  1  0.62347157  0.13536540  0.37360682  1
  O  O424  1  0.62357104  0.13431133  0.88374237  1
  O  O425  1  0.63336319  0.62359073  0.38286447  1
  O  O426  1  0.63930997  0.63188398  0.87505202  1
