# generated using pymatgen
data_V85Zn86O256
_symmetry_space_group_name_H-M   'P 1'
_cell_length_a   16.92383352
_cell_length_b   16.92558122
_cell_length_c   16.92144149
_cell_angle_alpha   90.01401236
_cell_angle_beta   89.97610549
_cell_angle_gamma   90.02093740
_symmetry_Int_Tables_number   1
_chemical_formula_structural   V85Zn86O256
_chemical_formula_sum   'V85 Zn86 O256'
_cell_volume   4847.07358241
_cell_formula_units_Z   1
loop_
 _symmetry_equiv_pos_site_id
 _symmetry_equiv_pos_as_xyz
  1  'x, y, z'
loop_
 _atom_site_type_symbol
 _atom_site_label
 _atom_site_symmetry_multiplicity
 _atom_site_fract_x
 _atom_site_fract_y
 _atom_site_fract_z
 _atom_site_occupancy
  V  V0  1  0.74137975  -0.00157035  0.25195786  1
  V  V1  1  0.50345237  0.24763166  0.74628896  1
  V  V2  1  -0.00166564  0.75401007  0.25207078  1
  V  V3  1  0.00240970  0.37968012  0.37963957  1
  V  V4  1  0.25214187  0.00326744  0.25043411  1
  V  V5  1  0.12546897  0.12613794  -0.00094662  1
  V  V6  1  0.74704215  0.12988203  0.37934276  1
  V  V7  1  0.12532847  0.37480947  0.75080533  1
  V  V8  1  0.49880384  0.12650838  0.12931568  1
  V  V9  1  0.61470641  -0.01077432  0.62245629  1
  V  V10  1  0.25099445  0.37530467  0.11595724  1
  V  V11  1  0.38268077  0.00180009  0.37801681  1
  V  V12  1  0.62732344  0.50156085  0.60696777  1
  V  V13  1  0.74885857  -0.01423306  0.73877955  1
  V  V14  1  0.39143518  0.87764142  -0.00369640  1
  V  V15  1  0.50588209  0.75941744  0.75415495  1
  V  V16  1  0.25306775  0.12386359  0.87665942  1
  V  V17  1  -0.00346974  0.38259722  0.87583500  1
  V  V18  1  0.87352725  -0.00121253  0.87311815  1
  V  V19  1  0.24338718  0.24677147  0.50009399  1
  V  V20  1  0.49745321  0.61564406  0.12006855  1
  V  V21  1  0.25089240  -0.00107312  0.75023003  1
  V  V22  1  0.62807020  0.25069447  0.87814656  1
  V  V23  1  0.24873535  0.62741703  0.37404037  1
  V  V24  1  0.87312457  0.12432436  0.25065817  1
  V  V25  1  0.25406420  0.37485297  0.62265834  1
  V  V26  1  -0.00156211  0.12598887  0.12418544  1
  V  V27  1  0.61902100  0.61561546  -0.00335778  1
  V  V28  1  -0.00045028  0.00020385  -0.00070639  1
  V  V29  1  0.25957107  0.49901148  0.74964840  1
  V  V30  1  0.37435220  0.75239938  0.12457039  1
  V  V31  1  0.37690717  0.24242257  0.62451207  1
  V  V32  1  0.62518936  0.75912973  0.36972914  1
  V  V33  1  0.87788836  -0.00870689  0.37582467  1
  V  V34  1  0.75081621  0.12643978  0.87891322  1
  V  V35  1  0.87493081  0.87584514  0.00101169  1
  V  V36  1  0.74283489  0.87354636  0.13043507  1
  V  V37  1  0.37678383  0.74842816  0.62636374  1
  V  V38  1  0.11989011  0.01213110  0.62342673  1
  V  V39  1  0.12491375  0.24919755  0.87512524  1
  V  V40  1  0.61492009  -0.00514713  0.12226699  1
  V  V41  1  0.74719970  0.75846622  0.50764165  1
  V  V42  1  0.38568700  0.87802180  0.49898075  1
  V  V43  1  0.74281472  0.49560445  0.24599370  1
  V  V44  1  0.62334188  0.76045122  0.87464750  1
  V  V45  1  0.11685033  0.75427256  0.37897655  1
  V  V46  1  0.11974347  0.50171013  0.12475263  1
  V  V47  1  0.74097366  0.62252888  0.38251577  1
  V  V48  1  0.62578546  0.38099771  0.74700754  1
  V  V49  1  0.86664637  0.24978273  0.11922187  1
  V  V50  1  0.24321437  0.12462241  0.37955882  1
  V  V51  1  0.61893261  0.12096242  -0.00213442  1
  V  V52  1  0.86532602  0.37893737  -0.00353923  1
  V  V53  1  0.37665616  0.62755736  0.25036306  1
  V  V54  1  -0.00053829  0.24624900  0.74621926  1
  V  V55  1  0.87640021  0.37787269  0.50048708  1
  V  V56  1  0.75546305  0.61655703  0.87382304  1
  V  V57  1  0.38613183  0.49927467  0.38119413  1
  V  V58  1  0.38190324  0.25913785  0.12283195  1
  V  V59  1  0.00159725  0.74556033  0.74719314  1
  V  V60  1  0.24930349  0.50034018  0.25096981  1
  V  V61  1  -0.00081416  0.25106365  0.25048337  1
  V  V62  1  0.74669439  0.74894379  0.00001262  1
  V  V63  1  0.24875431  0.75495400  -0.00559024  1
  V  V64  1  0.50893932  0.62376609  0.61757218  1
  V  V65  1  0.12276339  0.87785022  0.25495708  1
  V  V66  1  0.59991509  0.25996678  0.36513158  1
  V  V67  1  0.12075700  0.50289064  0.61892633  1
  V  V68  1  0.87847115  0.50482895  0.37768146  1
  V  V69  1  0.12456281  0.37509456  0.25019673  1
  V  V70  1  0.39176657  -0.00357638  0.87870347  1
  V  V71  1  0.49568384  0.37961671  0.88288658  1
  V  V72  1  0.24891756  0.62871953  0.87267612  1
  V  V73  1  0.38317973  0.12129818  0.75081451  1
  V  V74  1  0.12466107  0.00129695  0.12595643  1
  V  V75  1  0.12302928  0.63086862  -0.00224859  1
  V  V76  1  0.87597784  0.24652767  0.62070567  1
  V  V77  1  0.12768740  0.86917356  0.74972147  1
  V  V78  1  0.00432155  0.00491497  0.49740842  1
  V  V79  1  0.37641887  0.49685705  0.88931058  1
  V  V80  1  0.61086864  0.12548091  0.50951797  1
  V  V81  1  0.87587436  0.12236873  0.74429666  1
  V  V82  1  0.87408582  0.74946282  0.12618122  1
  V  V83  1  0.00631755  0.86905820  0.87532501  1
  V  V84  1  0.24867042  0.75278922  0.49961498  1
  Zn  Zn85  1  -0.00219182  0.62612072  0.12384663  1
  Zn  Zn86  1  0.12254944  0.24784547  0.37886609  1
  Zn  Zn87  1  0.74584605  0.24922564  0.50033264  1
  Zn  Zn88  1  0.88222215  0.61441829  0.75088214  1
  Zn  Zn89  1  0.24959155  0.87671368  0.62350714  1
  Zn  Zn90  1  0.74211932  0.36685067  0.12805842  1
  Zn  Zn91  1  0.37938848  0.13035918  0.25155626  1
  Zn  Zn92  1  0.50696049  0.88360639  0.36784078  1
  Zn  Zn93  1  0.61093706  0.48826531  0.12783149  1
  Zn  Zn94  1  -0.00564480  0.50477408  -0.00441708  1
  Zn  Zn95  1  0.75535404  0.49810362  0.74953835  1
  Zn  Zn96  1  0.87853880  0.87501510  0.50955087  1
  Zn  Zn97  1  0.86621618  0.75141643  0.63322146  1
  Zn  Zn98  1  -0.00735559  0.62440775  0.61463122  1
  Zn  Zn99  1  0.38164165  0.62289103  0.75113009  1
  Zn  Zn100  1  0.11935697  0.61997444  0.49535906  1
  Zn  Zn101  1  0.75234247  0.37724775  0.62483123  1
  Zn  Zn102  1  0.25474146  0.25421381  -0.00363790  1
  Zn  Zn103  1  0.38894736  0.36645214  0.48365839  1
  Zn  Zn104  1  0.25094962  0.87866457  0.12233533  1
  Zn  Zn105  1  0.87397928  0.62537728  0.25099761  1
  Zn  Zn106  1  0.50942342  0.75527355  0.24526728  1
  Zn  Zn107  1  0.19020046  0.19029469  0.18728960  1
  Zn  Zn108  1  0.19145845  0.18654376  0.69056907  1
  Zn  Zn109  1  0.18777978  0.68929077  0.18606098  1
  Zn  Zn110  1  0.18775525  0.68781530  0.68826536  1
  Zn  Zn111  1  0.68302911  0.18621544  0.19067707  1
  Zn  Zn112  1  0.69208776  0.18579713  0.68811510  1
  Zn  Zn113  1  0.68681364  0.67875624  0.18966892  1
  Zn  Zn114  1  0.68373074  0.68578951  0.69104808  1
  Zn  Zn115  1  0.31760600  0.31309940  0.30710264  1
  Zn  Zn116  1  0.31497362  0.31213655  0.81108204  1
  Zn  Zn117  1  0.31286974  0.81668173  0.31264201  1
  Zn  Zn118  1  0.31740284  0.81374095  0.81227177  1
  Zn  Zn119  1  0.81287946  0.31363671  0.31287950  1
  Zn  Zn120  1  0.81189903  0.31297273  0.81283117  1
  Zn  Zn121  1  0.80823913  0.81137138  0.31383393  1
  Zn  Zn122  1  0.81513849  0.80779863  0.81377096  1
  Zn  Zn123  1  0.19526548  0.43425849  0.43793963  1
  Zn  Zn124  1  0.18397213  0.44202423  0.93671095  1
  Zn  Zn125  1  0.18888913  0.93774312  0.43981522  1
  Zn  Zn126  1  0.19047957  0.93963992  0.93508763  1
  Zn  Zn127  1  0.69081658  0.43221491  0.43423175  1
  Zn  Zn128  1  0.68196114  0.43577927  0.94089538  1
  Zn  Zn129  1  0.68657221  0.94060080  0.44249972  1
  Zn  Zn130  1  0.68844668  0.93991782  0.93899187  1
  Zn  Zn131  1  0.31615442  0.06355956  0.06115962  1
  Zn  Zn132  1  0.31074552  0.06149359  0.56252498  1
  Zn  Zn133  1  0.30851171  0.56412903  0.06358194  1
  Zn  Zn134  1  0.31271118  0.56714975  0.56144690  1
  Zn  Zn135  1  0.80742580  0.06223612  0.06221694  1
  Zn  Zn136  1  0.81232533  0.06138304  0.56068160  1
  Zn  Zn137  1  0.81056574  0.56251593  0.06042679  1
  Zn  Zn138  1  0.81398515  0.56562660  0.56458044  1
  Zn  Zn139  1  0.44264493  0.43135141  0.19985348  1
  Zn  Zn140  1  0.45672405  0.41948087  0.65303338  1
  Zn  Zn141  1  0.43766340  0.93560492  0.18996265  1
  Zn  Zn142  1  0.43898662  0.93597634  0.68579603  1
  Zn  Zn143  1  0.93223011  0.43699579  0.18863130  1
  Zn  Zn144  1  0.93526767  0.43822112  0.69002801  1
  Zn  Zn145  1  0.93532462  0.93632793  0.19022799  1
  Zn  Zn146  1  0.93959169  0.93262913  0.68235635  1
  Zn  Zn147  1  0.06052483  0.06368563  0.31577964  1
  Zn  Zn148  1  0.06173374  0.05973736  0.81038020  1
  Zn  Zn149  1  0.05978078  0.56686507  0.31255706  1
  Zn  Zn150  1  0.06909513  0.56171085  0.80910887  1
  Zn  Zn151  1  0.56504850  0.06929582  0.31344417  1
  Zn  Zn152  1  0.56724628  0.05862162  0.80562905  1
  Zn  Zn153  1  0.56295597  0.56572498  0.31111282  1
  Zn  Zn154  1  0.56244149  0.56518295  0.80751921  1
  Zn  Zn155  1  0.43252890  0.18137529  0.44081679  1
  Zn  Zn156  1  0.43983639  0.19027079  0.94057407  1
  Zn  Zn157  1  0.43942246  0.68865782  0.43727257  1
  Zn  Zn158  1  0.43623370  0.68745648  0.93547282  1
  Zn  Zn159  1  0.93933563  0.18342657  0.43723233  1
  Zn  Zn160  1  0.93613484  0.19140120  0.93557895  1
  Zn  Zn161  1  0.93478035  0.68655534  0.44243436  1
  Zn  Zn162  1  0.93754469  0.69062217  0.93622463  1
  Zn  Zn163  1  0.05892726  0.31333400  0.06062034  1
  Zn  Zn164  1  0.06161944  0.31388958  0.56384757  1
  Zn  Zn165  1  0.06407386  0.81349486  0.06571234  1
  Zn  Zn166  1  0.05771644  0.82054484  0.56371021  1
  Zn  Zn167  1  0.56407443  0.31098554  0.06267621  1
  Zn  Zn168  1  0.56333169  0.31155580  0.55688874  1
  Zn  Zn169  1  0.56259309  0.80593219  0.06335550  1
  Zn  Zn170  1  0.56533020  0.80683677  0.55711994  1
  O  O171  1  0.11843633  0.12105326  0.12031426  1
  O  O172  1  0.12771928  0.11086891  0.63292823  1
  O  O173  1  0.12422158  0.61827962  0.11787947  1
  O  O174  1  0.12923782  0.60925439  0.62540659  1
  O  O175  1  0.62015623  0.11959708  0.11638437  1
  O  O176  1  0.63065040  0.12220781  0.61313956  1
  O  O177  1  0.61354899  0.62295078  0.11738991  1
  O  O178  1  0.61664412  0.61862028  0.62518298  1
  O  O179  1  0.36972904  0.39309186  0.37149639  1
  O  O180  1  0.38733628  0.38092996  0.86908621  1
  O  O181  1  0.37232066  0.88532099  0.38304639  1
  O  O182  1  0.37215099  0.88454729  0.88434743  1
  O  O183  1  0.88325328  0.38118297  0.38078600  1
  O  O184  1  0.88221228  0.36709295  0.88772191  1
  O  O185  1  0.86817920  0.88957477  0.37353852  1
  O  O186  1  0.88249853  0.87993379  0.88190057  1
  O  O187  1  0.25483859  0.00651152  0.36946876  1
  O  O188  1  0.25661430  0.00770779  0.86743832  1
  O  O189  1  0.25252650  0.50908572  0.36734540  1
  O  O190  1  0.25673335  0.50411206  0.86857161  1
  O  O191  1  0.75190346  0.00863023  0.36854003  1
  O  O192  1  0.75446765  0.00571505  0.86498350  1
  O  O193  1  0.75339230  0.50823990  0.36936085  1
  O  O194  1  0.74177764  0.51454137  0.87719692  1
  O  O195  1  0.23994404  0.49545599  0.13008946  1
  O  O196  1  0.24954235  0.49237663  0.63059526  1
  O  O197  1  0.24334232  1.00202905  0.13285334  1
  O  O198  1  0.24076997  0.99840950  0.63191018  1
  O  O199  1  0.75341601  0.50241566  0.14124966  1
  O  O200  1  0.74036460  0.49915153  0.62633334  1
  O  O201  1  0.74099064  0.99294111  0.13181686  1
  O  O202  1  0.74570800  1.00093626  0.63541880  1
  O  O203  1  0.00311646  0.37033013  0.25833321  1
  O  O204  1  0.00549913  0.36635686  0.75683792  1
  O  O205  1  0.00814915  0.86484095  0.24659428  1
  O  O206  1  0.00870217  0.86989003  0.75804232  1
  O  O207  1  0.50377767  0.36661297  0.26232434  1
  O  O208  1  0.51127690  0.36673439  0.75149450  1
  O  O209  1  0.49067144  0.86554969  0.25685889  1
  O  O210  1  0.49703482  0.85847066  0.74735942  1
  O  O211  1  0.50014435  0.12159979  0.23397771  1
  O  O212  1  0.49005444  0.13097186  0.75627261  1
  O  O213  1  0.49137154  0.63201471  0.24196845  1
  O  O214  1  0.49897478  0.63694306  0.74023591  1
  O  O215  1  0.99331940  0.13015690  0.24473061  1
  O  O216  1  0.98614565  0.13206983  0.75861949  1
  O  O217  1  0.99751422  0.64049362  0.24614229  1
  O  O218  1  1.00458925  0.63414193  0.75120297  1
  O  O219  1  0.37104191  0.24640192  0.01564155  1
  O  O220  1  0.36645568  0.24874382  0.51044717  1
  O  O221  1  0.36794917  0.75672415  0.00455422  1
  O  O222  1  0.36835103  0.75559145  0.50530061  1
  O  O223  1  0.88137035  0.26160895  0.00943658  1
  O  O224  1  0.87859999  0.25460290  0.50800380  1
  O  O225  1  0.86875032  0.75667299  0.00766535  1
  O  O226  1  0.85715590  0.75381864  0.49449259  1
  O  O227  1  0.13866838  0.25637734  0.49999719  1
  O  O228  1  0.12500312  0.24309672  0.99291744  1
  O  O229  1  0.13145707  0.75721108  0.49235412  1
  O  O230  1  0.13236419  0.73961734  1.00590690  1
  O  O231  1  0.62458271  0.23903819  0.49406489  1
  O  O232  1  0.62078264  0.24065182  0.98425581  1
  O  O233  1  0.63804106  0.74967543  0.48599155  1
  O  O234  1  0.62996976  0.73977567  0.99531278  1
  O  O235  1  0.48890517  0.24387498  0.11992673  1
  O  O236  1  0.49172966  0.24733407  0.63911388  1
  O  O237  1  0.48631309  0.74034011  0.12468318  1
  O  O238  1  0.49816535  0.74376290  0.63240562  1
  O  O239  1  0.99119770  0.24515155  0.13081179  1
  O  O240  1  0.99304886  0.25399556  0.63780098  1
  O  O241  1  0.99006320  0.75162021  0.13146465  1
  O  O242  1  1.00683997  0.74890632  0.63973601  1
  O  O243  1  0.00066858  0.25722500  0.36771112  1
  O  O244  1  0.00402549  0.25779517  0.86451822  1
  O  O245  1  0.01060265  0.74993060  0.36844035  1
  O  O246  1  -0.00012309  0.76277320  0.86906202  1
  O  O247  1  0.50005386  0.24954469  0.37915445  1
  O  O248  1  0.50342226  0.25886131  0.86460340  1
  O  O249  1  0.51853151  0.74483108  0.37521023  1
  O  O250  1  0.50612551  0.74497592  0.86209451  1
  O  O251  1  0.25339136  0.13344945  0.49176226  1
  O  O252  1  0.24302932  0.12475032  0.99164796  1
  O  O253  1  0.24534367  0.63873666  0.49439414  1
  O  O254  1  0.24485426  0.63585944  0.99415350  1
  O  O255  1  0.74395977  0.12704870  0.49212299  1
  O  O256  1  0.74119742  0.11980351  0.98621795  1
  O  O257  1  0.75351233  0.63265883  0.48537600  1
  O  O258  1  0.74163293  0.62932787  0.99286245  1
  O  O259  1  0.24332212  0.37734714  0.01245508  1
  O  O260  1  0.26111713  0.36736688  0.50908534  1
  O  O261  1  0.24937337  0.86336662  -0.00036747  1
  O  O262  1  0.25824153  0.86453535  0.50092246  1
  O  O263  1  0.76265620  0.37456825  -0.00279163  1
  O  O264  1  0.76517351  0.36800654  0.49868621  1
  O  O265  1  0.75551042  0.87137841  0.01159452  1
  O  O266  1  0.75186693  0.86145501  0.49530569  1
  O  O267  1  0.12845813  0.49720151  0.24260033  1
  O  O268  1  0.13840228  0.49397952  0.74086593  1
  O  O269  1  0.12848778  0.99447728  0.24741524  1
  O  O270  1  0.12868528  0.99347349  0.74147077  1
  O  O271  1  0.63859809  0.50603972  0.24765159  1
  O  O272  1  0.62865475  0.49164128  0.74537986  1
  O  O273  1  0.63565555  1.00543615  0.24237659  1
  O  O274  1  0.63986388  1.00368849  0.73662050  1
  O  O275  1  0.36545050  0.00334291  0.25687366  1
  O  O276  1  0.37194650  0.00465051  0.75512596  1
  O  O277  1  0.36862169  0.51252562  0.25590142  1
  O  O278  1  0.36362870  0.49930914  0.75370172  1
  O  O279  1  0.86542010  0.00472676  0.25455366  1
  O  O280  1  0.86817814  0.00575305  0.75156178  1
  O  O281  1  0.86728009  0.50223422  0.26171313  1
  O  O282  1  0.86975289  0.50042652  0.75246092  1
  O  O283  1  0.11872917  0.37540195  0.37003573  1
  O  O284  1  0.11879866  0.36829322  0.87125353  1
  O  O285  1  0.13081440  0.86913871  0.36294633  1
  O  O286  1  0.11600078  0.88454919  0.86494814  1
  O  O287  1  0.62550201  0.35630896  0.38167822  1
  O  O288  1  0.61637911  0.36867564  0.86917824  1
  O  O289  1  0.62657874  0.86375626  0.37647820  1
  O  O290  1  0.62892914  0.86010666  0.88438238  1
  O  O291  1  0.38382432  0.13191876  0.12468835  1
  O  O292  1  0.36877580  0.13437614  0.63513325  1
  O  O293  1  0.37707413  0.63134475  0.13035833  1
  O  O294  1  0.38253772  0.63548822  0.62674241  1
  O  O295  1  0.87928837  0.12979189  0.12774944  1
  O  O296  1  0.87215168  0.13179978  0.63422374  1
  O  O297  1  0.87425630  0.63856835  0.12490691  1
  O  O298  1  0.87704100  0.63282408  0.63074661  1
  O  O299  1  0.25551734  0.25991117  0.12010818  1
  O  O300  1  0.25425225  0.25404540  0.61986442  1
  O  O301  1  0.26046235  0.75065185  0.11594462  1
  O  O302  1  0.25914029  0.75031213  0.61815962  1
  O  O303  1  0.76284571  0.24643387  0.13199003  1
  O  O304  1  0.76433704  0.25343362  0.62474280  1
  O  O305  1  0.75318629  0.75549753  0.12294435  1
  O  O306  1  0.74280456  0.74375069  0.61008973  1
  O  O307  1  0.25202903  0.24404159  0.38232807  1
  O  O308  1  0.24538993  0.24320436  0.87550675  1
  O  O309  1  0.24158074  0.74771417  0.38040572  1
  O  O310  1  0.25684371  0.74082878  0.88195916  1
  O  O311  1  0.75366943  0.23609079  0.37443768  1
  O  O312  1  0.73996663  0.23918733  0.86796348  1
  O  O313  1  0.74221417  0.74035162  0.37741691  1
  O  O314  1  0.74241608  0.74306624  0.88199467  1
  O  O315  1  0.00435239  0.11963827  0.00281162  1
  O  O316  1  -0.00079361  0.10771809  0.49809347  1
  O  O317  1  0.00828302  0.62483683  0.00010509  1
  O  O318  1  0.00749648  0.62832290  0.50172320  1
  O  O319  1  0.51181755  0.12640771  0.00823718  1
  O  O320  1  0.51201641  0.12381851  0.50261317  1
  O  O321  1  0.50605015  0.63006338  0.00729297  1
  O  O322  1  0.49680698  0.63237125  0.51867583  1
  O  O323  1  0.48035672  0.38278715  0.54376370  1
  O  O324  1  0.50127714  0.37039894  0.98070888  1
  O  O325  1  0.48858762  0.86810657  0.49158611  1
  O  O326  1  0.49025107  0.87010205  1.00150817  1
  O  O327  1  0.99306881  0.37081884  0.48791130  1
  O  O328  1  0.99208619  0.37769892  0.99111502  1
  O  O329  1  0.99705639  0.89363764  0.50126374  1
  O  O330  1  0.99794572  0.87980750  0.99406368  1
  O  O331  1  0.48492780  0.50915058  0.37253286  1
  O  O332  1  0.49231518  0.48772648  0.86740241  1
  O  O333  1  0.48668631  1.00439867  0.37066769  1
  O  O334  1  0.49105776  1.00184497  0.87038036  1
  O  O335  1  0.99158122  0.49173560  0.36887726  1
  O  O336  1  1.00846270  0.48587101  0.87398447  1
  O  O337  1  0.99117958  1.00233360  0.38254717  1
  O  O338  1  0.99282105  0.99104727  0.87869509  1
  O  O339  1  0.00385687  0.00525665  0.12055443  1
  O  O340  1  0.01347152  0.00125296  0.62035927  1
  O  O341  1  0.00989944  0.50161374  0.12565899  1
  O  O342  1  0.01902883  0.49603401  0.62999227  1
  O  O343  1  0.51017939  0.00494867  0.12662043  1
  O  O344  1  0.51602048  0.00359941  0.63492253  1
  O  O345  1  0.49209739  0.51193062  0.13016690  1
  O  O346  1  0.51193180  0.51795291  0.63424994  1
  O  O347  1  0.24339765  0.38127657  0.23989016  1
  O  O348  1  0.24261695  0.38028270  0.74671980  1
  O  O349  1  0.24315855  0.88769305  0.24777355  1
  O  O350  1  0.24420324  0.88070035  0.75007959  1
  O  O351  1  0.75490129  0.39152703  0.25126985  1
  O  O352  1  0.73686660  0.37320351  0.75038713  1
  O  O353  1  0.75326267  0.88275411  0.23803318  1
  O  O354  1  0.75457544  0.88823901  0.75524558  1
  O  O355  1  0.24892074  0.11439654  0.25501781  1
  O  O356  1  0.26251394  0.12077295  0.75817928  1
  O  O357  1  0.25597976  0.62089182  0.25302713  1
  O  O358  1  0.25263496  0.61830720  0.75771768  1
  O  O359  1  0.75459364  0.11585411  0.25530987  1
  O  O360  1  0.76009632  0.11778034  0.75895816  1
  O  O361  1  0.75400178  0.61536560  0.26159476  1
  O  O362  1  0.74835597  0.62679089  0.76693795  1
  O  O363  1  0.36379101  0.11806972  0.37201077  1
  O  O364  1  0.37241093  0.11893373  0.87116403  1
  O  O365  1  0.36941234  0.62278345  0.36751694  1
  O  O366  1  0.36589623  0.61583931  0.87349449  1
  O  O367  1  0.86689491  0.11611572  0.36884577  1
  O  O368  1  0.86798143  0.11970163  0.87063826  1
  O  O369  1  0.86552904  0.61822409  0.37339108  1
  O  O370  1  0.85814912  0.62815615  0.88058141  1
  O  O371  1  0.12927762  0.38260798  0.12868735  1
  O  O372  1  0.13630308  0.38144761  0.62930728  1
  O  O373  1  0.12795624  0.88204382  0.13617246  1
  O  O374  1  0.12827713  0.88415744  0.63620292  1
  O  O375  1  0.63139693  0.37845817  0.11585947  1
  O  O376  1  0.62865735  0.38283409  0.63101924  1
  O  O377  1  0.63145584  0.88138870  0.11963747  1
  O  O378  1  0.62108944  0.88970223  0.61521555  1
  O  O379  1  0.11695322  0.25777286  0.25007356  1
  O  O380  1  0.11798284  0.25300137  0.75398815  1
  O  O381  1  0.11964607  0.75840030  0.25451450  1
  O  O382  1  0.12251616  0.76186499  0.74975188  1
  O  O383  1  0.62171976  0.24106042  0.26796171  1
  O  O384  1  0.61920268  0.25208046  0.75716394  1
  O  O385  1  0.62912575  0.74628489  0.26461196  1
  O  O386  1  0.61459536  0.75002408  0.75839749  1
  O  O387  1  0.36633838  0.24491137  0.22940403  1
  O  O388  1  0.38225393  0.23941481  0.74765170  1
  O  O389  1  0.36758598  0.73993301  0.24199697  1
  O  O390  1  0.38449379  0.74845198  0.74201437  1
  O  O391  1  0.88163764  0.24528488  0.24316343  1
  O  O392  1  0.88116067  0.24343534  0.74383063  1
  O  O393  1  0.88146473  0.75211324  0.24419147  1
  O  O394  1  0.88813924  0.74284921  0.75446952  1
  O  O395  1  0.36766307  0.50439776  0.48218639  1
  O  O396  1  0.36820336  0.50119761  0.98862143  1
  O  O397  1  0.36904940  0.99057541  0.49205002  1
  O  O398  1  0.37031929  0.98901140  0.99103040  1
  O  O399  1  0.86985934  0.49183699  0.48755107  1
  O  O400  1  0.87773245  0.48446248  1.00596924  1
  O  O401  1  0.88208623  0.99929180  0.49214008  1
  O  O402  1  0.87970034  0.99495487  0.99586950  1
  O  O403  1  0.11930934  0.00523365  0.00524285  1
  O  O404  1  0.12045293  -0.00311137  0.51325290  1
  O  O405  1  0.12350350  0.51278026  0.00805771  1
  O  O406  1  0.13635415  0.49790342  0.51572725  1
  O  O407  1  0.62957464  0.00860679  0.01001088  1
  O  O408  1  0.62904947  0.01215250  0.51254505  1
  O  O409  1  0.62414733  0.51245314  0.00382755  1
  O  O410  1  0.62812853  0.49503844  0.50762034  1
  O  O411  1  0.36786683  0.36698434  0.12755606  1
  O  O412  1  0.35853903  0.35689589  0.64434831  1
  O  O413  1  0.37139796  0.86831781  0.11614098  1
  O  O414  1  0.37467659  0.86506216  0.61763622  1
  O  O415  1  0.87080904  0.36694286  0.11500012  1
  O  O416  1  0.87820751  0.36765442  0.61509046  1
  O  O417  1  0.86772625  0.86646339  0.12150009  1
  O  O418  1  0.87576528  0.86463269  0.62447486  1
  O  O419  1  0.13820518  0.12825880  0.37085738  1
  O  O420  1  0.13093149  0.12906599  0.87728700  1
  O  O421  1  0.13190514  0.63638588  0.37321215  1
  O  O422  1  0.13993460  0.61897674  0.88357823  1
  O  O423  1  0.62926287  0.13122232  0.38762982  1
  O  O424  1  0.62967967  0.12870381  0.87858378  1
  O  O425  1  0.63745211  0.63126152  0.37367731  1
  O  O426  1  0.62988594  0.63230644  0.88177338  1
