# generated using pymatgen
data_V85Zn86O256
_symmetry_space_group_name_H-M   'P 1'
_cell_length_a   16.92426304
_cell_length_b   16.91848498
_cell_length_c   16.91840487
_cell_angle_alpha   90.00874953
_cell_angle_beta   90.03439160
_cell_angle_gamma   90.02314169
_symmetry_Int_Tables_number   1
_chemical_formula_structural   V85Zn86O256
_chemical_formula_sum   'V85 Zn86 O256'
_cell_volume   4844.29443449
_cell_formula_units_Z   1
loop_
 _symmetry_equiv_pos_site_id
 _symmetry_equiv_pos_as_xyz
  1  'x, y, z'
loop_
 _atom_site_type_symbol
 _atom_site_label
 _atom_site_symmetry_multiplicity
 _atom_site_fract_x
 _atom_site_fract_y
 _atom_site_fract_z
 _atom_site_occupancy
  V  V0  1  -0.00095448  0.24890290  0.24168756  1
  V  V1  1  0.25580313  0.26347826  0.00403194  1
  V  V2  1  0.62217343  0.62354476  0.49999443  1
  V  V3  1  0.00030854  0.37212022  0.87405033  1
  V  V4  1  0.13093898  0.50537038  0.62973604  1
  V  V5  1  0.36838443  0.49309904  0.87811340  1
  V  V6  1  0.86702267  0.37319079  -0.00265993  1
  V  V7  1  0.87462246  0.49968873  0.37313117  1
  V  V8  1  0.50160419  0.62527723  0.63657097  1
  V  V9  1  0.61043565  0.75356971  0.87652422  1
  V  V10  1  0.87678807  0.37059111  0.50426335  1
  V  V11  1  0.87318956  0.62569973  0.24937472  1
  V  V12  1  0.62373342  0.36926861  0.75474428  1
  V  V13  1  0.24815731  0.12358636  0.37474627  1
  V  V14  1  0.12742525  0.12185224  0.00135811  1
  V  V15  1  0.00131090  0.49847323  -0.00222912  1
  V  V16  1  0.62711120  -0.00267903  0.62778921  1
  V  V17  1  0.62380017  0.88617625  0.24779466  1
  V  V18  1  0.74886316  0.62367489  0.37411620  1
  V  V19  1  0.87551581  -0.00330725  0.37560189  1
  V  V20  1  0.74964951  0.75052219  0.50287994  1
  V  V21  1  0.12754626  0.62813926  0.49970183  1
  V  V22  1  0.24900975  0.25174991  0.50193376  1
  V  V23  1  0.50136140  0.38160783  0.89230520  1
  V  V24  1  0.74304735  0.14368977  0.87616409  1
  V  V25  1  0.50466877  0.61265274  0.11547368  1
  V  V26  1  0.12405237  0.25091010  0.37269744  1
  V  V27  1  -0.00218167  0.25113607  0.74378174  1
  V  V28  1  0.37400079  0.26497384  0.12553163  1
  V  V29  1  0.49792759  0.25602645  0.25813370  1
  V  V30  1  0.62651147  0.37967815  0.24765468  1
  V  V31  1  0.25354932  0.49632064  0.24464380  1
  V  V32  1  0.62442790  0.13511475  0.00186229  1
  V  V33  1  -0.00714542  0.63011016  0.62924273  1
  V  V34  1  0.12952341  0.25083482  0.87466851  1
  V  V35  1  0.37394929  0.12490464  0.25035161  1
  V  V36  1  0.74891166  -0.00284874  0.76091103  1
  V  V37  1  0.87617237  0.87355675  0.49953307  1
  V  V38  1  0.50300381  0.11975049  0.12674193  1
  V  V39  1  0.61985817  0.25544677  0.38024310  1
  V  V40  1  0.13223439  -0.00014393  0.62932638  1
  V  V41  1  -0.00233226  0.75139197  0.25528567  1
  V  V42  1  0.74252844  0.87819302  0.11629293  1
  V  V43  1  0.62352302  0.12406810  0.50133857  1
  V  V44  1  0.25979093  0.75872580  0.49932042  1
  V  V45  1  0.25116553  0.87187814  0.12090245  1
  V  V46  1  -0.04288792  0.07536494  0.06099869  1
  V  V47  1  0.12541946  0.75441857  0.37630357  1
  V  V48  1  0.62522026  0.49868019  0.62612700  1
  V  V49  1  0.75911108  0.63799921  0.87263311  1
  V  V50  1  0.49811791  0.12519284  0.62914056  1
  V  V51  1  0.75457093  0.24720345  0.50451862  1
  V  V52  1  0.87219797  0.12704016  0.75406178  1
  V  V53  1  0.00276477  0.50165975  0.50009640  1
  V  V54  1  0.87648366  0.12527379  0.25071109  1
  V  V55  1  0.50481091  0.75405619  0.24268991  1
  V  V56  1  0.75730167  0.50272338  0.75353714  1
  V  V57  1  0.00121299  -0.00558651  0.49891171  1
  V  V58  1  0.63337997  0.61675584  0.00035759  1
  V  V59  1  0.37758993  0.62664342  0.24695125  1
  V  V60  1  0.12857084  0.37728410  0.74869656  1
  V  V61  1  0.86952439  0.75163784  0.11618143  1
  V  V62  1  0.12649268  0.63129868  -0.00460406  1
  V  V63  1  0.25709410  0.11391368  0.87544193  1
  V  V64  1  0.12884670  0.49550429  0.12335984  1
  V  V65  1  0.47903172  0.88312051  0.87592619  1
  V  V66  1  0.37278234  0.11155876  0.75470100  1
  V  V67  1  0.49747158  0.25080414  0.76057224  1
  V  V68  1  0.75243352  0.37321577  0.62596386  1
  V  V69  1  -0.00412738  0.75482560  0.76032345  1
  V  V70  1  -0.00608241  0.12580764  0.62371102  1
  V  V71  1  0.38225208  0.37459475  0.49854628  1
  V  V72  1  0.49351703  0.87550857  0.37770850  1
  V  V73  1  0.38179597  0.75729361  0.62997743  1
  V  V74  1  0.24717415  0.62380883  0.86351907  1
  V  V75  1  0.86862374  0.25072115  0.11487091  1
  V  V76  1  0.25319179  0.38065931  0.63015751  1
  V  V77  1  0.00034797  0.37528559  0.37374500  1
  V  V78  1  0.25684474  0.75052856  -0.00777883  1
  V  V79  1  0.12748621  0.37582482  0.24632614  1
  V  V80  1  0.38220665  0.49722805  0.37440376  1
  V  V81  1  0.13259015  0.87299573  0.75528109  1
  V  V82  1  0.12296329  0.00377393  0.12451417  1
  V  V83  1  0.12083877  0.87601320  0.25205458  1
  V  V84  1  -0.00058394  0.62454717  0.12479611  1
  Zn  Zn85  1  0.74367516  0.50482184  0.23966555  1
  Zn  Zn86  1  0.12402253  0.12424784  0.50158718  1
  Zn  Zn87  1  0.00509070  0.88947590  0.88742993  1
  Zn  Zn88  1  0.49472129  -0.00779739  0.50531744  1
  Zn  Zn89  1  0.88114845  0.88192622  0.00209292  1
  Zn  Zn90  1  0.74170355  0.37881716  0.11636885  1
  Zn  Zn91  1  0.37280717  0.25045624  0.62980143  1
  Zn  Zn92  1  0.37919816  0.75066492  0.11718084  1
  Zn  Zn93  1  0.62502937  0.75124495  0.37338539  1
  Zn  Zn94  1  0.25321722  0.62642427  0.37421414  1
  Zn  Zn95  1  0.50268836  0.49502214  0.49795175  1
  Zn  Zn96  1  0.74957229  0.00096979  0.25069542  1
  Zn  Zn97  1  0.74989813  0.87413019  0.62858724  1
  Zn  Zn98  1  0.25931109  0.88422727  0.62371726  1
  Zn  Zn99  1  0.24983266  -0.00190014  0.25053896  1
  Zn  Zn100  1  0.62288935  0.86716550  0.75222057  1
  Zn  Zn101  1  0.87330097  0.75065839  0.63142720  1
  Zn  Zn102  1  0.74745439  0.12405920  0.37456655  1
  Zn  Zn103  1  0.37208661  -0.00510409  0.37911351  1
  Zn  Zn104  1  0.87780870  0.50458548  0.87142472  1
  Zn  Zn105  1  0.49779366  -0.00220709  -0.00264716  1
  Zn  Zn106  1  0.37392735  0.61981012  0.74855458  1
  Zn  Zn107  1  0.18902341  0.18861610  0.18426632  1
  Zn  Zn108  1  0.18744519  0.18547870  0.68887619  1
  Zn  Zn109  1  0.18857197  0.68597255  0.18420332  1
  Zn  Zn110  1  0.18696155  0.69613861  0.68415849  1
  Zn  Zn111  1  0.68812240  0.19193430  0.18885164  1
  Zn  Zn112  1  0.68605809  0.18891893  0.68800826  1
  Zn  Zn113  1  0.68677594  0.69134472  0.18357102  1
  Zn  Zn114  1  0.68750074  0.68758990  0.69213456  1
  Zn  Zn115  1  0.31179373  0.31467197  0.31327549  1
  Zn  Zn116  1  0.31648662  0.31049058  0.81478136  1
  Zn  Zn117  1  0.31177573  0.81035498  0.30616781  1
  Zn  Zn118  1  0.30986952  0.80715582  0.80851521  1
  Zn  Zn119  1  0.80947857  0.31022701  0.31513108  1
  Zn  Zn120  1  0.81744686  0.31335557  0.80931162  1
  Zn  Zn121  1  0.80948283  0.81368028  0.31307269  1
  Zn  Zn122  1  0.81906481  0.82270035  0.81933600  1
  Zn  Zn123  1  0.19314287  0.43953706  0.43601809  1
  Zn  Zn124  1  0.18902538  0.44127671  0.93575566  1
  Zn  Zn125  1  0.18639770  0.93683933  0.43867952  1
  Zn  Zn126  1  0.18554695  0.93686312  0.93914004  1
  Zn  Zn127  1  0.68797959  0.43641829  0.43432378  1
  Zn  Zn128  1  0.68689647  0.43907627  0.93372178  1
  Zn  Zn129  1  0.68480042  0.93664916  0.43589757  1
  Zn  Zn130  1  0.67930128  0.94358260  0.94230570  1
  Zn  Zn131  1  0.31397572  0.06435172  0.06137774  1
  Zn  Zn132  1  0.31745053  0.06302628  0.55934093  1
  Zn  Zn133  1  0.31500296  0.56118741  0.05852903  1
  Zn  Zn134  1  0.31445822  0.56663797  0.56079766  1
  Zn  Zn135  1  0.78772286  0.06565953  0.06537042  1
  Zn  Zn136  1  0.81237460  0.06171780  0.56609731  1
  Zn  Zn137  1  0.81071376  0.55876367  0.06006874  1
  Zn  Zn138  1  0.81216072  0.56008860  0.56212722  1
  Zn  Zn139  1  0.44438054  0.43759332  0.18905131  1
  Zn  Zn140  1  0.43660671  0.44132554  0.69184645  1
  Zn  Zn141  1  0.42392776  0.95382929  0.16063258  1
  Zn  Zn142  1  0.44412264  0.93420309  0.69593044  1
  Zn  Zn143  1  0.93419078  0.43780553  0.18487111  1
  Zn  Zn144  1  0.93968120  0.43996018  0.68451404  1
  Zn  Zn145  1  0.93547464  0.93327936  0.18835989  1
  Zn  Zn146  1  0.93845566  0.93821345  0.68926658  1
  Zn  Zn147  1  0.05893111  0.06257922  0.31258487  1
  Zn  Zn148  1  0.06653032  0.06319133  0.81184103  1
  Zn  Zn149  1  0.06447199  0.56537607  0.31235358  1
  Zn  Zn150  1  0.06177454  0.56537347  0.81005165  1
  Zn  Zn151  1  0.55961087  0.06431639  0.31373335  1
  Zn  Zn152  1  0.56296056  0.05854962  0.81808014  1
  Zn  Zn153  1  0.55974991  0.56409757  0.31197076  1
  Zn  Zn154  1  0.56767437  0.55725106  0.81799701  1
  Zn  Zn155  1  0.43567553  0.18432255  0.44043941  1
  Zn  Zn156  1  0.43751263  0.19033050  0.94081177  1
  Zn  Zn157  1  0.43953542  0.68926477  0.43619041  1
  Zn  Zn158  1  0.43543949  0.68123055  0.93518145  1
  Zn  Zn159  1  0.93788730  0.18548641  0.43518466  1
  Zn  Zn160  1  0.88665935  0.00956371  0.88592708  1
  Zn  Zn161  1  0.93813744  0.68899655  0.43834560  1
  Zn  Zn162  1  0.93989742  0.69056939  0.93695169  1
  Zn  Zn163  1  0.06156604  0.30908183  0.05965834  1
  Zn  Zn164  1  0.06527195  0.31358642  0.56319828  1
  Zn  Zn165  1  0.06207054  0.81211667  0.06362272  1
  Zn  Zn166  1  0.06321866  0.81462902  0.56579516  1
  Zn  Zn167  1  0.56231884  0.30457354  0.06621941  1
  Zn  Zn168  1  0.56238818  0.30939162  0.56920987  1
  Zn  Zn169  1  0.56484143  0.80859609  0.05418232  1
  Zn  Zn170  1  0.56349127  0.81106733  0.56321628  1
  O  O171  1  0.12888240  0.11538493  0.11778028  1
  O  O172  1  0.11420928  0.11775796  0.62645954  1
  O  O173  1  0.11979902  0.61363581  0.11957313  1
  O  O174  1  0.11978514  0.62080671  0.61967531  1
  O  O175  1  0.62035663  0.13841442  0.11225847  1
  O  O176  1  0.61750024  0.11880004  0.62293380  1
  O  O177  1  0.61903295  0.63049433  0.11009456  1
  O  O178  1  0.62121679  0.62038384  0.61869637  1
  O  O179  1  0.36778744  0.38399354  0.38618910  1
  O  O180  1  0.38511248  0.38424919  0.87355992  1
  O  O181  1  0.38968923  0.87377748  0.36383505  1
  O  O182  1  0.38043916  0.87032476  0.87327703  1
  O  O183  1  0.87960165  0.37938662  0.38277347  1
  O  O184  1  0.88459078  0.37504485  0.88069479  1
  O  O185  1  0.87162278  0.88215897  0.38752023  1
  O  O186  1  0.87795446  0.89141400  0.88530128  1
  O  O187  1  0.24718463  0.01273605  0.37394589  1
  O  O188  1  0.24985471  0.01527597  0.88193653  1
  O  O189  1  0.25859097  0.50445420  0.36230615  1
  O  O190  1  0.25953463  0.50553814  0.87380552  1
  O  O191  1  0.76215298  0.00244606  0.37533474  1
  O  O192  1  0.74685500  0.00850003  0.86580565  1
  O  O193  1  0.75669571  0.50850032  0.37254892  1
  O  O194  1  0.75275280  0.50886632  0.86702327  1
  O  O195  1  0.24429107  0.50512369  0.13485398  1
  O  O196  1  0.24256771  0.49358770  0.61909794  1
  O  O197  1  0.23685807  0.99202063  0.12791352  1
  O  O198  1  0.23614999  1.00335273  0.61673497  1
  O  O199  1  0.75579138  0.49112579  0.12835577  1
  O  O200  1  0.74461076  0.49467353  0.63135417  1
  O  O201  1  0.75075747  0.98371474  0.13381380  1
  O  O202  1  0.73815795  1.00274745  0.63437710  1
  O  O203  1  0.00510833  0.36956696  0.25527868  1
  O  O204  1  0.00454057  0.36968567  0.75173165  1
  O  O205  1  0.01129428  0.86574648  0.24594704  1
  O  O206  1  0.00852281  0.86666485  0.74972015  1
  O  O207  1  0.51021124  0.36451057  0.25155121  1
  O  O208  1  0.50733165  0.36712791  0.75143677  1
  O  O209  1  0.50753066  0.86811302  0.25133709  1
  O  O210  1  0.50569275  0.87432894  0.77046375  1
  O  O211  1  0.49259137  0.13830790  0.25163136  1
  O  O212  1  0.49428352  0.13104495  0.75032193  1
  O  O213  1  0.49808065  0.63193310  0.23913052  1
  O  O214  1  0.50656577  0.61994306  0.73858885  1
  O  O215  1  0.98752421  0.13566205  0.25465770  1
  O  O216  1  0.99320548  0.13291063  0.74490275  1
  O  O217  1  0.99481955  0.63116263  0.24478838  1
  O  O218  1  1.00757902  0.64209225  0.74238463  1
  O  O219  1  0.36378764  0.24965645  0.00946853  1
  O  O220  1  0.36386229  0.25653788  0.50211058  1
  O  O221  1  0.36128613  0.74378723  0.00059388  1
  O  O222  1  0.36888599  0.74325775  0.51022720  1
  O  O223  1  0.88210597  0.25650178  0.01466429  1
  O  O224  1  0.86756545  0.25819823  0.49410702  1
  O  O225  1  0.87804064  0.74874688  0.01437955  1
  O  O226  1  0.86903947  0.75737476  0.50157169  1
  O  O227  1  0.13488318  0.25073265  0.49387046  1
  O  O228  1  0.13653351  0.24176517  0.99894925  1
  O  O229  1  0.12973874  0.74785171  0.49288250  1
  O  O230  1  0.13096008  0.73462976  1.00765960  1
  O  O231  1  0.63036150  0.24651509  0.49684001  1
  O  O232  1  0.61435112  0.23595383  0.99006361  1
  O  O233  1  0.63351699  0.74155037  0.49851236  1
  O  O234  1  0.62571506  0.73657006  0.98405862  1
  O  O235  1  0.49130910  0.24344531  0.13676086  1
  O  O236  1  0.49993440  0.23860136  0.63853739  1
  O  O237  1  0.49933570  0.74413695  0.13081605  1
  O  O238  1  0.48944903  0.74167691  0.61898796  1
  O  O239  1  0.99160384  0.25478687  0.13656569  1
  O  O240  1  1.00749390  0.24343137  0.63541676  1
  O  O241  1  0.99445289  0.74265536  0.13759628  1
  O  O242  1  0.99723569  0.74395594  0.63112564  1
  O  O243  1  0.00463835  0.25562366  0.36557170  1
  O  O244  1  0.01043984  0.26343480  0.86118443  1
  O  O245  1  0.00750598  0.74533158  0.36316081  1
  O  O246  1  0.00202345  0.75240106  0.86233297  1
  O  O247  1  0.50655609  0.24685929  0.37106830  1
  O  O248  1  0.49189867  0.26454602  0.86720867  1
  O  O249  1  0.50071884  0.75777308  0.36241639  1
  O  O250  1  0.50661316  0.75461028  0.87676465  1
  O  O251  1  0.24760362  0.13568886  0.49269305  1
  O  O252  1  0.24715538  0.13213662  0.99273916  1
  O  O253  1  0.24276658  0.63575136  0.49773532  1
  O  O254  1  0.24356467  0.63149761  0.99296181  1
  O  O255  1  0.74377203  0.13221265  0.50223090  1
  O  O256  1  0.73768549  0.13082425  0.98797951  1
  O  O257  1  0.74168705  0.62903459  0.49623190  1
  O  O258  1  0.74156511  0.62257865  0.98754570  1
  O  O259  1  0.24405122  0.36179956  -0.00066826  1
  O  O260  1  0.25648499  0.36997563  0.50881579  1
  O  O261  1  0.23954656  0.86156142  0.00718362  1
  O  O262  1  0.24758800  0.86289458  0.50260786  1
  O  O263  1  0.76302864  0.37620937  -0.00568859  1
  O  O264  1  0.75829264  0.36927223  0.50404328  1
  O  O265  1  0.75236042  0.88333813  0.01373206  1
  O  O266  1  0.75433040  0.86549664  0.50161370  1
  O  O267  1  0.13345500  0.49821383  0.24343394  1
  O  O268  1  0.12031316  0.49482603  0.73599681  1
  O  O269  1  0.12324667  0.99270568  0.24523413  1
  O  O270  1  0.12098493  0.98769790  0.73916775  1
  O  O271  1  0.62294939  0.48276903  0.25931622  1
  O  O272  1  0.63530839  0.48933978  0.74665414  1
  O  O273  1  0.62901238  0.98902915  0.25855423  1
  O  O274  1  0.63284068  0.99838397  0.74496593  1
  O  O275  1  0.37005189  0.01234223  0.25299658  1
  O  O276  1  0.37454909  0.01242707  0.74422730  1
  O  O277  1  0.37168679  0.50536679  0.25347900  1
  O  O278  1  0.37931358  0.50416800  0.76687525  1
  O  O279  1  0.87744165  0.00694844  0.25848581  1
  O  O280  1  0.86533587  0.01304345  0.74490148  1
  O  O281  1  0.87698009  0.50734179  0.25829888  1
  O  O282  1  0.86196338  0.49412871  0.74956113  1
  O  O283  1  0.12081958  0.37083730  0.36908999  1
  O  O284  1  0.12107498  0.37260558  0.86823783  1
  O  O285  1  0.12666919  0.86318795  0.36846249  1
  O  O286  1  0.12607064  0.87945936  0.85864842  1
  O  O287  1  0.62617442  0.36226125  0.36945577  1
  O  O288  1  0.61116757  0.37995329  0.86806592  1
  O  O289  1  0.61630636  0.87147705  0.36535916  1
  O  O290  1  0.63104042  0.85862345  0.87764879  1
  O  O291  1  0.38056938  0.13714066  0.13936083  1
  O  O292  1  0.38285762  0.12823524  0.63395966  1
  O  O293  1  0.38862932  0.62413598  0.12882817  1
  O  O294  1  0.38615380  0.62935905  0.62627728  1
  O  O295  1  0.87908511  0.13258125  0.12564132  1
  O  O296  1  0.88764068  0.12312157  0.63109708  1
  O  O297  1  0.87834779  0.63218582  0.13042545  1
  O  O298  1  0.88980592  0.62399326  0.62003314  1
  O  O299  1  0.25787929  0.24777616  0.11310863  1
  O  O300  1  0.24858946  0.25703925  0.61620902  1
  O  O301  1  0.24941327  0.75397338  0.11390674  1
  O  O302  1  0.26461669  0.75078982  0.61592563  1
  O  O303  1  0.76543127  0.25622054  0.12808611  1
  O  O304  1  0.74588015  0.25685523  0.61286703  1
  O  O305  1  0.75876029  0.76343377  0.12917362  1
  O  O306  1  0.75324355  0.74737070  0.61531803  1
  O  O307  1  0.24409716  0.24341321  0.38084589  1
  O  O308  1  0.24806238  0.24682628  0.88776164  1
  O  O309  1  0.24448006  0.74833281  0.38037282  1
  O  O310  1  0.24921943  0.74059235  0.88313104  1
  O  O311  1  0.74183861  0.24787358  0.38882752  1
  O  O312  1  0.74958450  0.24167064  0.86923229  1
  O  O313  1  0.75040559  0.74137204  0.38691455  1
  O  O314  1  0.75316518  0.73883426  0.87147936  1
  O  O315  1  0.01490435  0.13649769  0.00274205  1
  O  O316  1  0.00037558  0.11801004  0.50744434  1
  O  O317  1  0.00771939  0.61942881  0.00305420  1
  O  O318  1  0.00840795  0.62236386  0.50648252  1
  O  O319  1  0.50451876  0.12682974  0.01034209  1
  O  O320  1  0.50636229  0.12827845  0.51389827  1
  O  O321  1  0.50861063  0.62811187  0.01056923  1
  O  O322  1  0.51337110  0.62424420  0.50412212  1
  O  O323  1  0.48599646  0.37271281  0.50779493  1
  O  O324  1  0.50476945  0.37294788  0.99040206  1
  O  O325  1  0.50585813  0.87041114  0.48085146  1
  O  O326  1  0.50653563  0.87515834  0.98086623  1
  O  O327  1  0.99458532  0.37862400  0.49519130  1
  O  O328  1  0.99523692  0.37698067  0.98982383  1
  O  O329  1  0.99259112  0.88605228  0.50365515  1
  O  O330  1  0.99628613  0.87284834  1.00159071  1
  O  O331  1  0.48686313  0.50153271  0.37711448  1
  O  O332  1  0.49337182  0.48674580  0.87433646  1
  O  O333  1  0.49938276  0.98441338  0.37281221  1
  O  O334  1  0.49236102  0.98886130  0.87658855  1
  O  O335  1  0.99698893  0.49540572  0.38067535  1
  O  O336  1  1.00008191  0.48915314  0.87610506  1
  O  O337  1  0.98705461  1.00605398  0.38566873  1
  O  O338  1  1.00022341  1.00511679  0.87686421  1
  O  O339  1  0.00739598  0.00603070  0.12882744  1
  O  O340  1  0.00677091  0.00756121  0.61793915  1
  O  O341  1  0.00632776  0.50604934  0.11951460  1
  O  O342  1  0.00902206  0.50815947  0.61877030  1
  O  O343  1  0.51710222  0.02250868  0.14934994  1
  O  O344  1  0.51069182  0.00877152  0.62969993  1
  O  O345  1  0.50465386  0.51437115  0.12908205  1
  O  O346  1  0.50748202  0.50693229  0.62104042  1
  O  O347  1  0.24142512  0.38463021  0.25237284  1
  O  O348  1  0.24691668  0.36813471  0.73683895  1
  O  O349  1  0.23464525  0.87342047  0.24492656  1
  O  O350  1  0.23679678  0.86919375  0.74294106  1
  O  O351  1  0.73476373  0.37343464  0.25358644  1
  O  O352  1  0.74415087  0.37896448  0.74612461  1
  O  O353  1  0.73954072  0.87478766  0.24429917  1
  O  O354  1  0.74904590  0.88493324  0.74815037  1
  O  O355  1  0.25566981  0.12759130  0.25853933  1
  O  O356  1  0.25748504  0.13245118  0.76632855  1
  O  O357  1  0.26185060  0.61891162  0.24833683  1
  O  O358  1  0.24318675  0.62996350  0.76073834  1
  O  O359  1  0.76284282  0.12517660  0.24957783  1
  O  O360  1  0.75380501  0.12381147  0.75598102  1
  O  O361  1  0.75296461  0.62618500  0.25700247  1
  O  O362  1  0.74730786  0.61715018  0.76354667  1
  O  O363  1  0.36514630  0.12907772  0.36535902  1
  O  O364  1  0.36459214  0.12847665  0.87193806  1
  O  O365  1  0.37645325  0.61803401  0.36443297  1
  O  O366  1  0.36525680  0.61740604  0.86978733  1
  O  O367  1  0.87126455  0.11877858  0.36663280  1
  O  O368  1  0.85599371  0.12277165  0.86474470  1
  O  O369  1  0.86934978  0.62043506  0.37084148  1
  O  O370  1  0.86308899  0.62380832  0.88038276  1
  O  O371  1  0.11804159  0.38833229  0.12815147  1
  O  O372  1  0.13279784  0.38520393  0.62733654  1
  O  O373  1  0.13102880  0.88119783  0.13300127  1
  O  O374  1  0.12768279  0.88509769  0.63114616  1
  O  O375  1  0.62524683  0.36432275  0.14276333  1
  O  O376  1  0.63098807  0.38028810  0.63274704  1
  O  O377  1  0.63573340  0.86771550  0.12982912  1
  O  O378  1  0.62575673  0.88253685  0.62922406  1
  O  O379  1  0.11745219  0.25478884  0.25049922  1
  O  O380  1  0.11999895  0.25700308  0.75382444  1
  O  O381  1  0.11878116  0.75331589  0.25580658  1
  O  O382  1  0.11410453  0.76643376  0.74081426  1
  O  O383  1  0.61797886  0.25487668  0.26101392  1
  O  O384  1  0.61755949  0.26232407  0.74745347  1
  O  O385  1  0.61710365  0.75667420  0.25142944  1
  O  O386  1  0.62955450  0.74753120  0.77030223  1
  O  O387  1  0.38047848  0.24854663  0.24779444  1
  O  O388  1  0.38367572  0.24242779  0.74875096  1
  O  O389  1  0.38251226  0.73684818  0.24719842  1
  O  O390  1  0.37184225  0.74143416  0.73296482  1
  O  O391  1  0.88034549  0.24553483  0.24331672  1
  O  O392  1  0.88509416  0.23962245  0.75033467  1
  O  O393  1  0.88190074  0.74583510  0.24697817  1
  O  O394  1  0.89072287  0.75892586  0.74854556  1
  O  O395  1  0.37464926  0.49302841  0.49120803  1
  O  O396  1  0.37539956  0.50618973  0.97952611  1
  O  O397  1  0.38323553  1.00565346  0.49217595  1
  O  O398  1  0.39750478  0.99396702  1.05138094  1
  O  O399  1  0.88195334  0.49305025  0.49286688  1
  O  O400  1  0.88563704  0.49005838  0.99687211  1
  O  O401  1  0.87964281  0.99466842  0.49553969  1
  O  O402  1  0.88083355  1.01783221  1.01213367  1
  O  O403  1  0.12858260  0.01303578  0.00827401  1
  O  O404  1  0.11522157  0.00146235  0.50478259  1
  O  O405  1  0.12177410  0.50576606  0.00741314  1
  O  O406  1  0.12222847  0.50622633  0.50620087  1
  O  O407  1  0.61564014  0.02306106  -0.00658749  1
  O  O408  1  0.62059096  0.00504222  0.50886576  1
  O  O409  1  0.62400513  0.51743495  -0.00837772  1
  O  O410  1  0.62548725  0.50582542  0.50520134  1
  O  O411  1  0.37866308  0.36481195  0.13146158  1
  O  O412  1  0.36778914  0.37537143  0.61961624  1
  O  O413  1  0.35346866  0.86467219  0.14205250  1
  O  O414  1  0.37954882  0.86225032  0.62900439  1
  O  O415  1  0.87680847  0.36490183  0.11586051  1
  O  O416  1  0.87179691  0.37939248  0.61109409  1
  O  O417  1  0.86360713  0.86782450  0.12608549  1
  O  O418  1  0.87133362  0.87680511  0.61216916  1
  O  O419  1  0.13109952  0.13259480  0.37534168  1
  O  O420  1  0.13795249  0.13249401  0.88070939  1
  O  O421  1  0.12751454  0.63698254  0.37989719  1
  O  O422  1  0.13354870  0.61407280  0.88575662  1
  O  O423  1  0.62573401  0.13456121  0.38263229  1
  O  O424  1  0.63636886  0.12826016  0.87698402  1
  O  O425  1  0.63046671  0.62571366  0.38242815  1
  O  O426  1  0.63197050  0.63264540  0.88202080  1
