# generated using pymatgen
data_V85Zn86O256
_symmetry_space_group_name_H-M   'P 1'
_cell_length_a   16.96838646
_cell_length_b   16.95824162
_cell_length_c   16.98032289
_cell_angle_alpha   89.88472294
_cell_angle_beta   89.94114415
_cell_angle_gamma   90.07375139
_symmetry_Int_Tables_number   1
_chemical_formula_structural   V85Zn86O256
_chemical_formula_sum   'V85 Zn86 O256'
_cell_volume   4886.13926359
_cell_formula_units_Z   1
loop_
 _symmetry_equiv_pos_site_id
 _symmetry_equiv_pos_as_xyz
  1  'x, y, z'
loop_
 _atom_site_type_symbol
 _atom_site_label
 _atom_site_symmetry_multiplicity
 _atom_site_fract_x
 _atom_site_fract_y
 _atom_site_fract_z
 _atom_site_occupancy
  V  V0  1  0.87062274  0.74964600  0.62599944  1
  V  V1  1  0.88143365  0.49647365  0.87676290  1
  V  V2  1  0.37209911  0.62555926  0.25280449  1
  V  V3  1  0.50946430  0.00706556  0.49915343  1
  V  V4  1  0.00298018  0.36944913  0.37808292  1
  V  V5  1  0.12939069  0.49250215  0.63430798  1
  V  V6  1  0.12296620  0.62708388  0.49385877  1
  V  V7  1  0.00552315  0.74583124  0.75014087  1
  V  V8  1  0.23635981  0.89039515  0.63375706  1
  V  V9  1  0.36688124  0.50070232  0.38134614  1
  V  V10  1  0.75086360  0.49599117  0.75050332  1
  V  V11  1  -0.00030956  0.62150955  0.62387343  1
  V  V12  1  0.37324601  0.75326595  0.12090311  1
  V  V13  1  0.87210705  0.49365096  0.38094877  1
  V  V14  1  0.37445961  0.75039510  0.63657212  1
  V  V15  1  0.50240018  0.87373973  0.37544294  1
  V  V16  1  0.75272661  0.62724838  0.87483813  1
  V  V17  1  0.74848650  0.49524010  0.24825415  1
  V  V18  1  0.62235685  0.12529456  0.00441278  1
  V  V19  1  -0.00178013  -0.00503057  0.00559033  1
  V  V20  1  0.12413249  0.74628682  0.87488885  1
  V  V21  1  0.00040237  0.12923993  0.12586748  1
  V  V22  1  -0.00271685  0.11967301  0.63000107  1
  V  V23  1  -0.00018031  0.25204779  0.25108301  1
  V  V24  1  0.12346984  0.49458254  0.12491110  1
  V  V25  1  -0.00028443  0.62374585  0.11799365  1
  V  V26  1  0.24803420  0.24845596  0.50354240  1
  V  V27  1  0.37410686  0.87432577  0.50084087  1
  V  V28  1  0.62185032  -0.00122360  0.12265019  1
  V  V29  1  0.62251360  0.62077855  0.49672156  1
  V  V30  1  0.37256075  0.37195654  0.50772660  1
  V  V31  1  0.30641331  0.56401307  0.80740886  1
  V  V32  1  0.24217793  0.49501187  0.25437303  1
  V  V33  1  0.75367327  0.37407128  0.61814836  1
  V  V34  1  0.87732244  0.25325009  0.61698277  1
  V  V35  1  0.87675065  0.75517811  0.12372091  1
  V  V36  1  0.75308180  0.12929647  0.86318915  1
  V  V37  1  0.37528606  0.87201294  -0.00124655  1
  V  V38  1  -0.00286796  0.49210880  0.50218147  1
  V  V39  1  0.49630566  0.24568886  0.75186773  1
  V  V40  1  0.13004521  0.62100805  -0.00202379  1
  V  V41  1  0.75324092  -0.01535434  0.74791837  1
  V  V42  1  0.12860583  0.00020817  0.12484230  1
  V  V43  1  0.61917990  0.25077156  0.87949246  1
  V  V44  1  -0.05894904  0.44026973  0.04220351  1
  V  V45  1  0.75166438  -0.00139709  0.24623222  1
  V  V46  1  0.00367877  -0.00247439  0.50381504  1
  V  V47  1  0.76146732  0.25132133  0.00811884  1
  V  V48  1  0.12460252  0.24964891  0.37184615  1
  V  V49  1  0.86991047  0.87289486  0.50151145  1
  V  V50  1  0.37862840  0.00247300  0.37058501  1
  V  V51  1  0.50420096  0.12547995  0.62921571  1
  V  V52  1  0.87522758  0.62542274  0.24968146  1
  V  V53  1  0.62296093  0.37419482  0.75044335  1
  V  V54  1  0.61628008  0.62753345  -0.00574585  1
  V  V55  1  0.50081903  0.74677372  0.25151167  1
  V  V56  1  0.24390070  0.75400615  0.49460232  1
  V  V57  1  0.25005216  0.37238169  0.13002576  1
  V  V58  1  0.87484341  0.12864850  0.24597919  1
  V  V59  1  0.37689380  0.00250258  0.86053019  1
  V  V60  1  0.62788833  0.74668682  0.37549358  1
  V  V61  1  0.62863610  -0.01350158  0.62847199  1
  V  V62  1  0.38706860  0.38972928  0.00306669  1
  V  V63  1  0.62936209  0.76063903  0.86003605  1
  V  V64  1  0.62723576  0.49657421  0.11805255  1
  V  V65  1  0.74793744  0.74842741  0.50939379  1
  V  V66  1  0.17294960  0.30465603  0.81901117  1
  V  V67  1  0.49969377  0.61987299  0.12400668  1
  V  V68  1  0.00560291  0.74756733  0.25602238  1
  V  V69  1  0.25433563  0.00301037  0.24865899  1
  V  V70  1  0.25065378  0.25050320  0.00024036  1
  V  V71  1  0.50245509  0.86636365  0.86049971  1
  V  V72  1  0.02780349  0.91506936  0.82963072  1
  V  V73  1  -0.01347172  0.24705400  0.75565938  1
  V  V74  1  0.74978193  0.75518894  -0.00200619  1
  V  V75  1  0.25372105  0.12538493  0.37268006  1
  V  V76  1  0.87724538  -0.00486352  0.37217713  1
  V  V77  1  0.49681689  0.50018731  0.50396104  1
  V  V78  1  0.25126556  0.11580928  0.86080049  1
  V  V79  1  0.12851555  0.87111102  0.25690202  1
  V  V80  1  0.49821370  0.00152754  -0.00185858  1
  V  V81  1  0.38280440  0.23572956  0.13014129  1
  V  V82  1  0.62478859  0.87263379  0.24732976  1
  V  V83  1  0.87351353  0.62350181  0.74924398  1
  V  V84  1  -0.00262642  0.37010609  0.87348226  1
  Zn  Zn85  1  0.74868909  0.62093790  0.37120186  1
  Zn  Zn86  1  0.75085380  0.87722140  0.11887133  1
  Zn  Zn87  1  0.49976659  0.36813870  0.37318382  1
  Zn  Zn88  1  0.48486281  0.62622184  0.63707854  1
  Zn  Zn89  1  0.12310417  0.11972838  0.50278973  1
  Zn  Zn90  1  0.50189391  0.22046755  0.25445157  1
  Zn  Zn91  1  0.24509406  0.37113508  0.63700166  1
  Zn  Zn92  1  0.76410080  0.37196544  0.12058476  1
  Zn  Zn93  1  0.61885119  0.49982346  0.62736856  1
  Zn  Zn94  1  0.87740937  0.00605064  0.87143781  1
  Zn  Zn95  1  0.62135769  0.24389694  0.38169099  1
  Zn  Zn96  1  0.24278827  0.63362677  0.37211632  1
  Zn  Zn97  1  0.50198181  0.40308890  0.87552305  1
  Zn  Zn98  1  0.74300341  0.24215226  0.49932267  1
  Zn  Zn99  1  0.88213261  0.87537748  -0.01424214  1
  Zn  Zn100  1  0.74517911  0.12523943  0.38205749  1
  Zn  Zn101  1  0.25228488  0.87294140  0.12207801  1
  Zn  Zn102  1  0.26283013  0.73912444  -0.01956952  1
  Zn  Zn103  1  0.62227276  0.36521220  0.24960751  1
  Zn  Zn104  1  0.12727955  0.12722408  -0.00415612  1
  Zn  Zn105  1  0.36983418  0.23776399  0.63135450  1
  Zn  Zn106  1  0.00370195  0.86677221  0.37886618  1
  Zn  Zn107  1  0.18863257  0.18670497  0.18867790  1
  Zn  Zn108  1  0.18280982  0.17859690  0.68119830  1
  Zn  Zn109  1  0.18798005  0.68537336  0.18525672  1
  Zn  Zn110  1  0.18920613  0.69021084  0.68059312  1
  Zn  Zn111  1  0.68442486  0.18561356  0.18964950  1
  Zn  Zn112  1  0.68089403  0.18771420  0.67893167  1
  Zn  Zn113  1  0.68880752  0.68475481  0.18594596  1
  Zn  Zn114  1  0.66566484  0.67776942  0.69097817  1
  Zn  Zn115  1  0.31681365  0.31263559  0.31417791  1
  Zn  Zn116  1  0.33343885  0.32158928  0.81796176  1
  Zn  Zn117  1  0.31352443  0.81456138  0.31218471  1
  Zn  Zn118  1  0.30931601  0.81859837  0.80896302  1
  Zn  Zn119  1  0.80984307  0.31173024  0.31293813  1
  Zn  Zn120  1  0.81190588  0.31284342  0.81665156  1
  Zn  Zn121  1  0.81185758  0.81279219  0.31233293  1
  Zn  Zn122  1  0.82999841  0.81705236  0.81789393  1
  Zn  Zn123  1  0.18306364  0.43486752  0.44327841  1
  Zn  Zn124  1  0.19642049  0.44445353  0.94348797  1
  Zn  Zn125  1  0.18807764  0.93682431  0.43751257  1
  Zn  Zn126  1  0.18858499  0.93722608  0.93636715  1
  Zn  Zn127  1  0.68224269  0.42848527  0.43497551  1
  Zn  Zn128  1  0.68848836  0.43592247  0.93773835  1
  Zn  Zn129  1  0.68931232  0.93854515  0.43784665  1
  Zn  Zn130  1  0.68825908  0.93988396  0.93350975  1
  Zn  Zn131  1  0.30907598  0.06060105  0.05052418  1
  Zn  Zn132  1  0.31820517  0.06198898  0.56201952  1
  Zn  Zn133  1  0.30814751  0.56367538  0.06889608  1
  Zn  Zn134  1  0.30491814  0.56617738  0.56865275  1
  Zn  Zn135  1  0.81225611  0.06569364  0.06046071  1
  Zn  Zn136  1  0.81461698  0.06185879  0.57070677  1
  Zn  Zn137  1  0.80504342  0.57087052  0.06404337  1
  Zn  Zn138  1  0.80799847  0.56309301  0.56136916  1
  Zn  Zn139  1  0.43314639  0.43622028  0.18785392  1
  Zn  Zn140  1  0.43302788  0.43841331  0.68988679  1
  Zn  Zn141  1  0.43419181  1.04878008  0.17983415  1
  Zn  Zn142  1  0.43618507  0.93540951  0.68195351  1
  Zn  Zn143  1  0.93764439  0.43441588  0.20585670  1
  Zn  Zn144  1  0.94071690  0.43279358  0.69157725  1
  Zn  Zn145  1  0.94137100  0.93463632  0.18690583  1
  Zn  Zn146  1  0.92643579  0.93756091  0.68253374  1
  Zn  Zn147  1  0.06421334  0.06202737  0.31534243  1
  Zn  Zn148  1  0.06597600  0.08026968  0.81462728  1
  Zn  Zn149  1  0.06104649  0.56052140  0.31287854  1
  Zn  Zn150  1  0.06437260  0.56140751  0.81539999  1
  Zn  Zn151  1  0.57016089  0.06420189  0.31587269  1
  Zn  Zn152  1  0.56665189  0.06003388  0.81140698  1
  Zn  Zn153  1  0.54468505  0.52968493  0.29770774  1
  Zn  Zn154  1  0.56032614  0.57304412  0.80501302  1
  Zn  Zn155  1  0.43889686  0.18746943  0.43783450  1
  Zn  Zn156  1  0.43375785  0.18637869  0.93997503  1
  Zn  Zn157  1  0.43632264  0.68570338  0.44193740  1
  Zn  Zn158  1  0.43298881  0.57367197  0.93454715  1
  Zn  Zn159  1  0.90572290  0.16934186  0.45369043  1
  Zn  Zn160  1  0.93733066  0.18392785  0.93938811  1
  Zn  Zn161  1  0.93430853  0.68130063  0.43765496  1
  Zn  Zn162  1  0.94048133  0.68729768  0.93699828  1
  Zn  Zn163  1  0.07042845  0.30734067  0.06505848  1
  Zn  Zn164  1  0.06126224  0.30931074  0.56315612  1
  Zn  Zn165  1  0.06869633  0.81109340  0.06432440  1
  Zn  Zn166  1  0.06065335  0.81180664  0.56469588  1
  Zn  Zn167  1  0.56260999  0.31025639  0.06648206  1
  Zn  Zn168  1  0.56310209  0.31288791  0.56257689  1
  Zn  Zn169  1  0.55806844  0.81280392  0.05845647  1
  Zn  Zn170  1  0.55943849  0.81240777  0.56334923  1
  O  O171  1  0.12069173  0.11405626  0.12522429  1
  O  O172  1  0.10485327  0.12752271  0.61854300  1
  O  O173  1  0.11564388  0.61690156  0.12140203  1
  O  O174  1  0.11770030  0.61513039  0.61427780  1
  O  O175  1  0.62993511  0.11544755  0.11083774  1
  O  O176  1  0.61283832  0.11224951  0.62440737  1
  O  O177  1  0.61936586  0.62052994  0.11635626  1
  O  O178  1  0.64947389  0.61023938  0.59883300  1
  O  O179  1  0.37357094  0.38374023  0.38918928  1
  O  O180  1  0.38646864  0.37700996  0.89735047  1
  O  O181  1  0.38233960  0.88154559  0.38015733  1
  O  O182  1  0.38519826  0.87848903  0.87819414  1
  O  O183  1  0.88787352  0.38694564  0.36585028  1
  O  O184  1  0.88370804  0.38288173  0.87804023  1
  O  O185  1  0.87958324  0.87865187  0.37970748  1
  O  O186  1  0.90678144  0.88773602  0.86928574  1
  O  O187  1  0.25402535  0.00650179  0.36799190  1
  O  O188  1  0.25850082  0.00851330  0.87477627  1
  O  O189  1  0.25360513  0.49887229  0.37273566  1
  O  O190  1  0.24991246  0.49755653  0.86135071  1
  O  O191  1  0.76262175  -0.00223677  0.36584057  1
  O  O192  1  0.74802761  0.01110401  0.86198744  1
  O  O193  1  0.75695307  0.49560102  0.36736136  1
  O  O194  1  0.76026812  0.50135497  0.86729507  1
  O  O195  1  0.24611064  0.49130668  0.13615257  1
  O  O196  1  0.23368610  0.49355363  0.62223791  1
  O  O197  1  0.24449308  1.00025282  0.13026777  1
  O  O198  1  0.24930775  0.98976003  0.61580066  1
  O  O199  1  0.74505597  0.49801765  0.12976965  1
  O  O200  1  0.75669206  0.49210680  0.64034941  1
  O  O201  1  0.74498417  0.99698002  0.12990646  1
  O  O202  1  0.74145947  1.00278270  0.63663252  1
  O  O203  1  0.00319026  0.35940270  0.25814899  1
  O  O204  1  0.00176240  0.36573606  0.76562656  1
  O  O205  1  0.00901077  0.86362025  0.24969058  1
  O  O206  1  -0.00847510  0.85895818  0.74449608  1
  O  O207  1  0.51136865  0.41590683  0.26311124  1
  O  O208  1  0.50830443  0.37114079  0.75436819  1
  O  O209  1  0.51074001  0.86187764  0.26136168  1
  O  O210  1  0.49880859  0.87887091  0.76226921  1
  O  O211  1  0.49227199  0.10824943  0.25150159  1
  O  O212  1  0.50864509  0.13475103  0.74466173  1
  O  O213  1  0.49337329  0.62644647  0.24373575  1
  O  O214  1  0.55702509  0.64034942  0.72049553  1
  O  O215  1  0.99724999  0.13163044  0.24504587  1
  O  O216  1  0.99905206  0.13534319  0.74402821  1
  O  O217  1  0.99668238  0.62747638  0.23829772  1
  O  O218  1  0.99285416  0.62808120  0.74402739  1
  O  O219  1  0.36915030  0.25696059  0.01192449  1
  O  O220  1  0.36662474  0.25677633  0.50471074  1
  O  O221  1  0.37502011  0.75739927  0.00808855  1
  O  O222  1  0.36772403  0.76327632  0.49881162  1
  O  O223  1  0.85971012  0.24521065  -0.00061109  1
  O  O224  1  0.88491376  0.26470792  0.51673767  1
  O  O225  1  0.87083678  0.75313714  0.00560925  1
  O  O226  1  0.86723022  0.75219556  0.50292055  1
  O  O227  1  0.13077146  0.24767120  0.48955632  1
  O  O228  1  0.14555791  0.24752747  1.00473570  1
  O  O229  1  0.13053402  0.74041979  0.50436852  1
  O  O230  1  0.12524599  0.74150842  0.99240262  1
  O  O231  1  0.63061313  0.25418464  0.50002932  1
  O  O232  1  0.62587522  0.24248251  0.99502945  1
  O  O233  1  0.63003192  0.74410009  0.49515352  1
  O  O234  1  0.63417593  0.74621888  0.99508827  1
  O  O235  1  0.48484855  0.24909109  0.12631503  1
  O  O236  1  0.50192881  0.24178351  0.63529452  1
  O  O237  1  0.49261142  0.74044556  0.13003406  1
  O  O238  1  0.47768325  0.75452608  0.61702911  1
  O  O239  1  1.00972386  0.23741836  0.13432086  1
  O  O240  1  0.99403567  0.24812970  0.63574214  1
  O  O241  1  0.99457241  0.74165564  0.13183921  1
  O  O242  1  0.99320190  0.74043049  0.63094083  1
  O  O243  1  0.00601610  0.25415288  0.37089071  1
  O  O244  1  -0.00418688  0.25504846  0.87004461  1
  O  O245  1  -0.00563965  0.74472736  0.35930197  1
  O  O246  1  0.00862515  0.74547754  0.86407553  1
  O  O247  1  0.49435395  0.25235956  0.36689564  1
  O  O248  1  0.51057983  0.24578225  0.87095351  1
  O  O249  1  0.51097029  0.75171263  0.37489252  1
  O  O250  1  0.51438789  0.76462590  0.87081689  1
  O  O251  1  0.24835465  0.13473715  0.49526917  1
  O  O252  1  0.25202628  0.13598339  0.98685418  1
  O  O253  1  0.23878614  0.63487612  0.49929686  1
  O  O254  1  0.23525844  0.62890129  1.01004223  1
  O  O255  1  0.79306925  0.13439819  0.48920529  1
  O  O256  1  0.74219917  0.13400275  0.99163796  1
  O  O257  1  0.74845725  0.63378883  0.48837604  1
  O  O258  1  0.74374582  0.63891242  0.99355918  1
  O  O259  1  0.26330580  0.37030860  0.00825949  1
  O  O260  1  0.25339925  0.36108077  0.50026964  1
  O  O261  1  0.26374699  0.87344941  -0.00174204  1
  O  O262  1  0.25678040  0.87140426  0.50245076  1
  O  O263  1  0.74516149  0.35651660  0.00126540  1
  O  O264  1  0.74919994  0.38359275  0.51752152  1
  O  O265  1  0.75657968  0.86690569  -0.00328476  1
  O  O266  1  0.76189107  0.86359270  0.49233276  1
  O  O267  1  0.13573886  0.50306112  0.24535762  1
  O  O268  1  0.11394993  0.50186324  0.73190151  1
  O  O269  1  0.13333166  0.99345727  0.24456004  1
  O  O270  1  0.08143058  0.97441945  0.77016196  1
  O  O271  1  0.64209427  0.51044114  0.23786623  1
  O  O272  1  0.63608605  0.48794543  0.75128111  1
  O  O273  1  0.63477737  0.99224596  0.24266559  1
  O  O274  1  0.63801599  1.00093737  0.73905947  1
  O  O275  1  0.36030862  -0.00575761  0.25375369  1
  O  O276  1  0.38177499  -0.00251996  0.76175131  1
  O  O277  1  0.36187362  0.50591496  0.26082069  1
  O  O278  1  0.37916712  0.51274616  0.75446700  1
  O  O279  1  0.87035591  -0.00038556  0.25378986  1
  O  O280  1  0.85738959  0.00468827  0.74831455  1
  O  O281  1  0.86482278  0.50573448  0.25581354  1
  O  O282  1  0.87143945  0.50346599  0.75940452  1
  O  O283  1  0.11214178  0.36684546  0.37918370  1
  O  O284  1  0.12213683  0.37114606  0.87867159  1
  O  O285  1  0.12227877  0.87797438  0.36073394  1
  O  O286  1  0.10448000  0.86936535  0.88289670  1
  O  O287  1  0.61883601  0.36821685  0.36794222  1
  O  O288  1  0.62096520  0.36696007  0.87089386  1
  O  O289  1  0.62198935  0.86672529  0.37080661  1
  O  O290  1  0.61191767  0.87237085  0.88143970  1
  O  O291  1  0.37134670  0.13226591  0.11965236  1
  O  O292  1  0.39514079  0.12210670  0.62131565  1
  O  O293  1  0.38313768  0.63006458  0.13044682  1
  O  O294  1  0.37087674  0.64459411  0.61882171  1
  O  O295  1  0.88639005  0.11801971  0.13680259  1
  O  O296  1  0.88741155  0.13861498  0.62661929  1
  O  O297  1  0.88142889  0.63495397  0.12771549  1
  O  O298  1  0.87937631  0.62890728  0.62910605  1
  O  O299  1  0.25916467  0.25461616  0.12042557  1
  O  O300  1  0.24955273  0.24966173  0.61803098  1
  O  O301  1  0.26526288  0.74956281  0.12692686  1
  O  O302  1  0.25792036  0.75988258  0.61279148  1
  O  O303  1  0.74831616  0.24872784  0.11164441  1
  O  O304  1  0.75841231  0.25657858  0.62461567  1
  O  O305  1  0.75913088  0.75038095  0.11593425  1
  O  O306  1  0.75007998  0.74158854  0.61263007  1
  O  O307  1  0.24486025  0.24379409  0.37866840  1
  O  O308  1  0.24796327  0.25240382  0.87657225  1
  O  O309  1  0.25172597  0.75239751  0.38868810  1
  O  O310  1  0.22840753  0.76413596  0.87073153  1
  O  O311  1  0.75320296  0.24552945  0.38015422  1
  O  O312  1  0.73969053  0.24332121  0.88162068  1
  O  O313  1  0.73811105  0.74924760  0.37855601  1
  O  O314  1  0.75358827  0.75028602  0.88313946  1
  O  O315  1  0.00394203  0.11871558  0.01009900  1
  O  O316  1  -0.00545411  0.11269103  0.50641797  1
  O  O317  1  0.00721966  0.62814805  0.01288966  1
  O  O318  1  0.00383041  0.61531401  0.50477460  1
  O  O319  1  0.50960833  0.11484513  -0.00876125  1
  O  O320  1  0.49657159  0.10969609  0.50452400  1
  O  O321  1  0.51165066  0.63129373  0.00791469  1
  O  O322  1  0.50804523  0.61974025  0.50719157  1
  O  O323  1  0.48813551  0.38416848  0.50260534  1
  O  O324  1  0.48858605  0.37714256  1.00664037  1
  O  O325  1  0.49325486  0.88174995  0.49408312  1
  O  O326  1  0.48993576  0.87988274  0.99003717  1
  O  O327  1  1.00216655  0.38511679  0.49380539  1
  O  O328  1  1.00443156  0.37095740  0.99249526  1
  O  O329  1  0.98850752  0.87650810  0.49814883  1
  O  O330  1  1.00001893  0.89121380  1.01667914  1
  O  O331  1  0.47986769  0.50708950  0.39241410  1
  O  O332  1  0.51265193  0.51493391  0.88311771  1
  O  O333  1  0.49962622  0.99057597  0.38354627  1
  O  O334  1  0.49692162  0.99257969  0.88095667  1
  O  O335  1  0.99472861  0.49118980  0.38090732  1
  O  O336  1  0.98961045  0.49104846  0.87484182  1
  O  O337  1  0.98908241  0.99571923  0.37906422  1
  O  O338  1  1.00055182  1.00751902  0.88919285  1
  O  O339  1  0.00842178  0.01018354  0.12485726  1
  O  O340  1  -0.01147465  0.00706636  0.61571595  1
  O  O341  1  -0.00133471  0.50067732  0.11998488  1
  O  O342  1  0.00202816  0.50144321  0.61753099  1
  O  O343  1  0.50512222  -0.00444413  0.10593018  1
  O  O344  1  0.51073808  0.00135110  0.61974472  1
  O  O345  1  0.50853905  0.51462599  0.12626755  1
  O  O346  1  0.49779673  0.50433123  0.61556670  1
  O  O347  1  0.25636480  0.38310569  0.24292023  1
  O  O348  1  0.23808498  0.35656902  0.75871804  1
  O  O349  1  0.24363672  0.88140252  0.24686309  1
  O  O350  1  0.24925187  0.87926219  0.73299445  1
  O  O351  1  0.75067288  0.38274751  0.23941629  1
  O  O352  1  0.74218331  0.37917192  0.74913092  1
  O  O353  1  0.74551561  0.88409254  0.24657181  1
  O  O354  1  0.75732224  0.88705790  0.75791840  1
  O  O355  1  0.24564917  0.11540250  0.25988757  1
  O  O356  1  0.24894070  0.13090043  0.76220567  1
  O  O357  1  0.25418579  0.61696951  0.25262191  1
  O  O358  1  0.24710082  0.61919057  0.74594103  1
  O  O359  1  0.75939294  0.11170916  0.24567076  1
  O  O360  1  0.74135192  0.12911465  0.76275115  1
  O  O361  1  0.75948503  0.61920863  0.25109791  1
  O  O362  1  0.75312590  0.61440561  0.75631780  1
  O  O363  1  0.36086855  0.11668131  0.38301613  1
  O  O364  1  0.36309047  0.11628307  0.87842639  1
  O  O365  1  0.36774636  0.61819829  0.37262178  1
  O  O366  1  0.35341725  0.62609110  0.87587384  1
  O  O367  1  0.87956993  0.11085842  0.35610735  1
  O  O368  1  0.85660337  0.12472088  0.87875159  1
  O  O369  1  0.87583268  0.60997632  0.36706750  1
  O  O370  1  0.87152869  0.61738351  0.87099436  1
  O  O371  1  0.14155180  0.37847866  0.12205595  1
  O  O372  1  0.12418625  0.38781411  0.62134871  1
  O  O373  1  0.12902030  0.88568966  0.13394599  1
  O  O374  1  0.13783190  0.87366495  0.61919522  1
  O  O375  1  0.62262689  0.39035425  0.12460186  1
  O  O376  1  0.63235376  0.37929221  0.63647777  1
  O  O377  1  0.62603289  0.87904031  0.12903007  1
  O  O378  1  0.62234016  0.88704260  0.62496758  1
  O  O379  1  0.11862289  0.24267149  0.26458120  1
  O  O380  1  0.11651734  0.24787108  0.75606615  1
  O  O381  1  0.11732179  0.75758187  0.24170196  1
  O  O382  1  0.11217897  0.74081097  0.75415170  1
  O  O383  1  0.61498251  0.24971613  0.24698686  1
  O  O384  1  0.61961797  0.25910719  0.75825740  1
  O  O385  1  0.62217125  0.75003707  0.25705771  1
  O  O386  1  0.65033736  0.76538976  0.76389132  1
  O  O387  1  0.37461836  0.25369154  0.23190040  1
  O  O388  1  0.39175241  0.25556658  0.74844454  1
  O  O389  1  0.38186814  0.74445063  0.24539360  1
  O  O390  1  0.37094929  0.75528370  0.73506397  1
  O  O391  1  0.88660229  0.24011492  0.25217405  1
  O  O392  1  0.88337221  0.25336873  0.74681833  1
  O  O393  1  0.88076356  0.74495196  0.24216995  1
  O  O394  1  0.88103690  0.74069493  0.74548363  1
  O  O395  1  0.37238982  0.49521278  0.49841562  1
  O  O396  1  0.37609177  0.49393130  1.00722963  1
  O  O397  1  0.38351940  0.98896554  0.49226000  1
  O  O398  1  0.38262820  0.99231958  0.99060120  1
  O  O399  1  0.88308400  0.50464292  0.49107441  1
  O  O400  1  0.87352733  0.50652245  0.99329045  1
  O  O401  1  0.87953978  0.98825031  0.49171284  1
  O  O402  1  0.88326845  0.99876282  0.99815880  1
  O  O403  1  0.12096514  0.00186995  0.00997534  1
  O  O404  1  0.10666268  -0.00204307  0.49100066  1
  O  O405  1  0.12866514  0.50751517  0.01122515  1
  O  O406  1  0.11436866  0.50555402  0.50758045  1
  O  O407  1  0.61938358  0.00579337  0.00155247  1
  O  O408  1  0.62066473  -0.00645669  0.51244196  1
  O  O409  1  0.63865693  0.51537739  0.00741431  1
  O  O410  1  0.61067239  0.50352827  0.49475695  1
  O  O411  1  0.36848755  0.37217990  0.11720207  1
  O  O412  1  0.36666620  0.37407855  0.61696754  1
  O  O413  1  0.37566391  0.86443026  0.11340141  1
  O  O414  1  0.36638040  0.86999912  0.61562104  1
  O  O415  1  0.88434209  0.38754889  0.11346545  1
  O  O416  1  0.86446967  0.36608515  0.63817622  1
  O  O417  1  0.87450612  0.86188720  0.12530232  1
  O  O418  1  0.87363089  0.86193724  0.61359372  1
  O  O419  1  0.13521893  0.13019558  0.38043864  1
  O  O420  1  0.14509580  0.12410723  0.87963667  1
  O  O421  1  0.12349213  0.61888777  0.38920967  1
  O  O422  1  0.11883874  0.63106215  0.88755108  1
  O  O423  1  0.63294397  0.12537373  0.38029558  1
  O  O424  1  0.63388929  0.13076327  0.88390609  1
  O  O425  1  0.62527958  0.63087430  0.38426090  1
  O  O426  1  0.63593982  0.64050233  0.88165638  1
