# generated using pymatgen
data_V85Zn86O256
_symmetry_space_group_name_H-M   'P 1'
_cell_length_a   16.93350774
_cell_length_b   16.94194691
_cell_length_c   16.94224953
_cell_angle_alpha   90.03475141
_cell_angle_beta   89.99099357
_cell_angle_gamma   89.90124181
_symmetry_Int_Tables_number   1
_chemical_formula_structural   V85Zn86O256
_chemical_formula_sum   'V85 Zn86 O256'
_cell_volume   4860.49600732
_cell_formula_units_Z   1
loop_
 _symmetry_equiv_pos_site_id
 _symmetry_equiv_pos_as_xyz
  1  'x, y, z'
loop_
 _atom_site_type_symbol
 _atom_site_label
 _atom_site_symmetry_multiplicity
 _atom_site_fract_x
 _atom_site_fract_y
 _atom_site_fract_z
 _atom_site_occupancy
  V  V0  1  0.74939149  0.37534275  0.62524830  1
  V  V1  1  0.36984213  0.25319606  0.11058179  1
  V  V2  1  0.00410848  0.49965961  0.50379849  1
  V  V3  1  -0.00029918  0.61650314  0.12217082  1
  V  V4  1  0.00023331  0.87414612  0.87349591  1
  V  V5  1  0.38107572  0.62274487  0.25106656  1
  V  V6  1  0.12210331  0.62311427  0.00062496  1
  V  V7  1  0.38185251  0.74385161  0.12542524  1
  V  V8  1  0.64007345  0.24570886  0.88031469  1
  V  V9  1  0.00206785  0.37823325  0.87354596  1
  V  V10  1  0.87305509  0.00750828  0.87662884  1
  V  V11  1  0.37137524  0.51077302  0.87205032  1
  V  V12  1  0.00347196  0.12628359  0.62423905  1
  V  V13  1  0.49726415  0.62832029  0.62384933  1
  V  V14  1  0.36843996  0.23432539  0.63204416  1
  V  V15  1  0.36958252  0.50101919  0.37784139  1
  V  V16  1  0.87536393  0.62487691  0.25025956  1
  V  V17  1  0.87545973  0.49751014  0.37342262  1
  V  V18  1  0.24976748  0.87420606  0.12666879  1
  V  V19  1  0.24996722  0.50117830  0.24395104  1
  V  V20  1  0.36835680  0.87368563  0.50415848  1
  V  V21  1  0.44090217  0.93138328  0.82921945  1
  V  V22  1  0.87010027  0.62920293  0.73711287  1
  V  V23  1  0.37783634  0.88172672  0.00245105  1
  V  V24  1  -0.00298735  0.00078523  0.49441932  1
  V  V25  1  0.74787782  0.50152571  0.75175424  1
  V  V26  1  0.13495539  -0.00057575  0.62428356  1
  V  V27  1  0.49519885  0.74684369  0.75472180  1
  V  V28  1  0.00726363  0.36798891  0.37093438  1
  V  V29  1  0.00849586  0.25610857  0.74897885  1
  V  V30  1  0.13180337  0.87505340  0.74252201  1
  V  V31  1  0.37320352  0.37526538  0.50970457  1
  V  V32  1  0.74808890  0.75159519  0.00355006  1
  V  V33  1  0.74798196  0.62643071  0.87705647  1
  V  V34  1  0.74873179  0.37014365  0.12000802  1
  V  V35  1  0.87293119  0.12878608  0.75736291  1
  V  V36  1  0.61880364  0.50485411  0.12752222  1
  V  V37  1  0.25032382  0.00390973  0.25815453  1
  V  V38  1  0.00332225  0.12424602  0.12554815  1
  V  V39  1  0.49581673  0.23592692  0.74481748  1
  V  V40  1  0.74861425  0.50006407  0.25007102  1
  V  V41  1  0.61684597  0.49985605  0.62442297  1
  V  V42  1  0.87192113  0.87627353  0.51788358  1
  V  V43  1  0.87439341  0.75071087  0.12675296  1
  V  V44  1  0.75163721  0.12527691  0.37777083  1
  V  V45  1  0.63974920  0.12158662  0.00351265  1
  V  V46  1  0.62043484  0.75833859  0.87842114  1
  V  V47  1  0.24953114  0.74650911  -0.00156704  1
  V  V48  1  0.49606372  0.37127468  0.88044804  1
  V  V49  1  0.50155397  0.00630270  0.50284888  1
  V  V50  1  0.87782477  0.37926767  0.00080970  1
  V  V51  1  0.49716645  0.87623406  0.37752152  1
  V  V52  1  0.87347140  0.24658448  0.11794978  1
  V  V53  1  0.37197862  0.12699122  0.25399515  1
  V  V54  1  0.61807050  0.62716849  0.00553177  1
  V  V55  1  0.12583767  0.74622287  0.87056606  1
  V  V56  1  0.62565446  0.75167255  0.37722824  1
  V  V57  1  0.75452965  0.75321864  0.51169590  1
  V  V58  1  0.50565887  -0.00140070  0.01050005  1
  V  V59  1  0.62357375  0.37324983  0.25137084  1
  V  V60  1  0.12733362  -0.00307815  0.12584566  1
  V  V61  1  0.75100746  0.00022317  0.25421985  1
  V  V62  1  0.63797004  0.87642184  0.74610774  1
  V  V63  1  0.62371255  0.12842006  0.50752589  1
  V  V64  1  -0.00608569  0.75244126  0.73759127  1
  V  V65  1  0.87690531  0.50533105  0.87858604  1
  V  V66  1  0.62181954  0.88305901  0.24926877  1
  V  V67  1  0.61907631  0.37251712  0.75220777  1
  V  V68  1  0.74593776  0.88107174  0.12548153  1
  V  V69  1  0.00414514  -0.00609990  0.00134832  1
  V  V70  1  -0.01216072  0.87381359  0.37370845  1
  V  V71  1  0.87542708  0.12173133  0.25366537  1
  V  V72  1  0.24992581  0.24953988  0.48455460  1
  V  V73  1  0.87559263  0.37334545  0.49634933  1
  V  V74  1  0.13058902  0.12704375  0.48591446  1
  V  V75  1  0.87603746  0.25500497  0.62358720  1
  V  V76  1  0.74967809  0.62661848  0.37613202  1
  V  V77  1  0.49496417  0.49675894  0.00296562  1
  V  V78  1  0.26648025  0.12229721  0.87304309  1
  V  V79  1  0.12792949  0.86949911  0.25954348  1
  V  V80  1  0.13328891  0.36483829  0.24594790  1
  V  V81  1  0.49845697  0.24828554  0.24936207  1
  V  V82  1  0.00670775  0.74582347  0.25441310  1
  V  V83  1  0.24342067  0.75128874  0.49254986  1
  V  V84  1  0.13142561  0.62533252  0.48421720  1
  Zn  Zn85  1  0.00563448  0.24596571  0.25261742  1
  Zn  Zn86  1  0.75705890  0.00122557  0.74568037  1
  Zn  Zn87  1  0.49912002  0.50038070  0.49790478  1
  Zn  Zn88  1  0.62390366  0.24935161  0.37591568  1
  Zn  Zn89  1  0.50406390  0.12323351  0.12498197  1
  Zn  Zn90  1  0.00349150  0.62604546  0.62001314  1
  Zn  Zn91  1  0.12517671  0.49465836  0.11975355  1
  Zn  Zn92  1  0.25339783  0.37164936  0.09197983  1
  Zn  Zn93  1  0.74777440  0.25080572  0.49866613  1
  Zn  Zn94  1  0.62432918  0.62491186  0.49966898  1
  Zn  Zn95  1  0.13207568  0.24969695  0.87914709  1
  Zn  Zn96  1  0.36214232  0.75116706  0.62781189  1
  Zn  Zn97  1  0.37016072  0.00521659  0.37959297  1
  Zn  Zn98  1  0.49827410  0.37533306  0.37755026  1
  Zn  Zn99  1  0.26398199  -0.00083762  0.75195793  1
  Zn  Zn100  1  0.22183499  0.50819996  0.76645478  1
  Zn  Zn101  1  0.50180947  0.74729977  0.24749569  1
  Zn  Zn102  1  0.63483015  -0.00084415  0.62144969  1
  Zn  Zn103  1  0.13780980  0.13235712  -0.00150803  1
  Zn  Zn104  1  0.15598338  0.49686173  0.61550321  1
  Zn  Zn105  1  0.87364909  0.87406603  0.00027649  1
  Zn  Zn106  1  0.35873828  0.62316367  0.74931000  1
  Zn  Zn107  1  0.19163777  0.18724690  0.18400403  1
  Zn  Zn108  1  0.19281325  0.18532672  0.69616525  1
  Zn  Zn109  1  0.19145341  0.68477946  0.18787159  1
  Zn  Zn110  1  0.18747693  0.67595894  0.67716380  1
  Zn  Zn111  1  0.68784361  0.18728772  0.18505533  1
  Zn  Zn112  1  0.69067747  0.18767555  0.68957497  1
  Zn  Zn113  1  0.68496776  0.69053324  0.19018952  1
  Zn  Zn114  1  0.68203836  0.68889925  0.68917606  1
  Zn  Zn115  1  0.31624969  0.31695050  0.31134035  1
  Zn  Zn116  1  0.29018338  0.33383797  0.87594151  1
  Zn  Zn117  1  0.31285483  0.80895127  0.31624936  1
  Zn  Zn118  1  0.30454547  0.80355408  0.80929167  1
  Zn  Zn119  1  0.81372524  0.30768863  0.30801639  1
  Zn  Zn120  1  0.81775916  0.31635110  0.80943420  1
  Zn  Zn121  1  0.81179429  0.81142758  0.31416708  1
  Zn  Zn122  1  0.81462039  0.81152871  0.81705273  1
  Zn  Zn123  1  0.19076927  0.43296140  0.43359922  1
  Zn  Zn124  1  0.18413662  0.44419005  0.93459931  1
  Zn  Zn125  1  0.18416213  0.93469788  0.43724542  1
  Zn  Zn126  1  0.19123040  0.94094328  0.93337309  1
  Zn  Zn127  1  0.68710236  0.43737453  0.43833446  1
  Zn  Zn128  1  0.68608617  0.43642905  0.93967691  1
  Zn  Zn129  1  0.69134542  0.93997072  0.43794836  1
  Zn  Zn130  1  0.68927276  0.94057176  0.93476652  1
  Zn  Zn131  1  0.31494208  0.06696081  0.06362279  1
  Zn  Zn132  1  0.31220452  0.06551268  0.56095779  1
  Zn  Zn133  1  0.31084526  0.56306120  0.06362974  1
  Zn  Zn134  1  0.31212765  0.56603255  0.56437189  1
  Zn  Zn135  1  0.81655368  0.05773855  0.06462428  1
  Zn  Zn136  1  0.81248438  0.06105117  0.56652236  1
  Zn  Zn137  1  0.80785560  0.56222978  0.06345585  1
  Zn  Zn138  1  0.80969151  0.55940395  0.56021759  1
  Zn  Zn139  1  0.43488859  0.43267322  0.18552424  1
  Zn  Zn140  1  0.32800260  0.41314299  0.69914479  1
  Zn  Zn141  1  0.43579081  0.93791949  0.18780273  1
  Zn  Zn142  1  0.44755474  0.93477087  0.66798370  1
  Zn  Zn143  1  0.93931618  0.43488254  0.18853912  1
  Zn  Zn144  1  1.03384074  0.43495399  0.68988620  1
  Zn  Zn145  1  0.93559798  0.93615926  0.18940424  1
  Zn  Zn146  1  0.94360070  0.94304613  0.68793554  1
  Zn  Zn147  1  0.06195676  0.05708947  0.31221192  1
  Zn  Zn148  1  0.06756014  0.06456347  0.81205754  1
  Zn  Zn149  1  0.06486321  0.55408001  0.31023927  1
  Zn  Zn150  1  0.05502229  0.57006546  0.81319845  1
  Zn  Zn151  1  0.56249195  0.06429223  0.31699105  1
  Zn  Zn152  1  0.57190790  0.06508813  0.81722132  1
  Zn  Zn153  1  0.55692393  0.56254860  0.31497678  1
  Zn  Zn154  1  0.55882152  0.56374808  0.81464544  1
  Zn  Zn155  1  0.43654486  0.18959155  0.43596504  1
  Zn  Zn156  1  0.44511350  0.18090694  0.93318737  1
  Zn  Zn157  1  0.43323818  0.68726279  0.43672138  1
  Zn  Zn158  1  0.43986438  0.68962439  0.94152166  1
  Zn  Zn159  1  0.93757491  0.18657236  0.43617932  1
  Zn  Zn160  1  0.96486488  0.19447381  0.94643257  1
  Zn  Zn161  1  0.93770798  0.68903078  0.43807274  1
  Zn  Zn162  1  0.93726380  0.69004291  0.93700485  1
  Zn  Zn163  1  0.06353824  0.31373931  0.06168909  1
  Zn  Zn164  1  0.06986274  0.31162640  0.55689435  1
  Zn  Zn165  1  0.06309529  0.80900969  0.06648740  1
  Zn  Zn166  1  0.06695599  0.81172577  0.55881151  1
  Zn  Zn167  1  0.56228960  0.30762474  0.06288101  1
  Zn  Zn168  1  0.55776886  0.31205539  0.56410095  1
  Zn  Zn169  1  0.55997912  0.81818389  0.06406064  1
  Zn  Zn170  1  0.56071784  0.81155691  0.56305153  1
  O  O171  1  0.11847314  0.11740598  0.12200991  1
  O  O172  1  0.11518817  0.12046317  0.61954587  1
  O  O173  1  0.11586322  0.62630144  0.11849087  1
  O  O174  1  0.12041475  0.61527271  0.60365113  1
  O  O175  1  0.62339531  0.13181740  0.10797206  1
  O  O176  1  0.63179754  0.12702637  0.61076775  1
  O  O177  1  0.62913454  0.61700597  0.11951878  1
  O  O178  1  0.61614721  0.61864619  0.62458298  1
  O  O179  1  0.37616348  0.38130278  0.38709551  1
  O  O180  1  0.39379557  0.39005000  0.88220154  1
  O  O181  1  0.38308055  0.87712983  0.38352022  1
  O  O182  1  0.37517238  0.87096065  0.88206793  1
  O  O183  1  0.87919657  0.37959953  0.37489699  1
  O  O184  1  0.87347239  0.38549358  0.88422426  1
  O  O185  1  0.88549475  0.87697063  0.37404284  1
  O  O186  1  0.88792560  0.88150912  0.87592886  1
  O  O187  1  0.24978259  -0.00564932  0.36205998  1
  O  O188  1  0.24947586  0.00943449  0.86782033  1
  O  O189  1  0.26283243  0.49437582  0.36356571  1
  O  O190  1  0.27043483  0.51270350  0.89000111  1
  O  O191  1  0.74914008  0.00962277  0.36254722  1
  O  O192  1  0.76964611  -0.00604340  0.87019509  1
  O  O193  1  0.75459784  0.50568957  0.36870253  1
  O  O194  1  0.75161038  0.50682256  0.87172811  1
  O  O195  1  0.25040527  0.49009025  0.12865972  1
  O  O196  1  0.26708785  0.49624805  0.64006252  1
  O  O197  1  0.24607818  0.99263229  0.13393920  1
  O  O198  1  0.23844578  1.00519193  0.62869373  1
  O  O199  1  0.73874117  0.49396370  0.13165678  1
  O  O200  1  0.73944534  0.49560673  0.63104898  1
  O  O201  1  0.75352205  0.98796869  0.13590862  1
  O  O202  1  0.74774728  0.99989518  0.63233558  1
  O  O203  1  0.01067737  0.37370883  0.25452166  1
  O  O204  1  -0.01784163  0.36660410  0.76090955  1
  O  O205  1  0.00561441  0.86783166  0.25553627  1
  O  O206  1  0.00475772  0.86922346  0.75650205  1
  O  O207  1  0.50869474  0.36805907  0.25065986  1
  O  O208  1  0.51478222  0.36528190  0.76115143  1
  O  O209  1  0.50620534  0.87493133  0.25801724  1
  O  O210  1  0.50093911  0.87345254  0.76195998  1
  O  O211  1  0.49681499  0.13118491  0.24682630  1
  O  O212  1  0.50709430  0.13784376  0.75532003  1
  O  O213  1  0.48695321  0.62746080  0.24948584  1
  O  O214  1  0.50231880  0.63565384  0.74331793  1
  O  O215  1  0.99397259  0.11995361  0.24131437  1
  O  O216  1  0.99394480  0.13346949  0.74006664  1
  O  O217  1  0.99716602  0.62998627  0.24495354  1
  O  O218  1  0.98618632  0.63633988  0.74546194  1
  O  O219  1  0.38855742  0.24352867  0.01353427  1
  O  O220  1  0.36700188  0.25168025  0.50813725  1
  O  O221  1  0.36930831  0.75692247  0.00600195  1
  O  O222  1  0.36418505  0.75650822  0.49980519  1
  O  O223  1  0.88079375  0.25686908  0.01262614  1
  O  O224  1  0.87383182  0.25477514  0.50653493  1
  O  O225  1  0.86673717  0.75257677  0.00756073  1
  O  O226  1  0.86887802  0.76520180  0.49537655  1
  O  O227  1  0.14058437  0.24152296  0.50047430  1
  O  O228  1  0.08309791  0.23524499  0.98622960  1
  O  O229  1  0.13114214  0.73914878  0.49614622  1
  O  O230  1  0.13165872  0.74708687  0.99422749  1
  O  O231  1  0.62590381  0.24455703  0.49657156  1
  O  O232  1  0.62384582  0.23939404  0.98811927  1
  O  O233  1  0.63235381  0.75415001  0.48925142  1
  O  O234  1  0.62523999  0.74633089  0.99619167  1
  O  O235  1  0.49386880  0.24962606  0.13626981  1
  O  O236  1  0.49714044  0.25016371  0.64004439  1
  O  O237  1  0.48616426  0.75601910  0.12739595  1
  O  O238  1  0.50083748  0.74446814  0.63729974  1
  O  O239  1  0.99280667  0.23841251  0.13102542  1
  O  O240  1  0.99490092  0.24481019  0.62723443  1
  O  O241  1  0.99387144  0.74435808  0.13765021  1
  O  O242  1  1.00283136  0.74953263  0.63478815  1
  O  O243  1  -0.00556654  0.26335072  0.37097821  1
  O  O244  1  -0.01141419  0.26406011  0.86025430  1
  O  O245  1  -0.00453272  0.75654800  0.36155205  1
  O  O246  1  0.00412306  0.75884228  0.86763098  1
  O  O247  1  0.50151397  0.25355144  0.36151232  1
  O  O248  1  0.50763145  0.25617744  0.86697064  1
  O  O249  1  0.50704883  0.76088100  0.37525483  1
  O  O250  1  0.50765783  0.74744755  0.86592077  1
  O  O251  1  0.24327332  0.13621773  0.50060997  1
  O  O252  1  0.25062987  0.11501172  0.98506788  1
  O  O253  1  0.23849260  0.63024330  0.49521819  1
  O  O254  1  0.24082725  0.64024843  1.00816317  1
  O  O255  1  0.74634560  0.12552686  0.49128978  1
  O  O256  1  0.73918952  0.11678598  1.00355444  1
  O  O257  1  0.74949223  0.63397815  0.49218592  1
  O  O258  1  0.73788861  0.63187288  0.99842961  1
  O  O259  1  0.24500109  0.36334903  -0.02053468  1
  O  O260  1  0.25615332  0.35901348  0.49772893  1
  O  O261  1  0.25679558  0.86800136  0.00501286  1
  O  O262  1  0.25458506  0.86506083  0.49502528  1
  O  O263  1  0.75648872  0.37932148  0.01395155  1
  O  O264  1  0.75727867  0.37431887  0.50636004  1
  O  O265  1  0.74835502  0.87178212  0.01016459  1
  O  O266  1  0.76547016  0.87078739  0.49541905  1
  O  O267  1  0.13468424  0.49145047  0.24340999  1
  O  O268  1  0.10891037  0.50736945  0.73899673  1
  O  O269  1  0.13132833  0.99153483  0.24488208  1
  O  O270  1  0.11473573  0.98934235  0.73753851  1
  O  O271  1  0.62674702  0.49460255  0.24477556  1
  O  O272  1  0.62751717  0.49245531  0.74617516  1
  O  O273  1  0.63152901  0.98986748  0.25446449  1
  O  O274  1  0.62872985  0.98508693  0.75703179  1
  O  O275  1  0.36678939  0.00666211  0.25045684  1
  O  O276  1  0.38706131  -0.01876895  0.75785353  1
  O  O277  1  0.37094541  0.50388710  0.25333688  1
  O  O278  1  0.38544729  0.50328072  0.76966215  1
  O  O279  1  0.86679134  0.01194071  0.24508995  1
  O  O280  1  0.88291612  0.01084529  0.75895944  1
  O  O281  1  0.86932473  0.50480334  0.25383002  1
  O  O282  1  0.86115037  0.51555278  0.76271994  1
  O  O283  1  0.11700855  0.37900522  0.36217229  1
  O  O284  1  0.10395290  0.37807298  0.87805756  1
  O  O285  1  0.11265829  0.87796749  0.36338824  1
  O  O286  1  0.11536381  0.86758723  0.86879503  1
  O  O287  1  0.62662046  0.37478472  0.36124902  1
  O  O288  1  0.62163178  0.36495435  0.87182551  1
  O  O289  1  0.61955898  0.87031155  0.37010757  1
  O  O290  1  0.62946577  0.86392111  0.86805304  1
  O  O291  1  0.38036217  0.13378888  0.13541376  1
  O  O292  1  0.38122943  0.13599925  0.62127435  1
  O  O293  1  0.37110345  0.63475989  0.13275122  1
  O  O294  1  0.38840549  0.62895860  0.62810196  1
  O  O295  1  0.88058086  0.12976516  0.13056503  1
  O  O296  1  0.88659087  0.13494336  0.62801418  1
  O  O297  1  0.87988755  0.62983352  0.12978569  1
  O  O298  1  0.87126240  0.62350043  0.63515209  1
  O  O299  1  0.26538683  0.24876366  0.12064858  1
  O  O300  1  0.26509411  0.24386402  0.62524502  1
  O  O301  1  0.25803448  0.75712673  0.11921720  1
  O  O302  1  0.24841981  0.74401647  0.60448848  1
  O  O303  1  0.75942343  0.25960426  0.13009537  1
  O  O304  1  0.75856577  0.25737307  0.62422940  1
  O  O305  1  0.75324790  0.75958971  0.12315586  1
  O  O306  1  0.74194551  0.74699015  0.61033091  1
  O  O307  1  0.25767155  0.24784171  0.38633907  1
  O  O308  1  0.24605082  0.22901928  0.86658209  1
  O  O309  1  0.25154811  0.74882607  0.39062625  1
  O  O310  1  0.23709640  0.75420204  0.88575950  1
  O  O311  1  0.74852477  0.23749411  0.37365983  1
  O  O312  1  0.73786767  0.25704729  0.87189171  1
  O  O313  1  0.74261826  0.74613836  0.38062538  1
  O  O314  1  0.74239585  0.74662589  0.88489593  1
  O  O315  1  -0.00687685  0.10737966  0.01728321  1
  O  O316  1  0.00449593  0.11849837  0.50444832  1
  O  O317  1  0.00804190  0.63806167  0.01252937  1
  O  O318  1  0.00713145  0.61790808  0.49595294  1
  O  O319  1  0.51075859  0.11352787  0.00093026  1
  O  O320  1  0.51021675  0.11705917  0.48870457  1
  O  O321  1  0.51324983  0.61895977  0.00026781  1
  O  O322  1  0.50277278  0.62577582  0.50891459  1
  O  O323  1  0.48953693  0.37721339  0.49803302  1
  O  O324  1  0.51433770  0.38504670  0.99237687  1
  O  O325  1  0.49376071  0.88031746  0.49373246  1
  O  O326  1  0.49248647  0.88291429  0.99785226  1
  O  O327  1  0.99470063  0.38055133  0.48786824  1
  O  O328  1  0.98365862  0.37828229  0.99349857  1
  O  O329  1  0.99110793  0.87814625  0.49333489  1
  O  O330  1  0.99945008  0.87761245  0.99396443  1
  O  O331  1  0.48686463  0.49655527  0.37707334  1
  O  O332  1  0.50245648  0.49279188  0.88607069  1
  O  O333  1  0.49955568  0.98861375  0.38294294  1
  O  O334  1  0.49860537  0.99739700  0.88207970  1
  O  O335  1  0.99294155  0.48975038  0.37937739  1
  O  O336  1  0.98236227  0.49674108  0.87193497  1
  O  O337  1  1.00303300  0.99132988  0.38757313  1
  O  O338  1  0.99697070  0.99161857  0.88371863  1
  O  O339  1  0.00559892  0.00053620  0.12075553  1
  O  O340  1  0.00580773  0.00925648  0.61301993  1
  O  O341  1  0.00004959  0.51336782  0.12822529  1
  O  O342  1  -0.01616214  0.50407613  0.60458257  1
  O  O343  1  0.50247570  -0.00146909  0.11444852  1
  O  O344  1  0.51321478  0.00121164  0.60795832  1
  O  O345  1  0.51234750  0.49255819  0.12032464  1
  O  O346  1  0.51235715  0.50922567  0.62482934  1
  O  O347  1  0.24442196  0.38295629  0.24922810  1
  O  O348  1  0.25624255  0.39523385  0.78239869  1
  O  O349  1  0.24360371  0.87767127  0.24766926  1
  O  O350  1  0.23529431  0.87771316  0.75249838  1
  O  O351  1  0.74468222  0.37986932  0.24082766  1
  O  O352  1  0.74084561  0.38013394  0.74454706  1
  O  O353  1  0.74390653  0.88235042  0.24787220  1
  O  O354  1  0.73948795  0.87027228  0.75167142  1
  O  O355  1  0.25778633  0.11470346  0.24493980  1
  O  O356  1  0.24881991  0.11350300  0.76248599  1
  O  O357  1  0.25914405  0.60908868  0.24309033  1
  O  O358  1  0.24517774  0.62338267  0.75635386  1
  O  O359  1  0.75471956  0.11804739  0.25351651  1
  O  O360  1  0.76893230  0.12721813  0.75000737  1
  O  O361  1  0.75451569  0.62039798  0.25545218  1
  O  O362  1  0.75168613  0.62491551  0.75714996  1
  O  O363  1  0.38034480  0.12252616  0.35933403  1
  O  O364  1  0.36678670  0.12327093  0.87517156  1
  O  O365  1  0.37667664  0.61551420  0.36515136  1
  O  O366  1  0.38860350  0.61379061  0.87380171  1
  O  O367  1  0.86807315  0.12774177  0.36457771  1
  O  O368  1  0.89150775  0.11799471  0.86879196  1
  O  O369  1  0.87030740  0.61881647  0.36883160  1
  O  O370  1  0.86674441  0.62102434  0.87468217  1
  O  O371  1  0.12922479  0.37581597  0.12925437  1
  O  O372  1  0.11016750  0.39220916  0.61798811  1
  O  O373  1  0.12946474  0.87744986  0.13656644  1
  O  O374  1  0.11764690  0.88560056  0.63110054  1
  O  O375  1  0.63188291  0.37902375  0.13355512  1
  O  O376  1  0.62692223  0.38128783  0.63369652  1
  O  O377  1  0.63360355  0.86893643  0.13739145  1
  O  O378  1  0.61666226  0.87425566  0.64451738  1
  O  O379  1  0.12616092  0.26011223  0.24544125  1
  O  O380  1  0.11086289  0.24951256  0.74990006  1
  O  O381  1  0.11837520  0.75662318  0.24518764  1
  O  O382  1  0.11572194  0.75581778  0.75534903  1
  O  O383  1  0.61828773  0.25755063  0.24899713  1
  O  O384  1  0.62118679  0.25333038  0.75959759  1
  O  O385  1  0.62411993  0.76068442  0.26167710  1
  O  O386  1  0.61741125  0.76102360  0.75812672  1
  O  O387  1  0.38118140  0.24437522  0.24482358  1
  O  O388  1  0.38889855  0.25114352  0.73801448  1
  O  O389  1  0.37393860  0.74115898  0.24322822  1
  O  O390  1  0.38203977  0.74774592  0.74803779  1
  O  O391  1  0.87749978  0.23712282  0.23912988  1
  O  O392  1  0.88153369  0.24564606  0.74058773  1
  O  O393  1  0.88082495  0.74308319  0.24577706  1
  O  O394  1  0.88190717  0.74170571  0.75640784  1
  O  O395  1  0.37250801  0.49230925  0.49394489  1
  O  O396  1  0.39183449  0.50919416  0.99806146  1
  O  O397  1  0.38142734  0.99447169  0.49886418  1
  O  O398  1  0.38357732  0.98714837  1.00703615  1
  O  O399  1  0.87867103  0.49394793  0.48939707  1
  O  O400  1  0.86564525  0.49327242  0.99184221  1
  O  O401  1  0.88357381  0.98680810  0.50323400  1
  O  O402  1  0.88577617  0.99432393  0.99502418  1
  O  O403  1  0.11471149  -0.00625888  0.00730457  1
  O  O404  1  0.11956590  0.00542260  0.50615850  1
  O  O405  1  0.12529569  0.51927188  -0.00047273  1
  O  O406  1  0.11970997  0.50796146  0.49135987  1
  O  O407  1  0.62022942  0.01218152  -0.00843213  1
  O  O408  1  0.61978897  0.00816811  0.49711900  1
  O  O409  1  0.62072674  0.50874735  0.00875749  1
  O  O410  1  0.62375342  0.50203818  0.50987404  1
  O  O411  1  0.37268355  0.35811893  0.12496811  1
  O  O412  1  0.37900708  0.35919637  0.61353086  1
  O  O413  1  0.36919298  0.86810542  0.11895141  1
  O  O414  1  0.37700557  0.86991087  0.60894604  1
  O  O415  1  0.86953709  0.36957089  0.12041951  1
  O  O416  1  0.87120664  0.36240852  0.61708219  1
  O  O417  1  0.86554392  0.86749368  0.12662355  1
  O  O418  1  0.88083045  0.87486023  0.61600171  1
  O  O419  1  0.11876198  0.12168313  0.38707006  1
  O  O420  1  0.12625115  0.12687798  0.88069033  1
  O  O421  1  0.11900333  0.62251453  0.38487200  1
  O  O422  1  0.11231856  0.64050240  0.88471924  1
  O  O423  1  0.63554401  0.12687106  0.38308145  1
  O  O424  1  0.62916994  0.13777529  0.88495329  1
  O  O425  1  0.62895991  0.63476411  0.37498222  1
  O  O426  1  0.62909314  0.63641663  0.88261371  1
