# generated using pymatgen
data_V85Zn86O256
_symmetry_space_group_name_H-M   'P 1'
_cell_length_a   16.93300886
_cell_length_b   16.92019395
_cell_length_c   16.93317385
_cell_angle_alpha   90.04178948
_cell_angle_beta   90.01788490
_cell_angle_gamma   89.96241435
_symmetry_Int_Tables_number   1
_chemical_formula_structural   V85Zn86O256
_chemical_formula_sum   'V85 Zn86 O256'
_cell_volume   4851.51758079
_cell_formula_units_Z   1
loop_
 _symmetry_equiv_pos_site_id
 _symmetry_equiv_pos_as_xyz
  1  'x, y, z'
loop_
 _atom_site_type_symbol
 _atom_site_label
 _atom_site_symmetry_multiplicity
 _atom_site_fract_x
 _atom_site_fract_y
 _atom_site_fract_z
 _atom_site_occupancy
  V  V0  1  0.50078240  0.74315921  0.25585764  1
  V  V1  1  0.87520592  0.62617385  0.24752694  1
  V  V2  1  0.50224386  0.00598442  -0.00204378  1
  V  V3  1  -0.00042885  0.49523813  -0.00493238  1
  V  V4  1  0.74683630  0.24521627  0.00910016  1
  V  V5  1  -0.00102246  0.62622962  0.13012101  1
  V  V6  1  0.74675475  0.75021445  -0.00531557  1
  V  V7  1  0.37625387  0.87435896  -0.00174157  1
  V  V8  1  0.63220321  0.63088021  0.50357026  1
  V  V9  1  0.50914831  0.49982120  0.50076643  1
  V  V10  1  0.38263812  0.74058900  0.12328600  1
  V  V11  1  0.50205749  -0.00652815  0.49562518  1
  V  V12  1  0.12847514  0.37964393  0.75172636  1
  V  V13  1  0.25178715  0.38597653  0.62746618  1
  V  V14  1  0.24766235  0.36645064  0.12458638  1
  V  V15  1  0.74751110  0.11998413  0.87912886  1
  V  V16  1  0.86971702  0.86712803  0.50242029  1
  V  V17  1  0.62476738  0.12588297  0.50038837  1
  V  V18  1  0.87638426  0.88265175  -0.00363368  1
  V  V19  1  0.37989617  0.13088769  0.25213598  1
  V  V20  1  0.74623292  0.49656768  0.23238405  1
  V  V21  1  0.75206561  0.12802794  0.37527232  1
  V  V22  1  0.00122875  0.01342955  -0.00124898  1
  V  V23  1  0.88277055  0.75123701  0.12429848  1
  V  V24  1  0.38021957  -0.00640479  0.37212838  1
  V  V25  1  0.24888872  0.12946947  0.88789140  1
  V  V26  1  -0.00402937  -0.00255348  0.50490135  1
  V  V27  1  0.11979091  0.25260723  0.37922288  1
  V  V28  1  0.86851156  0.61445950  0.76305031  1
  V  V29  1  0.74722282  0.86246835  0.62770972  1
  V  V30  1  0.63349567  0.39191958  0.74889310  1
  V  V31  1  0.12651309  0.49828395  0.12671899  1
  V  V32  1  0.62577011  0.00214643  0.12161060  1
  V  V33  1  0.75047596  0.87495415  0.12723907  1
  V  V34  1  0.61761551  0.87505546  0.25603648  1
  V  V35  1  0.11232466  0.37624932  0.25445719  1
  V  V36  1  -0.00251369  0.87963633  0.87420132  1
  V  V37  1  0.25011430  -0.00129444  0.24935536  1
  V  V38  1  0.24929524  0.49647900  0.25416487  1
  V  V39  1  0.50132155  0.37335065  0.36870524  1
  V  V40  1  0.62591378  0.24655552  0.87692123  1
  V  V41  1  0.24692090  0.87549182  0.12291776  1
  V  V42  1  0.50258952  0.25461678  0.74996668  1
  V  V43  1  0.37440910  0.00047465  0.87279195  1
  V  V44  1  0.12236944  0.01741901  0.11835708  1
  V  V45  1  0.25125610  0.74806815  -0.00407997  1
  V  V46  1  -0.00068891  0.74295348  0.74712882  1
  V  V47  1  0.37044112  0.37032817  -0.00144744  1
  V  V48  1  0.61613614  0.62554146  0.01180590  1
  V  V49  1  0.62580519  -0.00577074  0.63156270  1
  V  V50  1  0.37802704  0.37709834  0.49922996  1
  V  V51  1  0.37577543  0.25233345  0.62428474  1
  V  V52  1  0.36751025  0.50186842  0.86943762  1
  V  V53  1  0.11637531  0.50572516  0.62702872  1
  V  V54  1  0.12418413  0.62523450  -0.00120902  1
  V  V55  1  0.75218471  -0.00609896  0.75299522  1
  V  V56  1  0.37438311  0.24797611  0.12477893  1
  V  V57  1  0.50331341  0.62167292  0.62533609  1
  V  V58  1  0.49872674  0.37856436  0.87590373  1
  V  V59  1  0.11596436  0.63082581  0.50037888  1
  V  V60  1  0.50732710  0.87287101  0.87078743  1
  V  V61  1  0.36694436  0.63011522  0.74228975  1
  V  V62  1  0.25409741  0.87339599  0.62523584  1
  V  V63  1  0.50336391  0.12880463  0.12635698  1
  V  V64  1  0.62312696  0.25278026  0.37082697  1
  V  V65  1  0.00156492  0.49239595  0.48388640  1
  V  V66  1  0.12753045  0.24832619  0.88534365  1
  V  V67  1  0.24662604  0.75090508  0.49694046  1
  V  V68  1  0.62746849  0.37614194  0.23807886  1
  V  V69  1  0.24697600  0.62991078  0.37246353  1
  V  V70  1  0.00174323  0.22746312  0.24794333  1
  V  V71  1  0.37878150  0.86734652  0.49937410  1
  V  V72  1  0.50066111  0.12466279  0.62483907  1
  V  V73  1  0.87382091  0.73850468  0.62565106  1
  V  V74  1  0.87398861  0.12194182  0.75245552  1
  V  V75  1  0.50720971  0.75391281  0.74119167  1
  V  V76  1  0.86491175  0.37536605  0.00182291  1
  V  V77  1  0.49712468  0.50438349  0.01507704  1
  V  V78  1  -0.00135626  0.25279531  0.74852721  1
  V  V79  1  0.12335325  0.12318019  0.50304650  1
  V  V80  1  0.12424758  0.87575920  0.74789816  1
  V  V81  1  0.87229013  -0.00312077  0.37556328  1
  V  V82  1  0.37182712  0.12657496  0.74919852  1
  V  V83  1  0.24992635  0.25044034  0.50086303  1
  V  V84  1  0.74870586  0.62634614  0.37528291  1
  Zn  Zn85  1  0.24722391  0.00223643  0.74909368  1
  Zn  Zn86  1  0.75279200  0.38598721  0.62069456  1
  Zn  Zn87  1  0.62756146  0.75489892  0.38037239  1
  Zn  Zn88  1  0.62742840  0.74678662  0.86900371  1
  Zn  Zn89  1  0.87663916  0.11829246  0.24638427  1
  Zn  Zn90  1  0.00070920  0.85964546  0.36792840  1
  Zn  Zn91  1  0.25141345  0.12357771  0.37725721  1
  Zn  Zn92  1  -0.00446057  0.12645396  0.62582547  1
  Zn  Zn93  1  0.11461506  0.86304034  0.25057210  1
  Zn  Zn94  1  0.87919360  0.49513506  0.36679643  1
  Zn  Zn95  1  -0.00455959  0.37738704  0.87415220  1
  Zn  Zn96  1  0.74009897  0.60000097  0.87337907  1
  Zn  Zn97  1  0.37984184  0.61806721  0.24762677  1
  Zn  Zn98  1  0.75138896  0.25617874  0.50322831  1
  Zn  Zn99  1  0.12431548  0.00181314  0.62680597  1
  Zn  Zn100  1  0.12579891  0.75013583  0.87335747  1
  Zn  Zn101  1  0.75027100  -0.00119446  0.24982982  1
  Zn  Zn102  1  0.87493541  0.37035136  0.49554206  1
  Zn  Zn103  1  0.24572720  0.61991104  0.86873632  1
  Zn  Zn104  1  0.88394232  0.24208122  0.12261275  1
  Zn  Zn105  1  0.86707007  0.25445149  0.62547126  1
  Zn  Zn106  1  0.37591336  0.50240597  0.37599512  1
  Zn  Zn107  1  0.18852513  0.18693473  0.19138812  1
  Zn  Zn108  1  0.18694395  0.19302905  0.68795742  1
  Zn  Zn109  1  0.19483459  0.68495820  0.18166125  1
  Zn  Zn110  1  0.18793909  0.69260836  0.68091633  1
  Zn  Zn111  1  0.68488207  0.18511503  0.19310511  1
  Zn  Zn112  1  0.68947514  0.19001652  0.68898782  1
  Zn  Zn113  1  0.68962877  0.68871209  0.18592167  1
  Zn  Zn114  1  0.68675694  0.56530744  0.68842978  1
  Zn  Zn115  1  0.30980556  0.31133918  0.31498568  1
  Zn  Zn116  1  0.30908559  0.31292451  0.81181254  1
  Zn  Zn117  1  0.31191788  0.81193259  0.31061122  1
  Zn  Zn118  1  0.31584385  0.81025715  0.81058019  1
  Zn  Zn119  1  0.81676544  0.31528835  0.31620276  1
  Zn  Zn120  1  0.81182535  0.31351528  0.81733963  1
  Zn  Zn121  1  0.81481730  0.81006477  0.31110077  1
  Zn  Zn122  1  0.81462952  0.81173812  0.81155087  1
  Zn  Zn123  1  0.18460163  0.43926014  0.43800767  1
  Zn  Zn124  1  0.18760685  0.43474540  0.93866167  1
  Zn  Zn125  1  0.18660047  0.93565435  0.43567841  1
  Zn  Zn126  1  0.18600772  0.94034689  0.93459048  1
  Zn  Zn127  1  0.69424501  0.44234739  0.43192035  1
  Zn  Zn128  1  0.68002248  0.43419622  0.94402869  1
  Zn  Zn129  1  0.69016719  0.93594301  0.44138318  1
  Zn  Zn130  1  0.68657261  0.93712088  0.93824268  1
  Zn  Zn131  1  0.31512145  0.06165828  0.06299866  1
  Zn  Zn132  1  0.31199035  0.05870085  0.56196986  1
  Zn  Zn133  1  0.31142107  0.55811895  0.06181901  1
  Zn  Zn134  1  0.31455889  0.56362460  0.56013892  1
  Zn  Zn135  1  0.81554432  0.06575663  0.06433300  1
  Zn  Zn136  1  0.81063059  0.06415042  0.56580480  1
  Zn  Zn137  1  0.79278091  0.54327245  0.03083763  1
  Zn  Zn138  1  0.81692102  0.55931161  0.56187688  1
  Zn  Zn139  1  0.43551051  0.43277863  0.19033402  1
  Zn  Zn140  1  0.44014419  0.44246487  0.68856850  1
  Zn  Zn141  1  0.43812053  0.93431739  0.18580499  1
  Zn  Zn142  1  0.43618902  0.93684347  0.68498767  1
  Zn  Zn143  1  0.93269407  0.43642010  0.17848740  1
  Zn  Zn144  1  0.93607718  0.43739490  0.68312765  1
  Zn  Zn145  1  0.94268644  0.93998380  0.18839212  1
  Zn  Zn146  1  0.93393770  0.93584842  0.68781021  1
  Zn  Zn147  1  0.07372664  0.03402637  0.32625056  1
  Zn  Zn148  1  0.06217319  0.06389999  0.81396414  1
  Zn  Zn149  1  0.06604989  0.69538357  0.31181758  1
  Zn  Zn150  1  0.06136723  0.56179999  0.81224743  1
  Zn  Zn151  1  0.56350260  0.06247033  0.31097421  1
  Zn  Zn152  1  0.56368461  0.06380256  0.81078078  1
  Zn  Zn153  1  0.56727791  0.56093850  0.31276849  1
  Zn  Zn154  1  0.55262133  0.56937430  0.82429789  1
  Zn  Zn155  1  0.44010560  0.18699023  0.43630958  1
  Zn  Zn156  1  0.43756541  0.18865967  0.93736196  1
  Zn  Zn157  1  0.43797783  0.68585512  0.43392832  1
  Zn  Zn158  1  0.43773223  0.68646562  0.93193949  1
  Zn  Zn159  1  0.93728306  0.18871065  0.43736148  1
  Zn  Zn160  1  0.93202235  0.19207410  0.93031923  1
  Zn  Zn161  1  0.93137910  0.68168679  0.44071452  1
  Zn  Zn162  1  0.93929245  0.69188462  0.93821385  1
  Zn  Zn163  1  0.05941658  0.31007668  0.06611790  1
  Zn  Zn164  1  0.06049434  0.31495949  0.56653556  1
  Zn  Zn165  1  0.06423365  0.81654105  0.06281354  1
  Zn  Zn166  1  0.05806531  0.81160419  0.56169510  1
  Zn  Zn167  1  0.55952054  0.31019930  0.05845553  1
  Zn  Zn168  1  0.56967021  0.31520576  0.56313002  1
  Zn  Zn169  1  0.56202244  0.81354551  0.06350817  1
  Zn  Zn170  1  0.56309300  0.80996205  0.56585766  1
  O  O171  1  0.13454433  0.11549116  0.11746679  1
  O  O172  1  0.12498502  0.12558737  0.61463086  1
  O  O173  1  0.12094177  0.62094081  0.11466572  1
  O  O174  1  0.13538793  0.61580486  0.61435665  1
  O  O175  1  0.61561416  0.11437927  0.13126239  1
  O  O176  1  0.61893207  0.11764538  0.62088045  1
  O  O177  1  0.62125196  0.63317445  0.11106005  1
  O  O178  1  0.61213694  0.62347806  0.61896537  1
  O  O179  1  0.38380187  0.37364400  0.38122928  1
  O  O180  1  0.37716018  0.37956810  0.88052348  1
  O  O181  1  0.37194777  0.88718542  0.38100428  1
  O  O182  1  0.38288933  0.88077745  0.87894378  1
  O  O183  1  0.87439450  0.38380604  0.38082001  1
  O  O184  1  0.87966138  0.36665496  0.89515216  1
  O  O185  1  0.87098382  0.87960355  0.38509723  1
  O  O186  1  0.88450884  0.87264489  0.88447453  1
  O  O187  1  0.26025901  0.00241732  0.36467879  1
  O  O188  1  0.25612282  0.00945733  0.87140885  1
  O  O189  1  0.25063970  0.50683143  0.36859127  1
  O  O190  1  0.26263658  0.50032032  0.87900018  1
  O  O191  1  0.75850565  0.00560341  0.37719970  1
  O  O192  1  0.73965600  0.00626421  0.86512289  1
  O  O193  1  0.75086288  0.51403932  0.35917528  1
  O  O194  1  0.76411697  0.50289318  0.92399883  1
  O  O195  1  0.24640123  0.48893768  0.13195455  1
  O  O196  1  0.24321803  0.48949577  0.61685068  1
  O  O197  1  0.24509091  0.99396990  0.12670569  1
  O  O198  1  0.24695910  0.98762578  0.62637125  1
  O  O199  1  0.75014152  0.50446494  0.13375678  1
  O  O200  1  0.75002469  0.49995493  0.62615555  1
  O  O201  1  0.74113930  0.99268116  0.12470861  1
  O  O202  1  0.74229907  0.99309479  0.63322226  1
  O  O203  1  0.01165536  0.37492009  0.24420437  1
  O  O204  1  0.00737353  0.36941190  0.75353792  1
  O  O205  1  -0.00074735  0.86929273  0.25152974  1
  O  O206  1  0.00553556  0.87047422  0.75608053  1
  O  O207  1  0.50775564  0.38062660  0.26253375  1
  O  O208  1  0.50671075  0.37391794  0.75793866  1
  O  O209  1  0.50908051  0.86556337  0.24547558  1
  O  O210  1  0.49005836  0.86202866  0.75464164  1
  O  O211  1  0.49094714  0.11842576  0.23935339  1
  O  O212  1  0.48945032  0.13176868  0.74586038  1
  O  O213  1  0.49941297  0.63770284  0.25165894  1
  O  O214  1  0.49315326  0.63377245  0.74328858  1
  O  O215  1  1.00682586  0.12772294  0.25855496  1
  O  O216  1  0.99117263  0.13106287  0.75088312  1
  O  O217  1  0.99450076  0.62708470  0.23642381  1
  O  O218  1  0.99578137  0.63942884  0.75734707  1
  O  O219  1  0.37924033  0.26350674  0.00400569  1
  O  O220  1  0.37229034  0.25582049  0.50566381  1
  O  O221  1  0.37132045  0.75309361  0.00488938  1
  O  O222  1  0.37196543  0.76343768  0.49386676  1
  O  O223  1  0.86437412  0.25360067  0.00083852  1
  O  O224  1  0.87196585  0.24826956  0.50522256  1
  O  O225  1  0.86754862  0.75953167  0.00624892  1
  O  O226  1  0.87565257  0.75492937  0.51312552  1
  O  O227  1  0.12720066  0.24496114  0.49596231  1
  O  O228  1  0.12055761  0.25425242  0.98382833  1
  O  O229  1  0.13440572  0.74344986  0.50699678  1
  O  O230  1  0.13385299  0.74311582  1.00019719  1
  O  O231  1  0.62432823  0.24250145  0.49014106  1
  O  O232  1  0.63073357  0.25679545  0.98540064  1
  O  O233  1  0.61827938  0.73601815  0.49773036  1
  O  O234  1  0.62847375  0.74501368  0.99832126  1
  O  O235  1  0.49399732  0.23480949  0.11780826  1
  O  O236  1  0.49575968  0.24587028  0.62929478  1
  O  O237  1  0.48936160  0.75682619  0.13357192  1
  O  O238  1  0.49727707  0.74341421  0.63535262  1
  O  O239  1  1.00877393  0.24341623  0.14450940  1
  O  O240  1  1.00197389  0.24771179  0.63966113  1
  O  O241  1  0.98944190  0.74405119  0.11445908  1
  O  O242  1  0.98739927  0.75705304  0.63663340  1
  O  O243  1  0.01397922  0.24402467  0.36610116  1
  O  O244  1  0.01198701  0.25027271  0.86466780  1
  O  O245  1  0.00279405  0.74733378  0.38657183  1
  O  O246  1  0.00392649  0.76315731  0.86957375  1
  O  O247  1  0.50913905  0.26051572  0.37987018  1
  O  O248  1  0.50577473  0.25700360  0.87095142  1
  O  O249  1  0.50170044  0.75155109  0.35945040  1
  O  O250  1  0.49854222  0.75832410  0.86426284  1
  O  O251  1  0.24405470  0.13171930  0.50141068  1
  O  O252  1  0.25931655  0.12588222  0.98691139  1
  O  O253  1  0.24725560  0.63416586  0.49476645  1
  O  O254  1  0.24212080  0.63146237  0.99948802  1
  O  O255  1  0.74033809  0.12249485  0.49044196  1
  O  O256  1  0.75278213  0.12663671  0.98541616  1
  O  O257  1  0.74221630  0.61957201  0.48983301  1
  O  O258  1  0.73464632  0.63889595  1.00330473  1
  O  O259  1  0.25849357  0.37904182  0.01164337  1
  O  O260  1  0.25608867  0.36983840  0.50592140  1
  O  O261  1  0.25450284  0.86888799  0.00329876  1
  O  O262  1  0.25493153  0.87089863  0.50312942  1
  O  O263  1  0.75803507  0.36184754  0.00199118  1
  O  O264  1  0.74740334  0.37444327  0.50133569  1
  O  O265  1  0.75607186  0.87318218  0.00895934  1
  O  O266  1  0.76142796  0.87789659  0.51161481  1
  O  O267  1  0.13787937  0.48972897  0.24316932  1
  O  O268  1  0.12158206  0.48970913  0.74421687  1
  O  O269  1  0.13747067  1.00569910  0.23134441  1
  O  O270  1  0.12637355  0.99153953  0.74716837  1
  O  O271  1  0.63698762  0.49298812  0.24827834  1
  O  O272  1  0.62060883  0.49566679  0.76099767  1
  O  O273  1  0.62402304  0.99114844  0.23945313  1
  O  O274  1  0.62997630  1.00272381  0.73758281  1
  O  O275  1  0.37205506  0.00505596  0.25482392  1
  O  O276  1  0.37462432  0.00997816  0.75492162  1
  O  O277  1  0.36216586  0.49781920  0.25192441  1
  O  O278  1  0.38052666  0.51518379  0.75758721  1
  O  O279  1  0.87122835  -0.00156187  0.26156367  1
  O  O280  1  0.86413428  0.00751724  0.74729400  1
  O  O281  1  0.86690265  0.51012874  0.24217907  1
  O  O282  1  0.89104336  0.51791795  0.75271191  1
  O  O283  1  0.13167367  0.36404668  0.36645022  1
  O  O284  1  0.12615443  0.36620929  0.86794047  1
  O  O285  1  0.10862121  0.91595778  0.35884585  1
  O  O286  1  0.12200552  0.87265581  0.86247720  1
  O  O287  1  0.61890899  0.36946120  0.36811903  1
  O  O288  1  0.61772645  0.37127854  0.86733361  1
  O  O289  1  0.63513684  0.87388559  0.36031715  1
  O  O290  1  0.61012309  0.87316539  0.87760041  1
  O  O291  1  0.38114325  0.12869924  0.13165135  1
  O  O292  1  0.38023871  0.12903795  0.63063931  1
  O  O293  1  0.36692149  0.63754583  0.12706031  1
  O  O294  1  0.38310363  0.62065557  0.63634707  1
  O  O295  1  0.87129014  0.13007530  0.13423230  1
  O  O296  1  0.87254001  0.12906544  0.63947216  1
  O  O297  1  0.88412053  0.63344765  0.12561488  1
  O  O298  1  0.87062605  0.63559032  0.63814127  1
  O  O299  1  0.25521571  0.25955575  0.13045250  1
  O  O300  1  0.25694668  0.26091914  0.61960847  1
  O  O301  1  0.25926427  0.75781513  0.11268878  1
  O  O302  1  0.25165962  0.76359163  0.61225665  1
  O  O303  1  0.74158609  0.23897584  0.11023627  1
  O  O304  1  0.74653372  0.26031812  0.62408448  1
  O  O305  1  0.75762526  0.75823889  0.11525210  1
  O  O306  1  0.75857149  0.76212600  0.63457516  1
  O  O307  1  0.23939854  0.24516111  0.38207128  1
  O  O308  1  0.23724127  0.24472918  0.87180083  1
  O  O309  1  0.25497858  0.74639249  0.38719958  1
  O  O310  1  0.25065741  0.74866749  0.88682062  1
  O  O311  1  0.74237270  0.24199422  0.37593619  1
  O  O312  1  0.74164629  0.24097934  0.88055468  1
  O  O313  1  0.74721729  0.73269971  0.36367057  1
  O  O314  1  0.74710197  0.75885408  0.88873734  1
  O  O315  1  -0.00745306  0.11199169  -0.01269884  1
  O  O316  1  0.00657122  0.11761803  0.50440350  1
  O  O317  1  0.00636903  0.62015540  0.00744713  1
  O  O318  1  0.01368229  0.61764892  0.50043383  1
  O  O319  1  0.49470626  0.11210806  0.00518926  1
  O  O320  1  0.50411486  0.11404244  0.50563299  1
  O  O321  1  0.50639433  0.62054512  -0.00194216  1
  O  O322  1  0.50248326  0.61994904  0.50711643  1
  O  O323  1  0.50016560  0.38277517  0.49353447  1
  O  O324  1  0.49223486  0.38370382  0.99499582  1
  O  O325  1  0.49364690  0.88493419  0.50567653  1
  O  O326  1  0.49476927  0.88370881  0.99253025  1
  O  O327  1  1.00646285  0.38935130  0.49959663  1
  O  O328  1  0.99672185  0.38052615  0.99898059  1
  O  O329  1  0.98728090  0.88236858  0.50028574  1
  O  O330  1  0.99403121  0.88056175  0.99303055  1
  O  O331  1  0.49802944  0.49257308  0.38106316  1
  O  O332  1  0.48546582  0.49563430  0.88482856  1
  O  O333  1  0.49469296  1.00239827  0.38459254  1
  O  O334  1  0.49639857  0.99556361  0.87941378  1
  O  O335  1  1.00600699  0.50277558  0.38656230  1
  O  O336  1  1.00539469  0.49920421  0.89154464  1
  O  O337  1  0.98099751  1.00586418  0.39126879  1
  O  O338  1  1.00846873  0.98727434  0.88285059  1
  O  O339  1  0.01550618  0.00029778  0.11619621  1
  O  O340  1  -0.00133119  0.00182554  0.61571620  1
  O  O341  1  0.00919600  0.50855961  0.11888505  1
  O  O342  1  0.01461623  0.49971768  0.61936804  1
  O  O343  1  0.50379684  0.00620191  0.11658460  1
  O  O344  1  0.50707738  0.00393197  0.61932286  1
  O  O345  1  0.48712913  0.50020206  0.11416277  1
  O  O346  1  0.49790475  0.50935159  0.61460229  1
  O  O347  1  0.24394739  0.37843379  0.24443144  1
  O  O348  1  0.24213116  0.37277780  0.73941787  1
  O  O349  1  0.25445653  0.88677212  0.24017133  1
  O  O350  1  0.24434419  0.87297025  0.74219533  1
  O  O351  1  0.74409031  0.38826896  0.24990928  1
  O  O352  1  0.73470995  0.37716575  0.75739262  1
  O  O353  1  0.74449383  0.87389378  0.23785836  1
  O  O354  1  0.75464947  0.88601814  0.74465837  1
  O  O355  1  0.26054556  0.11392430  0.24989051  1
  O  O356  1  0.26213926  0.12799469  0.75229026  1
  O  O357  1  0.25215562  0.61413339  0.25661195  1
  O  O358  1  0.26282135  0.63260049  0.74853544  1
  O  O359  1  0.74661077  0.11915970  0.26561174  1
  O  O360  1  0.75316219  0.11566974  0.75709812  1
  O  O361  1  0.75544022  0.61604632  0.24911318  1
  O  O362  1  0.76199766  0.62010095  0.76027371  1
  O  O363  1  0.37643368  0.11537452  0.36813989  1
  O  O364  1  0.36960528  0.12342936  0.86649854  1
  O  O365  1  0.36261531  0.62320359  0.37184624  1
  O  O366  1  0.37171450  0.61808069  0.86373928  1
  O  O367  1  0.86552520  0.11725947  0.37342144  1
  O  O368  1  0.86210387  0.12833563  0.86157713  1
  O  O369  1  0.86886311  0.61949137  0.36259906  1
  O  O370  1  0.87323215  0.63252106  0.86505909  1
  O  O371  1  0.13249766  0.37630888  0.13183800  1
  O  O372  1  0.13327512  0.38259187  0.63224202  1
  O  O373  1  0.13892691  0.88116706  0.12436339  1
  O  O374  1  0.13015248  0.87506226  0.63505584  1
  O  O375  1  0.61511160  0.36734777  0.13950593  1
  O  O376  1  0.62062934  0.37646518  0.64741597  1
  O  O377  1  0.63223392  0.88050465  0.13191406  1
  O  O378  1  0.63380862  0.88317240  0.61938572  1
  O  O379  1  0.11828380  0.25338458  0.25886957  1
  O  O380  1  0.11972755  0.26196109  0.75473123  1
  O  O381  1  0.14128279  0.75176453  0.25119723  1
  O  O382  1  0.11734466  0.75665015  0.74905398  1
  O  O383  1  0.62937309  0.25876477  0.26324186  1
  O  O384  1  0.61842159  0.25618301  0.76103816  1
  O  O385  1  0.61289978  0.75605377  0.24646161  1
  O  O386  1  0.60580730  0.74880929  0.75061407  1
  O  O387  1  0.37093236  0.23693293  0.24701870  1
  O  O388  1  0.38173464  0.24633689  0.74464604  1
  O  O389  1  0.38603984  0.75061235  0.24231202  1
  O  O390  1  0.38358525  0.73464079  0.75377123  1
  O  O391  1  0.89517388  0.24591366  0.25557350  1
  O  O392  1  0.88325015  0.24521481  0.75230518  1
  O  O393  1  0.86704356  0.73581192  0.23664142  1
  O  O394  1  0.88157161  0.74340400  0.74542666  1
  O  O395  1  0.38582745  0.49322222  0.49796773  1
  O  O396  1  0.37831613  0.49134117  0.99389158  1
  O  O397  1  0.38245411  0.99333656  0.49141998  1
  O  O398  1  0.38287596  0.99442949  0.99336061  1
  O  O399  1  0.89646211  0.50858073  0.49688586  1
  O  O400  1  0.88890609  0.48242670  1.01751492  1
  O  O401  1  0.87768943  0.99241827  0.49892904  1
  O  O402  1  0.88372232  0.98801740  1.00698978  1
  O  O403  1  0.11851218  -0.00346192  0.01029955  1
  O  O404  1  0.11515584  0.00647340  0.50387964  1
  O  O405  1  0.12133885  0.50614875  0.00645712  1
  O  O406  1  0.11916393  0.50807309  0.50587032  1
  O  O407  1  0.61611601  -0.00607852  0.01253598  1
  O  O408  1  0.61780522  0.00349040  0.50687191  1
  O  O409  1  0.61040261  0.51405906  0.00181377  1
  O  O410  1  0.61368644  0.51219567  0.49186592  1
  O  O411  1  0.36893883  0.36661871  0.11958751  1
  O  O412  1  0.37009440  0.37336054  0.62114333  1
  O  O413  1  0.36503483  0.87035919  0.11710852  1
  O  O414  1  0.36623123  0.88155073  0.61212004  1
  O  O415  1  0.88205521  0.35913746  0.10889151  1
  O  O416  1  0.87432399  0.37287263  0.61727801  1
  O  O417  1  0.86875704  0.86975646  0.11957739  1
  O  O418  1  0.86728126  0.86752132  0.61999265  1
  O  O419  1  0.12826396  0.12630812  0.38944257  1
  O  O420  1  0.13494170  0.13928833  0.86737676  1
  O  O421  1  0.14043229  0.62739025  0.38614335  1
  O  O422  1  0.12683497  0.62698149  0.88590884  1
  O  O423  1  0.62793759  0.13246931  0.37921642  1
  O  O424  1  0.63197222  0.13505165  0.86980025  1
  O  O425  1  0.63151251  0.62862023  0.38291156  1
  O  O426  1  0.62599650  0.62993829  0.88756311  1
