# generated using pymatgen
data_V85Zn86O256
_symmetry_space_group_name_H-M   'P 1'
_cell_length_a   16.90100438
_cell_length_b   16.90172660
_cell_length_c   16.90427591
_cell_angle_alpha   89.98060512
_cell_angle_beta   89.94577304
_cell_angle_gamma   89.96965132
_symmetry_Int_Tables_number   1
_chemical_formula_structural   V85Zn86O256
_chemical_formula_sum   'V85 Zn86 O256'
_cell_volume   4828.80734769
_cell_formula_units_Z   1
loop_
 _symmetry_equiv_pos_site_id
 _symmetry_equiv_pos_as_xyz
  1  'x, y, z'
loop_
 _atom_site_type_symbol
 _atom_site_label
 _atom_site_symmetry_multiplicity
 _atom_site_fract_x
 _atom_site_fract_y
 _atom_site_fract_z
 _atom_site_occupancy
  V  V0  1  0.12718538  0.50465535  0.12233973  1
  V  V1  1  0.75256220  0.62534832  0.87014088  1
  V  V2  1  0.00287692  0.75266166  0.24885696  1
  V  V3  1  -0.00266762  0.25029473  0.74555119  1
  V  V4  1  0.50168119  0.25245435  0.75523616  1
  V  V5  1  0.00011957  0.50046299  0.49109790  1
  V  V6  1  0.12282507  0.36953782  0.25633808  1
  V  V7  1  0.74450078  0.50147858  0.25545269  1
  V  V8  1  0.50219868  0.74701797  0.74795328  1
  V  V9  1  0.50107667  0.87533189  0.37666496  1
  V  V10  1  0.62479463  0.13981818  -0.00342822  1
  V  V11  1  0.00687572  0.75263877  0.74749695  1
  V  V12  1  0.25500200  0.75889881  -0.00071120  1
  V  V13  1  0.36417967  0.25490833  0.62821040  1
  V  V14  1  0.12374357  0.74761303  0.87886823  1
  V  V15  1  0.74583610  0.14553616  0.87708861  1
  V  V16  1  0.25710593  0.62419087  0.37515583  1
  V  V17  1  0.87758758  0.23823898  0.11919723  1
  V  V18  1  0.62136840  -0.00043995  0.62648260  1
  V  V19  1  -0.01122661  0.12511743  0.62529155  1
  V  V20  1  0.49921215  -0.00988629  -0.00147933  1
  V  V21  1  0.11607563  0.12688995  0.00982408  1
  V  V22  1  0.62928960  0.12945286  0.49907950  1
  V  V23  1  0.25140044  0.37726884  0.12487272  1
  V  V24  1  0.37489181  0.87586380  0.50343157  1
  V  V25  1  0.00496900  0.87930505  0.86954394  1
  V  V26  1  0.75074375  0.88029251  0.12330573  1
  V  V27  1  0.12578318  0.62149002  0.50339343  1
  V  V28  1  0.38036801  0.62316409  0.24908370  1
  V  V29  1  0.12401610  0.12855486  0.49743261  1
  V  V30  1  0.37873884  0.73921954  0.62438986  1
  V  V31  1  0.62412476  0.50367508  0.11196732  1
  V  V32  1  0.24656662  0.12939665  0.37462435  1
  V  V33  1  0.37908384  0.38070472  -0.00006841  1
  V  V34  1  0.37177918  0.37976800  0.50471109  1
  V  V35  1  0.25103292  0.25022630  -0.00039162  1
  V  V36  1  0.49773040  0.50287320  0.50010877  1
  V  V37  1  0.61998521  0.75157473  0.87966378  1
  V  V38  1  0.87623464  0.87679325  -0.00358225  1
  V  V39  1  0.87617295  0.75108569  0.12578514  1
  V  V40  1  0.76598888  0.50298930  0.74741575  1
  V  V41  1  0.75118106  0.36966285  0.12093772  1
  V  V42  1  0.62892740  0.37404895  0.75105758  1
  V  V43  1  0.75221323  0.00438371  0.26535603  1
  V  V44  1  0.00153576  0.87855259  0.36883343  1
  V  V45  1  0.50178256  0.74662518  0.24945283  1
  V  V46  1  0.12095977  -0.00843782  0.13206212  1
  V  V47  1  0.24617357  -0.00858699  0.75231491  1
  V  V48  1  0.87638252  0.36687091  0.49700483  1
  V  V49  1  0.25090405  0.12409440  0.87654670  1
  V  V50  1  0.24568258  0.62088136  0.88077487  1
  V  V51  1  0.63379284  0.61957304  0.49785181  1
  V  V52  1  0.62601477  0.87557973  0.25080442  1
  V  V53  1  0.37810568  0.12484185  0.25303811  1
  V  V54  1  0.37397469  0.12379785  0.75299631  1
  V  V55  1  0.63367310  0.74294439  0.37575324  1
  V  V56  1  0.25383409  0.50016273  0.25485976  1
  V  V57  1  0.12467077  0.25310040  0.87139977  1
  V  V58  1  0.74817856  0.87310650  0.62603663  1
  V  V59  1  0.00259791  0.62676778  0.12022891  1
  V  V60  1  0.49234519  0.37125016  0.37026809  1
  V  V61  1  0.87351254  0.87469064  0.49584072  1
  V  V62  1  0.00033354  0.37557646  0.87413049  1
  V  V63  1  0.00127796  0.50116057  0.00008758  1
  V  V64  1  0.87340339  0.74545448  0.63160174  1
  V  V65  1  0.87125000  0.62479322  0.25720299  1
  V  V66  1  0.50756249  0.37822733  0.87898738  1
  V  V67  1  0.12938481  0.75590968  0.36836094  1
  V  V68  1  0.87491632  0.12414753  0.26759815  1
  V  V69  1  0.49846632  0.12785194  0.62656685  1
  V  V70  1  0.74612668  0.74141825  0.00073973  1
  V  V71  1  0.12271737  -0.00654601  0.62901646  1
  V  V72  1  -0.00489173  -0.00018730  0.49684331  1
  V  V73  1  0.74825382  -0.00116232  0.75740920  1
  V  V74  1  0.62184369  0.50166716  0.62708116  1
  V  V75  1  0.76466503  0.36838832  0.62557163  1
  V  V76  1  0.50215215  0.12738256  0.12708975  1
  V  V77  1  0.38054506  0.50069542  0.87321437  1
  V  V78  1  0.38176891  0.25127073  0.12892858  1
  V  V79  1  0.25054152  0.75021509  0.50147422  1
  V  V80  1  0.62865700  0.24828206  0.36774044  1
  V  V81  1  0.50297996  0.62187461  0.10794347  1
  V  V82  1  0.23579856  0.49455501  0.74568186  1
  V  V83  1  -0.00014050  0.62157167  0.62823493  1
  V  V84  1  0.37837110  -0.01315445  0.87924990  1
  Zn  Zn85  1  0.49898499  0.00257290  0.49982632  1
  Zn  Zn86  1  0.24494945  0.87011861  0.62940994  1
  Zn  Zn87  1  -0.00297561  0.00390296  0.00104536  1
  Zn  Zn88  1  0.75512536  0.24510281  0.50024590  1
  Zn  Zn89  1  0.24650156  -0.00690483  0.25433133  1
  Zn  Zn90  1  0.62617540  0.00380432  0.12325278  1
  Zn  Zn91  1  0.87507415  0.00334090  0.87321532  1
  Zn  Zn92  1  0.37444663  0.00083024  0.37624609  1
  Zn  Zn93  1  0.21294633  0.38090220  0.62806524  1
  Zn  Zn94  1  0.87207080  0.37175061  0.00056449  1
  Zn  Zn95  1  0.87842276  0.50494000  0.87423339  1
  Zn  Zn96  1  0.24504398  0.25570835  0.49617454  1
  Zn  Zn97  1  0.37807843  0.61952614  0.74663316  1
  Zn  Zn98  1  0.38285669  0.75619483  0.11624771  1
  Zn  Zn99  1  0.00661202  0.23690398  0.24883586  1
  Zn  Zn100  1  -0.00201588  0.36413213  0.37132476  1
  Zn  Zn101  1  0.86849070  0.50029138  0.37450706  1
  Zn  Zn102  1  0.75407811  0.74233064  0.49865614  1
  Zn  Zn103  1  0.61978422  0.37376732  0.24707708  1
  Zn  Zn104  1  0.25548567  0.87611891  0.13451496  1
  Zn  Zn105  1  0.86997221  0.12818785  0.74860099  1
  Zn  Zn106  1  0.61752583  0.87643024  0.75549022  1
  Zn  Zn107  1  0.19460701  0.18566207  0.18641250  1
  Zn  Zn108  1  0.18241126  0.18168210  0.68759017  1
  Zn  Zn109  1  0.18912047  0.68884340  0.18614641  1
  Zn  Zn110  1  0.18829733  0.68325489  0.69147142  1
  Zn  Zn111  1  0.69070737  0.18751637  0.18736181  1
  Zn  Zn112  1  0.68740919  0.18937676  0.68845145  1
  Zn  Zn113  1  0.68697557  0.68523837  0.18561069  1
  Zn  Zn114  1  0.68495872  0.68353344  0.68730034  1
  Zn  Zn115  1  0.31367345  0.30946393  0.31311166  1
  Zn  Zn116  1  0.31091431  0.31729938  0.81137440  1
  Zn  Zn117  1  0.31602508  0.81455424  0.30757804  1
  Zn  Zn118  1  0.31460189  0.80965293  0.81227207  1
  Zn  Zn119  1  0.81085202  0.31293290  0.30966515  1
  Zn  Zn120  1  0.82083548  0.31823384  0.81043648  1
  Zn  Zn121  1  0.81388572  0.81467309  0.31241740  1
  Zn  Zn122  1  0.81302453  0.81217091  0.81174977  1
  Zn  Zn123  1  0.18965941  0.43926014  0.43827327  1
  Zn  Zn124  1  0.18635012  0.43840089  0.93756076  1
  Zn  Zn125  1  0.18776650  0.94134838  0.43654415  1
  Zn  Zn126  1  0.18373514  0.93904442  0.93868657  1
  Zn  Zn127  1  0.68584952  0.43092828  0.43735936  1
  Zn  Zn128  1  0.69119394  0.43713434  0.93592435  1
  Zn  Zn129  1  0.68418544  0.93558875  0.44217480  1
  Zn  Zn130  1  0.68142944  0.93667044  0.93943948  1
  Zn  Zn131  1  0.31138034  0.05964832  0.06379166  1
  Zn  Zn132  1  0.31037324  0.06188668  0.56357148  1
  Zn  Zn133  1  0.31481551  0.56754922  0.06059165  1
  Zn  Zn134  1  0.30967857  0.55850258  0.56458929  1
  Zn  Zn135  1  0.80906351  0.06421226  0.05828049  1
  Zn  Zn136  1  0.80923359  0.05852380  0.56130655  1
  Zn  Zn137  1  0.81401675  0.56073156  0.06648756  1
  Zn  Zn138  1  0.81644108  0.55675905  0.56395174  1
  Zn  Zn139  1  0.44050169  0.44201172  0.18735822  1
  Zn  Zn140  1  0.43685629  0.43898306  0.68847370  1
  Zn  Zn141  1  0.43430395  0.93783205  0.18440813  1
  Zn  Zn142  1  0.43633131  0.93227339  0.69063017  1
  Zn  Zn143  1  0.93501521  0.43682724  0.18661862  1
  Zn  Zn144  1  0.99626922  0.41835392  0.66563519  1
  Zn  Zn145  1  0.93773149  0.94508488  0.18686256  1
  Zn  Zn146  1  0.93351181  0.93690022  0.68763363  1
  Zn  Zn147  1  0.05948159  0.06464143  0.31390811  1
  Zn  Zn148  1  0.06342896  0.06566053  0.81376528  1
  Zn  Zn149  1  0.06602920  0.56487364  0.31054580  1
  Zn  Zn150  1  0.05966938  0.56741057  0.81252181  1
  Zn  Zn151  1  0.56363743  0.06331150  0.31136114  1
  Zn  Zn152  1  0.56338085  0.06372944  0.81660720  1
  Zn  Zn153  1  0.56270403  0.55657075  0.31423117  1
  Zn  Zn154  1  0.56651859  0.56684716  0.81419444  1
  Zn  Zn155  1  0.43824699  0.19180516  0.44041579  1
  Zn  Zn156  1  0.43883368  0.18774393  0.93848266  1
  Zn  Zn157  1  0.44162572  0.68593531  0.43770536  1
  Zn  Zn158  1  0.43558744  0.68900031  0.93051209  1
  Zn  Zn159  1  0.94218645  0.19015926  0.43178640  1
  Zn  Zn160  1  0.93349271  0.18831560  0.93508183  1
  Zn  Zn161  1  0.93857688  0.69044516  0.43793876  1
  Zn  Zn162  1  0.93544887  0.68822802  0.93676680  1
  Zn  Zn163  1  0.05883181  0.31327806  0.06658942  1
  Zn  Zn164  1  0.05839844  0.30726452  0.55566587  1
  Zn  Zn165  1  0.06558215  0.81407996  0.05731097  1
  Zn  Zn166  1  0.06248682  0.81117761  0.55894156  1
  Zn  Zn167  1  0.56320402  0.31664856  0.06293708  1
  Zn  Zn168  1  0.56159665  0.31448661  0.56418391  1
  Zn  Zn169  1  0.56481565  0.81141706  0.06430418  1
  Zn  Zn170  1  0.56196432  0.80842788  0.56395378  1
  O  O171  1  0.12865264  0.12164849  0.11331077  1
  O  O172  1  0.11571321  0.11296065  0.61743080  1
  O  O173  1  0.11800510  0.61302623  0.13145642  1
  O  O174  1  0.11587536  0.63370348  0.61355139  1
  O  O175  1  0.61899034  0.12623586  0.11787160  1
  O  O176  1  0.61829758  0.12001375  0.62147837  1
  O  O177  1  0.61812054  0.61279886  0.12628391  1
  O  O178  1  0.62769193  0.60962495  0.61694566  1
  O  O179  1  0.38445737  0.36813256  0.38556578  1
  O  O180  1  0.38250225  0.38153911  0.88120768  1
  O  O181  1  0.38436933  0.87220426  0.38688519  1
  O  O182  1  0.37305905  0.88762172  0.87370387  1
  O  O183  1  0.87557262  0.37883454  0.38027602  1
  O  O184  1  0.88453538  0.38129814  0.88200116  1
  O  O185  1  0.88357546  0.86733583  0.38848216  1
  O  O186  1  0.88400662  0.87441257  0.88155377  1
  O  O187  1  0.25479492  0.01238588  0.37549351  1
  O  O188  1  0.25502389  0.00420841  0.87104840  1
  O  O189  1  0.24799634  0.50828470  0.36295198  1
  O  O190  1  0.25607003  0.50340813  0.86986905  1
  O  O191  1  0.74793150  -0.00683156  0.36364626  1
  O  O192  1  0.74702283  -0.00089130  0.86400286  1
  O  O193  1  0.74573038  0.49518347  0.36003827  1
  O  O194  1  0.75078682  0.50774998  0.86589809  1
  O  O195  1  0.24517236  0.49937666  0.13176601  1
  O  O196  1  0.24751926  0.50020548  0.64105640  1
  O  O197  1  0.23619838  1.00000679  0.12524601  1
  O  O198  1  0.24176243  0.99859410  0.63457035  1
  O  O199  1  0.73994129  0.49673201  0.13187945  1
  O  O200  1  0.74506368  0.49140028  0.63176712  1
  O  O201  1  0.74848420  0.98904868  0.12669762  1
  O  O202  1  0.73810695  0.99730908  0.63523569  1
  O  O203  1  0.01680769  0.38225294  0.24956529  1
  O  O204  1  -0.00265384  0.36638316  0.76623469  1
  O  O205  1  -0.00821971  0.87192432  0.26193374  1
  O  O206  1  -0.00430221  0.86670766  0.75733076  1
  O  O207  1  0.49673996  0.37863943  0.26619330  1
  O  O208  1  0.50770052  0.37130141  0.75750390  1
  O  O209  1  0.50649249  0.86980281  0.25734460  1
  O  O210  1  0.49993163  0.85615539  0.74809873  1
  O  O211  1  0.49608803  0.12165332  0.23555738  1
  O  O212  1  0.49590810  0.13418138  0.74790865  1
  O  O213  1  0.49413537  0.62565109  0.24762038  1
  O  O214  1  0.49702187  0.63837597  0.75344208  1
  O  O215  1  0.97928796  0.11798055  0.25072875  1
  O  O216  1  0.99676302  0.12951418  0.74188458  1
  O  O217  1  0.99490903  0.63033545  0.23953269  1
  O  O218  1  1.00166729  0.63432737  0.73825221  1
  O  O219  1  0.37120689  0.26128088  0.00449470  1
  O  O220  1  0.37153778  0.25982669  0.51181515  1
  O  O221  1  0.35922404  0.74674426  -0.00427800  1
  O  O222  1  0.37269582  0.75393455  0.50608637  1
  O  O223  1  0.87762167  0.25031390  0.01484761  1
  O  O224  1  0.87483176  0.26156349  0.49658065  1
  O  O225  1  0.86884091  0.76039483  0.00549571  1
  O  O226  1  0.87485396  0.75678268  0.50975856  1
  O  O227  1  0.12660834  0.23332589  0.50281065  1
  O  O228  1  0.12855352  0.24181416  0.99899445  1
  O  O229  1  0.12960778  0.74118076  0.48982909  1
  O  O230  1  0.13397085  0.75055340  0.98643240  1
  O  O231  1  0.62550613  0.24443435  0.49438005  1
  O  O232  1  0.61978432  0.23972433  0.99968326  1
  O  O233  1  0.62555144  0.73755562  0.49448768  1
  O  O234  1  0.63441586  0.75253909  0.99366818  1
  O  O235  1  0.48903592  0.24561150  0.12055585  1
  O  O236  1  0.49015818  0.24938939  0.63703719  1
  O  O237  1  0.50481369  0.73871294  0.13196239  1
  O  O238  1  0.49328995  0.74780920  0.63477045  1
  O  O239  1  0.98278501  0.25467268  0.13387023  1
  O  O240  1  1.00318790  0.23691287  0.63347589  1
  O  O241  1  0.99962795  0.74542480  0.12837999  1
  O  O242  1  0.99584336  0.74533517  0.63054036  1
  O  O243  1  0.00338696  0.25031232  0.36149672  1
  O  O244  1  0.00605975  0.25598256  0.87158711  1
  O  O245  1  0.00929960  0.75685671  0.36982703  1
  O  O246  1  0.00570749  0.75331434  0.86806048  1
  O  O247  1  0.50875707  0.26445513  0.38211239  1
  O  O248  1  0.49366152  0.25995395  0.86243259  1
  O  O249  1  0.50944312  0.75823522  0.37080059  1
  O  O250  1  0.50836176  0.74724768  0.86537265  1
  O  O251  1  0.24084314  0.12530653  0.49530206  1
  O  O252  1  0.24309464  0.13216433  0.99526488  1
  O  O253  1  0.24520391  0.62755737  0.49337174  1
  O  O254  1  0.25139638  0.63145689  0.98654898  1
  O  O255  1  0.73476427  0.12580559  0.50577078  1
  O  O256  1  0.73996728  0.12211361  0.98494632  1
  O  O257  1  0.73834846  0.62058166  0.50103996  1
  O  O258  1  0.75580417  0.63735026  0.99843835  1
  O  O259  1  0.25694239  0.37024636  0.00601046  1
  O  O260  1  0.25436104  0.37580749  0.50874682  1
  O  O261  1  0.24728273  0.86067684  -0.00384627  1
  O  O262  1  0.25823365  0.86828759  0.50101630  1
  O  O263  1  0.75256401  0.38155637  0.01521512  1
  O  O264  1  0.75963385  0.37614524  0.50892638  1
  O  O265  1  0.75557283  0.86861383  0.00633885  1
  O  O266  1  0.75761023  0.87311753  0.50687153  1
  O  O267  1  0.13474429  0.49361544  0.24297239  1
  O  O268  1  0.13664875  0.50178343  0.75729264  1
  O  O269  1  0.12340550  1.00819354  0.23422692  1
  O  O270  1  0.13405370  1.00573832  0.74281616  1
  O  O271  1  0.63085186  0.49720130  0.24125724  1
  O  O272  1  0.62923436  0.49125708  0.74324473  1
  O  O273  1  0.63690703  0.99573194  0.24799773  1
  O  O274  1  0.62836204  0.99809984  0.74436581  1
  O  O275  1  0.37609293  0.01450178  0.25224151  1
  O  O276  1  0.37009894  0.00521198  0.75692335  1
  O  O277  1  0.36727497  0.51218554  0.24473944  1
  O  O278  1  0.36756972  0.49962130  0.75943783  1
  O  O279  1  0.86125695  0.01022656  0.24628140  1
  O  O280  1  0.86263019  0.00423563  0.75077131  1
  O  O281  1  0.86650851  0.50857525  0.24909895  1
  O  O282  1  0.86539034  0.49673868  0.75038822  1
  O  O283  1  0.12903580  0.37890675  0.35869047  1
  O  O284  1  0.11950777  0.36039261  0.88303518  1
  O  O285  1  0.11526022  0.86607352  0.38335235  1
  O  O286  1  0.11195529  0.86852833  0.87815656  1
  O  O287  1  0.61368992  0.36376835  0.37417462  1
  O  O288  1  0.61732974  0.38117529  0.86673892  1
  O  O289  1  0.61895753  0.86707987  0.37213335  1
  O  O290  1  0.63138875  0.85773140  0.87244324  1
  O  O291  1  0.38129996  0.13275624  0.12932193  1
  O  O292  1  0.37856922  0.13324615  0.63171750  1
  O  O293  1  0.38522849  0.62884504  0.13124578  1
  O  O294  1  0.37222852  0.63530055  0.62409489  1
  O  O295  1  0.86785634  0.13557088  0.12769488  1
  O  O296  1  0.88509354  0.12010691  0.62430685  1
  O  O297  1  0.88301661  0.63239245  0.13323528  1
  O  O298  1  0.88480659  0.63560789  0.61678747  1
  O  O299  1  0.26281153  0.25608888  0.11910636  1
  O  O300  1  0.25572882  0.25361911  0.62955853  1
  O  O301  1  0.24668283  0.74683098  0.10674976  1
  O  O302  1  0.25676134  0.75047530  0.62042729  1
  O  O303  1  0.76112507  0.25834579  0.12951961  1
  O  O304  1  0.74855940  0.26417876  0.62452857  1
  O  O305  1  0.75345517  0.75967872  0.11951029  1
  O  O306  1  0.75702072  0.75314453  0.62467065  1
  O  O307  1  0.25380875  0.23588867  0.37822959  1
  O  O308  1  0.24329189  0.24701697  0.87873197  1
  O  O309  1  0.24542402  0.74418424  0.38083075  1
  O  O310  1  0.24384600  0.74365556  0.87914379  1
  O  O311  1  0.73219896  0.25715851  0.37978046  1
  O  O312  1  0.75087258  0.24386032  0.87002466  1
  O  O313  1  0.73766450  0.75488551  0.37736986  1
  O  O314  1  0.74662159  0.74494188  0.88187153  1
  O  O315  1  0.01328325  0.12581528  -0.00550581  1
  O  O316  1  0.00292769  0.11732679  0.50506869  1
  O  O317  1  -0.00321996  0.62140644  0.01270298  1
  O  O318  1  0.00799869  0.62188843  0.50272791  1
  O  O319  1  0.50573030  0.12201229  0.00880039  1
  O  O320  1  0.50771609  0.12507084  0.50979058  1
  O  O321  1  0.49483061  0.62742078  0.00897005  1
  O  O322  1  0.50780550  0.60872551  0.49376482  1
  O  O323  1  0.49163721  0.38153272  0.49520132  1
  O  O324  1  0.49372096  0.37219654  0.98796692  1
  O  O325  1  0.49434182  0.87431694  0.49334214  1
  O  O326  1  0.50507263  0.89109630  1.00514357  1
  O  O327  1  0.99374414  0.38346337  0.49242312  1
  O  O328  1  0.99990593  0.38241310  0.99183917  1
  O  O329  1  0.99328574  0.88037562  0.49290732  1
  O  O330  1  0.99110729  0.87493782  0.99050632  1
  O  O331  1  0.50548062  0.48250487  0.38595623  1
  O  O332  1  0.49134616  0.49255618  0.86924563  1
  O  O333  1  0.50085262  0.98640901  0.37593780  1
  O  O334  1  0.49306170  1.00486253  0.88799121  1
  O  O335  1  0.99954844  0.50242311  0.38301839  1
  O  O336  1  1.00197905  0.49499095  0.88246458  1
  O  O337  1  1.00361030  0.99072218  0.38476301  1
  O  O338  1  0.99747022  0.99311348  0.87649996  1
  O  O339  1  0.01427826  -0.00290182  0.11866438  1
  O  O340  1  0.00458471  0.00415956  0.62017802  1
  O  O341  1  0.00711745  0.50670552  0.12079961  1
  O  O342  1  -0.00626412  0.51589385  0.60835653  1
  O  O343  1  0.50160545  0.00947032  0.11460739  1
  O  O344  1  0.50928064  0.00444198  0.62867433  1
  O  O345  1  0.51399524  0.50647552  0.12607609  1
  O  O346  1  0.51003906  0.49211745  0.61558804  1
  O  O347  1  0.24674416  0.38251684  0.24528593  1
  O  O348  1  0.24877111  0.38938747  0.74796201  1
  O  O349  1  0.24676122  0.87840397  0.25162553  1
  O  O350  1  0.25374214  0.88705586  0.74921585  1
  O  O351  1  0.74712634  0.38383959  0.23826497  1
  O  O352  1  0.74624175  0.38105831  0.74464138  1
  O  O353  1  0.74920715  0.88469066  0.24313005  1
  O  O354  1  0.74737416  0.88212357  0.74318728  1
  O  O355  1  0.25849011  0.12175739  0.25767695  1
  O  O356  1  0.25450539  0.11554800  0.75675648  1
  O  O357  1  0.25746363  0.62028244  0.25526861  1
  O  O358  1  0.25303681  0.61434704  0.76100502  1
  O  O359  1  0.75504966  0.11058343  0.24889210  1
  O  O360  1  0.74702030  0.12034891  0.76149051  1
  O  O361  1  0.75957759  0.61646606  0.24292258  1
  O  O362  1  0.74759477  0.61534770  0.75654819  1
  O  O363  1  0.37374638  0.12568860  0.36865551  1
  O  O364  1  0.36857992  0.12053932  0.87042237  1
  O  O365  1  0.36439287  0.62884466  0.36917864  1
  O  O366  1  0.36780348  0.61337522  0.87344006  1
  O  O367  1  0.86839252  0.12523266  0.36648691  1
  O  O368  1  0.85835565  0.12308224  0.87537181  1
  O  O369  1  0.87913714  0.62680167  0.36109501  1
  O  O370  1  0.86050775  0.62446302  0.87846794  1
  O  O371  1  0.13148435  0.38650009  0.13066349  1
  O  O372  1  0.10014928  0.37959956  0.62859354  1
  O  O373  1  0.12949415  0.88851161  0.11867032  1
  O  O374  1  0.12477992  0.88828892  0.61865280  1
  O  O375  1  0.62898548  0.38460148  0.12731076  1
  O  O376  1  0.63333591  0.38395544  0.63098670  1
  O  O377  1  0.63438810  0.87657035  0.13336027  1
  O  O378  1  0.62967683  0.88313500  0.62480785  1
  O  O379  1  0.12771222  0.26686567  0.23643688  1
  O  O380  1  0.11379123  0.24011095  0.76218319  1
  O  O381  1  0.12008654  0.74518482  0.26106996  1
  O  O382  1  0.11482711  0.74920605  0.75840371  1
  O  O383  1  0.62584881  0.25051214  0.26346384  1
  O  O384  1  0.61659352  0.26514777  0.74387258  1
  O  O385  1  0.62196804  0.75350711  0.25724587  1
  O  O386  1  0.61526764  0.74968339  0.75371658  1
  O  O387  1  0.37218318  0.23885680  0.24059254  1
  O  O388  1  0.37943198  0.24688082  0.74531092  1
  O  O389  1  0.38379116  0.73688227  0.25056166  1
  O  O390  1  0.38239865  0.74632303  0.74265321  1
  O  O391  1  0.86834581  0.23313212  0.24424221  1
  O  O392  1  0.89104000  0.24618989  0.75424783  1
  O  O393  1  0.88063449  0.74506179  0.24413910  1
  O  O394  1  0.88532130  0.75466125  0.73791152  1
  O  O395  1  0.38111366  0.48885605  0.50617119  1
  O  O396  1  0.36908840  0.48773033  0.99245141  1
  O  O397  1  0.37863858  0.98997968  0.50115263  1
  O  O398  1  0.38875838  1.00736867  0.99298309  1
  O  O399  1  0.88291438  0.49325035  0.49311976  1
  O  O400  1  0.89009301  0.49899820  1.00306245  1
  O  O401  1  0.88603504  0.99097379  0.50570428  1
  O  O402  1  0.87443417  0.98851881  0.99763961  1
  O  O403  1  0.12432381  0.01390241  0.00640356  1
  O  O404  1  0.11422849  0.00650181  0.50717940  1
  O  O405  1  0.11424592  0.49748241  0.00893145  1
  O  O406  1  0.11891499  0.51362516  0.49316860  1
  O  O407  1  0.61279943  0.00970234  -0.00019105  1
  O  O408  1  0.62161386  0.00774161  0.50889969  1
  O  O409  1  0.62913579  0.49988273  0.01304773  1
  O  O410  1  0.61959779  0.50176722  0.50591633  1
  O  O411  1  0.37407858  0.37152038  0.11948707  1
  O  O412  1  0.37580885  0.36694469  0.61969735  1
  O  O413  1  0.37066894  0.86762370  0.12785940  1
  O  O414  1  0.37421135  0.86475250  0.61463158  1
  O  O415  1  0.86704119  0.36555014  0.12608442  1
  O  O416  1  0.87262722  0.38191605  0.61410640  1
  O  O417  1  0.87004845  0.87088111  0.11867274  1
  O  O418  1  0.86978014  0.86782630  0.61538588  1
  O  O419  1  0.13290877  0.11779822  0.38470950  1
  O  O420  1  0.13098086  0.13370266  0.88622998  1
  O  O421  1  0.13718613  0.63299455  0.37876026  1
  O  O422  1  0.13190610  0.63513378  0.87220430  1
  O  O423  1  0.61404729  0.13978225  0.38335918  1
  O  O424  1  0.63694499  0.12707820  0.88003396  1
  O  O425  1  0.62004590  0.63205613  0.38298225  1
  O  O426  1  0.63886560  0.63725317  0.87384071  1
