# generated using pymatgen
data_V85Zn86O256
_symmetry_space_group_name_H-M   'P 1'
_cell_length_a   16.91555197
_cell_length_b   16.91474442
_cell_length_c   16.90893191
_cell_angle_alpha   90.01918039
_cell_angle_beta   89.98042380
_cell_angle_gamma   90.01698198
_symmetry_Int_Tables_number   1
_chemical_formula_structural   V85Zn86O256
_chemical_formula_sum   'V85 Zn86 O256'
_cell_volume   4838.02068129
_cell_formula_units_Z   1
loop_
 _symmetry_equiv_pos_site_id
 _symmetry_equiv_pos_as_xyz
  1  'x, y, z'
loop_
 _atom_site_type_symbol
 _atom_site_label
 _atom_site_symmetry_multiplicity
 _atom_site_fract_x
 _atom_site_fract_y
 _atom_site_fract_z
 _atom_site_occupancy
  V  V0  1  0.00699336  0.24996317  0.25558617  1
  V  V1  1  0.12637978  0.25376248  0.87119014  1
  V  V2  1  0.61822426  0.00146340  0.12095723  1
  V  V3  1  0.01039524  -0.00089168  0.49706251  1
  V  V4  1  -0.00159732  0.75013045  0.24812534  1
  V  V5  1  0.62180576  0.24892957  0.37728291  1
  V  V6  1  0.13411358  0.75245042  0.87795706  1
  V  V7  1  0.38585479  0.49934893  0.38524130  1
  V  V8  1  0.37754804  0.87119995  -0.00200003  1
  V  V9  1  0.86590181  0.49656366  0.38158982  1
  V  V10  1  0.25756558  0.75541355  0.50155025  1
  V  V11  1  0.87064763  0.12838373  0.25520969  1
  V  V12  1  0.63153377  0.74772202  0.37528342  1
  V  V13  1  0.38440715  0.36817381  0.49739571  1
  V  V14  1  0.87568015  0.00339254  0.38093352  1
  V  V15  1  0.25026155  -0.00149333  0.25131247  1
  V  V16  1  0.49253687  -0.00283369  0.50136167  1
  V  V17  1  0.62925977  0.73772626  0.86890452  1
  V  V18  1  0.00486485  0.37352840  0.37843705  1
  V  V19  1  0.87322498  0.00211545  0.87488144  1
  V  V20  1  0.25290335  0.62403296  0.87510343  1
  V  V21  1  0.12602139  0.49841714  0.63684707  1
  V  V22  1  0.61836693  0.50039612  0.61877484  1
  V  V23  1  0.37802485  0.62126073  0.23998872  1
  V  V24  1  0.38266631  0.25033094  0.62870130  1
  V  V25  1  0.12593721  0.75464825  0.37883337  1
  V  V26  1  0.74659254  0.00591045  0.25756323  1
  V  V27  1  0.87524144  0.37603068  -0.00506690  1
  V  V28  1  0.24652991  0.49834909  0.25417236  1
  V  V29  1  -0.00186484  0.75179835  0.74754173  1
  V  V30  1  0.87288415  0.12532389  0.74733444  1
  V  V31  1  0.62123012  0.24895158  0.86829845  1
  V  V32  1  0.00232829  0.87658268  0.87485009  1
  V  V33  1  0.37548805  0.12360711  0.25209035  1
  V  V34  1  0.37263592  0.37511680  -0.00489841  1
  V  V35  1  0.11923554  0.87768049  0.25030730  1
  V  V36  1  0.37358279  0.75655991  0.62464061  1
  V  V37  1  0.87606758  0.87637052  0.00054528  1
  V  V38  1  0.25177276  0.86668060  0.12044871  1
  V  V39  1  0.24544176  0.37404807  0.12363258  1
  V  V40  1  0.24411344  0.11550890  0.87258170  1
  V  V41  1  0.63477468  0.62427016  0.49562971  1
  V  V42  1  0.00539872  0.12378423  0.12124860  1
  V  V43  1  0.49877611  0.62569984  0.61811521  1
  V  V44  1  0.12907477  0.14001026  0.49652939  1
  V  V45  1  0.62209200  0.87655601  0.25018280  1
  V  V46  1  0.87349464  0.24970687  0.12515919  1
  V  V47  1  0.37952717  -0.00056953  0.87523636  1
  V  V48  1  0.25119082  0.88936760  0.62489039  1
  V  V49  1  0.50069189  0.74480573  0.24137832  1
  V  V50  1  0.62899590  0.12029488  0.49798440  1
  V  V51  1  0.74988342  0.87740540  0.12301290  1
  V  V52  1  0.75252458  0.37579715  0.61958160  1
  V  V53  1  0.74815013  0.38424368  0.12812856  1
  V  V54  1  0.77066889  0.86839661  0.62232292  1
  V  V55  1  0.74366430  0.25019468  -0.00067415  1
  V  V56  1  0.12605718  0.62741932  0.00279501  1
  V  V57  1  0.62541799  -0.01253150  0.62886906  1
  V  V58  1  0.51215606  0.87948165  0.87679060  1
  V  V59  1  0.87538050  0.25273734  0.61993177  1
  V  V60  1  0.00750612  0.11969147  0.62484074  1
  V  V61  1  0.75371707  0.24653773  0.49308810  1
  V  V62  1  0.74794872  0.50913519  0.75173925  1
  V  V63  1  0.24605131  0.13867428  0.37494167  1
  V  V64  1  0.50492045  0.75632748  0.74777069  1
  V  V65  1  0.24219014  0.24114752  -0.00120324  1
  V  V66  1  0.49916106  0.37632268  0.87138376  1
  V  V67  1  0.75189457  0.74233488  -0.00546815  1
  V  V68  1  0.37449413  0.24686867  0.12438021  1
  V  V69  1  0.25078508  0.62440265  0.37758541  1
  V  V70  1  0.61725641  0.12384946  -0.00246133  1
  V  V71  1  0.87336592  0.51043853  0.87355469  1
  V  V72  1  -0.00570635  0.62642999  0.62728118  1
  V  V73  1  0.13275494  0.88893566  0.74861083  1
  V  V74  1  -0.05752564  0.83307724  0.43303680  1
  V  V75  1  0.61967020  0.61995973  0.01386825  1
  V  V76  1  0.62367081  0.38012923  0.25387220  1
  V  V77  1  0.86748044  0.62250398  0.25095118  1
  V  V78  1  0.00483270  0.25751379  0.74769923  1
  V  V79  1  0.24454278  0.36501485  0.62329918  1
  V  V80  1  0.37738470  0.12520083  0.75102216  1
  V  V81  1  0.49858214  0.25300927  0.25505542  1
  V  V82  1  0.00198668  0.49312103  0.50223355  1
  V  V83  1  0.49115183  0.87293173  0.37742453  1
  V  V84  1  0.62037257  0.37164993  0.74579776  1
  Zn  Zn85  1  0.00383377  0.37880006  0.87006157  1
  Zn  Zn86  1  -0.00020176  0.62098786  0.12580879  1
  Zn  Zn87  1  0.74632898  -0.00605090  0.74956291  1
  Zn  Zn88  1  0.87590517  0.74794673  0.12303157  1
  Zn  Zn89  1  0.49526097  0.50899172  0.01345105  1
  Zn  Zn90  1  0.12154724  0.49917565  0.12500624  1
  Zn  Zn91  1  0.76419603  0.75264906  0.49823218  1
  Zn  Zn92  1  0.25282645  0.49543492  0.75081223  1
  Zn  Zn93  1  0.37082306  -0.00262428  0.38023443  1
  Zn  Zn94  1  0.12818428  0.62349642  0.50466757  1
  Zn  Zn95  1  0.00391299  0.00791362  -0.00246830  1
  Zn  Zn96  1  0.13019240  0.00248586  0.11631539  1
  Zn  Zn97  1  0.49853671  0.12556766  0.12218043  1
  Zn  Zn98  1  0.37666789  0.50154550  0.87160330  1
  Zn  Zn99  1  0.00048413  0.50021866  0.00098968  1
  Zn  Zn100  1  0.37614209  0.74116047  0.11522962  1
  Zn  Zn101  1  0.12741707  0.37138753  0.25724377  1
  Zn  Zn102  1  0.74406048  0.50612426  0.25247195  1
  Zn  Zn103  1  0.37484322  0.62454353  0.74934154  1
  Zn  Zn104  1  0.86832318  0.63547838  0.74981904  1
  Zn  Zn105  1  0.50412746  0.12681391  0.62897159  1
  Zn  Zn106  1  0.74878319  0.12496837  0.87289597  1
  Zn  Zn107  1  0.18692340  0.18706368  0.18958171  1
  Zn  Zn108  1  0.19094424  0.18464554  0.68783990  1
  Zn  Zn109  1  0.18813927  0.68747087  0.18928870  1
  Zn  Zn110  1  0.18460889  0.68883627  0.69090924  1
  Zn  Zn111  1  0.68568697  0.19034270  0.18588783  1
  Zn  Zn112  1  0.68776852  0.18456813  0.68311888  1
  Zn  Zn113  1  0.69019645  0.69071054  0.18457614  1
  Zn  Zn114  1  0.68778519  0.69304873  0.68115099  1
  Zn  Zn115  1  0.31483131  0.31518884  0.31464304  1
  Zn  Zn116  1  0.31008505  0.30980909  0.80727813  1
  Zn  Zn117  1  0.31265591  0.81003252  0.30802382  1
  Zn  Zn118  1  0.31519151  0.81340090  0.81069382  1
  Zn  Zn119  1  0.81559395  0.31651162  0.31492883  1
  Zn  Zn120  1  0.80954179  0.31596698  0.80912290  1
  Zn  Zn121  1  0.80738646  0.81235379  0.30621891  1
  Zn  Zn122  1  0.80956946  0.81628015  0.80911071  1
  Zn  Zn123  1  0.18912753  0.43427580  0.44456851  1
  Zn  Zn124  1  0.18571862  0.43942460  0.93598904  1
  Zn  Zn125  1  0.18861415  0.93806738  0.43764605  1
  Zn  Zn126  1  0.18891581  0.93957845  0.94118044  1
  Zn  Zn127  1  0.68287526  0.43290327  0.43953727  1
  Zn  Zn128  1  0.68799858  0.43961679  0.93540914  1
  Zn  Zn129  1  0.68694589  0.93228298  0.44015839  1
  Zn  Zn130  1  0.68917652  0.93727373  0.93706630  1
  Zn  Zn131  1  0.31438058  0.05739227  0.06000301  1
  Zn  Zn132  1  0.31145667  0.06864304  0.56104386  1
  Zn  Zn133  1  0.30573072  0.55905875  0.05823862  1
  Zn  Zn134  1  0.31120126  0.56246942  0.56403858  1
  Zn  Zn135  1  0.80955066  0.06468789  0.06451113  1
  Zn  Zn136  1  0.81224865  0.06042049  0.56272228  1
  Zn  Zn137  1  0.81332312  0.56385241  0.06318979  1
  Zn  Zn138  1  0.81155823  0.56263738  0.56268812  1
  Zn  Zn139  1  0.43351204  0.43748677  0.19107680  1
  Zn  Zn140  1  0.43523558  0.43905757  0.68626459  1
  Zn  Zn141  1  0.43650536  0.93614205  0.18719708  1
  Zn  Zn142  1  0.43656591  0.93884716  0.69190794  1
  Zn  Zn143  1  0.93728910  0.43799574  0.18877465  1
  Zn  Zn144  1  0.93385376  0.43927342  0.68740783  1
  Zn  Zn145  1  0.93588727  0.93993098  0.19034625  1
  Zn  Zn146  1  0.94204938  0.93978792  0.68806593  1
  Zn  Zn147  1  0.06109581  0.06216665  0.31423540  1
  Zn  Zn148  1  0.06055059  0.06747269  0.81568991  1
  Zn  Zn149  1  0.06152381  0.56436583  0.31467448  1
  Zn  Zn150  1  0.06090971  0.56444283  0.81553857  1
  Zn  Zn151  1  0.56083990  0.06528897  0.31608427  1
  Zn  Zn152  1  0.55972290  0.06284081  0.80969526  1
  Zn  Zn153  1  0.56123208  0.56433987  0.31354071  1
  Zn  Zn154  1  0.55933290  0.56232710  0.80946741  1
  Zn  Zn155  1  0.43770221  0.18444583  0.43972625  1
  Zn  Zn156  1  0.43724609  0.19218856  0.93396850  1
  Zn  Zn157  1  0.44021848  0.68680774  0.43584383  1
  Zn  Zn158  1  0.44081420  0.68984810  0.93624606  1
  Zn  Zn159  1  0.93884209  0.18642991  0.43778509  1
  Zn  Zn160  1  0.93631668  0.19158694  0.93560795  1
  Zn  Zn161  1  0.94063088  0.66707265  0.43554867  1
  Zn  Zn162  1  0.94285424  0.68967617  0.93547988  1
  Zn  Zn163  1  0.06179262  0.30978915  0.06198650  1
  Zn  Zn164  1  0.06184020  0.31346101  0.56317469  1
  Zn  Zn165  1  0.06370350  0.81350348  0.06268950  1
  Zn  Zn166  1  0.07185747  0.80984559  0.57053229  1
  Zn  Zn167  1  0.54287666  0.34925895  0.08389116  1
  Zn  Zn168  1  0.56089806  0.31198209  0.55952713  1
  Zn  Zn169  1  0.56308131  0.81183008  0.05753579  1
  Zn  Zn170  1  0.56365541  0.81208151  0.55804827  1
  O  O171  1  0.10877355  0.12444983  0.13049751  1
  O  O172  1  0.11936007  0.12887953  0.61227044  1
  O  O173  1  0.12622500  0.62558740  0.11617052  1
  O  O174  1  0.11614846  0.61587328  0.62670379  1
  O  O175  1  0.62384051  0.11949805  0.11579534  1
  O  O176  1  0.62429817  0.11599367  0.61396137  1
  O  O177  1  0.62571157  0.62728829  0.11317510  1
  O  O178  1  0.61946245  0.61907807  0.61706792  1
  O  O179  1  0.36906545  0.38528723  0.38852878  1
  O  O180  1  0.38112075  0.37202345  0.87839732  1
  O  O181  1  0.38698059  0.87504822  0.36946201  1
  O  O182  1  0.38217806  0.88032715  0.87906508  1
  O  O183  1  0.88721489  0.38988314  0.37129643  1
  O  O184  1  0.87449718  0.38148938  0.88143486  1
  O  O185  1  0.87692196  0.88460014  0.36794867  1
  O  O186  1  0.87922031  0.88384529  0.88071345  1
  O  O187  1  0.25035790  0.00426628  0.36377242  1
  O  O188  1  0.25763475  0.01083046  0.87784167  1
  O  O189  1  0.25506768  0.50394365  0.37063796  1
  O  O190  1  0.25115991  0.50860695  0.87100868  1
  O  O191  1  0.75531012  -0.00579313  0.36451941  1
  O  O192  1  0.76052620  0.00131124  0.87059494  1
  O  O193  1  0.76297301  0.49106117  0.37648695  1
  O  O194  1  0.75769696  0.49427378  0.86156580  1
  O  O195  1  0.24834353  0.48968629  0.13418537  1
  O  O196  1  0.24101136  0.49402847  0.62689661  1
  O  O197  1  0.25013476  0.99252839  0.13679593  1
  O  O198  1  0.25671553  0.98859242  0.62160097  1
  O  O199  1  0.75236332  0.48765734  0.12832764  1
  O  O200  1  0.74193416  0.49232413  0.62836704  1
  O  O201  1  0.74196189  0.99692664  0.13546342  1
  O  O202  1  0.74042669  0.99060168  0.62280147  1
  O  O203  1  0.00160950  0.36676300  0.25788259  1
  O  O204  1  -0.00520131  0.36079487  0.74828494  1
  O  O205  1  0.01105645  0.86911742  0.24604724  1
  O  O206  1  0.01123250  0.87198930  0.75400312  1
  O  O207  1  0.50715909  0.36070923  0.25306975  1
  O  O208  1  0.51266266  0.37839559  0.75324829  1
  O  O209  1  0.50501293  0.86844225  0.25622997  1
  O  O210  1  0.49724494  0.86367347  0.75888795  1
  O  O211  1  0.49449311  0.13481689  0.24875406  1
  O  O212  1  0.48462001  0.12206396  0.74700594  1
  O  O213  1  0.49078493  0.63142848  0.25189123  1
  O  O214  1  0.50140207  0.63641002  0.73692971  1
  O  O215  1  0.99208517  0.13124270  0.24435040  1
  O  O216  1  0.99241420  0.13165387  0.74136024  1
  O  O217  1  0.99147090  0.63517380  0.25255319  1
  O  O218  1  0.99924787  0.63450767  0.74466683  1
  O  O219  1  0.36386537  0.25747602  0.00178290  1
  O  O220  1  0.37628200  0.26199590  0.50376604  1
  O  O221  1  0.37923800  0.76365847  -0.00010124  1
  O  O222  1  0.36525092  0.74865684  0.50477036  1
  O  O223  1  0.86249015  0.25660052  0.00044564  1
  O  O224  1  0.86900443  0.24305439  0.51139461  1
  O  O225  1  0.86846022  0.75684816  -0.00253683  1
  O  O226  1  0.88361779  0.75775710  0.47940942  1
  O  O227  1  0.12124321  0.23879898  0.49752982  1
  O  O228  1  0.13561679  0.24986395  0.99354287  1
  O  O229  1  0.13575643  0.74874536  0.49389389  1
  O  O230  1  0.12233138  0.74493264  0.98921795  1
  O  O231  1  0.63104039  0.24272651  0.49580229  1
  O  O232  1  0.63509435  0.24466016  0.99072097  1
  O  O233  1  0.62569450  0.74252003  0.49025354  1
  O  O234  1  0.63184296  0.74011726  0.99292620  1
  O  O235  1  0.49051012  0.25160409  0.13414728  1
  O  O236  1  0.48799964  0.24698245  0.62049648  1
  O  O237  1  0.49805010  0.75662936  0.13813974  1
  O  O238  1  0.49408308  0.74889490  0.62904023  1
  O  O239  1  0.99353831  0.24205440  0.13295811  1
  O  O240  1  0.99381539  0.24210000  0.62831480  1
  O  O241  1  0.99848507  0.74894962  0.13807663  1
  O  O242  1  1.00686342  0.73953654  0.63393053  1
  O  O243  1  -0.00870135  0.26033837  0.36783512  1
  O  O244  1  0.00751319  0.24876109  0.86495195  1
  O  O245  1  0.00500605  0.75709807  0.37413121  1
  O  O246  1  0.01167753  0.75930116  0.86926818  1
  O  O247  1  0.50982699  0.24387813  0.36960518  1
  O  O248  1  0.51351341  0.25896543  0.87297495  1
  O  O249  1  0.50710839  0.75588808  0.36604222  1
  O  O250  1  0.50959542  0.75591120  0.86591018  1
  O  O251  1  0.23642501  0.12181673  0.49152934  1
  O  O252  1  0.25696979  0.13264461  0.98994566  1
  O  O253  1  0.24866971  0.63368793  0.49448979  1
  O  O254  1  0.23925375  0.62301905  0.98840087  1
  O  O255  1  0.74252918  0.13411235  0.50569475  1
  O  O256  1  0.74229208  0.13424365  0.99703630  1
  O  O257  1  0.73961372  0.63262375  0.50565016  1
  O  O258  1  0.74327362  0.63732734  1.00387191  1
  O  O259  1  0.25371334  0.36772695  0.00522822  1
  O  O260  1  0.26283871  0.38013214  0.51546244  1
  O  O261  1  0.26020075  0.87801418  0.01055744  1
  O  O262  1  0.24444054  0.86730317  0.51088417  1
  O  O263  1  0.75528229  0.37005327  0.00640536  1
  O  O264  1  0.74403407  0.36495869  0.51304982  1
  O  O265  1  0.76042913  0.86889873  0.00223051  1
  O  O266  1  0.74851080  0.87187709  0.51493660  1
  O  O267  1  0.13720017  0.50043638  0.25090033  1
  O  O268  1  0.12302425  0.49913700  0.74004885  1
  O  O269  1  0.13016906  0.99207080  0.24777095  1
  O  O270  1  0.12139525  0.98751980  0.75613943  1
  O  O271  1  0.62598413  0.48485353  0.26128920  1
  O  O272  1  0.63078012  0.49436146  0.74186196  1
  O  O273  1  0.63093064  0.99893725  0.24632289  1
  O  O274  1  0.62722558  1.00730112  0.73239341  1
  O  O275  1  0.36755284  0.00568488  0.25251259  1
  O  O276  1  0.37561060  0.00574606  0.76436245  1
  O  O277  1  0.36568268  0.50181658  0.26008614  1
  O  O278  1  0.37382354  0.50677267  0.75251617  1
  O  O279  1  0.86793045  0.00780159  0.25891444  1
  O  O280  1  0.87610869  0.00874274  0.75695506  1
  O  O281  1  0.87194234  0.50625346  0.26007753  1
  O  O282  1  0.86546318  0.50123898  0.75693714  1
  O  O283  1  0.11102653  0.38078786  0.37652601  1
  O  O284  1  0.12345185  0.35992912  0.87808932  1
  O  O285  1  0.13151636  0.86308898  0.36572573  1
  O  O286  1  0.12537963  0.87023114  0.86646798  1
  O  O287  1  0.62907034  0.35864297  0.36957763  1
  O  O288  1  0.61974326  0.36941099  0.86687334  1
  O  O289  1  0.61583103  0.86872524  0.36809615  1
  O  O290  1  0.61643040  0.86648589  0.88117847  1
  O  O291  1  0.37612616  0.12896745  0.13155861  1
  O  O292  1  0.37378475  0.13343159  0.63189812  1
  O  O293  1  0.36932771  0.62067851  0.13540605  1
  O  O294  1  0.38217403  0.63658069  0.62271653  1
  O  O295  1  0.88009434  0.12988012  0.13628254  1
  O  O296  1  0.88269256  0.13077871  0.63040080  1
  O  O297  1  0.87849816  0.62746510  0.13431026  1
  O  O298  1  0.88968567  0.61821657  0.62807055  1
  O  O299  1  0.25265346  0.25211255  0.11786560  1
  O  O300  1  0.25822148  0.26008145  0.62439155  1
  O  O301  1  0.25695269  0.76304105  0.13498972  1
  O  O302  1  0.25629103  0.75448306  0.61940260  1
  O  O303  1  0.75605269  0.25442667  0.11591914  1
  O  O304  1  0.75715527  0.25585014  0.61801659  1
  O  O305  1  0.75276723  0.76052319  0.11452503  1
  O  O306  1  0.75592665  0.76279519  0.62087691  1
  O  O307  1  0.24799542  0.23836094  0.36660462  1
  O  O308  1  0.24440009  0.24286183  0.88025580  1
  O  O309  1  0.24577123  0.74658397  0.38141314  1
  O  O310  1  0.24002974  0.74529863  0.86973824  1
  O  O311  1  0.74815172  0.25400162  0.38837466  1
  O  O312  1  0.73991948  0.25139220  0.88013990  1
  O  O313  1  0.73552574  0.75687268  0.37613626  1
  O  O314  1  0.74114461  0.75686791  0.88199297  1
  O  O315  1  -0.01030381  0.12929454  0.01801105  1
  O  O316  1  0.01075875  0.12053601  0.50437011  1
  O  O317  1  0.01288897  0.62568631  0.00103635  1
  O  O318  1  0.00629310  0.61204779  0.50926459  1
  O  O319  1  0.51337293  0.13267766  0.00017448  1
  O  O320  1  0.50880333  0.11463884  0.50271826  1
  O  O321  1  0.51324070  0.62491223  0.00067405  1
  O  O322  1  0.50974026  0.63243811  0.51233545  1
  O  O323  1  0.48392621  0.37826397  0.50346779  1
  O  O324  1  0.48580177  0.36429257  0.98507645  1
  O  O325  1  0.50469633  0.88334934  0.48946149  1
  O  O326  1  0.49336846  0.87281371  0.98864679  1
  O  O327  1  0.99905899  0.38480740  0.49679094  1
  O  O328  1  0.98426870  0.37046286  0.99874315  1
  O  O329  1  1.00576786  0.88121237  0.50402453  1
  O  O330  1  0.98734796  0.87321636  0.99473995  1
  O  O331  1  0.48391599  0.49997631  0.37255903  1
  O  O332  1  0.50080037  0.48659728  0.87926937  1
  O  O333  1  0.49930246  0.99128173  0.38285700  1
  O  O334  1  0.49569477  0.98923115  0.87141546  1
  O  O335  1  0.99446514  0.49596890  0.38414565  1
  O  O336  1  0.99012948  0.49581531  0.87695049  1
  O  O337  1  0.99081122  0.99854285  0.38278380  1
  O  O338  1  0.98848175  0.99650156  0.87582816  1
  O  O339  1  -0.00326390  0.01637924  0.12753587  1
  O  O340  1  -0.00468181  0.01349299  0.61524812  1
  O  O341  1  0.00332810  0.50131774  0.12162839  1
  O  O342  1  0.00585717  0.50159997  0.62064738  1
  O  O343  1  0.51459620  0.00230468  0.13102487  1
  O  O344  1  0.50982904  -0.00249134  0.61903866  1
  O  O345  1  0.50845268  0.45849612  0.11353746  1
  O  O346  1  0.51077649  0.50971059  0.62858795  1
  O  O347  1  0.24860736  0.38084512  0.24390204  1
  O  O348  1  0.25685279  0.37702101  0.72957224  1
  O  O349  1  0.24229765  0.88123200  0.24571740  1
  O  O350  1  0.23946433  0.87254374  0.74349260  1
  O  O351  1  0.74377077  0.37499976  0.24447825  1
  O  O352  1  0.73924748  0.38214276  0.73834630  1
  O  O353  1  0.74153569  0.88369259  0.24260622  1
  O  O354  1  0.75469568  0.87828008  0.73055978  1
  O  O355  1  0.25292767  0.11731836  0.25533727  1
  O  O356  1  0.26180389  0.12853576  0.76095013  1
  O  O357  1  0.25779260  0.61801677  0.25718812  1
  O  O358  1  0.24941976  0.62515940  0.76273006  1
  O  O359  1  0.75743061  0.11801556  0.24580537  1
  O  O360  1  0.76314830  0.12292651  0.74861750  1
  O  O361  1  0.76166793  0.62571813  0.24757925  1
  O  O362  1  0.75081810  0.61350115  0.73951764  1
  O  O363  1  0.36519377  0.12256448  0.36998854  1
  O  O364  1  0.37141770  0.11930968  0.87067984  1
  O  O365  1  0.37141500  0.61354701  0.37043861  1
  O  O366  1  0.36662688  0.62524452  0.87645301  1
  O  O367  1  0.87776984  0.11892787  0.36351539  1
  O  O368  1  0.87441258  0.11969517  0.86671928  1
  O  O369  1  0.87607465  0.60706931  0.36611693  1
  O  O370  1  0.87744296  0.61427287  0.87336595  1
  O  O371  1  0.13579975  0.37261799  0.12722557  1
  O  O372  1  0.13768566  0.37917698  0.62012569  1
  O  O373  1  0.13383695  0.87430958  0.13401059  1
  O  O374  1  0.13500189  0.87552480  0.64020129  1
  O  O375  1  0.64002010  0.35741955  0.14274912  1
  O  O376  1  0.62757851  0.38130192  0.62819157  1
  O  O377  1  0.62912564  0.88278495  0.12778800  1
  O  O378  1  0.62691378  0.88599462  0.62265594  1
  O  O379  1  0.11090821  0.24984349  0.24990715  1
  O  O380  1  0.11596160  0.24441871  0.75558375  1
  O  O381  1  0.11622368  0.75453925  0.25784713  1
  O  O382  1  0.11659916  0.75932760  0.75817077  1
  O  O383  1  0.61875006  0.25073475  0.26032369  1
  O  O384  1  0.63247732  0.25843622  0.75513715  1
  O  O385  1  0.61909872  0.75344671  0.25489743  1
  O  O386  1  0.61855700  0.74711644  0.75615361  1
  O  O387  1  0.38113045  0.24554989  0.24756355  1
  O  O388  1  0.37392352  0.24133039  0.74004119  1
  O  O389  1  0.38299982  0.73694879  0.24980899  1
  O  O390  1  0.38387064  0.74638332  0.74148429  1
  O  O391  1  0.88068165  0.24391877  0.24708634  1
  O  O392  1  0.87899135  0.24369444  0.74060556  1
  O  O393  1  0.88285670  0.74346608  0.25206886  1
  O  O394  1  0.89228619  0.75200673  0.75955917  1
  O  O395  1  0.37321186  0.49453575  0.49021433  1
  O  O396  1  0.37442809  0.48612970  0.99673491  1
  O  O397  1  0.38841057  1.00506019  0.50008340  1
  O  O398  1  0.37421888  0.98960662  0.98627942  1
  O  O399  1  0.88196553  0.50489618  0.48862912  1
  O  O400  1  0.87245927  0.49291497  0.99105862  1
  O  O401  1  0.88353616  1.00827438  0.48699877  1
  O  O402  1  0.87546143  0.99463098  0.99330394  1
  O  O403  1  0.11588030  -0.00567767  0.00414396  1
  O  O404  1  0.11350675  0.00691647  0.49465267  1
  O  O405  1  0.12256354  0.51021413  0.00162691  1
  O  O406  1  0.11724224  0.50083455  0.51096226  1
  O  O407  1  0.63357090  0.01064583  0.00871826  1
  O  O408  1  0.61920088  0.00436016  0.50752957  1
  O  O409  1  0.62901381  0.51845930  -0.00577079  1
  O  O410  1  0.62846035  0.50783622  0.50773696  1
  O  O411  1  0.36065272  0.36624410  0.11791366  1
  O  O412  1  0.37081507  0.36929991  0.61588560  1
  O  O413  1  0.36944890  0.87571882  0.11585314  1
  O  O414  1  0.36754095  0.86409130  0.63154877  1
  O  O415  1  0.86713546  0.36831236  0.11847551  1
  O  O416  1  0.86490071  0.36561654  0.62877040  1
  O  O417  1  0.87034913  0.87564970  0.11698103  1
  O  O418  1  0.86961828  0.88082377  0.62053785  1
  O  O419  1  0.13005280  0.12263094  0.38666069  1
  O  O420  1  0.13483349  0.13516990  0.87134677  1
  O  O421  1  0.13069292  0.63833377  0.37596109  1
  O  O422  1  0.13048857  0.63401671  0.88064605  1
  O  O423  1  0.62535606  0.13240897  0.38793769  1
  O  O424  1  0.62629302  0.13139444  0.87802905  1
  O  O425  1  0.62006722  0.63327380  0.38400326  1
  O  O426  1  0.62167805  0.63534046  0.87929120  1
