# generated using pymatgen
data_V85Zn86O256
_symmetry_space_group_name_H-M   'P 1'
_cell_length_a   16.95992865
_cell_length_b   16.96659840
_cell_length_c   16.95100314
_cell_angle_alpha   90.02702646
_cell_angle_beta   89.88880222
_cell_angle_gamma   89.97415614
_symmetry_Int_Tables_number   1
_chemical_formula_structural   V85Zn86O256
_chemical_formula_sum   'V85 Zn86 O256'
_cell_volume   4877.67988413
_cell_formula_units_Z   1
loop_
 _symmetry_equiv_pos_site_id
 _symmetry_equiv_pos_as_xyz
  1  'x, y, z'
loop_
 _atom_site_type_symbol
 _atom_site_label
 _atom_site_symmetry_multiplicity
 _atom_site_fract_x
 _atom_site_fract_y
 _atom_site_fract_z
 _atom_site_occupancy
  V  V0  1  0.86723580  0.51346486  0.87471745  1
  V  V1  1  0.12996948  0.00116358  0.62150147  1
  V  V2  1  -0.00567984  0.87326451  0.38076706  1
  V  V3  1  0.36738310  0.86377729  0.49283190  1
  V  V4  1  0.25321130  0.62789539  0.87354028  1
  V  V5  1  0.74819188  0.25023755  -0.00378741  1
  V  V6  1  0.00443911  0.36953808  0.37870007  1
  V  V7  1  0.11984186  0.12004837  -0.00400922  1
  V  V8  1  0.73116808  0.72879068  -0.00543331  1
  V  V9  1  0.24439937  0.26363554  0.00766946  1
  V  V10  1  0.12292214  0.37498431  0.74693610  1
  V  V11  1  0.37921298  0.87408955  -0.00272409  1
  V  V12  1  -0.00000502  0.62736257  0.12228293  1
  V  V13  1  0.74462597  0.25742426  0.50123008  1
  V  V14  1  0.60919960  0.24892003  0.87389099  1
  V  V15  1  -0.00611992  0.37812714  0.87106001  1
  V  V16  1  0.74269468  0.37605681  0.12711035  1
  V  V17  1  0.87322362  -0.00111604  0.87065945  1
  V  V18  1  0.25078299  0.49901850  0.74743910  1
  V  V19  1  0.26172796  0.01425114  0.25971139  1
  V  V20  1  0.13107316  0.75230711  0.37950114  1
  V  V21  1  -0.00330143  0.62776324  0.62691379  1
  V  V22  1  0.24774246  0.24925184  0.48802186  1
  V  V23  1  0.87654798  0.62442555  0.24985384  1
  V  V24  1  0.74716964  0.62474880  0.38249554  1
  V  V25  1  0.61570618  0.36629437  0.26817327  1
  V  V26  1  0.37629251  0.74678252  0.62636945  1
  V  V27  1  0.00147621  0.87905660  0.88966687  1
  V  V28  1  0.12675122  0.87550672  0.75123238  1
  V  V29  1  0.62601924  0.87747421  0.24487556  1
  V  V30  1  0.87442159  0.24882139  0.12391754  1
  V  V31  1  0.25174714  0.37387830  0.62372800  1
  V  V32  1  0.25513815  0.75015522  0.00007534  1
  V  V33  1  -0.00077567  0.12602256  0.62460389  1
  V  V34  1  0.87403526  0.12225739  0.25105893  1
  V  V35  1  0.50112764  0.87366820  0.37564119  1
  V  V36  1  -0.00361504  0.75293953  0.75383320  1
  V  V37  1  0.37743836  0.49509146  0.88024026  1
  V  V38  1  0.62452072  0.12610822  0.00767667  1
  V  V39  1  0.38023167  0.74550649  0.12655895  1
  V  V40  1  -0.00109043  -0.00211089  0.50012369  1
  V  V41  1  0.49944888  0.00447588  0.01005324  1
  V  V42  1  0.37365740  0.49910899  0.37249384  1
  V  V43  1  0.87203888  -0.00267452  0.38197211  1
  V  V44  1  0.62034048  0.37050571  0.74709990  1
  V  V45  1  0.75676816  0.88013538  0.62433270  1
  V  V46  1  0.50274693  0.12802776  0.63148675  1
  V  V47  1  0.50288059  0.88011894  0.86942793  1
  V  V48  1  0.62979905  0.12564026  0.49444644  1
  V  V49  1  0.75338594  -0.00562933  0.24197763  1
  V  V50  1  0.74527533  0.50354408  0.75194208  1
  V  V51  1  0.13054859  0.62987811  0.50367758  1
  V  V52  1  0.51002040  0.62796993  0.61155197  1
  V  V53  1  0.87841739  0.49842964  0.37644020  1
  V  V54  1  0.37462931  0.00354549  0.87355837  1
  V  V55  1  0.12646483  -0.00238595  0.12218033  1
  V  V56  1  0.00155255  0.50414886  -0.00086968  1
  V  V57  1  0.00170256  0.75313447  0.25022786  1
  V  V58  1  0.00398632  0.24833195  0.25583459  1
  V  V59  1  0.85447969  0.87854659  0.00563559  1
  V  V60  1  0.25466074  0.87514440  0.12842788  1
  V  V61  1  0.24670136  0.12882430  0.87390490  1
  V  V62  1  -0.00489102  0.24999666  0.74919082  1
  V  V63  1  0.74853864  0.12349603  0.86506078  1
  V  V64  1  0.50698108  0.49924666  0.48678892  1
  V  V65  1  0.63059917  0.49592969  0.61857655  1
  V  V66  1  0.25142044  0.00069023  0.74684414  1
  V  V67  1  0.12563177  0.12996025  0.48484339  1
  V  V68  1  0.62420557  0.74786637  0.38159925  1
  V  V69  1  0.87373227  0.37566345  0.51084912  1
  V  V70  1  0.62730048  0.00165529  0.62361489  1
  V  V71  1  0.62595454  0.87818214  0.74747219  1
  V  V72  1  0.87256898  0.37606053  -0.00156587  1
  V  V73  1  0.52596233  0.50119008  0.03076307  1
  V  V74  1  0.37991526  0.25177984  0.62802338  1
  V  V75  1  0.75320827  0.49408080  0.24658594  1
  V  V76  1  0.52999176  0.71207893  0.22290311  1
  V  V77  1  0.50178079  0.22270440  0.25455049  1
  V  V78  1  0.75769829  0.75615803  0.50014275  1
  V  V79  1  0.37690544  0.12962889  0.75005251  1
  V  V80  1  0.46919423  0.02185126  0.48682355  1
  V  V81  1  -0.00303854  0.11709729  0.11989965  1
  V  V82  1  0.36903779  0.62527516  0.25040590  1
  V  V83  1  0.51699346  0.72454236  0.77818836  1
  V  V84  1  0.38252983  0.37521203  0.49632693  1
  Zn  Zn85  1  0.00077519  0.50115462  0.50407933  1
  Zn  Zn86  1  0.86989703  0.25283307  0.62803020  1
  Zn  Zn87  1  0.37833793  0.37814888  0.01486349  1
  Zn  Zn88  1  0.14861932  0.45706766  0.12480238  1
  Zn  Zn89  1  0.87536051  0.75626931  0.62433004  1
  Zn  Zn90  1  0.12392330  0.50209896  0.62420465  1
  Zn  Zn91  1  0.37565048  0.62094236  0.74405742  1
  Zn  Zn92  1  0.62625912  0.00219819  0.12688315  1
  Zn  Zn93  1  0.24788433  0.47123012  0.25207394  1
  Zn  Zn94  1  0.24806910  0.62559685  0.38070499  1
  Zn  Zn95  1  0.12753108  0.75155612  0.87554438  1
  Zn  Zn96  1  0.49671570  0.37267950  0.87767747  1
  Zn  Zn97  1  0.12659118  0.87749553  0.25209698  1
  Zn  Zn98  1  0.16962997  0.30917311  0.31580021  1
  Zn  Zn99  1  0.74941227  0.12907780  0.37373583  1
  Zn  Zn100  1  0.38371863  0.24531967  0.13536090  1
  Zn  Zn101  1  0.11949258  0.24991089  0.87220055  1
  Zn  Zn102  1  0.87122199  0.12012731  0.74716833  1
  Zn  Zn103  1  0.86145848  0.63419577  0.75175070  1
  Zn  Zn104  1  0.12785363  0.62454034  -0.00028174  1
  Zn  Zn105  1  0.86783434  0.75759810  0.12391819  1
  Zn  Zn106  1  0.24889605  0.86629691  0.62202656  1
  Zn  Zn107  1  0.18763592  0.18295451  0.18452164  1
  Zn  Zn108  1  0.18718553  0.18916304  0.68238779  1
  Zn  Zn109  1  0.18457392  0.60836055  0.18869368  1
  Zn  Zn110  1  0.18655692  0.68826286  0.68937588  1
  Zn  Zn111  1  0.68701624  0.19109895  0.18983832  1
  Zn  Zn112  1  0.68713174  0.19325393  0.68570403  1
  Zn  Zn113  1  0.69798633  0.68810085  0.18195950  1
  Zn  Zn114  1  0.68616402  0.68798661  0.68399823  1
  Zn  Zn115  1  0.33767992  0.31050397  0.30624167  1
  Zn  Zn116  1  0.31203519  0.31065043  0.81454199  1
  Zn  Zn117  1  0.31426674  0.80966111  0.30715257  1
  Zn  Zn118  1  0.32195565  0.81134643  0.80598790  1
  Zn  Zn119  1  0.81722686  0.31082646  0.31806305  1
  Zn  Zn120  1  0.80533866  0.31726716  0.81003647  1
  Zn  Zn121  1  0.81275886  0.81324326  0.31294993  1
  Zn  Zn122  1  0.80706357  0.81254247  0.81802797  1
  Zn  Zn123  1  0.18979037  0.44385837  0.44298493  1
  Zn  Zn124  1  0.18106307  0.44135199  0.93014852  1
  Zn  Zn125  1  0.18783592  0.93563298  0.43642314  1
  Zn  Zn126  1  0.18982914  0.93801746  0.93826833  1
  Zn  Zn127  1  0.69155466  0.43751480  0.43668991  1
  Zn  Zn128  1  0.68500163  0.43792926  0.93587300  1
  Zn  Zn129  1  0.68705798  0.93910752  0.43858109  1
  Zn  Zn130  1  0.68481343  0.94168749  0.93207267  1
  Zn  Zn131  1  0.31200699  0.06722180  0.06692864  1
  Zn  Zn132  1  0.31503088  0.06763878  0.54761420  1
  Zn  Zn133  1  0.31789883  0.56439470  0.06290087  1
  Zn  Zn134  1  0.31457332  0.56282445  0.55986267  1
  Zn  Zn135  1  0.81106920  0.05996005  0.05575039  1
  Zn  Zn136  1  0.81109962  0.06359949  0.56374759  1
  Zn  Zn137  1  0.81321094  0.56396407  0.06399744  1
  Zn  Zn138  1  0.81275886  0.56513540  0.56391824  1
  Zn  Zn139  1  0.43567878  0.42978522  0.18823425  1
  Zn  Zn140  1  0.44301458  0.43980948  0.68551398  1
  Zn  Zn141  1  0.43784044  0.93776438  0.19069815  1
  Zn  Zn142  1  0.44025341  0.93895004  0.68080353  1
  Zn  Zn143  1  0.96903136  0.42101538  0.17340105  1
  Zn  Zn144  1  0.93443345  0.44414025  0.68966018  1
  Zn  Zn145  1  0.93838973  0.93651331  0.18662801  1
  Zn  Zn146  1  0.93983864  0.93803114  0.69122177  1
  Zn  Zn147  1  0.06311188  0.05701836  0.30699656  1
  Zn  Zn148  1  0.05845354  0.05853842  0.81098663  1
  Zn  Zn149  1  0.06365427  0.55960113  0.31534892  1
  Zn  Zn150  1  0.06422574  0.56631746  0.81240370  1
  Zn  Zn151  1  0.56580146  0.05717245  0.31817241  1
  Zn  Zn152  1  0.56417744  0.06243312  0.81219059  1
  Zn  Zn153  1  0.57208507  0.56132277  0.29226670  1
  Zn  Zn154  1  0.55794463  0.55653152  0.80680065  1
  Zn  Zn155  1  0.44107667  0.19111400  0.43500490  1
  Zn  Zn156  1  0.42174958  0.17928811  0.96803435  1
  Zn  Zn157  1  0.44022226  0.68609130  0.43277840  1
  Zn  Zn158  1  0.45595833  0.67413542  0.93550343  1
  Zn  Zn159  1  0.93301697  0.18761246  0.43989236  1
  Zn  Zn160  1  0.93546745  0.18593375  0.93516325  1
  Zn  Zn161  1  0.93854667  0.68721864  0.44028064  1
  Zn  Zn162  1  0.93232950  0.69498313  0.93813383  1
  Zn  Zn163  1  0.05858480  0.30515885  0.05720924  1
  Zn  Zn164  1  0.06285127  0.31176663  0.56181022  1
  Zn  Zn165  1  0.06738359  0.80762481  0.06533360  1
  Zn  Zn166  1  0.06083457  0.81380747  0.56348829  1
  Zn  Zn167  1  0.55829988  0.31502397  0.06881829  1
  Zn  Zn168  1  0.56354541  0.31381996  0.56143746  1
  Zn  Zn169  1  0.56822057  0.81600152  0.05763463  1
  Zn  Zn170  1  0.56320559  0.81509615  0.55791124  1
  O  O171  1  0.11718607  0.11722541  0.11564116  1
  O  O172  1  0.11436598  0.11845375  0.62056500  1
  O  O173  1  0.10496078  0.64048740  0.11594428  1
  O  O174  1  0.11480415  0.62931694  0.62068276  1
  O  O175  1  0.63341353  0.12459591  0.11061751  1
  O  O176  1  0.62033725  0.11991404  0.62293069  1
  O  O177  1  0.59828680  0.63648183  0.18824524  1
  O  O178  1  0.61420998  0.61807407  0.62140845  1
  O  O179  1  0.37829275  0.38887467  0.38407879  1
  O  O180  1  0.37440548  0.38710049  0.87244390  1
  O  O181  1  0.38104612  0.86382479  0.38693193  1
  O  O182  1  0.37583790  0.88886370  0.87693128  1
  O  O183  1  0.88130077  0.38298239  0.38767073  1
  O  O184  1  0.87761025  0.38393971  0.87846380  1
  O  O185  1  0.88564360  0.88274549  0.37191198  1
  O  O186  1  0.87969899  0.88147922  0.88479560  1
  O  O187  1  0.24412546  -0.00573507  0.35739505  1
  O  O188  1  0.25375427  0.01142387  0.86931659  1
  O  O189  1  0.26021494  0.50327003  0.37373915  1
  O  O190  1  0.25500270  0.50592074  0.86599414  1
  O  O191  1  0.75917277  0.00185461  0.36774037  1
  O  O192  1  0.75743822  0.01171948  0.87651940  1
  O  O193  1  0.76145364  0.50718479  0.37188378  1
  O  O194  1  0.75704569  0.49792041  0.86701987  1
  O  O195  1  0.24199532  0.51736785  0.13312011  1
  O  O196  1  0.25103859  0.49407515  0.63222443  1
  O  O197  1  0.24619664  0.99404495  0.12834595  1
  O  O198  1  0.23902119  1.00337701  0.62568397  1
  O  O199  1  0.76266965  0.48916128  0.13625337  1
  O  O200  1  0.73595010  0.50572762  0.62815739  1
  O  O201  1  0.75136579  1.00391081  0.13868853  1
  O  O202  1  0.74033364  0.99292832  0.62142619  1
  O  O203  1  -0.01451453  0.35883518  0.26774166  1
  O  O204  1  0.00172753  0.36998520  0.75172204  1
  O  O205  1  0.00121971  0.86868438  0.25746629  1
  O  O206  1  0.00598931  0.86659060  0.75711084  1
  O  O207  1  0.51697719  0.38118427  0.25982956  1
  O  O208  1  0.51439795  0.38099254  0.75433964  1
  O  O209  1  0.50836643  0.88477946  0.26632732  1
  O  O210  1  0.50907802  0.87571801  0.75369639  1
  O  O211  1  0.51446109  0.12388323  0.24450389  1
  O  O212  1  0.49549812  0.12162699  0.73832294  1
  O  O213  1  0.47916991  0.62789057  0.27106196  1
  O  O214  1  0.49562134  0.62227114  0.72546995  1
  O  O215  1  0.98888646  0.12494641  0.24331261  1
  O  O216  1  0.99833070  0.13367779  0.74318487  1
  O  O217  1  0.99071171  0.63058819  0.24466158  1
  O  O218  1  1.00209233  0.64000641  0.74596582  1
  O  O219  1  0.34666467  0.26860500  -0.02249361  1
  O  O220  1  0.37031439  0.25969216  0.50476198  1
  O  O221  1  0.37286439  0.75318722  0.00483876  1
  O  O222  1  0.37950994  0.75696848  0.50940745  1
  O  O223  1  0.86813161  0.25454677  0.00263819  1
  O  O224  1  0.86847508  0.25913172  0.50574411  1
  O  O225  1  0.87052657  0.76919353  -0.00009191  1
  O  O226  1  0.86207418  0.74995679  0.50116196  1
  O  O227  1  0.13458123  0.24230895  0.50374120  1
  O  O228  1  0.12871205  0.24024544  0.99375958  1
  O  O229  1  0.11777501  0.74359987  0.49193939  1
  O  O230  1  0.14460702  0.75304138  0.99578169  1
  O  O231  1  0.63726724  0.24441464  0.50480421  1
  O  O232  1  0.62869338  0.24478753  0.99452997  1
  O  O233  1  0.63514160  0.75323862  0.48731297  1
  O  O234  1  0.63059502  0.74164072  1.00165919  1
  O  O235  1  0.50754198  0.25452125  0.14936886  1
  O  O236  1  0.48814342  0.24390680  0.61997722  1
  O  O237  1  0.49542785  0.75757705  0.13041857  1
  O  O238  1  0.49707114  0.73682439  0.61674378  1
  O  O239  1  0.99198668  0.23267967  0.13181486  1
  O  O240  1  0.99698841  0.24159065  0.63109885  1
  O  O241  1  0.99288651  0.74845956  0.13391152  1
  O  O242  1  0.99599772  0.74738709  0.63445487  1
  O  O243  1  -0.00638199  0.25628265  0.36927545  1
  O  O244  1  -0.00192061  0.25679565  0.86546297  1
  O  O245  1  0.00131124  0.75775345  0.37144419  1
  O  O246  1  0.00334804  0.75899031  0.86934577  1
  O  O247  1  0.50372334  0.24072527  0.35777114  1
  O  O248  1  0.50838598  0.24900667  0.88620843  1
  O  O249  1  0.51157134  0.75504586  0.37052439  1
  O  O250  1  0.47602281  0.77601625  0.87301120  1
  O  O251  1  0.23626325  0.13735880  0.50466122  1
  O  O252  1  0.23538551  0.13176681  0.98948077  1
  O  O253  1  0.23506045  0.62455796  0.50306124  1
  O  O254  1  0.25241699  0.63491206  0.99153030  1
  O  O255  1  0.74474150  0.13397512  0.50002302  1
  O  O256  1  0.74254577  0.13042456  0.98909435  1
  O  O257  1  0.75452218  0.63230219  0.48762780  1
  O  O258  1  0.74973871  0.62934052  0.99723360  1
  O  O259  1  0.22819881  0.36431956  0.00108118  1
  O  O260  1  0.26002172  0.37124034  0.50650113  1
  O  O261  1  0.25988793  0.87144437  0.00685435  1
  O  O262  1  0.26324114  0.87214281  0.50201415  1
  O  O263  1  0.75384364  0.37079225  0.00774669  1
  O  O264  1  0.75703634  0.36475757  0.49886269  1
  O  O265  1  0.75410598  0.87854523  0.00185015  1
  O  O266  1  0.74525711  0.86804115  0.51034184  1
  O  O267  1  0.13562246  0.51586880  0.24278388  1
  O  O268  1  0.13600648  0.49577496  0.74880689  1
  O  O269  1  0.13379536  0.99829708  0.23595479  1
  O  O270  1  0.13021192  0.99510147  0.74104507  1
  O  O271  1  0.64682230  0.48200865  0.25771647  1
  O  O272  1  0.62789855  0.49503011  0.74237179  1
  O  O273  1  0.63685798  0.99414370  0.25118353  1
  O  O274  1  0.61777686  0.99330547  0.73374970  1
  O  O275  1  0.36085208  -0.00139235  0.24670154  1
  O  O276  1  0.36999175  0.00797995  0.75133553  1
  O  O277  1  0.37141111  0.50651639  0.25754426  1
  O  O278  1  0.36421178  0.49875833  0.75521028  1
  O  O279  1  0.87107983  0.00391597  0.25759199  1
  O  O280  1  0.87743192  0.00052105  0.76459155  1
  O  O281  1  0.87074399  0.50633344  0.26017149  1
  O  O282  1  0.86321092  0.50308921  0.75804281  1
  O  O283  1  0.10945577  0.37892058  0.38528044  1
  O  O284  1  0.11217594  0.37514557  0.86339985  1
  O  O285  1  0.11298922  0.86940304  0.37443200  1
  O  O286  1  0.11849839  0.87805502  0.86930269  1
  O  O287  1  0.63432727  0.36936152  0.36565500  1
  O  O288  1  0.62158455  0.36466281  0.86943689  1
  O  O289  1  0.61852995  0.86888993  0.37185400  1
  O  O290  1  0.61453880  0.88322944  0.86219891  1
  O  O291  1  0.38554861  0.14768555  0.07539495  1
  O  O292  1  0.38295911  0.13308329  0.62801371  1
  O  O293  1  0.37451910  0.63730527  0.13438618  1
  O  O294  1  0.38513707  0.63302130  0.61955398  1
  O  O295  1  0.88030060  0.12490911  0.12812083  1
  O  O296  1  0.88851504  0.12219459  0.62748699  1
  O  O297  1  0.88180095  0.63131802  0.13424681  1
  O  O298  1  0.88493358  0.62987103  0.62983700  1
  O  O299  1  0.24585463  0.24499782  0.10741086  1
  O  O300  1  0.26127257  0.25551341  0.61805513  1
  O  O301  1  0.26364639  0.76029336  0.11430577  1
  O  O302  1  0.27139987  0.74744219  0.63609357  1
  O  O303  1  0.75695978  0.25563398  0.11818204  1
  O  O304  1  0.75475853  0.24566118  0.60892408  1
  O  O305  1  0.75317360  0.74675290  0.10599700  1
  O  O306  1  0.74946107  0.75846193  0.61626471  1
  O  O307  1  0.25425802  0.25520394  0.38659713  1
  O  O308  1  0.23936610  0.23847353  0.87325346  1
  O  O309  1  0.23322459  0.75511686  0.37176088  1
  O  O310  1  0.25765758  0.74304342  0.87851331  1
  O  O311  1  0.76065430  0.24503787  0.39458589  1
  O  O312  1  0.74346013  0.24461119  0.88142844  1
  O  O313  1  0.74650213  0.74432295  0.38067671  1
  O  O314  1  0.75072891  0.75351512  0.89643583  1
  O  O315  1  0.01015510  0.12808226  0.00522775  1
  O  O316  1  0.00503733  0.12051930  0.50795576  1
  O  O317  1  -0.00237613  0.62150263  0.00377583  1
  O  O318  1  0.00602455  0.62595152  0.51190362  1
  O  O319  1  0.51531230  0.11246498  -0.01554393  1
  O  O320  1  0.51630532  0.12764544  0.51344707  1
  O  O321  1  0.48650359  0.59242009  0.00780916  1
  O  O322  1  0.49944462  0.61611106  0.50546599  1
  O  O323  1  0.48958830  0.38309264  0.50423166  1
  O  O324  1  0.50058287  0.39272524  1.00048966  1
  O  O325  1  0.49106304  0.87735966  0.48892059  1
  O  O326  1  0.49855839  0.88540670  0.99066186  1
  O  O327  1  0.99144178  0.37635227  0.49604868  1
  O  O328  1  0.99169382  0.38346003  0.98853330  1
  O  O329  1  1.00206351  0.88464462  0.49278886  1
  O  O330  1  1.00117278  0.86954620  0.99046604  1
  O  O331  1  0.49770617  0.50777589  0.38431779  1
  O  O332  1  0.48102229  0.49695337  0.87056645  1
  O  O333  1  0.50476802  0.99134714  0.39002004  1
  O  O334  1  0.49338434  0.99435665  0.87824570  1
  O  O335  1  0.98978687  0.49350609  0.37746425  1
  O  O336  1  0.99219555  0.49849122  0.87886389  1
  O  O337  1  0.99352805  0.99176642  0.37810378  1
  O  O338  1  0.99080735  0.98930875  0.87295612  1
  O  O339  1  0.00863038  0.00990820  0.12943575  1
  O  O340  1  0.01007768  0.00500602  0.62207466  1
  O  O341  1  -0.01412880  0.51576290  0.11035447  1
  O  O342  1  0.00252137  0.51434242  0.62865689  1
  O  O343  1  0.50148296  -0.00329356  0.11278234  1
  O  O344  1  0.50294572  0.01178063  0.61037162  1
  O  O345  1  0.51287260  0.49414535  0.12992900  1
  O  O346  1  0.50778533  0.50960605  0.61300656  1
  O  O347  1  0.24931745  0.35891379  0.25685259  1
  O  O348  1  0.24358787  0.38030739  0.74482608  1
  O  O349  1  0.24927522  0.87592110  0.23625372  1
  O  O350  1  0.24724089  0.88270377  0.74596369  1
  O  O351  1  0.75663897  0.37838519  0.24460729  1
  O  O352  1  0.73489130  0.38925281  0.75206988  1
  O  O353  1  0.74106847  0.88338573  0.25622929  1
  O  O354  1  0.73335816  0.86648311  0.74179237  1
  O  O355  1  0.25013513  0.11388152  0.24810403  1
  O  O356  1  0.25273190  0.12053384  0.75484711  1
  O  O357  1  0.26506914  0.64122245  0.26095121  1
  O  O358  1  0.25288111  0.61690981  0.75503599  1
  O  O359  1  0.76107228  0.12017777  0.25165240  1
  O  O360  1  0.75217940  0.13231156  0.76116242  1
  O  O361  1  0.76324336  0.61782752  0.25672660  1
  O  O362  1  0.74469752  0.61228848  0.74709724  1
  O  O363  1  0.39189769  0.08990020  0.45037694  1
  O  O364  1  0.36453688  0.12260637  0.87178877  1
  O  O365  1  0.36920609  0.61488792  0.37619636  1
  O  O366  1  0.36671270  0.61293824  0.87104581  1
  O  O367  1  0.87643049  0.11522696  0.36586513  1
  O  O368  1  0.86687598  0.11664806  0.87478409  1
  O  O369  1  0.87221219  0.61821567  0.36964056  1
  O  O370  1  0.87961191  0.61579470  0.87141113  1
  O  O371  1  0.07458028  0.37899817  0.13657617  1
  O  O372  1  0.13138847  0.37775763  0.63030289  1
  O  O373  1  0.13531953  0.88152799  0.12491978  1
  O  O374  1  0.12837099  0.88349593  0.62997653  1
  O  O375  1  0.64155044  0.36904422  0.13655450  1
  O  O376  1  0.62012507  0.38450513  0.63267639  1
  O  O377  1  0.61879535  0.87878679  0.14136989  1
  O  O378  1  0.62869095  0.88380012  0.62740702  1
  O  O379  1  0.10832288  0.23644053  0.25040022  1
  O  O380  1  0.11140771  0.25564988  0.74716734  1
  O  O381  1  0.10729308  0.75077970  0.26175438  1
  O  O382  1  0.11930468  0.75998409  0.75302451  1
  O  O383  1  0.62137125  0.25926014  0.25314963  1
  O  O384  1  0.62775591  0.25873857  0.75955383  1
  O  O385  1  0.62624437  0.76292506  0.26150392  1
  O  O386  1  0.60994306  0.75800875  0.74061467  1
  O  O387  1  0.39397184  0.23055432  0.25166912  1
  O  O388  1  0.36931680  0.24275029  0.73979304  1
  O  O389  1  0.38604657  0.74528092  0.24012728  1
  O  O390  1  0.39601902  0.74342861  0.73998239  1
  O  O391  1  0.88102392  0.23835449  0.24585075  1
  O  O392  1  0.88377768  0.25127421  0.74782794  1
  O  O393  1  0.88255534  0.74237037  0.25126949  1
  O  O394  1  0.88194112  0.75183283  0.75080459  1
  O  O395  1  0.38304238  0.49364861  0.49392645  1
  O  O396  1  0.35923870  0.49144204  0.98424594  1
  O  O397  1  0.37738207  0.96948832  0.52398783  1
  O  O398  1  0.38213562  0.99392330  0.99321518  1
  O  O399  1  0.87586974  0.49442718  0.49421041  1
  O  O400  1  0.88109325  0.49708121  0.99096692  1
  O  O401  1  0.88037074  1.00642421  0.48802688  1
  O  O402  1  0.87161846  0.98693002  0.98912076  1
  O  O403  1  0.13095102  0.00659086  0.01192772  1
  O  O404  1  0.12152714  0.00683026  0.50608425  1
  O  O405  1  0.11054815  0.50243254  0.00124055  1
  O  O406  1  0.12015238  0.51272817  0.50440257  1
  O  O407  1  0.61866098  0.00765079  0.00243014  1
  O  O408  1  0.62428718  0.00977446  0.51003734  1
  O  O409  1  0.62404577  0.50237801  0.00689508  1
  O  O410  1  0.61857818  0.49189836  0.50547971  1
  O  O411  1  0.37565605  0.36093274  0.12582674  1
  O  O412  1  0.37312048  0.36953362  0.61970436  1
  O  O413  1  0.37226033  0.86792881  0.11951486  1
  O  O414  1  0.37982571  0.85684121  0.62095307  1
  O  O415  1  0.87405506  0.36577586  0.11634587  1
  O  O416  1  0.87840129  0.37803202  0.61411769  1
  O  O417  1  0.87724509  0.87935895  0.10841389  1
  O  O418  1  0.86034368  0.87846989  0.63194682  1
  O  O419  1  0.11553412  0.12092371  0.38651643  1
  O  O420  1  0.12794664  0.12179321  0.88005109  1
  O  O421  1  0.12223527  0.63508617  0.38655854  1
  O  O422  1  0.14042363  0.62759670  0.87729323  1
  O  O423  1  0.63018563  0.11951873  0.39106250  1
  O  O424  1  0.63245267  0.13149330  0.87785896  1
  O  O425  1  0.63830076  0.63376214  0.36555968  1
  O  O426  1  0.55061373  0.65713615  0.85709466  1
