# generated using pymatgen
data_V85Zn86O256
_symmetry_space_group_name_H-M   'P 1'
_cell_length_a   16.95846821
_cell_length_b   16.95955458
_cell_length_c   16.95792139
_cell_angle_alpha   89.95181860
_cell_angle_beta   89.98477621
_cell_angle_gamma   90.09320623
_symmetry_Int_Tables_number   1
_chemical_formula_structural   V85Zn86O256
_chemical_formula_sum   'V85 Zn86 O256'
_cell_volume   4877.22664257
_cell_formula_units_Z   1
loop_
 _symmetry_equiv_pos_site_id
 _symmetry_equiv_pos_as_xyz
  1  'x, y, z'
loop_
 _atom_site_type_symbol
 _atom_site_label
 _atom_site_symmetry_multiplicity
 _atom_site_fract_x
 _atom_site_fract_y
 _atom_site_fract_z
 _atom_site_occupancy
  V  V0  1  0.62237199  0.62241710  0.49949160  1
  V  V1  1  0.13052494  0.62575138  0.00382350  1
  V  V2  1  0.25410464  0.13445446  0.87672013  1
  V  V3  1  0.87819751  0.00291851  0.87370091  1
  V  V4  1  0.26099950  0.25895781  0.51051992  1
  V  V5  1  0.74936567  0.87884831  0.12837797  1
  V  V6  1  0.37503140  0.24816757  0.12519076  1
  V  V7  1  0.00336119  0.25115880  0.24980320  1
  V  V8  1  0.75829692  0.38142182  0.12075192  1
  V  V9  1  0.61173815  0.37187713  0.25265364  1
  V  V10  1  0.05920013  0.82005094  0.42320549  1
  V  V11  1  -0.00727437  0.37078325  0.86859511  1
  V  V12  1  0.00209459  0.62655760  0.12855203  1
  V  V13  1  0.12659929  0.51551271  0.62844966  1
  V  V14  1  0.23112768  0.63617617  0.36590400  1
  V  V15  1  0.50245398  0.13210977  0.13033715  1
  V  V16  1  0.75664390  0.25576973  -0.00107684  1
  V  V17  1  0.25065002  0.87670293  0.11926666  1
  V  V18  1  0.13026921  0.50291417  0.13235526  1
  V  V19  1  -0.00049391  0.87431262  0.87663052  1
  V  V20  1  0.75086476  0.11710386  0.36870745  1
  V  V21  1  0.49167274  0.87775026  0.37296547  1
  V  V22  1  0.49383727  0.62186558  0.62405530  1
  V  V23  1  0.36753209  0.62325811  0.75367092  1
  V  V24  1  0.13354196  0.25294350  0.37958300  1
  V  V25  1  0.24648247  0.37355312  0.12622596  1
  V  V26  1  0.74789796  0.75186686  0.00049600  1
  V  V27  1  0.13616133  0.12792544  0.49447932  1
  V  V28  1  0.87638047  -0.00779221  0.36684218  1
  V  V29  1  0.48791966  0.36817271  0.38597513  1
  V  V30  1  0.36306412  0.51800253  0.37101023  1
  V  V31  1  0.80879403  0.45305118  0.30701940  1
  V  V32  1  0.36810432  0.37505741  0.00314194  1
  V  V33  1  0.62675470  0.50154350  0.13238394  1
  V  V34  1  0.75049713  0.49859349  0.74801399  1
  V  V35  1  0.87708139  0.12062516  0.24108071  1
  V  V36  1  0.62919471  -0.00672749  0.61965138  1
  V  V37  1  0.86955542  0.76023278  0.62812216  1
  V  V38  1  0.74506934  0.75779650  0.50345029  1
  V  V39  1  0.87585952  0.87573231  0.00030871  1
  V  V40  1  0.49574343  0.62298718  0.13148815  1
  V  V41  1  0.74694858  0.62419216  0.87492033  1
  V  V42  1  0.50379462  0.24968747  0.74441969  1
  V  V43  1  0.49524226  0.74760552  0.25153588  1
  V  V44  1  0.87414910  0.75311639  0.12684150  1
  V  V45  1  0.50208615  0.12606974  0.62151800  1
  V  V46  1  0.37345045  0.86790015  -0.00131143  1
  V  V47  1  0.01044833  0.01093020  -0.00251358  1
  V  V48  1  0.31303829  0.45369750  0.83272166  1
  V  V49  1  0.12345986  0.74870404  0.88249944  1
  V  V50  1  0.62908969  0.00142611  0.12954488  1
  V  V51  1  0.50196156  0.87350262  0.87516569  1
  V  V52  1  0.49798108  0.74832654  0.74885799  1
  V  V53  1  0.00027006  0.74286737  0.75379928  1
  V  V54  1  0.36874169  0.74466344  0.12540810  1
  V  V55  1  0.12952932  0.88437236  0.75024334  1
  V  V56  1  0.37789692  0.12519427  0.26017188  1
  V  V57  1  0.36716934  0.87553239  0.50258908  1
  V  V58  1  0.86863388  0.63085140  0.25805854  1
  V  V59  1  0.62660409  0.24998009  0.87611604  1
  V  V60  1  0.87608819  0.13003488  0.74462852  1
  V  V61  1  0.25790732  0.00376981  0.25872783  1
  V  V62  1  0.35944021  0.75133179  0.62435523  1
  V  V63  1  0.75465437  -0.00581577  0.74223085  1
  V  V64  1  0.49480603  -0.00024410  0.49484416  1
  V  V65  1  0.00107749  0.00304508  0.49071354  1
  V  V66  1  0.88528790  0.25372743  0.61885104  1
  V  V67  1  0.25435114  0.63181759  0.88247887  1
  V  V68  1  0.62822882  0.87393376  0.74633454  1
  V  V69  1  0.37754311  -0.00249651  0.87573195  1
  V  V70  1  -0.00687240  0.50775297  0.50102058  1
  V  V71  1  0.00510463  0.75413644  0.25130151  1
  V  V72  1  0.62748374  0.37305575  0.74926664  1
  V  V73  1  0.38135729  0.11807894  0.74617947  1
  V  V74  1  0.62626566  0.12580713  -0.00022166  1
  V  V75  1  0.50001841  0.37849333  0.87555974  1
  V  V76  1  0.62741859  0.87753654  0.25225468  1
  V  V77  1  0.12234680  0.88061406  0.24492598  1
  V  V78  1  0.75334098  0.24885531  0.49761302  1
  V  V79  1  0.12821277  0.38099284  0.25623719  1
  V  V80  1  0.62446663  0.75118672  0.87439371  1
  V  V81  1  0.75534693  0.37516013  0.61843469  1
  V  V82  1  0.87481665  0.62466743  0.74354188  1
  V  V83  1  0.49565282  0.49978937  -0.00042858  1
  V  V84  1  0.00239089  0.12417966  0.62133670  1
  Zn  Zn85  1  0.62223220  0.62546261  0.00203277  1
  Zn  Zn86  1  0.62688842  0.12241630  0.49417767  1
  Zn  Zn87  1  -0.00888130  0.37788915  0.38530814  1
  Zn  Zn88  1  0.87066066  0.49219410  0.88694482  1
  Zn  Zn89  1  0.13454271  0.01227477  0.11969756  1
  Zn  Zn90  1  0.87061640  0.87579037  0.49950498  1
  Zn  Zn91  1  0.01540284  0.13434910  0.11877236  1
  Zn  Zn92  1  0.48921846  0.49562914  0.50095437  1
  Zn  Zn93  1  0.75112114  0.12655019  0.87200520  1
  Zn  Zn94  1  0.12337556  0.26508733  0.86465947  1
  Zn  Zn95  1  0.50397119  -0.00138395  0.00067365  1
  Zn  Zn96  1  -0.00739872  0.49402513  0.00193570  1
  Zn  Zn97  1  0.18651628  0.18643774  0.03211294  1
  Zn  Zn98  1  0.24024199  0.74958347  0.49341156  1
  Zn  Zn99  1  0.62356099  0.24509622  0.37048023  1
  Zn  Zn100  1  0.88266512  0.25694256  0.11890006  1
  Zn  Zn101  1  0.13386468  -0.00614388  0.61354425  1
  Zn  Zn102  1  0.74501859  0.62385551  0.37334942  1
  Zn  Zn103  1  0.25987508  -0.00595302  0.73775918  1
  Zn  Zn104  1  0.61986868  0.49707807  0.62503667  1
  Zn  Zn105  1  0.24805066  0.39077452  0.62187354  1
  Zn  Zn106  1  0.62254138  0.74762586  0.37556053  1
  Zn  Zn107  1  0.19333615  0.19073557  0.19820598  1
  Zn  Zn108  1  0.18645419  0.18260803  0.68510759  1
  Zn  Zn109  1  0.18994904  0.68993813  0.19630732  1
  Zn  Zn110  1  0.18303091  0.67604877  0.69261400  1
  Zn  Zn111  1  0.69239912  0.19127178  0.18606789  1
  Zn  Zn112  1  0.68999745  0.18346441  0.68260343  1
  Zn  Zn113  1  0.68413633  0.68955221  0.18903702  1
  Zn  Zn114  1  0.68558452  0.68637602  0.68290102  1
  Zn  Zn115  1  0.31046038  0.30876976  0.31061278  1
  Zn  Zn116  1  0.30773643  0.29765477  0.75962568  1
  Zn  Zn117  1  0.31084067  0.81203456  0.31004115  1
  Zn  Zn118  1  0.30950555  0.80869692  0.81371396  1
  Zn  Zn119  1  0.80772970  0.29165116  0.30361600  1
  Zn  Zn120  1  0.82009246  0.31422025  0.81070761  1
  Zn  Zn121  1  0.80861646  0.80920819  0.31645467  1
  Zn  Zn122  1  0.81241224  0.81337473  0.81342215  1
  Zn  Zn123  1  0.18626395  0.44570191  0.44405032  1
  Zn  Zn124  1  0.16975648  0.42685818  0.94614316  1
  Zn  Zn125  1  0.19553083  0.94478830  0.43758655  1
  Zn  Zn126  1  0.19186339  0.93911461  0.93164722  1
  Zn  Zn127  1  0.67846208  0.43503985  0.44349045  1
  Zn  Zn128  1  0.68387959  0.43969444  0.94027078  1
  Zn  Zn129  1  0.68583444  0.93721271  0.43319480  1
  Zn  Zn130  1  0.69060207  0.94050288  0.93595289  1
  Zn  Zn131  1  0.32083334  0.05737683  0.06200166  1
  Zn  Zn132  1  0.31361501  0.06373613  0.56201620  1
  Zn  Zn133  1  0.31008519  0.56020782  0.06572349  1
  Zn  Zn134  1  0.30374763  0.56417714  0.54832137  1
  Zn  Zn135  1  0.81185830  0.06382770  0.06076209  1
  Zn  Zn136  1  0.81409808  0.06119222  0.55691068  1
  Zn  Zn137  1  0.81071900  0.56767418  0.06822291  1
  Zn  Zn138  1  0.81102068  0.56583233  0.56201504  1
  Zn  Zn139  1  0.43301157  0.43873575  0.19267708  1
  Zn  Zn140  1  0.42970924  0.43221642  0.68167254  1
  Zn  Zn141  1  0.43998739  0.93987646  0.18489156  1
  Zn  Zn142  1  0.44180577  0.93459947  0.68229067  1
  Zn  Zn143  1  0.94703268  0.43746878  0.18570702  1
  Zn  Zn144  1  0.94283182  0.44170902  0.68144926  1
  Zn  Zn145  1  0.94338050  0.94272646  0.18104216  1
  Zn  Zn146  1  0.94592821  0.93838920  0.68561335  1
  Zn  Zn147  1  0.06513108  0.06549183  0.31054466  1
  Zn  Zn148  1  0.08190260  0.09654444  0.79755460  1
  Zn  Zn149  1  0.05468432  0.56091841  0.32058115  1
  Zn  Zn150  1  0.05990431  0.55301247  0.81476505  1
  Zn  Zn151  1  0.56155667  0.06117633  0.31115054  1
  Zn  Zn152  1  0.56632717  0.05993500  0.81178087  1
  Zn  Zn153  1  0.55608931  0.55704508  0.31570409  1
  Zn  Zn154  1  0.56122366  0.56100609  0.81095039  1
  Zn  Zn155  1  0.44008386  0.19158797  0.43879257  1
  Zn  Zn156  1  0.43761440  0.19009012  0.93858416  1
  Zn  Zn157  1  0.43328845  0.68837896  0.43903622  1
  Zn  Zn158  1  0.43820041  0.68642515  0.94112725  1
  Zn  Zn159  1  0.93798242  0.18828867  0.43269939  1
  Zn  Zn160  1  0.93857049  0.19146083  0.93297240  1
  Zn  Zn161  1  0.93066089  0.67816989  0.44689382  1
  Zn  Zn162  1  0.92644299  0.66144557  0.94892878  1
  Zn  Zn163  1  0.05935999  0.31759350  0.05148529  1
  Zn  Zn164  1  0.07034669  0.33495229  0.56220239  1
  Zn  Zn165  1  0.06286270  0.81525537  0.06252535  1
  Zn  Zn166  1  0.06747236  0.79492344  0.58787569  1
  Zn  Zn167  1  0.56326257  0.31362874  0.06494386  1
  Zn  Zn168  1  0.56955284  0.30925999  0.55974065  1
  Zn  Zn169  1  0.56069062  0.81194744  0.06368844  1
  Zn  Zn170  1  0.55635258  0.81008353  0.56245726  1
  O  O171  1  0.13458556  0.12984062  0.11861030  1
  O  O172  1  0.11491089  0.12088776  0.61107612  1
  O  O173  1  0.12665583  0.62111070  0.12409642  1
  O  O174  1  0.12624939  0.61920728  0.61593390  1
  O  O175  1  0.62256869  0.12106896  0.12192228  1
  O  O176  1  0.61784966  0.11156074  0.62247336  1
  O  O177  1  0.61625694  0.61728440  0.12536047  1
  O  O178  1  0.61069047  0.62213736  0.62076025  1
  O  O179  1  0.38813807  0.36465276  0.37401854  1
  O  O180  1  0.37828019  0.38586732  0.88429587  1
  O  O181  1  0.38621015  0.87047012  0.38168200  1
  O  O182  1  0.38001289  0.87636186  0.88022765  1
  O  O183  1  0.86483828  0.38370443  0.35445729  1
  O  O184  1  0.87860462  0.37769742  0.88055452  1
  O  O185  1  0.86980373  0.88889222  0.37373976  1
  O  O186  1  0.87995881  0.88264781  0.88029406  1
  O  O187  1  0.25578754  -0.00172274  0.35752256  1
  O  O188  1  0.26999553  0.00017598  0.87017339  1
  O  O189  1  0.25549131  0.51614162  0.37768830  1
  O  O190  1  0.25210065  0.51209771  0.89203737  1
  O  O191  1  0.75906503  0.00953397  0.37735496  1
  O  O192  1  0.76378204  0.00247155  0.86764787  1
  O  O193  1  0.75055247  0.50154331  0.37577269  1
  O  O194  1  0.74898440  0.50828972  0.86962409  1
  O  O195  1  0.24383589  0.48634490  0.12606460  1
  O  O196  1  0.23759233  0.50676871  0.61766069  1
  O  O197  1  0.25307428  0.98960388  0.12929004  1
  O  O198  1  0.24591113  1.00263911  0.62603693  1
  O  O199  1  0.73856565  0.49494573  0.11851841  1
  O  O200  1  0.74755429  0.49125591  0.63139320  1
  O  O201  1  0.73733540  0.99490327  0.11994586  1
  O  O202  1  0.74285075  1.00187982  0.62977274  1
  O  O203  1  0.01212316  0.36862095  0.25252697  1
  O  O204  1  -0.01738722  0.38092996  0.76731714  1
  O  O205  1  0.01448579  0.87396855  0.24340074  1
  O  O206  1  0.00815936  0.86813411  0.75930235  1
  O  O207  1  0.50966442  0.37275919  0.25565563  1
  O  O208  1  0.50723712  0.36618716  0.75301898  1
  O  O209  1  0.50544369  0.87121354  0.25512820  1
  O  O210  1  0.50658319  0.86767119  0.75586289  1
  O  O211  1  0.49418647  0.11913423  0.23734369  1
  O  O212  1  0.50237615  0.12752842  0.74136736  1
  O  O213  1  0.50369676  0.63241883  0.23945891  1
  O  O214  1  0.48712133  0.62690572  0.74672544  1
  O  O215  1  0.99661043  0.13387914  0.24422836  1
  O  O216  1  0.98772761  0.10904703  0.72886199  1
  O  O217  1  0.99398166  0.63708128  0.24770790  1
  O  O218  1  0.98533651  0.63325847  0.76362239  1
  O  O219  1  0.38283701  0.26269850  0.01156823  1
  O  O220  1  0.35809604  0.24189450  0.49957583  1
  O  O221  1  0.37936651  0.76045448  0.00929911  1
  O  O222  1  0.37706050  0.75923573  0.51034572  1
  O  O223  1  0.85935067  0.23941835  0.00290601  1
  O  O224  1  0.86385373  0.24441739  0.50532395  1
  O  O225  1  0.86850962  0.75341414  0.00676864  1
  O  O226  1  0.86529655  0.75179132  0.50961454  1
  O  O227  1  0.12827883  0.24574784  0.49446377  1
  O  O228  1  0.13422488  0.26805272  0.98196466  1
  O  O229  1  0.11783124  0.76727725  0.48972253  1
  O  O230  1  0.12318176  0.74889176  0.98838201  1
  O  O231  1  0.64001465  0.24282686  0.49657132  1
  O  O232  1  0.63315493  0.24458581  0.99726214  1
  O  O233  1  0.62757422  0.74030977  0.50300366  1
  O  O234  1  0.62978836  0.75030876  0.99354208  1
  O  O235  1  0.49381631  0.24176903  0.12458224  1
  O  O236  1  0.51096106  0.23909571  0.63229394  1
  O  O237  1  0.49281651  0.74166205  0.12987967  1
  O  O238  1  0.49174657  0.73768157  0.63230507  1
  O  O239  1  1.00194989  0.25278855  0.13426087  1
  O  O240  1  0.98854727  0.24202248  0.61562597  1
  O  O241  1  0.99511735  0.74877861  0.13439193  1
  O  O242  1  0.98727834  0.74527606  0.64435037  1
  O  O243  1  0.00436064  0.25671080  0.36407846  1
  O  O244  1  -0.00260121  0.26386986  0.87330443  1
  O  O245  1  -0.00454809  0.75682007  0.37207753  1
  O  O246  1  0.00450462  0.75390610  0.86999779  1
  O  O247  1  0.50776964  0.26298745  0.37905346  1
  O  O248  1  0.50793185  0.25750429  0.86949977  1
  O  O249  1  0.50007369  0.75683270  0.36616213  1
  O  O250  1  0.50577844  0.75258347  0.86910719  1
  O  O251  1  0.23927889  0.13161618  0.49919940  1
  O  O252  1  0.27345105  0.12783710  0.98373321  1
  O  O253  1  0.25710082  0.63732753  0.47551231  1
  O  O254  1  0.24008844  0.62749936  0.99939152  1
  O  O255  1  0.75017569  0.12902767  0.48845543  1
  O  O256  1  0.73861241  0.13240489  0.99918749  1
  O  O257  1  0.73777499  0.63354282  0.50087098  1
  O  O258  1  0.74255740  0.63346585  0.99117021  1
  O  O259  1  0.26271314  0.38391232  0.00653084  1
  O  O260  1  0.25038557  0.36205877  0.50128387  1
  O  O261  1  0.26011734  0.87921178  0.00686002  1
  O  O262  1  0.26356330  0.87164797  0.49374913  1
  O  O263  1  0.74336674  0.36847579  0.00967342  1
  O  O264  1  0.74508760  0.36583492  0.50839842  1
  O  O265  1  0.75639948  0.87155496  0.00543115  1
  O  O266  1  0.74699470  0.86195016  0.49679933  1
  O  O267  1  0.11754874  0.49429813  0.24069954  1
  O  O268  1  0.12298519  0.51701304  0.73155948  1
  O  O269  1  0.13720134  0.99756355  0.24555463  1
  O  O270  1  0.12319803  0.98827460  0.75552456  1
  O  O271  1  0.61904238  0.48931312  0.24010229  1
  O  O272  1  0.63490359  0.49438515  0.74781966  1
  O  O273  1  0.62211898  0.98993703  0.24099753  1
  O  O274  1  0.63493138  0.99478203  0.74204071  1
  O  O275  1  0.36558669  0.00734851  0.24178742  1
  O  O276  1  0.38370202  0.00379262  0.75617022  1
  O  O277  1  0.37329006  0.48649950  0.27435094  1
  O  O278  1  0.37108850  0.50613143  0.76243741  1
  O  O279  1  0.88404396  0.00753833  0.25476640  1
  O  O280  1  0.87107029  0.00280419  0.75329905  1
  O  O281  1  0.87276127  0.51000187  0.24761359  1
  O  O282  1  0.86132641  0.50921311  0.74866398  1
  O  O283  1  0.12668745  0.37103773  0.36841727  1
  O  O284  1  0.10355317  0.38172986  0.86882004  1
  O  O285  1  0.12248472  0.87985097  0.36709483  1
  O  O286  1  0.11993109  0.86738063  0.86952214  1
  O  O287  1  0.61771225  0.37739778  0.36277304  1
  O  O288  1  0.62034681  0.36975664  0.86900613  1
  O  O289  1  0.61402832  0.87277139  0.36648878  1
  O  O290  1  0.62156415  0.87183258  0.86827797  1
  O  O291  1  0.38565627  0.13135798  0.12614965  1
  O  O292  1  0.39271583  0.11760622  0.63289189  1
  O  O293  1  0.38035182  0.63572547  0.12088661  1
  O  O294  1  0.37718131  0.62997311  0.63349789  1
  O  O295  1  0.87590592  0.12478987  0.13459653  1
  O  O296  1  0.88059114  0.13042118  0.62590413  1
  O  O297  1  0.87917761  0.63650913  0.13856232  1
  O  O298  1  0.86433111  0.63797064  0.63973181  1
  O  O299  1  0.25528898  0.26026149  0.12004413  1
  O  O300  1  0.24548445  0.24662139  0.61283392  1
  O  O301  1  0.26030329  0.76314073  0.13309072  1
  O  O302  1  0.25745392  0.74467737  0.62252587  1
  O  O303  1  0.75251923  0.26334921  0.11717949  1
  O  O304  1  0.75774177  0.25382265  0.61664965  1
  O  O305  1  0.75255823  0.75870856  0.11964806  1
  O  O306  1  0.75618659  0.75044282  0.61845044  1
  O  O307  1  0.23807707  0.25242256  0.38434098  1
  O  O308  1  0.26011005  0.23463697  0.85829038  1
  O  O309  1  0.24788928  0.74375237  0.37285354  1
  O  O310  1  0.23987122  0.73903140  0.87512522  1
  O  O311  1  0.74894130  0.23722398  0.38162880  1
  O  O312  1  0.74418169  0.24887884  0.88106057  1
  O  O313  1  0.74287868  0.74581921  0.38657497  1
  O  O314  1  0.74179485  0.74581606  0.87880940  1
  O  O315  1  -0.00262568  0.11437435  -0.00193432  1
  O  O316  1  0.00283915  0.11847040  0.50429035  1
  O  O317  1  0.01954378  0.63600659  0.01323281  1
  O  O318  1  0.00386137  0.61105852  0.49430744  1
  O  O319  1  0.51257207  0.12626112  0.00859872  1
  O  O320  1  0.50264226  0.11736296  0.50483877  1
  O  O321  1  0.50115889  0.61779628  0.01157828  1
  O  O322  1  0.50327589  0.62511979  0.51017064  1
  O  O323  1  0.50549689  0.37580531  0.49015870  1
  O  O324  1  0.49279270  0.38121954  0.99695189  1
  O  O325  1  0.49318931  0.88048824  0.49174965  1
  O  O326  1  0.49402516  0.87450506  0.99205795  1
  O  O327  1  0.99441840  0.38603216  0.49908000  1
  O  O328  1  0.99189826  0.38065923  0.98762562  1
  O  O329  1  1.00484092  0.87782042  0.49070581  1
  O  O330  1  0.99330416  0.88441194  0.99579290  1
  O  O331  1  0.49169490  0.48418476  0.37745712  1
  O  O332  1  0.50750382  0.49285452  0.88756104  1
  O  O333  1  0.50406945  0.99122448  0.38405179  1
  O  O334  1  0.49378992  0.99278754  0.87586295  1
  O  O335  1  0.99806096  0.49389732  0.38903051  1
  O  O336  1  0.99067513  0.49613982  0.88107024  1
  O  O337  1  0.99236344  1.00617029  0.38267952  1
  O  O338  1  0.99049913  0.99760542  0.88298380  1
  O  O339  1  0.00703624  0.00723737  0.10859678  1
  O  O340  1  0.00368298  0.00437836  0.60706633  1
  O  O341  1  0.00913531  0.51066550  0.12333052  1
  O  O342  1  0.01077813  0.50053362  0.61579171  1
  O  O343  1  0.51324113  0.00774542  0.12095235  1
  O  O344  1  0.50950654  0.00506694  0.61613766  1
  O  O345  1  0.50249257  0.50658045  0.12424007  1
  O  O346  1  0.49410592  0.50857195  0.62530055  1
  O  O347  1  0.23586785  0.36817572  0.24196927  1
  O  O348  1  0.24751828  0.39176653  0.79209756  1
  O  O349  1  0.24317422  0.88502934  0.24292536  1
  O  O350  1  0.23349365  0.87581554  0.75900682  1
  O  O351  1  0.74753046  0.38693835  0.24962198  1
  O  O352  1  0.74613054  0.38164010  0.74472647  1
  O  O353  1  0.73506597  0.86699652  0.24484346  1
  O  O354  1  0.74557622  0.88706800  0.75308528  1
  O  O355  1  0.26150602  0.11151544  0.24557688  1
  O  O356  1  0.26869932  0.11659030  0.75747695  1
  O  O357  1  0.25462477  0.63035424  0.26516142  1
  O  O358  1  0.26102319  0.62783601  0.76343564  1
  O  O359  1  0.76224569  0.13155446  0.25685780  1
  O  O360  1  0.75828714  0.11185041  0.74836927  1
  O  O361  1  0.75884630  0.63216362  0.25209257  1
  O  O362  1  0.74887540  0.61664506  0.75467669  1
  O  O363  1  0.38627859  0.12934109  0.35886971  1
  O  O364  1  0.37912302  0.11415652  0.86853383  1
  O  O365  1  0.38155261  0.61818790  0.36580815  1
  O  O366  1  0.36604917  0.63177480  0.87051753  1
  O  O367  1  0.87080080  0.11656761  0.36278165  1
  O  O368  1  0.87539830  0.11863087  0.86259390  1
  O  O369  1  0.87026099  0.63082220  0.36182044  1
  O  O370  1  0.85441608  0.63539374  0.85958197  1
  O  O371  1  0.13089044  0.38356427  0.13050453  1
  O  O372  1  0.13465626  0.39204804  0.63209544  1
  O  O373  1  0.13497070  0.87922440  0.12950119  1
  O  O374  1  0.11939270  0.87701478  0.64564086  1
  O  O375  1  0.63174944  0.38112084  0.13689171  1
  O  O376  1  0.63688367  0.37389950  0.63221935  1
  O  O377  1  0.62667248  0.88328623  0.13108549  1
  O  O378  1  0.61670960  0.88584736  0.63012446  1
  O  O379  1  0.12059496  0.25667583  0.25988500  1
  O  O380  1  0.11720288  0.20360472  0.76811766  1
  O  O381  1  0.11219547  0.76224907  0.24627291  1
  O  O382  1  0.11676374  0.75361495  0.76007496  1
  O  O383  1  0.63512413  0.26933424  0.25074460  1
  O  O384  1  0.62032086  0.25000394  0.75483827  1
  O  O385  1  0.61033382  0.75928259  0.24776798  1
  O  O386  1  0.61968182  0.75483195  0.75330618  1
  O  O387  1  0.36626582  0.23909673  0.23480603  1
  O  O388  1  0.39762457  0.22889654  0.75722957  1
  O  O389  1  0.38820075  0.76037158  0.23815281  1
  O  O390  1  0.37767937  0.74341472  0.74372936  1
  O  O391  1  0.88719166  0.24051755  0.24287405  1
  O  O392  1  0.86663761  0.23493957  0.73755018  1
  O  O393  1  0.88478394  0.75032025  0.24716778  1
  O  O394  1  0.87862473  0.74720661  0.74641192  1
  O  O395  1  0.37514581  0.50165002  0.47976866  1
  O  O396  1  0.38840356  0.49208508  1.01071052  1
  O  O397  1  0.38733868  0.99182166  0.50474228  1
  O  O398  1  0.38326294  0.98652996  0.99268472  1
  O  O399  1  0.88991851  0.50565061  0.51194859  1
  O  O400  1  0.88728150  0.54826794  0.98965428  1
  O  O401  1  0.88400449  0.99495052  0.49063631  1
  O  O402  1  0.88125023  0.99714575  0.99148003  1
  O  O403  1  0.11202640  -0.00678486  -0.00331996  1
  O  O404  1  0.11925795  0.00939397  0.49291289  1
  O  O405  1  0.12301929  0.51022038  0.01581234  1
  O  O406  1  0.11184621  0.49595062  0.51118205  1
  O  O407  1  0.62542549  0.00953912  0.00497299  1
  O  O408  1  0.61674387  -0.00117845  0.50537084  1
  O  O409  1  0.61183536  0.49865991  0.01439340  1
  O  O410  1  0.61829821  0.51135241  0.50554392  1
  O  O411  1  0.36855607  0.36854099  0.12285699  1
  O  O412  1  0.34695763  0.36162211  0.66952702  1
  O  O413  1  0.37182256  0.86927657  0.11646242  1
  O  O414  1  0.38163202  0.86317406  0.61581814  1
  O  O415  1  0.86201458  0.37916883  0.13182813  1
  O  O416  1  0.86290150  0.36544592  0.63268383  1
  O  O417  1  0.86996718  0.87294522  0.12052372  1
  O  O418  1  0.88091185  0.86399106  0.62303433  1
  O  O419  1  0.11694094  0.13866905  0.38418308  1
  O  O420  1  0.15669835  0.10721777  0.88569980  1
  O  O421  1  0.13145047  0.63122441  0.36511288  1
  O  O422  1  0.13102005  0.62998824  0.88540171  1
  O  O423  1  0.63579551  0.12415344  0.37115732  1
  O  O424  1  0.62701584  0.12925018  0.88378973  1
  O  O425  1  0.62083058  0.62559745  0.38497573  1
  O  O426  1  0.63257692  0.63076548  0.87433411  1
