# generated using pymatgen
data_V85Zn86O256
_symmetry_space_group_name_H-M   'P 1'
_cell_length_a   16.92476029
_cell_length_b   16.92498330
_cell_length_c   16.91897640
_cell_angle_alpha   90.04208262
_cell_angle_beta   90.03715347
_cell_angle_gamma   89.98917385
_symmetry_Int_Tables_number   1
_chemical_formula_structural   V85Zn86O256
_chemical_formula_sum   'V85 Zn86 O256'
_cell_volume   4846.46012444
_cell_formula_units_Z   1
loop_
 _symmetry_equiv_pos_site_id
 _symmetry_equiv_pos_as_xyz
  1  'x, y, z'
loop_
 _atom_site_type_symbol
 _atom_site_label
 _atom_site_symmetry_multiplicity
 _atom_site_fract_x
 _atom_site_fract_y
 _atom_site_fract_z
 _atom_site_occupancy
  V  V0  1  0.75555544  0.62658624  0.37697163  1
  V  V1  1  0.75297234  0.49893508  0.25880663  1
  V  V2  1  0.50078956  0.11985256  0.11626086  1
  V  V3  1  0.74652239  0.37579206  0.12725141  1
  V  V4  1  0.13039199  0.13313961  0.50257405  1
  V  V5  1  0.74863208  0.25004769  0.00079420  1
  V  V6  1  0.87742267  0.61981210  0.75270167  1
  V  V7  1  0.74909723  0.12559090  0.87427506  1
  V  V8  1  -0.00621746  0.12772776  0.12512048  1
  V  V9  1  0.61874277  0.50881046  0.13349062  1
  V  V10  1  0.49727114  0.74752663  0.73507330  1
  V  V11  1  -0.00303852  0.49670174  0.48395294  1
  V  V12  1  0.11739698  0.87816891  0.25534591  1
  V  V13  1  0.75237425  0.00523785  0.24614587  1
  V  V14  1  0.62343127  0.37523692  0.75045111  1
  V  V15  1  0.00020010  0.12221231  0.62600052  1
  V  V16  1  0.37743549  -0.01217406  0.38328766  1
  V  V17  1  0.00309129  0.38310353  0.88341394  1
  V  V18  1  0.37891043  0.62535019  0.73733946  1
  V  V19  1  0.73241688  0.12834969  0.37563186  1
  V  V20  1  0.38704911  0.48869611  0.38024782  1
  V  V21  1  0.25000653  -0.00115398  0.25052078  1
  V  V22  1  0.73670754  0.24629797  0.50001049  1
  V  V23  1  0.37402649  0.37778933  0.00109299  1
  V  V24  1  0.88060166  0.87429304  0.49218345  1
  V  V25  1  0.87718978  0.01172867  0.37290552  1
  V  V26  1  0.62103599  0.37484984  0.26510859  1
  V  V27  1  0.50356000  0.12885358  0.61260844  1
  V  V28  1  0.87580803  0.00013209  0.87328815  1
  V  V29  1  0.25177890  0.13199549  0.37843170  1
  V  V30  1  0.75238058  0.49856145  0.75366188  1
  V  V31  1  0.75280788  0.62207386  0.87757231  1
  V  V32  1  0.12372098  0.36667201  0.75449598  1
  V  V33  1  0.25078377  0.75115766  0.00092590  1
  V  V34  1  0.49855338  0.50933299  0.00560529  1
  V  V35  1  0.37521244  0.50214685  0.87340242  1
  V  V36  1  0.37073509  0.11823993  0.74145981  1
  V  V37  1  0.61894456  0.75409566  0.37244066  1
  V  V38  1  0.62109295  0.74863269  0.87379140  1
  V  V39  1  0.50545295  0.25278687  0.25786584  1
  V  V40  1  0.24648949  0.50794025  0.25971827  1
  V  V41  1  0.25898920  0.86799961  0.60831768  1
  V  V42  1  0.87877643  0.37632893  0.48768949  1
  V  V43  1  0.24507155  0.37534789  0.12839701  1
  V  V44  1  0.37493699  0.25173766  0.12396175  1
  V  V45  1  0.87600862  0.25157029  0.62540902  1
  V  V46  1  0.24922765  0.49943563  0.74930026  1
  V  V47  1  0.37456395  0.12469834  0.24991251  1
  V  V48  1  0.38349495  0.87925499  0.00087617  1
  V  V49  1  0.11927654  0.37340806  0.26079289  1
  V  V50  1  0.49215299  0.24774273  0.74541451  1
  V  V51  1  0.37777512  0.36013428  0.50385153  1
  V  V52  1  0.12415103  0.61848342  0.00125420  1
  V  V53  1  0.75302124  0.87489456  0.62303667  1
  V  V54  1  0.50295776  -0.01606927  0.49488519  1
  V  V55  1  0.49782331  0.37573584  0.87559792  1
  V  V56  1  0.12624976  0.74973411  0.87545130  1
  V  V57  1  0.12700621  0.49725610  0.62335443  1
  V  V58  1  0.61456836  0.50509724  0.62214189  1
  V  V59  1  0.62250076  0.87679091  0.74618979  1
  V  V60  1  0.00015263  0.62239567  0.62130795  1
  V  V61  1  -0.00020357  0.61667476  0.12223304  1
  V  V62  1  0.24487203  0.12507237  0.87418263  1
  V  V63  1  0.00195487  0.74831323  0.74929581  1
  V  V64  1  0.87972946  0.62051556  0.25496090  1
  V  V65  1  0.13760545  0.87536756  0.74855597  1
  V  V66  1  0.75004324  -0.00067671  0.74709037  1
  V  V67  1  0.87791114  0.75112460  0.12823363  1
  V  V68  1  -0.00881241  0.24884646  0.25900213  1
  V  V69  1  0.61851998  0.87916559  0.25013840  1
  V  V70  1  0.38806529  0.62515905  0.25562280  1
  V  V71  1  0.87459239  0.39183454  -0.00331775  1
  V  V72  1  0.13854146  0.62708960  0.49369257  1
  V  V73  1  0.75036053  0.74968201  -0.00009588  1
  V  V74  1  0.87439043  0.12500790  0.74911452  1
  V  V75  1  0.00404545  -0.00285539  0.49490761  1
  V  V76  1  0.00185765  0.87450825  0.87294186  1
  V  V77  1  0.24997500  0.87654842  0.12632506  1
  V  V78  1  0.75190147  0.75055810  0.49808523  1
  V  V79  1  0.13194450  0.75378033  0.37737933  1
  V  V80  1  0.13739931  -0.00281777  0.62576562  1
  V  V81  1  0.37882071  0.00050120  0.87365103  1
  V  V82  1  0.62300966  0.25106290  0.87563804  1
  V  V83  1  0.75179030  0.37544571  0.62590631  1
  V  V84  1  0.87827376  0.87543226  -0.00033386  1
  Zn  Zn85  1  0.12211949  0.13160114  -0.00137982  1
  Zn  Zn86  1  0.62773386  0.00464404  0.61466706  1
  Zn  Zn87  1  0.12344911  0.25337383  0.38071653  1
  Zn  Zn88  1  0.00022274  0.24900023  0.75951068  1
  Zn  Zn89  1  0.12488802  0.00507758  0.12160399  1
  Zn  Zn90  1  0.50322314  0.88088052  0.87629725  1
  Zn  Zn91  1  0.24243212  0.25544949  -0.01036040  1
  Zn  Zn92  1  0.38110236  0.73838937  0.11980974  1
  Zn  Zn93  1  0.62206979  0.62516852  0.50882616  1
  Zn  Zn94  1  -0.00181062  0.75560323  0.25868945  1
  Zn  Zn95  1  0.61943482  0.11493181  -0.00629332  1
  Zn  Zn96  1  0.87645542  0.74913878  0.62330409  1
  Zn  Zn97  1  0.12011136  0.49596640  0.12453894  1
  Zn  Zn98  1  0.62032900  -0.00518446  0.11607504  1
  Zn  Zn99  1  0.37246786  0.74610217  0.59291136  1
  Zn  Zn100  1  0.61942159  0.63032277  0.00754825  1
  Zn  Zn101  1  0.87123948  0.24955730  0.12815700  1
  Zn  Zn102  1  0.00354266  0.00434669  -0.00059392  1
  Zn  Zn103  1  0.75043429  0.87729112  0.12577592  1
  Zn  Zn104  1  0.25105818  0.62571033  0.87443480  1
  Zn  Zn105  1  0.49975357  0.75250968  0.24694842  1
  Zn  Zn106  1  0.24907665  0.35640425  0.61895999  1
  Zn  Zn107  1  0.18210998  0.18944218  0.18737909  1
  Zn  Zn108  1  0.18450102  0.18231190  0.69655793  1
  Zn  Zn109  1  0.18875491  0.69179091  0.18976117  1
  Zn  Zn110  1  0.19082258  0.68731575  0.68274925  1
  Zn  Zn111  1  0.68454110  0.18527281  0.18890549  1
  Zn  Zn112  1  0.68346871  0.18821315  0.68633752  1
  Zn  Zn113  1  0.69041831  0.68925148  0.19170262  1
  Zn  Zn114  1  0.68906025  0.68720502  0.68712677  1
  Zn  Zn115  1  0.31218047  0.31376564  0.31149251  1
  Zn  Zn116  1  0.31096632  0.31056315  0.80705227  1
  Zn  Zn117  1  0.34246662  0.77782478  0.38127599  1
  Zn  Zn118  1  0.31525629  0.81169917  0.81222864  1
  Zn  Zn119  1  0.80829225  0.30808895  0.31428530  1
  Zn  Zn120  1  0.81703357  0.31431351  0.81715851  1
  Zn  Zn121  1  0.81087869  0.81879329  0.31205306  1
  Zn  Zn122  1  0.81290840  0.80894285  0.81118386  1
  Zn  Zn123  1  0.19149763  0.43488416  0.44069101  1
  Zn  Zn124  1  0.18780482  0.43731958  0.93744863  1
  Zn  Zn125  1  0.18954559  0.94101411  0.43456045  1
  Zn  Zn126  1  0.19072987  0.94474461  0.93804286  1
  Zn  Zn127  1  0.69250850  0.43572951  0.44091874  1
  Zn  Zn128  1  0.68364332  0.44082356  0.94056249  1
  Zn  Zn129  1  0.68823978  0.93899187  0.43441453  1
  Zn  Zn130  1  0.68826654  0.93674233  0.93756095  1
  Zn  Zn131  1  0.31257406  0.06218267  0.05860377  1
  Zn  Zn132  1  0.31304217  0.18301075  0.56447933  1
  Zn  Zn133  1  0.31018984  0.56231212  0.07003383  1
  Zn  Zn134  1  0.31595540  0.55201234  0.55990331  1
  Zn  Zn135  1  0.81439409  0.06512536  0.06088811  1
  Zn  Zn136  1  0.81152802  0.06365795  0.55800590  1
  Zn  Zn137  1  0.80626026  0.56532725  0.07044992  1
  Zn  Zn138  1  0.81281350  0.55956836  0.56290222  1
  Zn  Zn139  1  0.43650359  0.43882975  0.19185191  1
  Zn  Zn140  1  0.43481352  0.43343858  0.68164333  1
  Zn  Zn141  1  0.43356969  0.93571854  0.18985744  1
  Zn  Zn142  1  0.43576896  0.94007556  0.68149943  1
  Zn  Zn143  1  0.93532543  0.43403328  0.19012547  1
  Zn  Zn144  1  0.93998925  0.43782187  0.68881281  1
  Zn  Zn145  1  0.93598966  0.94330402  0.18717605  1
  Zn  Zn146  1  0.94155209  0.93598321  0.68343500  1
  Zn  Zn147  1  0.06262887  0.06799630  0.31188057  1
  Zn  Zn148  1  0.06261233  0.05814707  0.80983532  1
  Zn  Zn149  1  0.06465707  0.56586586  0.31180980  1
  Zn  Zn150  1  0.06207565  0.55760920  0.81665085  1
  Zn  Zn151  1  0.55919143  0.06057989  0.30820270  1
  Zn  Zn152  1  0.55963963  0.06256123  0.81068403  1
  Zn  Zn153  1  0.55956132  0.56385557  0.33872502  1
  Zn  Zn154  1  0.56216179  0.56390121  0.81061713  1
  Zn  Zn155  1  0.44092600  0.18441845  0.43232840  1
  Zn  Zn156  1  0.43064208  0.18938743  0.93545362  1
  Zn  Zn157  1  0.44771069  0.66036833  0.44705541  1
  Zn  Zn158  1  0.43522767  0.68850124  0.93034660  1
  Zn  Zn159  1  0.93557289  0.18660987  0.44135250  1
  Zn  Zn160  1  0.93656562  0.19592845  0.94053209  1
  Zn  Zn161  1  0.94479675  0.68999836  0.43576345  1
  Zn  Zn162  1  0.93859599  0.68481677  0.93835197  1
  Zn  Zn163  1  0.06263098  0.30747307  0.06313386  1
  Zn  Zn164  1  0.05952755  0.31351863  0.56635208  1
  Zn  Zn165  1  0.06341899  0.81092123  0.06618260  1
  Zn  Zn166  1  0.06476441  0.81026048  0.56040834  1
  Zn  Zn167  1  0.56193602  0.31561060  0.06606315  1
  Zn  Zn168  1  0.55749323  0.31887889  0.56235386  1
  Zn  Zn169  1  0.56083322  0.80978910  0.06934038  1
  Zn  Zn170  1  0.56517305  0.81082608  0.56006593  1
  O  O171  1  0.10988944  0.12543274  0.12526815  1
  O  O172  1  0.12095914  0.11449059  0.62198208  1
  O  O173  1  0.11618023  0.62722507  0.11955420  1
  O  O174  1  0.11910218  0.61857739  0.61652168  1
  O  O175  1  0.60890177  0.12688203  0.12135156  1
  O  O176  1  0.60819966  0.11993382  0.63188465  1
  O  O177  1  0.63166579  0.61261638  0.12706373  1
  O  O178  1  0.62828045  0.61117873  0.62649059  1
  O  O179  1  0.36432833  0.38078669  0.38647020  1
  O  O180  1  0.37827410  0.38187486  0.87945817  1
  O  O181  1  0.37101945  0.89010918  0.36674767  1
  O  O182  1  0.37499398  0.88399739  0.88103220  1
  O  O183  1  0.87006423  0.37089933  0.38868219  1
  O  O184  1  0.87538558  0.38155553  0.89097237  1
  O  O185  1  0.86941076  0.88777132  0.38761901  1
  O  O186  1  0.88066420  0.87707141  0.88014707  1
  O  O187  1  0.26045904  0.00820167  0.36935241  1
  O  O188  1  0.26447531  0.01171196  0.87510057  1
  O  O189  1  0.25412403  0.49490936  0.36134185  1
  O  O190  1  0.25676341  0.50131655  0.86634934  1
  O  O191  1  0.75519646  0.01251186  0.37015557  1
  O  O192  1  0.75723379  0.00430124  0.86599557  1
  O  O193  1  0.74747583  0.50830578  0.36594062  1
  O  O194  1  0.74199353  0.50818602  0.86355349  1
  O  O195  1  0.24750062  0.48745320  0.13580931  1
  O  O196  1  0.23752746  0.49915660  0.63137882  1
  O  O197  1  0.24949233  0.99590501  0.13207634  1
  O  O198  1  0.23752704  0.98412003  0.62459441  1
  O  O199  1  0.74176559  0.49466855  0.13893557  1
  O  O200  1  0.74731712  0.49548250  0.63940406  1
  O  O201  1  0.75309758  1.00456469  0.13749130  1
  O  O202  1  0.74823635  0.99461245  0.62865019  1
  O  O203  1  0.00650952  0.36187055  0.24504731  1
  O  O204  1  0.00798010  0.37641243  0.75971248  1
  O  O205  1  0.01409561  0.87683449  0.24083000  1
  O  O206  1  0.00663342  0.86564109  0.75263990  1
  O  O207  1  0.50755465  0.36095036  0.24137696  1
  O  O208  1  0.50159645  0.36663540  0.75378578  1
  O  O209  1  0.51439408  0.87999920  0.24902617  1
  O  O210  1  0.50798929  0.86859589  0.74892559  1
  O  O211  1  0.49646357  0.13599212  0.23900963  1
  O  O212  1  0.49213742  0.13028756  0.74162272  1
  O  O213  1  0.48935074  0.61824614  0.25462715  1
  O  O214  1  0.49107111  0.63407364  0.75212564  1
  O  O215  1  1.00145006  0.13911397  0.24153610  1
  O  O216  1  0.99258875  0.12648353  0.74513660  1
  O  O217  1  0.99186396  0.62743281  0.24357051  1
  O  O218  1  0.99463955  0.62641468  0.74583934  1
  O  O219  1  0.37011275  0.25951508  0.00833621  1
  O  O220  1  0.37389858  0.25423526  0.49465394  1
  O  O221  1  0.36371539  0.75470613  -0.00312280  1
  O  O222  1  0.38163445  0.73886421  0.48031037  1
  O  O223  1  0.85875670  0.26202400  0.00277342  1
  O  O224  1  0.87047427  0.25554564  0.51172632  1
  O  O225  1  0.87172156  0.75560027  0.00629939  1
  O  O226  1  0.87243084  0.75827636  0.50003655  1
  O  O227  1  0.11683508  0.23711330  0.50074952  1
  O  O228  1  0.13040569  0.24665422  1.00014512  1
  O  O229  1  0.12168942  0.73426747  0.49597900  1
  O  O230  1  0.13535032  0.74495794  0.99747467  1
  O  O231  1  0.63810936  0.25798201  0.50729323  1
  O  O232  1  0.63448387  0.25378262  0.99454700  1
  O  O233  1  0.63320340  0.74672958  0.49170148  1
  O  O234  1  0.63025576  0.75026674  0.99152886  1
  O  O235  1  0.48909384  0.24513915  0.12907252  1
  O  O236  1  0.50509057  0.23839150  0.63166100  1
  O  O237  1  0.49171188  0.75088249  0.13374993  1
  O  O238  1  0.49464333  0.75230891  0.63156803  1
  O  O239  1  0.99466956  0.24281299  0.13429425  1
  O  O240  1  0.99094498  0.24242022  0.63042610  1
  O  O241  1  0.98864408  0.74266356  0.12751655  1
  O  O242  1  1.00111381  0.73607679  0.62918533  1
  O  O243  1  0.00043146  0.24218683  0.36277214  1
  O  O244  1  -0.01495754  0.27346536  0.87209332  1
  O  O245  1  0.01825558  0.74659527  0.37235303  1
  O  O246  1  0.00648800  0.75492803  0.87012565  1
  O  O247  1  0.50006788  0.24585071  0.35656859  1
  O  O248  1  0.50335672  0.25553974  0.86874145  1
  O  O249  1  0.51795255  0.74780354  0.36713727  1
  O  O250  1  0.51220533  0.75207845  0.86753680  1
  O  O251  1  0.24216533  0.12203932  0.49186633  1
  O  O252  1  0.25249929  0.12775141  0.98472194  1
  O  O253  1  0.23607767  0.61770255  0.50500701  1
  O  O254  1  0.24444208  0.63423280  1.00184890  1
  O  O255  1  0.74930852  0.13227756  0.48878902  1
  O  O256  1  0.74871539  0.13532864  0.99308831  1
  O  O257  1  0.74998950  0.62983264  0.49209372  1
  O  O258  1  0.74756043  0.63065028  0.99285943  1
  O  O259  1  0.25613703  0.37674311  0.00946137  1
  O  O260  1  0.26418208  0.38017697  0.50535130  1
  O  O261  1  0.25472100  0.86868312  0.00645012  1
  O  O262  1  0.24767750  0.87502931  0.50947193  1
  O  O263  1  0.75413937  0.37344711  0.00701963  1
  O  O264  1  0.75988854  0.36744963  0.50794541  1
  O  O265  1  0.76381326  0.86720691  -0.00136038  1
  O  O266  1  0.75719824  0.87136215  0.50537845  1
  O  O267  1  0.13175863  0.49376617  0.24904158  1
  O  O268  1  0.13201882  0.49477000  0.74395211  1
  O  O269  1  0.13249317  0.99610113  0.25058647  1
  O  O270  1  0.11703123  0.98615482  0.73742935  1
  O  O271  1  0.62930744  0.49386294  0.24875237  1
  O  O272  1  0.63191280  0.49508111  0.74343890  1
  O  O273  1  0.63296876  0.99584674  0.24559249  1
  O  O274  1  0.63056975  0.99029659  0.74857813  1
  O  O275  1  0.36854593  0.00678952  0.25655549  1
  O  O276  1  0.37987926  0.00825345  0.75708486  1
  O  O277  1  0.36089301  0.50021278  0.25402272  1
  O  O278  1  0.36845964  0.50468500  0.75050882  1
  O  O279  1  0.86651217  -0.00453144  0.26203279  1
  O  O280  1  0.87082794  0.00386495  0.75267194  1
  O  O281  1  0.86636208  0.50811527  0.24718736  1
  O  O282  1  0.86828028  0.51139827  0.74768103  1
  O  O283  1  0.12729237  0.37313715  0.36536840  1
  O  O284  1  0.11319544  0.38059943  0.87074505  1
  O  O285  1  0.12823866  0.87081939  0.36601764  1
  O  O286  1  0.12213330  0.87158336  0.86739499  1
  O  O287  1  0.63136852  0.37625505  0.36431303  1
  O  O288  1  0.61778741  0.37198322  0.87008124  1
  O  O289  1  0.63562495  0.86561958  0.36399918  1
  O  O290  1  0.62757628  0.86622798  0.86192103  1
  O  O291  1  0.38048771  0.13306872  0.12825576  1
  O  O292  1  0.38906433  0.12239839  0.63232227  1
  O  O293  1  0.36654350  0.62380677  0.14930284  1
  O  O294  1  0.36897160  0.62696628  0.63312606  1
  O  O295  1  0.88739210  0.12988548  0.12349874  1
  O  O296  1  0.87889919  0.13124725  0.62838013  1
  O  O297  1  0.88070149  0.63198651  0.13207019  1
  O  O298  1  0.88389162  0.62457966  0.63269717  1
  O  O299  1  0.26081022  0.25993086  0.13157646  1
  O  O300  1  0.24871588  0.24419041  0.63126486  1
  O  O301  1  0.25607020  0.75882799  0.11908952  1
  O  O302  1  0.25321744  0.76307820  0.62369523  1
  O  O303  1  0.74725901  0.25805132  0.11960327  1
  O  O304  1  0.75611108  0.25301143  0.62001033  1
  O  O305  1  0.76293502  0.74941378  0.11873974  1
  O  O306  1  0.75267819  0.75489427  0.61590973  1
  O  O307  1  0.24624426  0.23505876  0.36528188  1
  O  O308  1  0.26036902  0.23135246  0.87258970  1
  O  O309  1  0.23244533  0.74825642  0.37330365  1
  O  O310  1  0.24368677  0.74867981  0.88291860  1
  O  O311  1  0.75155215  0.23564063  0.38293800  1
  O  O312  1  0.74427342  0.24703758  0.88125360  1
  O  O313  1  0.75085925  0.74650549  0.38335040  1
  O  O314  1  0.74049170  0.74307835  0.87757089  1
  O  O315  1  -0.00257889  0.12799606  0.01064199  1
  O  O316  1  0.00634829  0.11770118  0.50771530  1
  O  O317  1  0.01063900  0.63151947  0.00924312  1
  O  O318  1  0.00282905  0.61514467  0.50836017  1
  O  O319  1  0.49807584  0.13385896  0.01297477  1
  O  O320  1  0.49828588  0.12249420  0.51065601  1
  O  O321  1  0.49923057  0.61324052  -0.00624207  1
  O  O322  1  0.53240008  0.59447704  0.44915793  1
  O  O323  1  0.47966579  0.37204347  0.50099653  1
  O  O324  1  0.49333336  0.38470236  0.99607873  1
  O  O325  1  0.49912147  0.88516955  0.50152728  1
  O  O326  1  0.48608260  0.86769544  0.99764459  1
  O  O327  1  0.99182249  0.38449790  0.50571557  1
  O  O328  1  0.98495961  0.37550245  0.99686783  1
  O  O329  1  0.99266855  0.88402271  0.50529126  1
  O  O330  1  0.99087608  0.87340969  0.99513783  1
  O  O331  1  0.48181091  0.47644871  0.35424339  1
  O  O332  1  0.49520826  0.49453328  0.88106881  1
  O  O333  1  0.48993545  1.00550476  0.38373810  1
  O  O334  1  0.48647537  0.99888547  0.87275727  1
  O  O335  1  1.00038309  0.50369683  0.38489582  1
  O  O336  1  0.99437978  0.48455349  0.87364587  1
  O  O337  1  0.99384816  1.00768370  0.38637920  1
  O  O338  1  0.99274803  0.99197137  0.87535921  1
  O  O339  1  -0.00053601  0.01526627  0.12443063  1
  O  O340  1  0.00683458  0.00427625  0.61390573  1
  O  O341  1  -0.00047645  0.51262922  0.12949935  1
  O  O342  1  0.01117832  0.50879004  0.62512005  1
  O  O343  1  0.49547659  0.01769655  0.12999262  1
  O  O344  1  0.50010787  0.00729486  0.60870173  1
  O  O345  1  0.50704245  0.49517440  0.11821640  1
  O  O346  1  0.51576592  0.49721393  0.63067716  1
  O  O347  1  0.24061969  0.38107410  0.24503226  1
  O  O348  1  0.24273003  0.38511926  0.74939811  1
  O  O349  1  0.24158282  0.89000335  0.24127298  1
  O  O350  1  0.23978962  0.87013954  0.74513434  1
  O  O351  1  0.74465361  0.38030588  0.24549626  1
  O  O352  1  0.74658273  0.38216355  0.74878935  1
  O  O353  1  0.74411221  0.88908614  0.24805089  1
  O  O354  1  0.74536099  0.87742687  0.74219189  1
  O  O355  1  0.25237528  0.11559872  0.25330981  1
  O  O356  1  0.26320940  0.12269210  0.75866035  1
  O  O357  1  0.24619392  0.60934129  0.24880036  1
  O  O358  1  0.25424398  0.61351245  0.74987594  1
  O  O359  1  0.74606128  0.12058479  0.26310159  1
  O  O360  1  0.75445037  0.11995508  0.75361044  1
  O  O361  1  0.76393050  0.61782116  0.25237625  1
  O  O362  1  0.75782685  0.61969814  0.75633717  1
  O  O363  1  0.36873060  0.11774896  0.36766959  1
  O  O364  1  0.37218923  0.11671236  0.86655901  1
  O  O365  1  0.37350227  0.60025839  0.36362803  1
  O  O366  1  0.37224686  0.61690408  0.86275513  1
  O  O367  1  0.86664856  0.11443199  0.38144604  1
  O  O368  1  0.86904324  0.12171056  0.86951526  1
  O  O369  1  0.86765848  0.63087791  0.36695287  1
  O  O370  1  0.86200782  0.62978123  0.86891850  1
  O  O371  1  0.13084063  0.37571345  0.13471488  1
  O  O372  1  0.12471975  0.38252511  0.63467033  1
  O  O373  1  0.13657762  0.87655412  0.13000663  1
  O  O374  1  0.13103605  0.87667564  0.63014401  1
  O  O375  1  0.63471690  0.38518773  0.13052880  1
  O  O376  1  0.63180008  0.38173596  0.63365451  1
  O  O377  1  0.63159511  0.87675504  0.13349949  1
  O  O378  1  0.63256616  0.87559367  0.63350416  1
  O  O379  1  0.11341798  0.25773105  0.25412956  1
  O  O380  1  0.12160411  0.26333080  0.75186236  1
  O  O381  1  0.12421859  0.76111373  0.25612112  1
  O  O382  1  0.12098444  0.75398818  0.75452409  1
  O  O383  1  0.61279432  0.25883599  0.24307055  1
  O  O384  1  0.61536412  0.25615781  0.75569275  1
  O  O385  1  0.63010187  0.76251129  0.25458526  1
  O  O386  1  0.61830280  0.75485566  0.75323245  1
  O  O387  1  0.38411513  0.24676495  0.24300052  1
  O  O388  1  0.38775115  0.24137540  0.75311219  1
  O  O389  1  0.37619961  0.72930987  0.27074554  1
  O  O390  1  0.38464870  0.74060423  0.75289109  1
  O  O391  1  0.88711486  0.25696299  0.24800391  1
  O  O392  1  0.87160015  0.24504808  0.73920393  1
  O  O393  1  0.87567329  0.74541924  0.24377995  1
  O  O394  1  0.88165792  0.73772442  0.74752926  1
  O  O395  1  0.37947149  0.49453131  0.48558022  1
  O  O396  1  0.37959035  0.49769751  0.99714267  1
  O  O397  1  0.38663641  0.99938520  0.48478271  1
  O  O398  1  0.37234450  0.99028096  0.98967535  1
  O  O399  1  0.88477787  0.48858870  0.50727025  1
  O  O400  1  0.86604084  0.49007847  1.00617450  1
  O  O401  1  0.88383705  0.99465875  0.49476891  1
  O  O402  1  0.87632949  0.99076317  0.99254148  1
  O  O403  1  0.12159521  0.00880421  0.00194613  1
  O  O404  1  0.11945627  0.00733957  0.50532615  1
  O  O405  1  0.13177805  0.51460445  0.00418883  1
  O  O406  1  0.11804101  0.50606741  0.50585285  1
  O  O407  1  0.62813964  0.00167575  0.00266985  1
  O  O408  1  0.60953622  -0.00365525  0.49649130  1
  O  O409  1  0.61562789  0.50330499  0.01160527  1
  O  O410  1  0.63760270  0.49500411  0.52148388  1
  O  O411  1  0.36813579  0.36927621  0.12218003  1
  O  O412  1  0.36922604  0.37612154  0.61047759  1
  O  O413  1  0.36380588  0.87657211  0.11792658  1
  O  O414  1  0.36142443  0.87167841  0.62525414  1
  O  O415  1  0.86146240  0.37557580  0.11704935  1
  O  O416  1  0.87032272  0.36701691  0.62460108  1
  O  O417  1  0.87516898  0.86886565  0.11715520  1
  O  O418  1  0.86966140  0.87373576  0.61417268  1
  O  O419  1  0.13362258  0.12376187  0.38640194  1
  O  O420  1  0.14193972  0.11832024  0.86719219  1
  O  O421  1  0.12436159  0.62773795  0.38901026  1
  O  O422  1  0.12563369  0.63104190  0.88336388  1
  O  O423  1  0.63390776  0.12255892  0.37442331  1
  O  O424  1  0.63058427  0.13296732  0.87342962  1
  O  O425  1  0.64969899  0.64012334  0.35565267  1
  O  O426  1  0.63541602  0.63278677  0.87450263  1
