# generated using pymatgen
data_V85Zn86O256
_symmetry_space_group_name_H-M   'P 1'
_cell_length_a   16.96606733
_cell_length_b   16.95666004
_cell_length_c   16.98195134
_cell_angle_alpha   90.07321970
_cell_angle_beta   89.96872842
_cell_angle_gamma   89.97807694
_symmetry_Int_Tables_number   1
_chemical_formula_structural   V85Zn86O256
_chemical_formula_sum   'V85 Zn86 O256'
_cell_volume   4885.49575542
_cell_formula_units_Z   1
loop_
 _symmetry_equiv_pos_site_id
 _symmetry_equiv_pos_as_xyz
  1  'x, y, z'
loop_
 _atom_site_type_symbol
 _atom_site_label
 _atom_site_symmetry_multiplicity
 _atom_site_fract_x
 _atom_site_fract_y
 _atom_site_fract_z
 _atom_site_occupancy
  V  V0  1  0.62626998  0.75306906  0.86737138  1
  V  V1  1  0.37774232  0.12699416  0.74382946  1
  V  V2  1  -0.00213143  0.25017508  0.74810575  1
  V  V3  1  0.11868513  0.12217067  0.49727266  1
  V  V4  1  0.25180927  0.12731657  0.87089512  1
  V  V5  1  0.62447184  0.00048530  0.12294794  1
  V  V6  1  0.51215700  0.12876490  0.61995725  1
  V  V7  1  0.87367581  0.12466457  0.75204301  1
  V  V8  1  -0.00392988  0.24969504  0.25529609  1
  V  V9  1  0.38002099  0.36668258  0.00621167  1
  V  V10  1  0.25294899  0.50433216  0.75176911  1
  V  V11  1  0.12109501  0.37537353  0.24275578  1
  V  V12  1  0.50106192  -0.00304911  -0.00332088  1
  V  V13  1  0.37093448  0.38593069  0.49288220  1
  V  V14  1  0.62455921  0.12646373  -0.00419921  1
  V  V15  1  0.74674844  -0.01207517  0.74873787  1
  V  V16  1  0.11996207  0.25798674  0.37436640  1
  V  V17  1  0.74983347  0.74964578  -0.00161724  1
  V  V18  1  0.49861803  0.13236010  0.12267654  1
  V  V19  1  0.76038155  0.75774133  0.50742274  1
  V  V20  1  0.24998176  0.12173079  0.37328192  1
  V  V21  1  0.37763284  0.61664482  0.25688468  1
  V  V22  1  0.37382791  -0.00035448  0.37291442  1
  V  V23  1  0.75248304  0.62345372  0.38011751  1
  V  V24  1  0.62765674  -0.01554378  0.62800650  1
  V  V25  1  0.13758604  0.73627533  0.88100066  1
  V  V26  1  0.88744742  0.49070384  0.87257863  1
  V  V27  1  0.87730213  0.74786762  0.12461852  1
  V  V28  1  0.50445732  0.87763993  0.37411413  1
  V  V29  1  0.74996119  0.87709067  0.12325602  1
  V  V30  1  0.51406311  0.00449512  0.49754938  1
  V  V31  1  0.75099385  0.25340651  -0.00157417  1
  V  V32  1  0.75531159  0.01883906  0.24577959  1
  V  V33  1  0.13913711  0.88100257  0.24940284  1
  V  V34  1  0.37621593  0.87429453  0.50206011  1
  V  V35  1  0.37560747  0.73905340  0.62452998  1
  V  V36  1  0.87350859  0.24591886  0.13377615  1
  V  V37  1  0.24787466  0.24962481  0.49934142  1
  V  V38  1  0.74978953  0.12622273  0.87132783  1
  V  V39  1  0.50141407  0.87130705  0.86781997  1
  V  V40  1  0.50529375  0.62855327  0.12556025  1
  V  V41  1  0.00208552  0.00174663  0.00158512  1
  V  V42  1  -0.00158126  0.76110084  0.25247057  1
  V  V43  1  -0.00931963  -0.01644896  0.49608289  1
  V  V44  1  0.25119747  0.61967469  0.37724377  1
  V  V45  1  0.50136942  0.75122783  0.24774040  1
  V  V46  1  0.62825376  0.87576093  0.24786545  1
  V  V47  1  0.87911005  0.36638430  0.50030385  1
  V  V48  1  0.74281606  0.36955813  0.62123466  1
  V  V49  1  0.62848026  0.74929475  0.37656771  1
  V  V50  1  0.12690262  0.25113410  0.87170975  1
  V  V51  1  0.37874771  -0.00074376  0.86960115  1
  V  V52  1  0.12262495  0.12650057  0.00083375  1
  V  V53  1  0.87810246  0.75935237  0.63925765  1
  V  V54  1  0.50523086  0.49908473  -0.00390140  1
  V  V55  1  0.25566833  0.24593783  0.01029443  1
  V  V56  1  0.87774435  0.87669041  -0.00065164  1
  V  V57  1  0.76204488  0.62320252  0.86879377  1
  V  V58  1  -0.00699964  0.62711173  0.64063500  1
  V  V59  1  0.24804186  0.37494398  0.62464278  1
  V  V60  1  0.87735436  0.62264067  0.25095983  1
  V  V61  1  0.62553011  0.25761752  0.86394322  1
  V  V62  1  0.62176502  0.62121729  0.51001680  1
  V  V63  1  0.37465381  0.12386595  0.24330081  1
  V  V64  1  0.37506572  0.24950549  0.62234037  1
  V  V65  1  0.49913941  0.25185574  0.25032322  1
  V  V66  1  0.49897641  0.37927665  0.86689885  1
  V  V67  1  0.37435624  0.62520085  0.76595532  1
  V  V68  1  0.74657901  0.49706823  0.74815243  1
  V  V69  1  0.74982269  0.12776514  0.39528007  1
  V  V70  1  0.24990545  -0.00148909  0.74486802  1
  V  V71  1  -0.00361476  0.12254841  0.13406582  1
  V  V72  1  0.11878409  0.62658667  0.50215340  1
  V  V73  1  0.00496134  0.86708739  0.86949847  1
  V  V74  1  0.11929797  0.37512745  0.74710698  1
  V  V75  1  0.00507258  0.61119095  0.11658991  1
  V  V76  1  0.12073972  0.75433563  0.37698892  1
  V  V77  1  0.49703707  0.38474050  0.37471086  1
  V  V78  1  0.62551276  0.62481078  -0.00133678  1
  V  V79  1  0.88268340  0.49613319  0.38016612  1
  V  V80  1  0.62352687  0.24711628  0.39010130  1
  V  V81  1  0.75034067  0.37807605  0.12708900  1
  V  V82  1  0.50509940  0.74507301  0.74279781  1
  V  V83  1  0.35931796  0.75702556  0.12743823  1
  V  V84  1  0.12380362  -0.00344916  0.62315025  1
  Zn  Zn85  1  0.25156387  0.87244853  0.62418704  1
  Zn  Zn86  1  0.25463633  0.37333527  0.12976112  1
  Zn  Zn87  1  0.35981498  0.87128352  0.00193432  1
  Zn  Zn88  1  0.12252048  0.86787310  0.74774528  1
  Zn  Zn89  1  0.62633896  0.37693962  0.25291648  1
  Zn  Zn90  1  0.32644302  0.53900663  0.92065772  1
  Zn  Zn91  1  0.24904946  0.75004551  0.50161078  1
  Zn  Zn92  1  0.16599360  0.54197606  0.06532336  1
  Zn  Zn93  1  0.24641978  0.49574891  0.25281804  1
  Zn  Zn94  1  0.50289408  0.25726945  0.74469179  1
  Zn  Zn95  1  0.61440103  0.49977676  0.63593429  1
  Zn  Zn96  1  0.87628577  0.00154991  0.87294887  1
  Zn  Zn97  1  -0.00527843  0.12173621  0.62337763  1
  Zn  Zn98  1  0.62830297  0.49969141  0.12813122  1
  Zn  Zn99  1  0.49090070  0.50997965  0.50215382  1
  Zn  Zn100  1  0.18274319  -0.04280134  0.10084275  1
  Zn  Zn101  1  0.88027592  -0.00462047  0.36838442  1
  Zn  Zn102  1  0.88736673  0.38322826  0.00172298  1
  Zn  Zn103  1  -0.00016269  0.49787098  0.50286233  1
  Zn  Zn104  1  0.75010719  0.49734288  0.25305473  1
  Zn  Zn105  1  0.12154563  0.50397043  0.62566457  1
  Zn  Zn106  1  0.87054304  0.24745474  0.62266920  1
  Zn  Zn107  1  0.20290802  0.14737553  0.17049030  1
  Zn  Zn108  1  0.18583457  0.18443106  0.68333036  1
  Zn  Zn109  1  0.18401435  0.68482032  0.19397212  1
  Zn  Zn110  1  0.18551196  0.69060990  0.69186024  1
  Zn  Zn111  1  0.67950398  0.19501809  0.18637108  1
  Zn  Zn112  1  0.68896364  0.18585544  0.68503874  1
  Zn  Zn113  1  0.69162359  0.68739461  0.18840776  1
  Zn  Zn114  1  0.69468898  0.68609738  0.68814187  1
  Zn  Zn115  1  0.31108013  0.30785201  0.31237081  1
  Zn  Zn116  1  0.31620257  0.31663398  0.81348495  1
  Zn  Zn117  1  0.31157215  0.80746672  0.31537507  1
  Zn  Zn118  1  0.31474652  0.81346597  0.81041748  1
  Zn  Zn119  1  0.80924343  0.30929873  0.31644878  1
  Zn  Zn120  1  0.81244054  0.31688813  0.80841635  1
  Zn  Zn121  1  0.81595495  0.81594323  0.31354614  1
  Zn  Zn122  1  0.81666813  0.81224074  0.81451608  1
  Zn  Zn123  1  0.18323591  0.44111386  0.43728738  1
  Zn  Zn124  1  0.18976452  0.42693470  0.93272400  1
  Zn  Zn125  1  0.18786845  0.93567233  0.43506482  1
  Zn  Zn126  1  0.18840710  0.93895591  0.93105982  1
  Zn  Zn127  1  0.68980426  0.43628809  0.43893860  1
  Zn  Zn128  1  0.69081193  0.43704103  0.93634460  1
  Zn  Zn129  1  0.72031154  0.92482486  0.42224939  1
  Zn  Zn130  1  0.68841077  0.93711428  0.93231319  1
  Zn  Zn131  1  0.30961248  0.04652303  0.05460442  1
  Zn  Zn132  1  0.31468188  0.06126923  0.55825492  1
  Zn  Zn133  1  0.33023194  0.55210257  0.08530052  1
  Zn  Zn134  1  0.30637860  0.56407977  0.56577991  1
  Zn  Zn135  1  0.81424796  0.06560646  0.05980122  1
  Zn  Zn136  1  0.81103952  0.05879551  0.56759640  1
  Zn  Zn137  1  0.81760690  0.56082337  0.05783624  1
  Zn  Zn138  1  0.81395164  0.56268370  0.56538972  1
  Zn  Zn139  1  0.44170458  0.43708608  0.18322084  1
  Zn  Zn140  1  0.43464698  0.44446713  0.68388051  1
  Zn  Zn141  1  0.43697757  0.93907633  0.18793433  1
  Zn  Zn142  1  0.44140609  0.93568658  0.68405662  1
  Zn  Zn143  1  0.93490505  0.43243128  0.19233880  1
  Zn  Zn144  1  0.93276346  0.44146326  0.68733411  1
  Zn  Zn145  1  0.93660559  0.93959067  0.18629614  1
  Zn  Zn146  1  0.93639667  0.93982501  0.68677133  1
  Zn  Zn147  1  0.06189642  0.05976034  0.31660866  1
  Zn  Zn148  1  0.05987500  0.06167658  0.81337893  1
  Zn  Zn149  1  0.06058504  0.56460021  0.31211345  1
  Zn  Zn150  1  0.06785764  0.56371409  0.81337074  1
  Zn  Zn151  1  0.56869574  0.06497644  0.31182424  1
  Zn  Zn152  1  0.56422380  0.06560711  0.80669135  1
  Zn  Zn153  1  0.56746585  0.56212123  0.31323353  1
  Zn  Zn154  1  0.56442281  0.56716940  0.81394498  1
  Zn  Zn155  1  0.43826052  0.19003094  0.43787810  1
  Zn  Zn156  1  0.43920231  0.18919728  0.93233009  1
  Zn  Zn157  1  0.43964807  0.68988284  0.43531531  1
  Zn  Zn158  1  0.28935232  0.69614626  0.96516964  1
  Zn  Zn159  1  0.93337272  0.18175307  0.43600552  1
  Zn  Zn160  1  0.95548084  0.21880129  0.95356974  1
  Zn  Zn161  1  0.93839599  0.69055484  0.43944899  1
  Zn  Zn162  1  0.94104429  0.68704259  0.93681391  1
  Zn  Zn163  1  0.06978774  0.36857002  0.04175564  1
  Zn  Zn164  1  0.05836314  0.30988748  0.56375394  1
  Zn  Zn165  1  0.06466128  0.80575811  0.06343472  1
  Zn  Zn166  1  0.05885786  0.81016374  0.56538987  1
  Zn  Zn167  1  0.56685516  0.31344130  0.06081631  1
  Zn  Zn168  1  0.55745093  0.32256652  0.56246332  1
  Zn  Zn169  1  0.55934327  0.81231598  0.05760896  1
  Zn  Zn170  1  0.56363744  0.80882006  0.55942785  1
  O  O171  1  0.10794492  0.13939250  0.10652432  1
  O  O172  1  0.12575768  0.11233504  0.61352575  1
  O  O173  1  0.11142132  0.62123786  0.13095497  1
  O  O174  1  0.11371944  0.62987639  0.61863927  1
  O  O175  1  0.61669752  0.11970917  0.11730343  1
  O  O176  1  0.61438834  0.11966002  0.62620814  1
  O  O177  1  0.62372999  0.62601786  0.11689429  1
  O  O178  1  0.62891920  0.62393981  0.61208776  1
  O  O179  1  0.38220117  0.36884064  0.38264520  1
  O  O180  1  0.38801406  0.37057457  0.88871275  1
  O  O181  1  0.38216098  0.88119906  0.37938682  1
  O  O182  1  0.38300611  0.88175170  0.87961829  1
  O  O183  1  0.86379403  0.38169141  0.39168631  1
  O  O184  1  0.87391448  0.38667559  0.87568892  1
  O  O185  1  0.82824913  0.89640128  0.38691837  1
  O  O186  1  0.88653965  0.87492024  0.88533169  1
  O  O187  1  0.26158272  0.00916779  0.38142530  1
  O  O188  1  0.25620867  0.00873592  0.86157527  1
  O  O189  1  0.24459211  0.51471798  0.37235321  1
  O  O190  1  0.25214761  0.48361431  0.85621129  1
  O  O191  1  0.73020977  0.02429809  0.36132983  1
  O  O192  1  0.74954345  0.00883740  0.86687439  1
  O  O193  1  0.75877100  0.51178022  0.37717306  1
  O  O194  1  0.75356234  0.50566887  0.86580466  1
  O  O195  1  0.24851877  0.49215845  0.13617461  1
  O  O196  1  0.24586310  0.49053820  0.63363523  1
  O  O197  1  0.24231188  1.04198207  0.14242306  1
  O  O198  1  0.24390878  0.99838627  0.62801245  1
  O  O199  1  0.75542487  0.48694110  0.12436212  1
  O  O200  1  0.74903541  0.49529966  0.63642858  1
  O  O201  1  0.74500114  0.99775526  0.12810580  1
  O  O202  1  0.73457307  1.00054960  0.63112866  1
  O  O203  1  0.00846033  0.36255839  0.24882593  1
  O  O204  1  0.01202121  0.36744804  0.73918461  1
  O  O205  1  -0.00199463  0.86365377  0.24817539  1
  O  O206  1  0.00038206  0.88439554  0.76768974  1
  O  O207  1  0.49838863  0.36774883  0.25680247  1
  O  O208  1  0.49121191  0.37728463  0.76368316  1
  O  O209  1  0.50877730  0.87253906  0.25500453  1
  O  O210  1  0.49468216  0.86824075  0.76179328  1
  O  O211  1  0.49667514  0.13029837  0.24207263  1
  O  O212  1  0.49323590  0.12868582  0.73835148  1
  O  O213  1  0.49627334  0.63234194  0.24972580  1
  O  O214  1  0.49032482  0.63480215  0.75598787  1
  O  O215  1  1.00735373  0.12574598  0.23861434  1
  O  O216  1  0.99049765  0.12747559  0.74671382  1
  O  O217  1  0.98897896  0.63206704  0.24512456  1
  O  O218  1  1.00383509  0.62655147  0.73818152  1
  O  O219  1  0.36758867  0.25258819  -0.00472659  1
  O  O220  1  0.36665264  0.25709070  0.50482511  1
  O  O221  1  0.37101697  0.75421100  0.02085270  1
  O  O222  1  0.37790087  0.75744240  0.50744551  1
  O  O223  1  0.85460783  0.23759260  0.00903398  1
  O  O224  1  0.87795327  0.26215526  0.50096299  1
  O  O225  1  0.86986905  0.75773773  0.00293292  1
  O  O226  1  0.86397001  0.74967926  0.50451303  1
  O  O227  1  0.12632914  0.24058893  0.49535018  1
  O  O228  1  0.13745783  0.24441097  0.98472241  1
  O  O229  1  0.12500719  0.74609233  0.49324345  1
  O  O230  1  0.12588694  0.75709479  0.98163735  1
  O  O231  1  0.61732813  0.25282491  0.48815399  1
  O  O232  1  0.63492632  0.24504422  0.99250507  1
  O  O233  1  0.63223779  0.73838431  0.49640494  1
  O  O234  1  0.63090786  0.74348642  0.99232508  1
  O  O235  1  0.50641595  0.23915140  0.13140547  1
  O  O236  1  0.49556016  0.24509520  0.62416176  1
  O  O237  1  0.50146037  0.74543136  0.13288589  1
  O  O238  1  0.49429755  0.75627429  0.63690043  1
  O  O239  1  0.98675558  0.23900586  0.14176065  1
  O  O240  1  0.99879793  0.24263111  0.63644347  1
  O  O241  1  0.99387458  0.74129366  0.13397244  1
  O  O242  1  0.98802550  0.74015815  0.62259934  1
  O  O243  1  0.00572314  0.23609140  0.36403070  1
  O  O244  1  0.01417920  0.23959399  0.85552709  1
  O  O245  1  0.00809227  0.74463503  0.36518410  1
  O  O246  1  0.00572472  0.76365221  0.87886123  1
  O  O247  1  0.50859629  0.25583006  0.36989469  1
  O  O248  1  0.50959693  0.25939625  0.87186155  1
  O  O249  1  0.50790709  0.75866541  0.36740009  1
  O  O250  1  0.51140349  0.75850915  0.86210471  1
  O  O251  1  0.24105480  0.12778494  0.49181074  1
  O  O252  1  0.24327062  0.12852125  0.98938247  1
  O  O253  1  0.23700966  0.62684623  0.49609441  1
  O  O254  1  0.25942474  0.59537158  1.00256246  1
  O  O255  1  0.74530455  0.12095602  0.49329870  1
  O  O256  1  0.74141362  0.12826921  0.99090942  1
  O  O257  1  0.74346859  0.63126167  0.49574565  1
  O  O258  1  0.74235352  0.62919511  0.99406123  1
  O  O259  1  0.26298829  0.36148952  0.00093437  1
  O  O260  1  0.25219968  0.37117407  0.50459646  1
  O  O261  1  0.25892730  0.92415057  0.01650552  1
  O  O262  1  0.26569338  0.87442381  0.49844352  1
  O  O263  1  0.75388064  0.36651120  0.00705485  1
  O  O264  1  0.76014406  0.38172261  0.51494226  1
  O  O265  1  0.75837823  0.87202066  0.00237295  1
  O  O266  1  0.73539880  0.85354909  0.51217162  1
  O  O267  1  0.11984236  0.47842319  0.26132203  1
  O  O268  1  0.13141006  0.49024658  0.74749215  1
  O  O269  1  0.11939554  0.97912244  0.25959022  1
  O  O270  1  0.13283648  1.00195769  0.73943796  1
  O  O271  1  0.63198394  0.49701888  0.24653346  1
  O  O272  1  0.64028685  0.50371944  0.75223834  1
  O  O273  1  0.63046285  0.99529361  0.23988180  1
  O  O274  1  0.63099011  1.00270644  0.73655980  1
  O  O275  1  0.38493728  0.00848605  0.26537518  1
  O  O276  1  0.37064212  0.00590726  0.75013795  1
  O  O277  1  0.37920319  0.51423140  0.24562580  1
  O  O278  1  0.36723942  0.51306623  0.74642102  1
  O  O279  1  0.86021423  -0.00210764  0.24948023  1
  O  O280  1  0.86594060  0.00727403  0.75029999  1
  O  O281  1  0.87189421  0.50660074  0.25956129  1
  O  O282  1  0.86166870  0.49729046  0.76177676  1
  O  O283  1  0.12537035  0.36086529  0.37498916  1
  O  O284  1  0.12942981  0.35816848  0.85950427  1
  O  O285  1  0.12941811  0.86154683  0.36744234  1
  O  O286  1  0.11321406  0.87759284  0.87295073  1
  O  O287  1  0.61875882  0.36528192  0.37597793  1
  O  O288  1  0.61538584  0.36650245  0.88201535  1
  O  O289  1  0.62587819  0.86889069  0.36861652  1
  O  O290  1  0.61914915  0.86089937  0.87989034  1
  O  O291  1  0.38547108  0.11878303  0.13840558  1
  O  O292  1  0.38254910  0.12964059  0.62649547  1
  O  O293  1  0.38670996  0.63893938  0.13685530  1
  O  O294  1  0.37448214  0.63664904  0.62640607  1
  O  O295  1  0.88226628  0.13527189  0.12232153  1
  O  O296  1  0.87199613  0.12840245  0.63744366  1
  O  O297  1  0.87764549  0.62978620  0.13365032  1
  O  O298  1  0.88898189  0.63183577  0.62136082  1
  O  O299  1  0.24822544  0.24292003  0.11167803  1
  O  O300  1  0.25277785  0.25534254  0.61805416  1
  O  O301  1  0.26063594  0.74680058  0.13316381  1
  O  O302  1  0.26011574  0.75366561  0.62311558  1
  O  O303  1  0.75194318  0.25751747  0.11924406  1
  O  O304  1  0.75061218  0.26580068  0.63019985  1
  O  O305  1  0.75710224  0.75641452  0.11775751  1
  O  O306  1  0.76617029  0.73999499  0.61608443  1
  O  O307  1  0.24042831  0.24271441  0.38350030  1
  O  O308  1  0.24570474  0.24254942  0.87420426  1
  O  O309  1  0.24088662  0.73886244  0.37853744  1
  O  O310  1  0.24436463  0.75617422  0.88101775  1
  O  O311  1  0.73614786  0.23780951  0.37381463  1
  O  O312  1  0.74376021  0.24888183  0.87969536  1
  O  O313  1  0.74918614  0.73928997  0.38691042  1
  O  O314  1  0.74673886  0.74274730  0.87855238  1
  O  O315  1  0.00519123  0.12070589  0.00233527  1
  O  O316  1  0.01060651  0.12184152  0.50170299  1
  O  O317  1  -0.00561047  0.62757617  0.01879269  1
  O  O318  1  0.01044629  0.62559029  0.50390503  1
  O  O319  1  0.50533823  0.12211079  0.00550048  1
  O  O320  1  0.49403081  0.11532626  0.50820093  1
  O  O321  1  0.51691817  0.61674592  0.00367910  1
  O  O322  1  0.51749432  0.62631378  0.49144509  1
  O  O323  1  0.48577034  0.37385541  0.48925773  1
  O  O324  1  0.49839669  0.38056238  0.99519163  1
  O  O325  1  0.49316179  0.88122771  0.49323579  1
  O  O326  1  0.49732568  0.88380540  0.98888143  1
  O  O327  1  0.98396094  0.37787788  0.50654177  1
  O  O328  1  0.98224158  0.32203986  0.99950901  1
  O  O329  1  1.00152432  0.88543218  0.49876817  1
  O  O330  1  0.99507887  0.88239821  0.99625059  1
  O  O331  1  0.50475375  0.48746559  0.37907257  1
  O  O332  1  0.50865126  0.49421064  0.88742616  1
  O  O333  1  0.49945339  0.99736586  0.38191772  1
  O  O334  1  0.50151942  0.99357383  0.87725195  1
  O  O335  1  0.98533485  0.50509900  0.37797431  1
  O  O336  1  0.98537872  0.50347121  0.86448418  1
  O  O337  1  0.99531969  1.00392056  0.39114074  1
  O  O338  1  0.99833968  0.99317530  0.88748610  1
  O  O339  1  -0.00784004  0.00888956  0.11198328  1
  O  O340  1  0.00817736  0.00075337  0.61541650  1
  O  O341  1  -0.01009960  0.51244225  0.12949994  1
  O  O342  1  -0.00006320  0.51446053  0.62526235  1
  O  O343  1  0.50346457  0.00795457  0.11511397  1
  O  O344  1  0.50966659  0.00697825  0.61937920  1
  O  O345  1  0.50443299  0.50861439  0.11378573  1
  O  O346  1  0.50541502  0.48784068  0.61248743  1
  O  O347  1  0.23661439  0.37057362  0.25205671  1
  O  O348  1  0.24357489  0.37635393  0.73921921  1
  O  O349  1  0.23864488  0.87338921  0.25323327  1
  O  O350  1  0.25140007  0.88970552  0.74778033  1
  O  O351  1  0.74907637  0.37420490  0.24145712  1
  O  O352  1  0.75256318  0.38610985  0.73611733  1
  O  O353  1  0.74249089  0.87971381  0.23756089  1
  O  O354  1  0.75206574  0.88896839  0.76008161  1
  O  O355  1  0.26241186  0.13803693  0.26765488  1
  O  O356  1  0.25678836  0.11598824  0.74897736  1
  O  O357  1  0.25920467  0.62371861  0.25956267  1
  O  O358  1  0.25820232  0.61435168  0.74329302  1
  O  O359  1  0.74425242  0.11988333  0.24345535  1
  O  O360  1  0.75454774  0.11887056  0.75428135  1
  O  O361  1  0.76330195  0.62744222  0.25952151  1
  O  O362  1  0.75042334  0.61300981  0.75841279  1
  O  O363  1  0.37031469  0.11806016  0.37134339  1
  O  O364  1  0.37359838  0.11992754  0.86246359  1
  O  O365  1  0.36613582  0.63287919  0.36802521  1
  O  O366  1  0.36816784  0.63234287  0.86710439  1
  O  O367  1  0.85360702  0.11934741  0.37979655  1
  O  O368  1  0.86763235  0.12594417  0.86205245  1
  O  O369  1  0.87006571  0.61978371  0.37093311  1
  O  O370  1  0.86504980  0.61963917  0.88010923  1
  O  O371  1  0.12886278  0.36265216  0.14186320  1
  O  O372  1  0.13475286  0.37360805  0.62811659  1
  O  O373  1  0.12182448  0.87098724  0.14202804  1
  O  O374  1  0.12726830  0.88401158  0.62710965  1
  O  O375  1  0.63609500  0.37589804  0.12732181  1
  O  O376  1  0.63946638  0.37927616  0.61872542  1
  O  O377  1  0.62909657  0.88193395  0.12522609  1
  O  O378  1  0.61564610  0.88663010  0.62788024  1
  O  O379  1  0.11526985  0.25663459  0.26110512  1
  O  O380  1  0.12098818  0.25349728  0.75070488  1
  O  O381  1  0.11651749  0.75711364  0.25766271  1
  O  O382  1  0.13258735  0.75526527  0.77080711  1
  O  O383  1  0.61108617  0.25334918  0.25848647  1
  O  O384  1  0.62424996  0.24805331  0.76069954  1
  O  O385  1  0.62234195  0.75525894  0.25577413  1
  O  O386  1  0.61959208  0.74238906  0.75591381  1
  O  O387  1  0.38965973  0.23802248  0.25819487  1
  O  O388  1  0.37582125  0.24463500  0.73999715  1
  O  O389  1  0.38287471  0.74566570  0.24422436  1
  O  O390  1  0.38128581  0.74330556  0.74318959  1
  O  O391  1  0.88038356  0.25258753  0.24507988  1
  O  O392  1  0.88277056  0.24498978  0.74927468  1
  O  O393  1  0.87972606  0.74492242  0.24742885  1
  O  O394  1  0.87069991  0.74809612  0.73824092  1
  O  O395  1  0.36937793  0.48918793  0.50174311  1
  O  O396  1  0.39051621  0.48920805  1.00189076  1
  O  O397  1  0.38565822  0.99342191  0.49080730  1
  O  O398  1  0.39334236  1.00983660  0.98726206  1
  O  O399  1  0.87633762  0.49186704  0.49538760  1
  O  O400  1  0.87224639  0.49738965  0.98029725  1
  O  O401  1  0.89021419  1.00238165  0.50671248  1
  O  O402  1  0.87984270  0.99183784  0.99622977  1
  O  O403  1  0.11651061  0.01067574  0.00182832  1
  O  O404  1  0.11782677  0.00344838  0.50377113  1
  O  O405  1  0.11465752  0.46454423  0.00415434  1
  O  O406  1  0.11981329  0.50959571  0.50406976  1
  O  O407  1  0.61622772  0.00467624  0.00077595  1
  O  O408  1  0.61578452  -0.00597305  0.51038090  1
  O  O409  1  0.62436813  0.50770728  0.00274397  1
  O  O410  1  0.62902285  0.51663853  0.49793104  1
  O  O411  1  0.37764380  0.37259192  0.11202854  1
  O  O412  1  0.36210274  0.36915718  0.61787286  1
  O  O413  1  0.37943348  0.86067505  0.12843175  1
  O  O414  1  0.37663016  0.86813380  0.61525934  1
  O  O415  1  0.86762851  0.36253253  0.12362313  1
  O  O416  1  0.86624474  0.37385581  0.61498343  1
  O  O417  1  0.87208543  0.86970104  0.11393754  1
  O  O418  1  0.88113834  0.85891001  0.62868379  1
  O  O419  1  0.13289219  0.12915768  0.38090633  1
  O  O420  1  0.12987238  0.13025160  0.88070963  1
  O  O421  1  0.12896375  0.63388970  0.38047809  1
  O  O422  1  0.12733169  0.63650702  0.87762114  1
  O  O423  1  0.62818202  0.14069261  0.37465785  1
  O  O424  1  0.62837630  0.13474517  0.87787120  1
  O  O425  1  0.63634139  0.63142383  0.37979594  1
  O  O426  1  0.63450983  0.63541613  0.88207351  1
