# generated using pymatgen
data_V85Zn86O256
_symmetry_space_group_name_H-M   'P 1'
_cell_length_a   16.91606089
_cell_length_b   16.91672185
_cell_length_c   16.91754530
_cell_angle_alpha   90.04175824
_cell_angle_beta   89.97262857
_cell_angle_gamma   89.96108803
_symmetry_Int_Tables_number   1
_chemical_formula_structural   V85Zn86O256
_chemical_formula_sum   'V85 Zn86 O256'
_cell_volume   4841.19449852
_cell_formula_units_Z   1
loop_
 _symmetry_equiv_pos_site_id
 _symmetry_equiv_pos_as_xyz
  1  'x, y, z'
loop_
 _atom_site_type_symbol
 _atom_site_label
 _atom_site_symmetry_multiplicity
 _atom_site_fract_x
 _atom_site_fract_y
 _atom_site_fract_z
 _atom_site_occupancy
  V  V0  1  0.89024453  0.24278083  0.12845571  1
  V  V1  1  0.12601647  0.63082761  0.49706533  1
  V  V2  1  0.74866671  0.62930813  0.87320981  1
  V  V3  1  0.88021595  0.63195181  0.75029803  1
  V  V4  1  0.87495014  0.75187894  0.12508952  1
  V  V5  1  0.24982121  0.48845218  0.24590005  1
  V  V6  1  0.00085671  0.24709615  0.74338129  1
  V  V7  1  0.37689339  0.62773689  0.74337501  1
  V  V8  1  0.25770725  0.00357672  0.74934044  1
  V  V9  1  0.62798354  0.87495166  0.73647030  1
  V  V10  1  0.61614580  0.76282898  0.87733066  1
  V  V11  1  0.25249809  0.62518265  0.37111719  1
  V  V12  1  0.37525905  0.24818695  0.13006851  1
  V  V13  1  0.74809120  0.75024209  0.00175999  1
  V  V14  1  0.48965981  -0.00658517  0.50370205  1
  V  V15  1  0.75131418  0.49986874  0.24921031  1
  V  V16  1  0.61800003  0.61824634  -0.00259584  1
  V  V17  1  0.12388710  0.87105708  0.74723105  1
  V  V18  1  0.00357234  0.87842724  0.37435281  1
  V  V19  1  0.49355512  0.75782589  0.74618573  1
  V  V20  1  0.12182163  0.12517223  0.00689191  1
  V  V21  1  0.88517449  0.12165819  0.25451897  1
  V  V22  1  0.37563893  0.49875520  0.37385210  1
  V  V23  1  0.38178552  0.49901280  0.88017099  1
  V  V24  1  0.11652806  0.37972699  0.75673018  1
  V  V25  1  0.86383414  0.87406330  0.49690127  1
  V  V26  1  -0.00105767  0.87303038  0.87036060  1
  V  V27  1  0.62625399  0.36753446  0.25376787  1
  V  V28  1  0.26185102  0.87103510  0.62090399  1
  V  V29  1  0.38321749  0.88496530  -0.00395481  1
  V  V30  1  0.00007868  0.00281847  0.00476683  1
  V  V31  1  0.00865628  0.75486781  0.24930104  1
  V  V32  1  0.75146696  0.37397450  0.62300163  1
  V  V33  1  0.11579429  0.25458976  0.87980686  1
  V  V34  1  0.87720618  0.50129491  0.37379958  1
  V  V35  1  0.62276735  0.50333435  0.62461665  1
  V  V36  1  0.12502500  0.49280496  0.12107091  1
  V  V37  1  0.25140698  0.75218744  0.00012592  1
  V  V38  1  0.25189749  0.12677219  0.87251764  1
  V  V39  1  0.50580903  0.36776874  0.37739382  1
  V  V40  1  0.24496854  0.87331440  0.12818613  1
  V  V41  1  0.74314830  -0.00005504  0.25363796  1
  V  V42  1  0.62392230  0.37384223  0.75139597  1
  V  V43  1  0.25125113  0.49827436  0.75124744  1
  V  V44  1  0.87857567  0.12325417  0.74024268  1
  V  V45  1  0.62082255  0.49644848  0.11775446  1
  V  V46  1  0.50126661  0.50338977  0.49926325  1
  V  V47  1  0.74369668  0.12454658  0.37336086  1
  V  V48  1  0.11817527  0.12588227  0.50550551  1
  V  V49  1  0.74542403  0.12240807  0.87607483  1
  V  V50  1  0.25563827  0.11881878  0.37637534  1
  V  V51  1  0.50513675  0.12488256  0.11906533  1
  V  V52  1  0.00147314  0.64059544  0.62512920  1
  V  V53  1  0.75042319  0.50276235  0.74739097  1
  V  V54  1  0.00097802  0.37089796  0.36774940  1
  V  V55  1  0.61957899  -0.00087022  0.11200248  1
  V  V56  1  0.12058724  -0.00136024  0.13506883  1
  V  V57  1  0.85583210  0.75632360  0.62286846  1
  V  V58  1  0.87649819  0.37412751  0.50006228  1
  V  V59  1  0.87642812  0.00231712  0.87397969  1
  V  V60  1  0.26728111  0.75214650  0.50056579  1
  V  V61  1  0.00144158  0.50214365  0.49964884  1
  V  V62  1  0.61485378  0.12969985  0.50388122  1
  V  V63  1  0.25667815  -0.00587283  0.25383469  1
  V  V64  1  0.74629941  0.25007637  0.49381133  1
  V  V65  1  0.37417390  0.37454275  0.50666920  1
  V  V66  1  0.50328137  0.37285726  0.87984636  1
  V  V67  1  0.11838725  0.00087080  0.62645205  1
  V  V68  1  0.24847007  0.24890497  0.50294985  1
  V  V69  1  0.74455004  0.87534738  0.13145602  1
  V  V70  1  0.12112610  0.75023008  0.87345012  1
  V  V71  1  0.62961444  0.76960137  0.37469430  1
  V  V72  1  0.49970240  0.23817665  0.74538994  1
  V  V73  1  0.25162093  0.62595148  0.87454893  1
  V  V74  1  0.74481583  0.23953005  0.00534491  1
  V  V75  1  0.12450250  0.50195574  0.62576644  1
  V  V76  1  0.47917277  0.88242567  0.36745454  1
  V  V77  1  0.37588514  0.23491505  0.63070172  1
  V  V78  1  0.37723681  0.37378944  0.00675607  1
  V  V79  1  -0.00792705  0.00169282  0.49965843  1
  V  V80  1  0.75353959  0.36984174  0.12650318  1
  V  V81  1  0.87548406  0.62793301  0.25057881  1
  V  V82  1  0.12230816  0.24740534  0.36829844  1
  V  V83  1  0.25180797  0.25229774  0.00702627  1
  V  V84  1  0.74736421  0.63054230  0.38297773  1
  Zn  Zn85  1  0.49824814  0.62398562  0.12485669  1
  Zn  Zn86  1  0.24868828  0.37359333  0.62937150  1
  Zn  Zn87  1  0.62816653  0.63347339  0.50050650  1
  Zn  Zn88  1  0.37934999  0.62439963  0.24379163  1
  Zn  Zn89  1  0.62607896  0.00377016  0.62259235  1
  Zn  Zn90  1  0.87991043  0.37258928  -0.00922339  1
  Zn  Zn91  1  0.12975697  0.75537689  0.36998804  1
  Zn  Zn92  1  0.50249605  0.74906713  0.24783097  1
  Zn  Zn93  1  0.12530988  0.36690473  0.24465343  1
  Zn  Zn94  1  0.49580641  0.63246404  0.62049645  1
  Zn  Zn95  1  0.00141153  0.62292406  0.12115942  1
  Zn  Zn96  1  0.12381971  0.62351208  0.00104421  1
  Zn  Zn97  1  0.87946489  0.24658289  0.62074536  1
  Zn  Zn98  1  -0.00201422  0.49570547  -0.01243322  1
  Zn  Zn99  1  0.88030456  0.49342340  0.87356275  1
  Zn  Zn100  1  0.38008536  0.74790556  0.12609406  1
  Zn  Zn101  1  0.38151370  0.11835093  0.25460979  1
  Zn  Zn102  1  0.50582109  0.24254730  0.25726851  1
  Zn  Zn103  1  0.62536374  0.24502726  0.87850993  1
  Zn  Zn104  1  0.87465863  0.87453254  -0.00091821  1
  Zn  Zn105  1  0.75449697  -0.00685234  0.74219729  1
  Zn  Zn106  1  0.38473230  -0.00329202  0.87097590  1
  Zn  Zn107  1  0.18924067  0.18204492  0.18836437  1
  Zn  Zn108  1  0.18555461  0.18869778  0.68767762  1
  Zn  Zn109  1  0.18977436  0.68115421  0.18448729  1
  Zn  Zn110  1  0.19072664  0.69057103  0.68737911  1
  Zn  Zn111  1  0.68696027  0.18387140  0.18811090  1
  Zn  Zn112  1  0.69052038  0.18540047  0.68601677  1
  Zn  Zn113  1  0.68222594  0.68688835  0.19221113  1
  Zn  Zn114  1  0.68205786  0.68953501  0.68892267  1
  Zn  Zn115  1  0.31397200  0.30900315  0.31814221  1
  Zn  Zn116  1  0.31144569  0.30991941  0.81556447  1
  Zn  Zn117  1  0.31290307  0.80968728  0.30736199  1
  Zn  Zn118  1  0.31260035  0.81581937  0.81340692  1
  Zn  Zn119  1  0.81615634  0.30721887  0.31098064  1
  Zn  Zn120  1  0.81213385  0.30757787  0.81157663  1
  Zn  Zn121  1  0.81326897  0.81459107  0.31493010  1
  Zn  Zn122  1  0.81117010  0.81132955  0.81042395  1
  Zn  Zn123  1  0.18762773  0.43714197  0.43652404  1
  Zn  Zn124  1  0.19120456  0.43473992  0.93794821  1
  Zn  Zn125  1  0.18615334  0.93647521  0.43981413  1
  Zn  Zn126  1  0.18984181  0.93937121  0.93821503  1
  Zn  Zn127  1  0.68836127  0.44126354  0.43655175  1
  Zn  Zn128  1  0.71160974  0.42927225  0.93068065  1
  Zn  Zn129  1  0.68641401  0.94782918  0.43922676  1
  Zn  Zn130  1  0.69096062  0.93692802  0.93843729  1
  Zn  Zn131  1  0.31131625  0.06475915  0.06580979  1
  Zn  Zn132  1  0.30859466  0.05927366  0.56313458  1
  Zn  Zn133  1  0.31048273  0.56133871  0.06250725  1
  Zn  Zn134  1  0.31091589  0.56239492  0.56207960  1
  Zn  Zn135  1  0.81453892  0.06183775  0.06633584  1
  Zn  Zn136  1  0.80667047  0.05955359  0.56334663  1
  Zn  Zn137  1  0.81152631  0.56166233  0.06051614  1
  Zn  Zn138  1  0.81519461  0.56376151  0.56350198  1
  Zn  Zn139  1  0.44106190  0.43847141  0.18868996  1
  Zn  Zn140  1  0.43917784  0.43581790  0.69004207  1
  Zn  Zn141  1  0.43607610  0.93446357  0.18204964  1
  Zn  Zn142  1  0.44268738  0.93933296  0.68667564  1
  Zn  Zn143  1  0.93994243  0.43486574  0.18235325  1
  Zn  Zn144  1  0.93922372  0.44168666  0.68920301  1
  Zn  Zn145  1  0.93345760  0.93858090  0.19046921  1
  Zn  Zn146  1  0.93690691  0.93357260  0.68580331  1
  Zn  Zn147  1  0.06503371  0.05925369  0.31933146  1
  Zn  Zn148  1  0.06451869  0.06414584  0.81385686  1
  Zn  Zn149  1  0.06402098  0.56275564  0.30804479  1
  Zn  Zn150  1  0.05971630  0.56677945  0.81358631  1
  Zn  Zn151  1  0.56371591  0.05850177  0.31282212  1
  Zn  Zn152  1  0.56255771  0.05469175  0.81185073  1
  Zn  Zn153  1  0.56537643  0.56059304  0.30964540  1
  Zn  Zn154  1  0.56024213  0.56477916  0.81365004  1
  Zn  Zn155  1  0.43518242  0.18722184  0.44068378  1
  Zn  Zn156  1  0.46014622  0.15420364  0.91583113  1
  Zn  Zn157  1  0.44333484  0.68951931  0.42850878  1
  Zn  Zn158  1  0.43734306  0.69063449  0.93699513  1
  Zn  Zn159  1  0.93504942  0.18596624  0.43433203  1
  Zn  Zn160  1  0.93521119  0.18780622  0.93866489  1
  Zn  Zn161  1  0.93663889  0.69382096  0.43706711  1
  Zn  Zn162  1  0.93951343  0.68257960  0.94035124  1
  Zn  Zn163  1  0.06017610  0.31867749  0.06063754  1
  Zn  Zn164  1  0.06277418  0.31517571  0.56269217  1
  Zn  Zn165  1  0.06245246  0.81467154  0.06010868  1
  Zn  Zn166  1  0.06528804  0.81610722  0.55761740  1
  Zn  Zn167  1  0.56233727  0.30689159  0.06422695  1
  Zn  Zn168  1  0.56355749  0.31138002  0.56418979  1
  Zn  Zn169  1  0.56218928  0.81331283  0.06487023  1
  Zn  Zn170  1  0.55709334  0.81168374  0.55675385  1
  O  O171  1  0.12708808  0.11677419  0.11395422  1
  O  O172  1  0.12811066  0.11708088  0.61403690  1
  O  O173  1  0.12384670  0.61014325  0.12373308  1
  O  O174  1  0.11913980  0.62353538  0.62004466  1
  O  O175  1  0.61581922  0.11297733  0.13002064  1
  O  O176  1  0.62536754  0.12964921  0.60725515  1
  O  O177  1  0.63118779  0.61393211  0.11452927  1
  O  O178  1  0.62330837  0.61478653  0.62174393  1
  O  O179  1  0.38099313  0.37890587  0.38855558  1
  O  O180  1  0.38328862  0.37873128  0.88257159  1
  O  O181  1  0.38091483  0.87599737  0.37649495  1
  O  O182  1  0.36858204  0.88035351  0.88967002  1
  O  O183  1  0.88219752  0.37907327  0.37944398  1
  O  O184  1  0.82732925  0.38933640  0.88487449  1
  O  O185  1  0.88483996  0.86756867  0.39080431  1
  O  O186  1  0.88250569  0.88050195  0.87402844  1
  O  O187  1  0.23973094  0.00681662  0.36701041  1
  O  O188  1  0.24864707  0.00876117  0.86568928  1
  O  O189  1  0.25508493  0.50666262  0.37088532  1
  O  O190  1  0.25896430  0.50454465  0.86908436  1
  O  O191  1  0.75088541  0.01031825  0.36604845  1
  O  O192  1  0.76326282  0.00250957  0.87258377  1
  O  O193  1  0.75908899  0.50691067  0.36846186  1
  O  O194  1  0.74348926  0.52078866  0.86320579  1
  O  O195  1  0.24004710  0.50140997  0.13571818  1
  O  O196  1  0.24247472  0.49990903  0.63342268  1
  O  O197  1  0.24107465  0.99402614  0.13281595  1
  O  O198  1  0.23914301  0.99083855  0.62888971  1
  O  O199  1  0.74688145  0.48896758  0.13184657  1
  O  O200  1  0.74276625  0.49659889  0.62772878  1
  O  O201  1  0.74084518  0.99369847  0.12833079  1
  O  O202  1  0.73970657  1.00384488  0.63074575  1
  O  O203  1  0.00246562  0.37815464  0.26450364  1
  O  O204  1  0.01048887  0.36958459  0.74810441  1
  O  O205  1  -0.00911293  0.86731775  0.26089828  1
  O  O206  1  0.00806857  0.87899690  0.76193700  1
  O  O207  1  0.50923468  0.37495346  0.26079744  1
  O  O208  1  0.50701679  0.37090675  0.76095206  1
  O  O209  1  0.49432967  0.87791148  0.26387414  1
  O  O210  1  0.50979050  0.86898179  0.75075540  1
  O  O211  1  0.49882447  0.12546993  0.24475245  1
  O  O212  1  0.50806644  0.14010472  0.74427000  1
  O  O213  1  0.49857313  0.62342244  0.24650498  1
  O  O214  1  0.49153729  0.63216023  0.74800257  1
  O  O215  1  0.98423092  0.11678607  0.25958937  1
  O  O216  1  0.99308508  0.13433714  0.75510469  1
  O  O217  1  0.98834306  0.63286196  0.24892726  1
  O  O218  1  0.98764001  0.62651625  0.73955640  1
  O  O219  1  0.36740423  0.25472047  0.01298076  1
  O  O220  1  0.37064538  0.25647564  0.51025903  1
  O  O221  1  0.36257943  0.75849440  -0.00284541  1
  O  O222  1  0.36621826  0.74168941  0.49907031  1
  O  O223  1  0.86758395  0.24769427  0.01396549  1
  O  O224  1  0.86813782  0.25622570  0.50117753  1
  O  O225  1  0.86839181  0.75014877  0.00882689  1
  O  O226  1  0.87727664  0.76200638  0.51142119  1
  O  O227  1  0.12842046  0.24240510  0.49718842  1
  O  O228  1  0.12939230  0.24465166  0.99771899  1
  O  O229  1  0.13271347  0.73912940  0.49903735  1
  O  O230  1  0.13473931  0.75090902  0.99132778  1
  O  O231  1  0.62973292  0.24101344  0.49917751  1
  O  O232  1  0.64024024  0.25004949  1.00039945  1
  O  O233  1  0.61950685  0.74823034  0.48164784  1
  O  O234  1  0.62952999  0.74442716  0.99280510  1
  O  O235  1  0.49528081  0.24186112  0.13475399  1
  O  O236  1  0.49132120  0.25843816  0.63746185  1
  O  O237  1  0.50079946  0.74510865  0.12837936  1
  O  O238  1  0.50330596  0.74848474  0.63884432  1
  O  O239  1  0.98869796  0.24871418  0.12464000  1
  O  O240  1  1.00077958  0.25291959  0.63862549  1
  O  O241  1  0.99157542  0.75165544  0.13030963  1
  O  O242  1  0.99828901  0.74225383  0.61977719  1
  O  O243  1  0.00986823  0.25882949  0.38303679  1
  O  O244  1  0.01045215  0.24629850  0.86841437  1
  O  O245  1  0.00289682  0.75685049  0.36617173  1
  O  O246  1  0.01250715  0.75760891  0.88064458  1
  O  O247  1  0.49393904  0.26381061  0.37579665  1
  O  O248  1  0.50392585  0.25201415  0.86231661  1
  O  O249  1  0.50806223  0.76886880  0.37444813  1
  O  O250  1  0.50849165  0.74528597  0.86339214  1
  O  O251  1  0.24023596  0.12707345  0.49488180  1
  O  O252  1  0.24146703  0.13308647  0.99538565  1
  O  O253  1  0.24473698  0.62996522  0.49193263  1
  O  O254  1  0.24786061  0.63435679  0.99100110  1
  O  O255  1  0.74328214  0.13207076  0.49262050  1
  O  O256  1  0.75808973  0.12918741  0.99155768  1
  O  O257  1  0.75314640  0.62189584  0.48624808  1
  O  O258  1  0.74338014  0.63237886  0.99048306  1
  O  O259  1  0.26120096  0.36003910  -0.00576126  1
  O  O260  1  0.25816422  0.36923514  0.50219428  1
  O  O261  1  0.25250411  0.86838058  0.00628005  1
  O  O262  1  0.24560478  0.86736459  0.51178722  1
  O  O263  1  0.75089370  0.36301399  0.01931866  1
  O  O264  1  0.75396117  0.36961179  0.50271366  1
  O  O265  1  0.75256240  0.86876427  0.01235576  1
  O  O266  1  0.76536380  0.88178377  0.49360498  1
  O  O267  1  0.13286634  0.49647608  0.24204880  1
  O  O268  1  0.12988408  0.49533190  0.74695396  1
  O  O269  1  0.12923261  1.00590216  0.23851282  1
  O  O270  1  0.12933371  0.99052649  0.74418724  1
  O  O271  1  0.63452526  0.48923443  0.24162508  1
  O  O272  1  0.62817899  0.49597009  0.74256556  1
  O  O273  1  0.63906414  1.00233491  0.24062352  1
  O  O274  1  0.62237966  0.98415834  0.74819752  1
  O  O275  1  0.36003573  -0.00026525  0.24464657  1
  O  O276  1  0.36161857  -0.00376932  0.74979409  1
  O  O277  1  0.36704291  0.49812361  0.25578096  1
  O  O278  1  0.37071367  0.50465608  0.75845905  1
  O  O279  1  0.86163533  0.01573477  0.23887065  1
  O  O280  1  0.87790120  0.00556287  0.75680069  1
  O  O281  1  0.87261873  0.50820091  0.25296985  1
  O  O282  1  0.86603023  0.51353324  0.74620207  1
  O  O283  1  0.11785086  0.36494363  0.37752326  1
  O  O284  1  0.12847862  0.36658044  0.86806978  1
  O  O285  1  0.10980912  0.87154981  0.38157952  1
  O  O286  1  0.12024676  0.87113043  0.86771647  1
  O  O287  1  0.61697898  0.38220270  0.36753297  1
  O  O288  1  0.62114187  0.37274477  0.86982488  1
  O  O289  1  0.62867637  0.87014331  0.37449438  1
  O  O290  1  0.62625503  0.86561186  0.87351737  1
  O  O291  1  0.38565163  0.13044257  0.12877203  1
  O  O292  1  0.36866441  0.13562340  0.62545130  1
  O  O293  1  0.37829738  0.62631091  0.12287919  1
  O  O294  1  0.37458463  0.61926938  0.63974100  1
  O  O295  1  0.87336329  0.13516315  0.13648702  1
  O  O296  1  0.87393427  0.12574038  0.63680045  1
  O  O297  1  0.87232925  0.63661662  0.13287796  1
  O  O298  1  0.88081079  0.63859524  0.62673618  1
  O  O299  1  0.25797069  0.24296445  0.11730902  1
  O  O300  1  0.25670857  0.25292316  0.62161096  1
  O  O301  1  0.24736525  0.75676060  0.11644365  1
  O  O302  1  0.24833649  0.76290725  0.61771683  1
  O  O303  1  0.75583502  0.25157032  0.12239374  1
  O  O304  1  0.75243633  0.25607961  0.61241575  1
  O  O305  1  0.75285702  0.75687455  0.12510277  1
  O  O306  1  0.75773333  0.74669159  0.62054557  1
  O  O307  1  0.24174637  0.24282580  0.38462231  1
  O  O308  1  0.23519449  0.24555683  0.88078328  1
  O  O309  1  0.24863408  0.74237709  0.38135081  1
  O  O310  1  0.24018875  0.74862951  0.87999430  1
  O  O311  1  0.75279524  0.24589174  0.38707920  1
  O  O312  1  0.75093918  0.23783794  0.88626246  1
  O  O313  1  0.73926669  0.74503077  0.37191693  1
  O  O314  1  0.74112778  0.74402446  0.87834663  1
  O  O315  1  0.00663979  0.11218393  -0.00516754  1
  O  O316  1  0.00568368  0.11539527  0.49504978  1
  O  O317  1  0.00608667  0.61770185  0.00326911  1
  O  O318  1  0.00739176  0.62365933  0.50414208  1
  O  O319  1  0.50410463  0.14106603  0.02132319  1
  O  O320  1  0.51076001  0.11853650  0.49128255  1
  O  O321  1  0.51499249  0.62542850  -0.00298836  1
  O  O322  1  0.49974131  0.61331943  0.49955333  1
  O  O323  1  0.49560555  0.38351445  0.49675527  1
  O  O324  1  0.49435517  0.36405733  0.98679836  1
  O  O325  1  0.50053512  0.88739984  0.48923866  1
  O  O326  1  0.48179985  0.87315379  1.00432724  1
  O  O327  1  0.99657467  0.38286190  0.49271912  1
  O  O328  1  0.99270300  0.37955394  0.99890006  1
  O  O329  1  0.99320282  0.88250848  0.49499973  1
  O  O330  1  1.00054077  0.88494733  0.98714116  1
  O  O331  1  0.49562881  0.49080101  0.38310420  1
  O  O332  1  0.48978116  0.48997920  0.87158890  1
  O  O333  1  0.50332354  0.98776992  0.38301821  1
  O  O334  1  0.48368697  1.04498214  0.88602446  1
  O  O335  1  0.99661994  0.49553160  0.38042675  1
  O  O336  1  0.99334811  0.50081749  0.86968845  1
  O  O337  1  1.00083405  0.99193780  0.38719196  1
  O  O338  1  0.99256274  0.99442363  0.88019691  1
  O  O339  1  0.00684379  -0.00964420  0.11566233  1
  O  O340  1  0.01180196  -0.00628721  0.61867549  1
  O  O341  1  0.01525539  0.50126317  0.12787135  1
  O  O342  1  0.00486283  0.51270754  0.61847509  1
  O  O343  1  0.51156799  0.00763942  0.12747005  1
  O  O344  1  0.50642556  -0.00435865  0.60913519  1
  O  O345  1  0.51758568  0.49755917  0.12376052  1
  O  O346  1  0.50679469  0.50113282  0.61756909  1
  O  O347  1  0.24734001  0.38581179  0.26122204  1
  O  O348  1  0.23938534  0.38072803  0.75145034  1
  O  O349  1  0.24748971  0.88013726  0.24133450  1
  O  O350  1  0.24333807  0.88070870  0.73981474  1
  O  O351  1  0.74631210  0.37676338  0.24464168  1
  O  O352  1  0.74108389  0.37841310  0.73999689  1
  O  O353  1  0.75847770  0.88373110  0.23909973  1
  O  O354  1  0.73229895  0.87345629  0.75465668  1
  O  O355  1  0.25091520  0.11449312  0.26015082  1
  O  O356  1  0.23568797  0.11382210  0.75838827  1
  O  O357  1  0.24965967  0.61612417  0.26225274  1
  O  O358  1  0.25687748  0.62097014  0.75567434  1
  O  O359  1  0.75356911  0.12012450  0.25753514  1
  O  O360  1  0.76203127  0.12637013  0.75833685  1
  O  O361  1  0.76081511  0.62226534  0.25790568  1
  O  O362  1  0.75727798  0.62598989  0.75379455  1
  O  O363  1  0.35960919  0.13129150  0.37444705  1
  O  O364  1  0.35182057  0.13863911  0.87470898  1
  O  O365  1  0.36747330  0.61581745  0.37539696  1
  O  O366  1  0.37183069  0.61590273  0.86985549  1
  O  O367  1  0.86306683  0.13167027  0.36120191  1
  O  O368  1  0.87071497  0.11684725  0.86752582  1
  O  O369  1  0.87089637  0.62366119  0.36860918  1
  O  O370  1  0.86626058  0.63378719  0.86307889  1
  O  O371  1  0.12644562  0.38604426  0.12876928  1
  O  O372  1  0.12558731  0.38460879  0.63338558  1
  O  O373  1  0.13563007  0.88445900  0.11821160  1
  O  O374  1  0.13028366  0.88064796  0.63141237  1
  O  O375  1  0.63235380  0.37820462  0.13139331  1
  O  O376  1  0.62894596  0.38623276  0.62905493  1
  O  O377  1  0.63103452  0.88771206  0.12422488  1
  O  O378  1  0.62413330  0.86956819  0.63536988  1
  O  O379  1  0.12972239  0.24763911  0.26381348  1
  O  O380  1  0.11848724  0.25753284  0.75774406  1
  O  O381  1  0.11166807  0.74386903  0.24782873  1
  O  O382  1  0.13007963  0.76304748  0.75665794  1
  O  O383  1  0.62690500  0.26354261  0.24850466  1
  O  O384  1  0.61662230  0.25774012  0.74722052  1
  O  O385  1  0.62181560  0.74539767  0.27011754  1
  O  O386  1  0.61765551  0.75909907  0.75730827  1
  O  O387  1  0.37283932  0.25129212  0.23833909  1
  O  O388  1  0.38836363  0.25686775  0.74364216  1
  O  O389  1  0.37939651  0.74383069  0.24617336  1
  O  O390  1  0.38180459  0.74157265  0.75806751  1
  O  O391  1  0.87305957  0.23592206  0.23929344  1
  O  O392  1  0.88413896  0.24336815  0.74920607  1
  O  O393  1  0.88094428  0.74433781  0.24453970  1
  O  O394  1  0.87134451  0.74659913  0.73355829  1
  O  O395  1  0.38126559  0.49297048  0.49726494  1
  O  O396  1  0.36716231  0.48741576  0.99047676  1
  O  O397  1  0.39110244  1.00952073  0.50126089  1
  O  O398  1  0.36602648  0.98765140  1.00052989  1
  O  O399  1  0.88137412  0.49538221  0.49367749  1
  O  O400  1  0.87380135  0.49614457  0.99611409  1
  O  O401  1  0.88451314  0.98819717  0.50962770  1
  O  O402  1  0.88330018  0.99784762  0.99419611  1
  O  O403  1  0.11951869  0.00700771  0.00734278  1
  O  O404  1  0.11639240  0.00639662  0.50809208  1
  O  O405  1  0.13178571  0.49902294  0.01234049  1
  O  O406  1  0.12314945  0.51216514  0.50442442  1
  O  O407  1  0.62878084  0.00015926  0.01328254  1
  O  O408  1  0.61588237  0.01451124  0.49946697  1
  O  O409  1  0.64000138  0.50664414  0.00625099  1
  O  O410  1  0.61709351  0.50122902  0.50788674  1
  O  O411  1  0.38570993  0.36872948  0.11335383  1
  O  O412  1  0.37358327  0.37348784  0.61553346  1
  O  O413  1  0.36149005  0.87329542  0.11415196  1
  O  O414  1  0.35983628  0.88021867  0.62690280  1
  O  O415  1  0.86827305  0.35846672  0.13323909  1
  O  O416  1  0.86989284  0.37593494  0.61802589  1
  O  O417  1  0.86810631  0.86406140  0.12379579  1
  O  O418  1  0.87645114  0.86282491  0.61658823  1
  O  O419  1  0.13112902  0.13085269  0.38582521  1
  O  O420  1  0.12947953  0.13141444  0.88753627  1
  O  O421  1  0.13302001  0.62576109  0.38197199  1
  O  O422  1  0.13280268  0.63610744  0.87146747  1
  O  O423  1  0.63581515  0.12503644  0.38361158  1
  O  O424  1  0.64262596  0.12350717  0.86728872  1
  O  O425  1  0.63682573  0.62176333  0.37829749  1
  O  O426  1  0.63046426  0.63397877  0.87879721  1
