# generated using pymatgen
data_V85Zn86O256
_symmetry_space_group_name_H-M   'P 1'
_cell_length_a   16.96394794
_cell_length_b   16.95243587
_cell_length_c   16.96756020
_cell_angle_alpha   90.02881052
_cell_angle_beta   90.02591946
_cell_angle_gamma   90.01291897
_symmetry_Int_Tables_number   1
_chemical_formula_structural   V85Zn86O256
_chemical_formula_sum   'V85 Zn86 O256'
_cell_volume   4879.53378817
_cell_formula_units_Z   1
loop_
 _symmetry_equiv_pos_site_id
 _symmetry_equiv_pos_as_xyz
  1  'x, y, z'
loop_
 _atom_site_type_symbol
 _atom_site_label
 _atom_site_symmetry_multiplicity
 _atom_site_fract_x
 _atom_site_fract_y
 _atom_site_fract_z
 _atom_site_occupancy
  V  V0  1  0.87506984  0.25679296  0.62206025  1
  V  V1  1  0.62249730  0.37290024  0.25021987  1
  V  V2  1  0.74769768  0.25454345  0.48753004  1
  V  V3  1  0.13363677  0.49829002  0.12996868  1
  V  V4  1  0.51071254  0.87204793  0.37796016  1
  V  V5  1  0.36351797  0.36427901  0.49903361  1
  V  V6  1  0.74761590  0.74402217  0.48492363  1
  V  V7  1  -0.00991434  0.49695650  0.50262380  1
  V  V8  1  0.24997840  -0.00207987  0.25023915  1
  V  V9  1  0.60996100  0.00357880  0.11980610  1
  V  V10  1  0.12601393  0.00438093  0.12029528  1
  V  V11  1  0.13691578  0.37927551  0.24862440  1
  V  V12  1  0.25515295  0.00019764  0.75074714  1
  V  V13  1  0.63099341  0.12322067  0.49053383  1
  V  V14  1  0.37408716  0.26242636  0.12278938  1
  V  V15  1  0.37613133  0.12132354  0.24053048  1
  V  V16  1  0.24875512  0.87240331  0.11875634  1
  V  V17  1  0.74721347  0.00148446  0.73810142  1
  V  V18  1  0.75809294  0.49018882  0.75404489  1
  V  V19  1  0.00116743  0.00881888  0.49876898  1
  V  V20  1  0.12440241  0.87441870  0.74817975  1
  V  V21  1  0.50339856  0.62624357  0.61981131  1
  V  V22  1  0.24332596  0.26671026  0.00791882  1
  V  V23  1  0.62427108  0.87814490  0.74232542  1
  V  V24  1  0.88456524  0.12828848  0.74630174  1
  V  V25  1  0.86978257  0.13108554  0.25421713  1
  V  V26  1  0.87317818  0.87860378  -0.00138564  1
  V  V27  1  0.87343916  0.25075004  0.12497637  1
  V  V28  1  0.50612052  0.00038090  0.51109563  1
  V  V29  1  0.11770432  0.24393157  0.88120272  1
  V  V30  1  0.61295707  0.25563516  0.85562022  1
  V  V31  1  0.36602732  0.49908577  0.36559752  1
  V  V32  1  0.25071065  0.74726969  0.50045371  1
  V  V33  1  0.50185942  0.74808684  0.25284019  1
  V  V34  1  0.87243425  0.87558644  0.50054018  1
  V  V35  1  0.37116659  0.75018125  0.12382337  1
  V  V36  1  -0.00004121  0.25257223  0.24976177  1
  V  V37  1  0.38293577  0.00828498  0.87313216  1
  V  V38  1  0.74960212  0.37551518  0.12530745  1
  V  V39  1  0.49785280  0.14497380  0.62800798  1
  V  V40  1  0.12419459  0.62219137  0.50193527  1
  V  V41  1  0.60570727  0.12367867  -0.00050983  1
  V  V42  1  -0.00217639  0.37575006  0.37807503  1
  V  V43  1  -0.00103194  0.75040026  0.74934770  1
  V  V44  1  0.87444707  0.00260744  0.87307656  1
  V  V45  1  0.74289613  0.87878494  0.12193823  1
  V  V46  1  0.12102412  0.36978055  0.75058514  1
  V  V47  1  0.37390066  0.87729045  -0.00354766  1
  V  V48  1  -0.00524535  0.37721979  0.87488499  1
  V  V49  1  0.12658569  -0.00353995  0.61929369  1
  V  V50  1  0.44111138  0.44366100  0.94921118  1
  V  V51  1  -0.00044821  0.87789402  0.37519251  1
  V  V52  1  0.74668617  0.12428425  0.87191399  1
  V  V53  1  0.18312708  0.18044903  0.55116506  1
  V  V54  1  0.60553935  0.48179898  0.65577762  1
  V  V55  1  0.13326313  0.74733605  0.87986219  1
  V  V56  1  0.12972486  0.24806818  0.37318773  1
  V  V57  1  0.75011944  0.61839965  0.87809477  1
  V  V58  1  -0.00847510  0.50117950  -0.00041767  1
  V  V59  1  0.24867670  0.11906066  0.89165435  1
  V  V60  1  0.00289272  0.12706759  0.12038136  1
  V  V61  1  0.74599788  0.00497329  0.25123625  1
  V  V62  1  0.24778927  0.12400535  0.37384481  1
  V  V63  1  0.74766400  0.74581738  -0.00225150  1
  V  V64  1  0.37680048  0.87320340  0.49851836  1
  V  V65  1  0.87401842  0.75216163  0.12512377  1
  V  V66  1  0.49989327  0.74785208  0.75069108  1
  V  V67  1  0.74683426  0.24568801  -0.00152721  1
  V  V68  1  0.62242743  0.50646774  0.11961142  1
  V  V69  1  0.49971896  0.36497027  0.37208020  1
  V  V70  1  -0.00067542  0.87601160  0.87395429  1
  V  V71  1  0.87165734  0.00369503  0.37319885  1
  V  V72  1  0.13209294  0.49415578  0.62442040  1
  V  V73  1  -0.00141828  0.75192517  0.24973595  1
  V  V74  1  0.00344948  0.00422587  -0.00140075  1
  V  V75  1  0.50062319  0.49725886  0.49039683  1
  V  V76  1  0.12503834  0.87624599  0.24918557  1
  V  V77  1  0.50264127  0.24075733  0.24550080  1
  V  V78  1  0.25089973  0.50416359  0.75783366  1
  V  V79  1  0.12413519  0.74940001  0.37562000  1
  V  V80  1  0.50362240  0.87731800  0.87950201  1
  V  V81  1  0.87602780  0.62361098  0.75677790  1
  V  V82  1  0.63002729  0.62114095  0.48039152  1
  V  V83  1  0.86882839  0.74815523  0.62523520  1
  V  V84  1  -0.00252191  0.62268910  0.12694342  1
  Zn  Zn85  1  0.36807246  0.62314998  0.24557564  1
  Zn  Zn86  1  0.37804573  0.00022465  0.37573771  1
  Zn  Zn87  1  0.86751253  0.50508492  0.37883338  1
  Zn  Zn88  1  0.62490749  0.87365480  0.25144011  1
  Zn  Zn89  1  0.74768893  0.51486944  0.25851229  1
  Zn  Zn90  1  0.57990564  0.58652773  -0.03278120  1
  Zn  Zn91  1  0.37855554  0.61911138  0.75303745  1
  Zn  Zn92  1  -0.00089484  0.62204163  0.62766544  1
  Zn  Zn93  1  0.42216490  0.18986273  0.78584868  1
  Zn  Zn94  1  0.24276772  0.61693848  0.36818058  1
  Zn  Zn95  1  0.87033396  0.62504419  0.26233188  1
  Zn  Zn96  1  0.26191516  0.62416367  0.88597667  1
  Zn  Zn97  1  0.37507240  0.74498779  0.62316564  1
  Zn  Zn98  1  0.74750175  0.37371004  0.62235492  1
  Zn  Zn99  1  0.29841598  0.32942004  0.66284619  1
  Zn  Zn100  1  0.25322108  0.87235623  0.62528769  1
  Zn  Zn101  1  0.87112257  0.37891954  -0.00446747  1
  Zn  Zn102  1  0.12595955  0.62807791  0.00256798  1
  Zn  Zn103  1  0.74490976  0.87482835  0.62101305  1
  Zn  Zn104  1  0.62737907  0.74584029  0.87145327  1
  Zn  Zn105  1  0.00304527  0.13002890  0.62383729  1
  Zn  Zn106  1  0.49218083  0.61881473  0.12089355  1
  Zn  Zn107  1  0.18774127  0.18822617  0.18696101  1
  Zn  Zn108  1  0.23017841  0.20585732  0.72850671  1
  Zn  Zn109  1  0.18779757  0.68471830  0.18789974  1
  Zn  Zn110  1  0.18640272  0.68502610  0.68697845  1
  Zn  Zn111  1  0.68479911  0.18503968  0.18458994  1
  Zn  Zn112  1  0.68616765  0.18283788  0.67623454  1
  Zn  Zn113  1  0.68628348  0.68990170  0.19034836  1
  Zn  Zn114  1  0.68465931  0.67965411  0.68619342  1
  Zn  Zn115  1  0.31459585  0.30871608  0.31315915  1
  Zn  Zn116  1  0.30132145  0.32881159  0.83499108  1
  Zn  Zn117  1  0.31337832  0.80891572  0.31404553  1
  Zn  Zn118  1  0.31629330  0.81364130  0.80975781  1
  Zn  Zn119  1  0.79504120  0.34670964  0.33033830  1
  Zn  Zn120  1  0.81356128  0.30577067  0.81091930  1
  Zn  Zn121  1  0.81190729  0.81596471  0.30926053  1
  Zn  Zn122  1  0.80992991  0.81262376  0.81193054  1
  Zn  Zn123  1  0.18570577  0.43343142  0.43853198  1
  Zn  Zn124  1  0.17680993  0.44209734  0.94026283  1
  Zn  Zn125  1  0.18965853  0.93649716  0.43796411  1
  Zn  Zn126  1  0.18699345  0.93532428  0.93770316  1
  Zn  Zn127  1  0.68276800  0.43361183  0.43812038  1
  Zn  Zn128  1  0.68820622  0.43153571  0.93290111  1
  Zn  Zn129  1  0.68839295  0.93982780  0.43867502  1
  Zn  Zn130  1  0.68292529  0.94002566  0.93526379  1
  Zn  Zn131  1  0.32106819  0.05817076  0.06173860  1
  Zn  Zn132  1  0.32303449  0.05700897  0.56771397  1
  Zn  Zn133  1  0.30701638  0.56614489  0.05950121  1
  Zn  Zn134  1  0.31458754  0.55760978  0.56019985  1
  Zn  Zn135  1  0.81098892  0.06418672  0.06326930  1
  Zn  Zn136  1  0.81270821  0.06786009  0.56031239  1
  Zn  Zn137  1  0.81103778  0.56255071  0.07035303  1
  Zn  Zn138  1  0.80612540  0.56096096  0.56989889  1
  Zn  Zn139  1  0.43980755  0.43689763  0.18304684  1
  Zn  Zn140  1  0.43516529  0.44138326  0.68104080  1
  Zn  Zn141  1  0.43633767  0.93256811  0.19044282  1
  Zn  Zn142  1  0.43773356  0.93440225  0.68662575  1
  Zn  Zn143  1  0.93636902  0.43805876  0.19271816  1
  Zn  Zn144  1  0.94035621  0.43660956  0.68774539  1
  Zn  Zn145  1  0.93461956  0.94015498  0.18648587  1
  Zn  Zn146  1  0.93604567  0.93906013  0.68459373  1
  Zn  Zn147  1  0.06197341  0.06507725  0.30928185  1
  Zn  Zn148  1  0.06790982  0.06413338  0.81092699  1
  Zn  Zn149  1  0.05576601  0.56258157  0.31293644  1
  Zn  Zn150  1  0.06225725  0.56077224  0.81284020  1
  Zn  Zn151  1  0.56098619  0.05807532  0.31586622  1
  Zn  Zn152  1  0.56404755  0.06353694  0.80776255  1
  Zn  Zn153  1  0.55704913  0.55904257  0.30374797  1
  Zn  Zn154  1  0.55158914  0.54576124  0.80450017  1
  Zn  Zn155  1  0.43812014  0.18249471  0.43561360  1
  Zn  Zn156  1  0.44295559  0.27793745  0.94277965  1
  Zn  Zn157  1  0.43800759  0.68541362  0.43344108  1
  Zn  Zn158  1  0.43048989  0.68958606  0.93697119  1
  Zn  Zn159  1  0.93421008  0.19301216  0.43704550  1
  Zn  Zn160  1  0.93391948  0.18882481  0.93828767  1
  Zn  Zn161  1  0.93856646  0.68639608  0.44012978  1
  Zn  Zn162  1  0.93803662  0.68803763  0.93809295  1
  Zn  Zn163  1  0.06252796  0.31729808  0.06235793  1
  Zn  Zn164  1  0.05636914  0.31705314  0.56805569  1
  Zn  Zn165  1  0.06110836  0.81542540  0.06126062  1
  Zn  Zn166  1  0.05834483  0.81312130  0.56241966  1
  Zn  Zn167  1  0.56544374  0.30783490  0.06793666  1
  Zn  Zn168  1  0.56488837  0.30988136  0.55658177  1
  Zn  Zn169  1  0.54623175  0.77841273  0.04489264  1
  Zn  Zn170  1  0.56662551  0.80742042  0.56012127  1
  O  O171  1  0.11418341  0.11719731  0.13127385  1
  O  O172  1  0.12599373  0.12071586  0.61389733  1
  O  O173  1  0.11266496  0.61752725  0.12722898  1
  O  O174  1  0.12169045  0.61690458  0.61743524  1
  O  O175  1  0.62636289  0.11778215  0.10816478  1
  O  O176  1  0.60914040  0.12829135  0.61014750  1
  O  O177  1  0.62627707  0.60872163  0.12723138  1
  O  O178  1  0.61318378  0.60771814  0.62288791  1
  O  O179  1  0.37963963  0.38199942  0.37948148  1
  O  O180  1  0.39015770  0.37884075  0.88469948  1
  O  O181  1  0.38170949  0.87432427  0.38723291  1
  O  O182  1  0.38182793  0.88091140  0.88041179  1
  O  O183  1  0.89708721  0.36792807  0.37657159  1
  O  O184  1  0.89099537  0.36304255  0.87515596  1
  O  O185  1  0.88068577  0.88379227  0.37964770  1
  O  O186  1  0.87937269  0.88285380  0.87794689  1
  O  O187  1  0.25061417  0.00645804  0.36898365  1
  O  O188  1  0.25607130  0.00224321  0.87208219  1
  O  O189  1  0.26313868  0.49684488  0.37809689  1
  O  O190  1  0.23758081  0.50100103  0.86087549  1
  O  O191  1  0.75446821  -0.00526299  0.35906838  1
  O  O192  1  0.75377429  0.01119333  0.86893499  1
  O  O193  1  0.76104763  0.45860613  0.36204849  1
  O  O194  1  0.75441464  0.50416824  0.86763203  1
  O  O195  1  0.23164438  0.50415807  0.12630609  1
  O  O196  1  0.23783722  0.50288647  0.63126586  1
  O  O197  1  0.24594542  0.99181349  0.12983393  1
  O  O198  1  0.24454352  0.99841211  0.63210679  1
  O  O199  1  0.74176188  0.48880114  0.12913989  1
  O  O200  1  0.74307818  0.49348048  0.63950453  1
  O  O201  1  0.74618048  0.99585932  0.13308496  1
  O  O202  1  0.75584652  0.99808938  0.63552621  1
  O  O203  1  0.00939571  0.36751071  0.25698694  1
  O  O204  1  0.01205311  0.38059644  0.75936423  1
  O  O205  1  0.00490815  0.87266840  0.25371132  1
  O  O206  1  0.00421092  0.87180425  0.75395053  1
  O  O207  1  0.50468183  0.36536336  0.25229342  1
  O  O208  1  0.53204127  0.45059186  0.73452429  1
  O  O209  1  0.50059938  0.87092854  0.26312159  1
  O  O210  1  0.50715373  0.86868562  0.75526726  1
  O  O211  1  0.48947101  0.13052871  0.25761985  1
  O  O212  1  0.50138271  0.12470704  0.73378279  1
  O  O213  1  0.49205051  0.63379307  0.24450476  1
  O  O214  1  0.50059639  0.63134370  0.73968297  1
  O  O215  1  0.99291912  0.13098018  0.23949183  1
  O  O216  1  0.98772463  0.11932168  0.74809268  1
  O  O217  1  0.99787671  0.63589600  0.24242236  1
  O  O218  1  0.99245330  0.63019986  0.74959379  1
  O  O219  1  0.36073710  0.24677607  0.01482280  1
  O  O220  1  0.37854570  0.26597471  0.48959821  1
  O  O221  1  0.37519446  0.76744685  0.00994721  1
  O  O222  1  0.36639035  0.75229995  0.49907686  1
  O  O223  1  0.86095265  0.24964394  0.00545518  1
  O  O224  1  0.86025082  0.23898701  0.51198745  1
  O  O225  1  0.86820455  0.75855650  0.00490784  1
  O  O226  1  0.86863570  0.75345003  0.50847792  1
  O  O227  1  0.12317526  0.24383431  0.49597192  1
  O  O228  1  0.13596708  0.25138661  0.99965219  1
  O  O229  1  0.12862544  0.74251273  0.49782846  1
  O  O230  1  0.11829911  0.75425384  0.98233188  1
  O  O231  1  0.63845360  0.23971739  0.49962505  1
  O  O232  1  0.63178532  0.23844148  0.99597299  1
  O  O233  1  0.63388236  0.73126443  0.50358418  1
  O  O234  1  0.64516950  0.75960647  0.99293938  1
  O  O235  1  0.48344180  0.24970972  0.12996782  1
  O  O236  1  0.49966555  0.24523037  0.62540807  1
  O  O237  1  0.48171554  0.76163850  0.13674435  1
  O  O238  1  0.50154560  0.74031109  0.62891691  1
  O  O239  1  0.99579141  0.24399646  0.12726221  1
  O  O240  1  0.98225989  0.24484265  0.61537288  1
  O  O241  1  0.99673607  0.74553877  0.12933692  1
  O  O242  1  0.98688220  0.74899748  0.63069540  1
  O  O243  1  0.01302954  0.25182655  0.37253756  1
  O  O244  1  0.01281260  0.25415377  0.88588610  1
  O  O245  1  0.00539205  0.75906490  0.37132678  1
  O  O246  1  0.00431295  0.75816706  0.86744761  1
  O  O247  1  0.49120235  0.25872769  0.36219385  1
  O  O248  1  0.50604960  0.24152467  0.85721777  1
  O  O249  1  0.49433174  0.75860735  0.36587466  1
  O  O250  1  0.50437695  0.75915013  0.86463684  1
  O  O251  1  0.24825732  0.12096581  0.49615488  1
  O  O252  1  0.25189404  0.12241371  0.99322191  1
  O  O253  1  0.24012797  0.62905388  0.49619390  1
  O  O254  1  0.23793887  0.62382693  0.99576290  1
  O  O255  1  0.73720723  0.13048131  0.50149850  1
  O  O256  1  0.74795258  0.13018636  0.98917060  1
  O  O257  1  0.73673058  0.62645577  0.50149964  1
  O  O258  1  0.75993955  0.63352166  0.99200554  1
  O  O259  1  0.24570969  0.36493804  -0.00269393  1
  O  O260  1  0.26350661  0.37328031  0.49841462  1
  O  O261  1  0.25779885  0.87951081  0.00922214  1
  O  O262  1  0.25883146  0.86663690  0.50116090  1
  O  O263  1  0.75016653  0.36500852  0.00829477  1
  O  O264  1  0.74483495  0.35848079  0.50281815  1
  O  O265  1  0.75666646  0.87450141  0.00297103  1
  O  O266  1  0.75400683  0.86563067  0.50171594  1
  O  O267  1  0.11709966  0.49364820  0.23936258  1
  O  O268  1  0.13088125  0.49427404  0.74272183  1
  O  O269  1  0.12878452  0.99403618  0.24194112  1
  O  O270  1  0.12853680  0.99397269  0.73756086  1
  O  O271  1  0.62715744  0.48882786  0.23996498  1
  O  O272  1  0.65390744  0.51801365  0.75227388  1
  O  O273  1  0.63110669  1.00113055  0.24065718  1
  O  O274  1  0.63627729  0.99156148  0.75369123  1
  O  O275  1  0.36915368  0.00563617  0.25281006  1
  O  O276  1  0.36588734  -0.01108420  0.75930248  1
  O  O277  1  0.37990058  0.49722141  0.26304001  1
  O  O278  1  0.35346565  0.49700950  0.74245649  1
  O  O279  1  0.86702546  0.00869907  0.25291170  1
  O  O280  1  0.86756334  0.00604319  0.75546492  1
  O  O281  1  0.87063215  0.50271449  0.25453328  1
  O  O282  1  0.86689867  0.50937117  0.74454251  1
  O  O283  1  0.11993924  0.36679690  0.36953443  1
  O  O284  1  0.11526036  0.36675911  0.87218255  1
  O  O285  1  0.11904577  0.87040403  0.37020882  1
  O  O286  1  0.11894919  0.86753997  0.86797967  1
  O  O287  1  0.61344696  0.37441800  0.35903629  1
  O  O288  1  0.62482614  0.35264703  0.87816800  1
  O  O289  1  0.61418084  0.87593663  0.37550352  1
  O  O290  1  0.61847980  0.87439286  0.86378985  1
  O  O291  1  0.36864412  0.13056492  0.13775258  1
  O  O292  1  0.39739176  0.12522198  0.61679608  1
  O  O293  1  0.37379865  0.63726167  0.12384796  1
  O  O294  1  0.38958570  0.62269047  0.62375045  1
  O  O295  1  0.88120594  0.12968009  0.13362103  1
  O  O296  1  0.87677486  0.13064908  0.63265359  1
  O  O297  1  0.88679882  0.63486473  0.12424963  1
  O  O298  1  0.87554114  0.63227152  0.63587357  1
  O  O299  1  0.25547445  0.24646178  0.11441489  1
  O  O300  1  0.23688136  0.23907471  0.61512195  1
  O  O301  1  0.25570691  0.76513222  0.13083809  1
  O  O302  1  0.25007604  0.74911100  0.61262552  1
  O  O303  1  0.75144436  0.25223700  0.11410056  1
  O  O304  1  0.75941283  0.25133351  0.61750422  1
  O  O305  1  0.75374850  0.76033346  0.11661005  1
  O  O306  1  0.75945110  0.74732866  0.62074363  1
  O  O307  1  0.23808021  0.24207023  0.37265728  1
  O  O308  1  0.24268242  0.24219477  0.89460791  1
  O  O309  1  0.24130872  0.75195237  0.38819487  1
  O  O310  1  0.23458774  0.75292066  0.86596439  1
  O  O311  1  0.75987349  0.25227110  0.38889083  1
  O  O312  1  0.74367652  0.23922436  0.87932491  1
  O  O313  1  0.75463643  0.75421778  0.38633717  1
  O  O314  1  0.75245078  0.74049087  0.88139350  1
  O  O315  1  -0.00726926  0.12064221  0.01298255  1
  O  O316  1  -0.00466869  0.11117020  0.49754428  1
  O  O317  1  0.00326338  0.61990488  0.00735858  1
  O  O318  1  0.01226810  0.61796872  0.50470105  1
  O  O319  1  0.51100110  0.13279952  -0.00578108  1
  O  O320  1  0.50728241  0.11844246  0.50375466  1
  O  O321  1  0.51196156  0.66275009  0.01348529  1
  O  O322  1  0.51086614  0.62007093  0.49989398  1
  O  O323  1  0.49837005  0.38054434  0.48737737  1
  O  O324  1  0.49546006  0.36927801  0.99900479  1
  O  O325  1  0.49763496  0.87744149  0.49597467  1
  O  O326  1  0.49615949  0.86881420  0.98457302  1
  O  O327  1  1.00988127  0.38698919  0.49181275  1
  O  O328  1  0.99630046  0.38310531  0.99381656  1
  O  O329  1  0.99218329  0.88516873  0.49539082  1
  O  O330  1  0.99164903  0.88304223  0.99448393  1
  O  O331  1  0.49239831  0.48887159  0.37647600  1
  O  O332  1  0.50572470  0.51225639  0.90412674  1
  O  O333  1  0.49796844  0.98921165  0.38626946  1
  O  O334  1  0.49223388  0.99207300  0.86591495  1
  O  O335  1  1.00281937  0.49072573  0.38630412  1
  O  O336  1  1.00742601  0.49038259  0.88650774  1
  O  O337  1  0.99626863  0.99632974  0.37993229  1
  O  O338  1  0.99663530  0.99659207  0.87912714  1
  O  O339  1  0.00373599  0.00805597  0.11973128  1
  O  O340  1  0.00865747  0.00380107  0.61718426  1
  O  O341  1  0.00216635  0.50906518  0.12169963  1
  O  O342  1  0.01139531  0.49921605  0.61865804  1
  O  O343  1  0.51150176  -0.00600494  0.12849938  1
  O  O344  1  0.49979398  -0.00274103  0.61241996  1
  O  O345  1  0.51574986  0.50072531  0.12540057  1
  O  O346  1  0.50158920  0.50600404  0.60206125  1
  O  O347  1  0.23571572  0.36934909  0.25546830  1
  O  O348  1  0.23863340  0.38587742  0.75064043  1
  O  O349  1  0.24471288  0.88035260  0.24496844  1
  O  O350  1  0.24278226  0.88365425  0.74793984  1
  O  O351  1  0.73577744  0.35690673  0.23243001  1
  O  O352  1  0.75618497  0.38796936  0.75369691  1
  O  O353  1  0.74647247  0.88311577  0.23920604  1
  O  O354  1  0.74254843  0.88314502  0.74900912  1
  O  O355  1  0.25510588  0.11842780  0.25628193  1
  O  O356  1  0.24414259  0.10333182  0.76709141  1
  O  O357  1  0.25572761  0.63447497  0.25835926  1
  O  O358  1  0.24816770  0.61227305  0.75150910  1
  O  O359  1  0.75827320  0.11840861  0.24367817  1
  O  O360  1  0.75421547  0.11774495  0.75430584  1
  O  O361  1  0.75722300  0.62734568  0.24403546  1
  O  O362  1  0.76124033  0.62253767  0.75895413  1
  O  O363  1  0.36179546  0.12468343  0.36678166  1
  O  O364  1  0.36734064  0.11364446  0.87006458  1
  O  O365  1  0.37515572  0.60585219  0.37696281  1
  O  O366  1  0.37279160  0.63018939  0.86603172  1
  O  O367  1  0.88201784  0.12051461  0.36036309  1
  O  O368  1  0.86674620  0.12356462  0.86605013  1
  O  O369  1  0.88252433  0.61824067  0.37633096  1
  O  O370  1  0.86908478  0.62980049  0.86388810  1
  O  O371  1  0.11917675  0.38922533  0.13422751  1
  O  O372  1  0.12299780  0.38003186  0.63679516  1
  O  O373  1  0.13136732  0.88132091  0.12808760  1
  O  O374  1  0.12670087  0.88132210  0.62966201  1
  O  O375  1  0.62929494  0.38138733  0.13050055  1
  O  O376  1  0.62577100  0.38726048  0.61774348  1
  O  O377  1  0.63773923  0.88571558  0.11931488  1
  O  O378  1  0.62608981  0.87027819  0.63777266  1
  O  O379  1  0.11973118  0.25520789  0.25667962  1
  O  O380  1  0.13442719  0.25881167  0.76706833  1
  O  O381  1  0.11640455  0.75784770  0.25415948  1
  O  O382  1  0.11757370  0.75546697  0.75403593  1
  O  O383  1  0.60886585  0.25338851  0.23768951  1
  O  O384  1  0.63444439  0.24703288  0.75932359  1
  O  O385  1  0.60648166  0.75615961  0.23833474  1
  O  O386  1  0.61602799  0.75450400  0.74951498  1
  O  O387  1  0.37921161  0.24248128  0.24019012  1
  O  O388  1  0.33664811  0.25603482  0.75032946  1
  O  O389  1  0.38294558  0.75336617  0.24214405  1
  O  O390  1  0.38946501  0.75313998  0.74294068  1
  O  O391  1  0.88112112  0.24335144  0.24305974  1
  O  O392  1  0.86913019  0.23915097  0.73524847  1
  O  O393  1  0.88465937  0.75680228  0.24123344  1
  O  O394  1  0.87897168  0.74520931  0.74364322  1
  O  O395  1  0.38295672  0.49052900  0.48802298  1
  O  O396  1  0.38098515  0.49102387  1.01269056  1
  O  O397  1  0.38445528  0.98934776  0.49693899  1
  O  O398  1  0.37649101  0.98878914  0.98882026  1
  O  O399  1  0.88745609  0.50406828  0.50697919  1
  O  O400  1  0.88697740  0.49856759  1.00733236  1
  O  O401  1  0.87949983  0.99686487  0.49341938  1
  O  O402  1  0.88120946  0.99868842  0.99267344  1
  O  O403  1  0.11425152  -0.00552304  0.00701841  1
  O  O404  1  0.11743952  -0.00824830  0.51135265  1
  O  O405  1  0.11138880  0.49973452  0.01599610  1
  O  O406  1  0.12248192  0.50555536  0.50657046  1
  O  O407  1  0.62583647  0.01459807  0.00385426  1
  O  O408  1  0.62090981  0.01160741  0.49887446  1
  O  O409  1  0.63554830  0.49697461  0.01477324  1
  O  O410  1  0.61705883  0.50905253  0.49457030  1
  O  O411  1  0.36979014  0.36064943  0.13300193  1
  O  O412  1  0.37990012  0.37818755  0.60606640  1
  O  O413  1  0.36594414  0.87502900  0.11737488  1
  O  O414  1  0.37501899  0.86960620  0.61090535  1
  O  O415  1  0.86572203  0.36718851  0.12417260  1
  O  O416  1  0.87417182  0.35993933  0.62951445  1
  O  O417  1  0.86467934  0.87363851  0.11862300  1
  O  O418  1  0.87165974  0.86708409  0.61818700  1
  O  O419  1  0.13707793  0.13083936  0.36954345  1
  O  O420  1  0.13308162  0.13289789  0.87579947  1
  O  O421  1  0.12203319  0.63103415  0.38402617  1
  O  O422  1  0.12130418  0.64216970  0.87277019  1
  O  O423  1  0.61775186  0.12514800  0.39119995  1
  O  O424  1  0.62958544  0.13186661  0.88159683  1
  O  O425  1  0.62224556  0.61927364  0.38218973  1
  O  O426  1  0.63978370  0.62469828  0.87506897  1
