# generated using pymatgen
data_V85Zn86O256
_symmetry_space_group_name_H-M   'P 1'
_cell_length_a   16.95792545
_cell_length_b   16.94407214
_cell_length_c   16.96681447
_cell_angle_alpha   90.08044410
_cell_angle_beta   89.94488693
_cell_angle_gamma   89.95397631
_symmetry_Int_Tables_number   1
_chemical_formula_structural   V85Zn86O256
_chemical_formula_sum   'V85 Zn86 O256'
_cell_volume   4875.17326074
_cell_formula_units_Z   1
loop_
 _symmetry_equiv_pos_site_id
 _symmetry_equiv_pos_as_xyz
  1  'x, y, z'
loop_
 _atom_site_type_symbol
 _atom_site_label
 _atom_site_symmetry_multiplicity
 _atom_site_fract_x
 _atom_site_fract_y
 _atom_site_fract_z
 _atom_site_occupancy
  V  V0  1  0.00306308  0.74251566  0.74621811  1
  V  V1  1  0.62355049  0.13265726  0.50576473  1
  V  V2  1  0.49631510  0.62296973  0.62267385  1
  V  V3  1  0.50913577  0.50237166  -0.00210288  1
  V  V4  1  0.25646673  0.87426970  0.11775326  1
  V  V5  1  0.75340230  0.86907623  0.12410225  1
  V  V6  1  0.86792129  0.12606260  0.75667615  1
  V  V7  1  0.00159383  -0.00030962  0.50372140  1
  V  V8  1  0.87638762  0.01093947  0.37560838  1
  V  V9  1  0.25253520  0.25002874  0.50046272  1
  V  V10  1  0.87344256  0.39295102  0.50349961  1
  V  V11  1  0.12465237  0.86900371  0.24985605  1
  V  V12  1  0.50274860  0.37288427  0.87242547  1
  V  V13  1  0.48981863  -0.00426473  0.00079672  1
  V  V14  1  0.87558294  0.86208788  0.00084229  1
  V  V15  1  0.24538104  0.63024395  0.87591987  1
  V  V16  1  0.12425621  -0.00294825  0.12613299  1
  V  V17  1  0.37833016  0.62516438  0.24780064  1
  V  V18  1  0.62490814  0.38021367  0.24975022  1
  V  V19  1  0.77818879  0.01808930  0.23344661  1
  V  V20  1  0.06761024  0.56946340  0.55780593  1
  V  V21  1  0.50046772  0.87644958  0.37543327  1
  V  V22  1  0.75755015  0.36588479  0.12891433  1
  V  V23  1  0.63919491  0.61866920  0.51064449  1
  V  V24  1  0.49290338  0.87042513  0.87994225  1
  V  V25  1  0.11037651  0.49812469  0.12012295  1
  V  V26  1  0.88586512  0.37866364  -0.00370660  1
  V  V27  1  0.25073317  0.49973892  0.24252953  1
  V  V28  1  0.37744207  0.37376176  0.00011792  1
  V  V29  1  0.37471335  0.49765088  0.37536012  1
  V  V30  1  0.25028681  0.25098415  -0.00183326  1
  V  V31  1  0.62542122  0.74053028  0.87904920  1
  V  V32  1  0.37775248  0.75146858  0.11517112  1
  V  V33  1  0.62806822  0.23982860  0.87603701  1
  V  V34  1  0.62152309  0.00285407  0.12440758  1
  V  V35  1  0.85399633  0.25776054  0.61798365  1
  V  V36  1  0.12259950  0.12680272  0.00428529  1
  V  V37  1  0.74586596  0.00052335  0.75968055  1
  V  V38  1  0.75109130  0.75681743  0.49240526  1
  V  V39  1  0.11466716  0.25899011  0.37572467  1
  V  V40  1  0.87773063  0.63987835  0.24729128  1
  V  V41  1  0.00113779  0.87376320  0.37277670  1
  V  V42  1  0.23951542  0.37720017  0.62635778  1
  V  V43  1  0.49844423  0.24389622  0.74859533  1
  V  V44  1  0.25234252  0.12907218  0.36551205  1
  V  V45  1  -0.00570753  0.13521116  0.62696224  1
  V  V46  1  0.74796437  0.87800056  0.62541092  1
  V  V47  1  0.62837240  0.88145386  0.25151180  1
  V  V48  1  0.62833658  0.74970353  0.37528136  1
  V  V49  1  0.23910906  0.49927698  0.74906136  1
  V  V50  1  0.86363301  0.62209998  0.74764564  1
  V  V51  1  0.37171205  0.75005337  0.62357333  1
  V  V52  1  0.50176156  0.74972830  0.24900256  1
  V  V53  1  0.89533623  0.49985632  0.36648766  1
  V  V54  1  0.24824719  0.88326578  0.62821734  1
  V  V55  1  0.37228973  0.11598431  0.74919508  1
  V  V56  1  -0.00287849  0.64710811  0.12808670  1
  V  V57  1  0.62272832  0.86937061  0.75050634  1
  V  V58  1  0.37631796  0.24673505  0.62716343  1
  V  V59  1  0.63582300  0.50139900  0.12227799  1
  V  V60  1  0.12378874  0.00373623  0.63832761  1
  V  V61  1  0.75096706  0.61252901  0.36638467  1
  V  V62  1  0.12716734  0.12483434  0.50278573  1
  V  V63  1  0.75689142  0.24299994  -0.00213151  1
  V  V64  1  0.49610656  0.12454279  0.12868130  1
  V  V65  1  0.37671038  0.00614943  0.37214782  1
  V  V66  1  0.24837067  0.62477148  0.37581527  1
  V  V67  1  0.00064865  0.86188803  0.87496328  1
  V  V68  1  0.37575769  0.87569818  0.49862808  1
  V  V69  1  0.11987638  0.74595260  0.37406864  1
  V  V70  1  0.25237139  0.00109398  0.25049591  1
  V  V71  1  0.88089185  0.75016063  0.62259338  1
  V  V72  1  0.37361892  0.62009340  0.75074945  1
  V  V73  1  0.64176173  0.37779340  0.74856773  1
  V  V74  1  0.25083897  0.11764242  0.87293685  1
  V  V75  1  -0.00229698  -0.00047679  -0.00211284  1
  V  V76  1  0.37194476  0.24743276  0.13094719  1
  V  V77  1  0.87629229  0.87815411  0.49977205  1
  V  V78  1  0.50814603  0.62432054  0.12071343  1
  V  V79  1  0.50280512  0.49805288  0.49816352  1
  V  V80  1  0.74931959  0.73872061  0.00073850  1
  V  V81  1  0.24587712  0.74678940  0.49775039  1
  V  V82  1  0.12338200  0.63109353  -0.00159004  1
  V  V83  1  0.12710544  0.87380768  0.75655383  1
  V  V84  1  0.50523458  0.25035205  0.24971244  1
  Zn  Zn85  1  0.11129052  0.37855377  0.75747590  1
  Zn  Zn86  1  0.61361025  0.00327639  0.62463926  1
  Zn  Zn87  1  0.63602733  0.48673938  0.62395018  1
  Zn  Zn88  1  0.74594249  0.61063285  0.87490995  1
  Zn  Zn89  1  0.62719893  0.11977404  -0.00451107  1
  Zn  Zn90  1  0.37076492  -0.00793398  0.87526495  1
  Zn  Zn91  1  0.37619997  0.37507729  0.50346967  1
  Zn  Zn92  1  -0.02428762  0.25590760  0.24371106  1
  Zn  Zn93  1  0.25196185  0.75565972  -0.00828237  1
  Zn  Zn94  1  0.62944707  0.25287955  0.38034104  1
  Zn  Zn95  1  0.11895788  0.37918262  0.25693430  1
  Zn  Zn96  1  0.87004035  -0.00178346  0.87589712  1
  Zn  Zn97  1  0.24855060  0.37693876  0.12340597  1
  Zn  Zn98  1  0.37557723  0.49930065  0.87546406  1
  Zn  Zn99  1  -0.03332020  0.11846999  0.14046514  1
  Zn  Zn100  1  0.49892666  0.00737658  0.50477151  1
  Zn  Zn101  1  0.50059184  0.37342022  0.37551543  1
  Zn  Zn102  1  -0.00749229  0.26728663  0.75995517  1
  Zn  Zn103  1  0.87853029  0.48395208  0.86292913  1
  Zn  Zn104  1  0.49985964  0.74641256  0.75116489  1
  Zn  Zn105  1  0.11373663  0.26355524  0.87854568  1
  Zn  Zn106  1  0.75042018  0.13596925  0.37856540  1
  Zn  Zn107  1  0.11360978  0.18114227  0.19507149  1
  Zn  Zn108  1  0.18406005  0.19356104  0.69377354  1
  Zn  Zn109  1  0.18922255  0.68661761  0.18597873  1
  Zn  Zn110  1  0.18657756  0.68901640  0.68811682  1
  Zn  Zn111  1  0.79828735  0.18932244  0.19108002  1
  Zn  Zn112  1  0.68238311  0.18440660  0.68799081  1
  Zn  Zn113  1  0.68919000  0.68740058  0.18809544  1
  Zn  Zn114  1  0.69142179  0.68289390  0.67727405  1
  Zn  Zn115  1  0.31106060  0.31525390  0.31044527  1
  Zn  Zn116  1  0.30764619  0.31198564  0.81412581  1
  Zn  Zn117  1  0.31277061  0.81318798  0.30858044  1
  Zn  Zn118  1  0.31173468  0.80999007  0.80827939  1
  Zn  Zn119  1  0.80971997  0.32060221  0.32159787  1
  Zn  Zn120  1  0.81607141  0.30766334  0.81594081  1
  Zn  Zn121  1  0.81367036  0.82058223  0.31053457  1
  Zn  Zn122  1  0.81359350  0.80701664  0.81485349  1
  Zn  Zn123  1  0.18800532  0.43924113  0.44177644  1
  Zn  Zn124  1  0.18706966  0.44336940  0.93820123  1
  Zn  Zn125  1  0.18817690  0.93793446  0.44007714  1
  Zn  Zn126  1  0.18513835  0.93942278  0.93649515  1
  Zn  Zn127  1  0.69243274  0.42997905  0.43712080  1
  Zn  Zn128  1  0.69647134  0.43396993  0.93597267  1
  Zn  Zn129  1  0.68930383  0.95176775  0.43481727  1
  Zn  Zn130  1  0.68113734  0.92950794  0.93921675  1
  Zn  Zn131  1  0.31082843  0.06549561  0.06442876  1
  Zn  Zn132  1  0.31481487  0.06370633  0.56139086  1
  Zn  Zn133  1  0.31664677  0.56357513  0.05906016  1
  Zn  Zn134  1  0.30460002  0.55981487  0.56119351  1
  Zn  Zn135  1  0.80812000  0.05442380  0.05336712  1
  Zn  Zn136  1  0.80596756  0.06583195  0.56517149  1
  Zn  Zn137  1  0.82081564  0.55876696  0.06377170  1
  Zn  Zn138  1  0.81597542  0.56960983  0.55789706  1
  Zn  Zn139  1  0.44061020  0.43763203  0.18389862  1
  Zn  Zn140  1  0.43600733  0.43425683  0.68589908  1
  Zn  Zn141  1  0.43639893  0.93694371  0.19061766  1
  Zn  Zn142  1  0.43841429  0.93444726  0.69005670  1
  Zn  Zn143  1  0.93679656  0.43411309  0.19362034  1
  Zn  Zn144  1  0.94396565  0.44206135  0.67683298  1
  Zn  Zn145  1  0.94224520  0.92840535  0.18373965  1
  Zn  Zn146  1  0.93736092  0.93967749  0.69126774  1
  Zn  Zn147  1  0.06492400  0.06050037  0.31833329  1
  Zn  Zn148  1  0.04290572  0.09597043  0.83030264  1
  Zn  Zn149  1  0.06433910  0.56693563  0.30507646  1
  Zn  Zn150  1  0.05732411  0.55398381  0.81399413  1
  Zn  Zn151  1  0.56554759  0.06803482  0.31517903  1
  Zn  Zn152  1  0.55805981  0.05822883  0.81081223  1
  Zn  Zn153  1  0.56605118  0.56117317  0.31233325  1
  Zn  Zn154  1  0.56399174  0.55865146  0.80874257  1
  Zn  Zn155  1  0.44208157  0.18722718  0.43793048  1
  Zn  Zn156  1  0.43829649  0.18412456  0.93866087  1
  Zn  Zn157  1  0.43891474  0.68515297  0.43715156  1
  Zn  Zn158  1  0.43873099  0.68326083  0.93643892  1
  Zn  Zn159  1  0.93708939  0.19327114  0.44264761  1
  Zn  Zn160  1  0.93449633  0.18694814  0.94230244  1
  Zn  Zn161  1  0.93862460  0.68565949  0.43553971  1
  Zn  Zn162  1  0.95313462  0.64801552  0.92026153  1
  Zn  Zn163  1  0.06104157  0.30898075  0.07173899  1
  Zn  Zn164  1  0.05645562  0.31904181  0.55977036  1
  Zn  Zn165  1  0.06689124  0.81155776  0.05944072  1
  Zn  Zn166  1  0.06472054  0.81001043  0.56181338  1
  Zn  Zn167  1  0.56732836  0.31072906  0.06224316  1
  Zn  Zn168  1  0.56219086  0.31111064  0.56681344  1
  Zn  Zn169  1  0.56559099  0.81269073  0.06058029  1
  Zn  Zn170  1  0.56163852  0.81273533  0.56161619  1
  O  O171  1  0.14261744  0.11002098  0.11043354  1
  O  O172  1  0.11787901  0.11951047  0.62324664  1
  O  O173  1  0.11503705  0.62057854  0.12392122  1
  O  O174  1  0.12321146  0.62618769  0.62226832  1
  O  O175  1  0.61601335  0.10695479  0.12241029  1
  O  O176  1  0.62572635  0.12177656  0.61290332  1
  O  O177  1  0.61984853  0.61482590  0.13020827  1
  O  O178  1  0.59595898  0.65474161  0.61945740  1
  O  O179  1  0.37590831  0.38857404  0.37615509  1
  O  O180  1  0.38360102  0.37394255  0.88451183  1
  O  O181  1  0.38017815  0.88082792  0.37771622  1
  O  O182  1  0.38770263  0.87251162  0.86742126  1
  O  O183  1  0.87312906  0.39705929  0.38256971  1
  O  O184  1  0.87711915  0.36793149  0.89092011  1
  O  O185  1  0.88318586  0.88112367  0.38313650  1
  O  O186  1  0.88492318  0.87563703  0.88076121  1
  O  O187  1  0.25576416  0.00673375  0.37189883  1
  O  O188  1  0.25505001  0.01180555  0.88184734  1
  O  O189  1  0.25723197  0.50537124  0.36715174  1
  O  O190  1  0.25640861  0.51185495  0.86619681  1
  O  O191  1  0.76528824  -0.00009324  0.36046500  1
  O  O192  1  0.74630818  -0.01041004  0.86313957  1
  O  O193  1  0.75353025  0.51171872  0.37604589  1
  O  O194  1  0.76352969  0.49984829  0.87864414  1
  O  O195  1  0.24945390  0.50210300  0.13200301  1
  O  O196  1  0.25716325  0.48879556  0.63550635  1
  O  O197  1  0.24939153  0.99145699  0.13165699  1
  O  O198  1  0.24169118  0.98990430  0.61927942  1
  O  O199  1  0.73946559  0.49009714  0.11611590  1
  O  O200  1  0.71012851  0.56877693  0.59953908  1
  O  O201  1  0.73847254  0.98801513  0.12694687  1
  O  O202  1  0.74685864  0.98649979  0.63407927  1
  O  O203  1  0.00846531  0.36682593  0.24314311  1
  O  O204  1  -0.00442859  0.38087524  0.75231476  1
  O  O205  1  0.01585913  0.87856463  0.25691026  1
  O  O206  1  0.00595356  0.87071844  0.75843217  1
  O  O207  1  0.50578671  0.36981831  0.24889487  1
  O  O208  1  0.49818709  0.36582052  0.76161597  1
  O  O209  1  0.50805369  0.86927098  0.25640547  1
  O  O210  1  0.50739655  0.86767144  0.75804868  1
  O  O211  1  0.50500523  0.13290753  0.23658216  1
  O  O212  1  0.49046495  0.13655344  0.75646940  1
  O  O213  1  0.49825913  0.63082225  0.24350941  1
  O  O214  1  0.49119432  0.62481387  0.74170562  1
  O  O215  1  1.01915042  0.12953998  0.24552885  1
  O  O216  1  0.98222029  0.11174460  0.73524453  1
  O  O217  1  0.99471582  0.62809621  0.23572124  1
  O  O218  1  0.99161601  0.64088146  0.74969420  1
  O  O219  1  0.37302011  0.25591466  0.00670246  1
  O  O220  1  0.36945652  0.24938398  0.50915107  1
  O  O221  1  0.37472339  0.74578815  0.01221132  1
  O  O222  1  0.36826592  0.75551777  0.50401419  1
  O  O223  1  0.86185965  0.25192382  0.00204581  1
  O  O224  1  0.86925635  0.24579297  0.51723988  1
  O  O225  1  0.86693644  0.76077959  -0.00479641  1
  O  O226  1  0.87182107  0.75885617  0.50389932  1
  O  O227  1  0.13259850  0.24704586  0.49222198  1
  O  O228  1  0.13404847  0.24214602  1.00042006  1
  O  O229  1  0.13741633  0.75952703  0.48842843  1
  O  O230  1  0.13472795  0.73679108  1.00634208  1
  O  O231  1  0.61846170  0.23914026  0.50046668  1
  O  O232  1  0.63376365  0.24743320  0.99138202  1
  O  O233  1  0.63324581  0.74471168  0.49344836  1
  O  O234  1  0.63489218  0.75267273  0.99047635  1
  O  O235  1  0.49470020  0.24153714  0.12659141  1
  O  O236  1  0.48882209  0.25469341  0.63784602  1
  O  O237  1  0.49683327  0.74561177  0.12859251  1
  O  O238  1  0.48061294  0.74982735  0.62294584  1
  O  O239  1  1.01959723  0.22745148  0.13467151  1
  O  O240  1  0.99721650  0.23937908  0.62717116  1
  O  O241  1  1.00278575  0.74569530  0.13025888  1
  O  O242  1  0.98968164  0.76254052  0.63276594  1
  O  O243  1  0.01409383  0.24457707  0.37360066  1
  O  O244  1  0.00866974  0.21173429  0.86343421  1
  O  O245  1  0.01240408  0.75834469  0.37833562  1
  O  O246  1  -0.00104550  0.75829719  0.86720506  1
  O  O247  1  0.49944650  0.25363972  0.36263167  1
  O  O248  1  0.50665399  0.25574075  0.87155099  1
  O  O249  1  0.50736298  0.75405603  0.36894645  1
  O  O250  1  0.50680621  0.75308231  0.87515350  1
  O  O251  1  0.24540180  0.13298376  0.49524569  1
  O  O252  1  0.24683092  0.13253935  0.99409690  1
  O  O253  1  0.25901852  0.63954253  0.49223022  1
  O  O254  1  0.24684425  0.62684660  0.99140747  1
  O  O255  1  0.73212782  0.11473649  0.49545881  1
  O  O256  1  0.74602115  0.13790744  1.00437578  1
  O  O257  1  0.75635999  0.64229860  0.47887801  1
  O  O258  1  0.75906642  0.63649001  1.00164581  1
  O  O259  1  0.26210779  0.36969131  -0.00071219  1
  O  O260  1  0.25471368  0.36726074  0.50764739  1
  O  O261  1  0.24493632  0.87429034  0.01339817  1
  O  O262  1  0.25621224  0.86745525  0.50717806  1
  O  O263  1  0.75534673  0.36154777  0.01035639  1
  O  O264  1  0.77099132  0.37753745  0.49922101  1
  O  O265  1  0.75638616  0.86940983  0.00680620  1
  O  O266  1  0.75475406  0.87524069  0.50535240  1
  O  O267  1  0.13390341  0.50226508  0.23582230  1
  O  O268  1  0.13617070  0.50258661  0.75114192  1
  O  O269  1  0.13514662  0.98994834  0.24727535  1
  O  O270  1  0.11930197  0.99241919  0.73937806  1
  O  O271  1  0.61805065  0.48882776  0.23757201  1
  O  O272  1  0.62409940  0.48194865  0.74794195  1
  O  O273  1  0.62040114  0.98933147  0.24327017  1
  O  O274  1  0.62800266  0.98671333  0.74875237  1
  O  O275  1  0.36608755  -0.00472753  0.26223770  1
  O  O276  1  0.37831895  0.01275156  0.75204734  1
  O  O277  1  0.37146065  0.50525753  0.25398410  1
  O  O278  1  0.37036375  0.51030774  0.74861828  1
  O  O279  1  0.87876704  -0.01317428  0.26297264  1
  O  O280  1  0.86213864  0.00453339  0.75103485  1
  O  O281  1  0.87992250  0.51110445  0.26268294  1
  O  O282  1  0.87746101  0.52088009  0.74030276  1
  O  O283  1  0.12875858  0.36222883  0.38084616  1
  O  O284  1  0.13271265  0.37525917  0.87250327  1
  O  O285  1  0.12307252  0.86976402  0.36802898  1
  O  O286  1  0.11825896  0.87895067  0.86399404  1
  O  O287  1  0.62134139  0.37713585  0.36325314  1
  O  O288  1  0.61950347  0.36444343  0.86528670  1
  O  O289  1  0.62141968  0.87398445  0.36743281  1
  O  O290  1  0.61388203  0.86439066  0.86817032  1
  O  O291  1  0.38285485  0.13522275  0.12240868  1
  O  O292  1  0.36582317  0.13693754  0.63469637  1
  O  O293  1  0.38543898  0.63160016  0.12960209  1
  O  O294  1  0.37933756  0.63035127  0.62740114  1
  O  O295  1  0.85272787  0.09471699  0.14947932  1
  O  O296  1  0.87693815  0.13342619  0.63034045  1
  O  O297  1  0.88929499  0.62402309  0.13162928  1
  O  O298  1  0.87098234  0.64263036  0.63257162  1
  O  O299  1  0.26102325  0.25430015  0.11076955  1
  O  O300  1  0.25367334  0.25365660  0.61569074  1
  O  O301  1  0.26179276  0.75701660  0.12642720  1
  O  O302  1  0.25599442  0.75694032  0.61722568  1
  O  O303  1  0.74336208  0.25979590  0.11375171  1
  O  O304  1  0.75692680  0.25030270  0.62855374  1
  O  O305  1  0.74111795  0.76203418  0.11689526  1
  O  O306  1  0.75828098  0.76214963  0.61554386  1
  O  O307  1  0.25505993  0.24512449  0.38729906  1
  O  O308  1  0.25407140  0.24017595  0.88869047  1
  O  O309  1  0.24550499  0.74730705  0.38108077  1
  O  O310  1  0.25485028  0.73605491  0.87399000  1
  O  O311  1  0.74257942  0.24936864  0.37269896  1
  O  O312  1  0.74247460  0.25182336  0.88895205  1
  O  O313  1  0.74299649  0.75284203  0.37494248  1
  O  O314  1  0.73970808  0.75285424  0.88585150  1
  O  O315  1  0.00568403  0.11487092  0.00785930  1
  O  O316  1  0.00557239  0.12005143  0.50959934  1
  O  O317  1  0.01011453  0.63547817  0.01793512  1
  O  O318  1  0.01072883  0.63438279  0.50243848  1
  O  O319  1  0.50341002  0.11653802  0.01103295  1
  O  O320  1  0.51407025  0.12283113  0.49650171  1
  O  O321  1  0.49871449  0.61285728  0.00583811  1
  O  O322  1  0.50540351  0.61414383  0.50449179  1
  O  O323  1  0.49703326  0.38620470  0.50070326  1
  O  O324  1  0.49740012  0.37695051  0.98929637  1
  O  O325  1  0.49277657  0.86968941  0.48721489  1
  O  O326  1  0.50287399  0.88138680  0.99158635  1
  O  O327  1  0.97216998  0.36122929  0.49746122  1
  O  O328  1  0.98291751  0.36209139  1.00906495  1
  O  O329  1  0.99677039  0.88139545  0.49483147  1
  O  O330  1  0.99517034  0.87664440  0.99367030  1
  O  O331  1  0.49179427  0.50115332  0.38161715  1
  O  O332  1  0.50037081  0.49122077  0.88047524  1
  O  O333  1  0.49078355  0.99380130  0.37322273  1
  O  O334  1  0.49801135  0.98958468  0.88398767  1
  O  O335  1  0.99379255  0.50627550  0.37297463  1
  O  O336  1  0.97580145  0.53892447  0.88409645  1
  O  O337  1  0.99697341  0.99332832  0.38429924  1
  O  O338  1  0.99950690  0.99521908  0.88836611  1
  O  O339  1  0.00573740  -0.00205679  0.11428827  1
  O  O340  1  0.00661540  0.00467275  0.61976948  1
  O  O341  1  0.01071474  0.50568488  0.12666061  1
  O  O342  1  0.00630788  0.50531484  0.60787384  1
  O  O343  1  0.50157385  0.00282052  0.12071509  1
  O  O344  1  0.50085749  -0.01414502  0.61676173  1
  O  O345  1  0.51005238  0.50417185  0.11578074  1
  O  O346  1  0.50245553  0.50834600  0.61778308  1
  O  O347  1  0.24794132  0.38947672  0.24711586  1
  O  O348  1  0.25183440  0.38454056  0.74315952  1
  O  O349  1  0.24365802  0.88097201  0.24178822  1
  O  O350  1  0.24033708  0.87027082  0.74014544  1
  O  O351  1  0.73969865  0.37534264  0.23409827  1
  O  O352  1  0.73967960  0.37006655  0.75416342  1
  O  O353  1  0.74563165  0.88621989  0.24054508  1
  O  O354  1  0.74311881  0.87677904  0.74341518  1
  O  O355  1  0.24343381  0.11762189  0.26454055  1
  O  O356  1  0.25832764  0.13166877  0.76231233  1
  O  O357  1  0.25791237  0.61641722  0.25366604  1
  O  O358  1  0.25516424  0.61961772  0.75417539  1
  O  O359  1  0.73768492  0.10952048  0.25447361  1
  O  O360  1  0.75378140  0.11159543  0.74382221  1
  O  O361  1  0.76007773  0.63016569  0.25711592  1
  O  O362  1  0.76024258  0.63100655  0.74986908  1
  O  O363  1  0.36679580  0.11555819  0.38049097  1
  O  O364  1  0.36847382  0.12264127  0.86784860  1
  O  O365  1  0.37119854  0.61617693  0.36828486  1
  O  O366  1  0.37057617  0.62242175  0.86470286  1
  O  O367  1  0.87683062  0.11356526  0.38150388  1
  O  O368  1  0.87241121  0.12009682  0.86028831  1
  O  O369  1  0.87187578  0.61776243  0.36741590  1
  O  O370  1  0.86218422  0.64741510  0.85119726  1
  O  O371  1  0.12943627  0.39095080  0.12019431  1
  O  O372  1  0.13702793  0.36892050  0.62555941  1
  O  O373  1  0.13265571  0.87803364  0.13247958  1
  O  O374  1  0.13100392  0.88259548  0.63153005  1
  O  O375  1  0.63289094  0.38141058  0.12822519  1
  O  O376  1  0.62358545  0.37254482  0.64285318  1
  O  O377  1  0.62924414  0.88186794  0.13275361  1
  O  O378  1  0.63309286  0.86911587  0.63361011  1
  O  O379  1  0.14549274  0.25645879  0.27420512  1
  O  O380  1  0.11697347  0.25562892  0.75666928  1
  O  O381  1  0.13568171  0.76057790  0.25939494  1
  O  O382  1  0.11561234  0.76296573  0.74289923  1
  O  O383  1  0.60913327  0.26450586  0.24480601  1
  O  O384  1  0.61706901  0.25566895  0.75631382  1
  O  O385  1  0.62217378  0.76217364  0.25410586  1
  O  O386  1  0.62600316  0.75868831  0.75563808  1
  O  O387  1  0.38326946  0.25991320  0.23568070  1
  O  O388  1  0.38008438  0.24294192  0.74607130  1
  O  O389  1  0.38272341  0.74382283  0.24263319  1
  O  O390  1  0.37348881  0.73646806  0.73931793  1
  O  O391  1  0.86445267  0.25736859  0.24687675  1
  O  O392  1  0.87373915  0.24168635  0.73912346  1
  O  O393  1  0.87533345  0.73969888  0.25723862  1
  O  O394  1  0.88223369  0.75178118  0.73789923  1
  O  O395  1  0.38138212  0.50141464  0.49100056  1
  O  O396  1  0.38841582  0.49039616  0.99941998  1
  O  O397  1  0.37401166  0.99287643  0.48873554  1
  O  O398  1  0.38662382  1.00202083  1.00053102  1
  O  O399  1  0.87660755  0.50023573  0.49064466  1
  O  O400  1  0.87593813  0.47997965  1.00315319  1
  O  O401  1  0.88001930  0.99580280  0.49573062  1
  O  O402  1  0.88137914  0.98783115  0.99547898  1
  O  O403  1  0.11625460  0.00275382  0.00642070  1
  O  O404  1  0.12039531  0.00522022  0.50918578  1
  O  O405  1  0.13400355  0.51449639  0.01635641  1
  O  O406  1  0.13417238  0.51717426  0.49867319  1
  O  O407  1  0.61471902  -0.00234014  0.00766741  1
  O  O408  1  0.61933236  0.00768271  0.50222837  1
  O  O409  1  0.61532183  0.48987127  0.00561384  1
  O  O410  1  0.61579969  0.50000909  0.49777466  1
  O  O411  1  0.37802591  0.36865807  0.11205918  1
  O  O412  1  0.36570153  0.36131390  0.62625724  1
  O  O413  1  0.36767851  0.86458187  0.13184618  1
  O  O414  1  0.36399377  0.86755649  0.62340649  1
  O  O415  1  0.85953590  0.38044546  0.12068132  1
  O  O416  1  0.87222551  0.36693342  0.61665518  1
  O  O417  1  0.86389236  0.87743017  0.11602431  1
  O  O418  1  0.86822234  0.87144824  0.61935861  1
  O  O419  1  0.13523548  0.13379228  0.38578561  1
  O  O420  1  0.13643691  0.11953727  0.89287016  1
  O  O421  1  0.13424536  0.63767151  0.36414863  1
  O  O422  1  0.13327696  0.61962722  0.88674592  1
  O  O423  1  0.62689997  0.12822656  0.38674062  1
  O  O424  1  0.61866462  0.13611404  0.87401508  1
  O  O425  1  0.63523608  0.62846376  0.38037107  1
  O  O426  1  0.62680052  0.63637298  0.86630440  1
