# generated using pymatgen
data_V85Zn86O256
_symmetry_space_group_name_H-M   'P 1'
_cell_length_a   16.93608751
_cell_length_b   16.93421541
_cell_length_c   16.94113970
_cell_angle_alpha   89.98712815
_cell_angle_beta   89.95927956
_cell_angle_gamma   89.97688149
_symmetry_Int_Tables_number   1
_chemical_formula_structural   V85Zn86O256
_chemical_formula_sum   'V85 Zn86 O256'
_cell_volume   4858.70617955
_cell_formula_units_Z   1
loop_
 _symmetry_equiv_pos_site_id
 _symmetry_equiv_pos_as_xyz
  1  'x, y, z'
loop_
 _atom_site_type_symbol
 _atom_site_label
 _atom_site_symmetry_multiplicity
 _atom_site_fract_x
 _atom_site_fract_y
 _atom_site_fract_z
 _atom_site_occupancy
  V  V0  1  0.25210292  0.50115540  0.24958923  1
  V  V1  1  0.11529387  0.00624356  0.12939540  1
  V  V2  1  0.62002365  0.49993971  0.11687090  1
  V  V3  1  0.25155912  0.37587635  0.12373755  1
  V  V4  1  0.87126678  0.00581183  0.87629386  1
  V  V5  1  0.12641833  0.87168091  0.25023873  1
  V  V6  1  0.11726823  0.12741939  0.00290296  1
  V  V7  1  0.87387821  0.13063258  0.74250928  1
  V  V8  1  0.75114582  0.36923925  0.11398501  1
  V  V9  1  0.00398655  0.50497696  0.49890220  1
  V  V10  1  0.87384274  0.62573984  0.25134094  1
  V  V11  1  0.62386899  0.87549133  0.25165194  1
  V  V12  1  0.75118844  0.62179905  0.87371079  1
  V  V13  1  0.49344440  0.00040801  -0.00364951  1
  V  V14  1  0.61765269  0.61951321  -0.00499576  1
  V  V15  1  0.00745725  0.87971317  0.86942445  1
  V  V16  1  0.25426556  0.37299256  0.62773458  1
  V  V17  1  0.12513574  0.37582473  0.24989299  1
  V  V18  1  0.62094951  0.00715106  0.62963146  1
  V  V19  1  0.74558062  0.37817155  0.62440954  1
  V  V20  1  0.49422724  0.74843780  0.24024115  1
  V  V21  1  0.38358780  0.37594241  0.50272702  1
  V  V22  1  0.25680018  0.50857025  0.75010757  1
  V  V23  1  0.62437160  0.00241132  0.12320697  1
  V  V24  1  0.87831558  0.37266221  0.50869604  1
  V  V25  1  0.12014751  0.25238143  0.87434164  1
  V  V26  1  0.49665585  0.00376972  0.50637351  1
  V  V27  1  0.87485897  0.62319133  0.74660309  1
  V  V28  1  0.00015612  0.62803399  0.62245082  1
  V  V29  1  0.62092354  0.61167268  0.50793844  1
  V  V30  1  0.49012416  0.61310043  0.62456911  1
  V  V31  1  0.24239307  0.62389467  0.37582166  1
  V  V32  1  0.25140734  0.12582805  0.37654856  1
  V  V33  1  0.87537483  0.87662670  -0.00114213  1
  V  V34  1  0.37543657  0.86715585  0.00875798  1
  V  V35  1  0.00197868  0.62235337  0.11499531  1
  V  V36  1  0.50474850  0.36328394  0.87431053  1
  V  V37  1  0.75510620  0.00148320  0.25002298  1
  V  V38  1  0.12685196  0.25193631  0.37721919  1
  V  V39  1  0.38102642  0.38278454  -0.00216188  1
  V  V40  1  0.62404478  0.37414654  0.24858290  1
  V  V41  1  0.24975818  -0.00054704  0.24815117  1
  V  V42  1  0.24627248  0.73937242  0.50606947  1
  V  V43  1  0.88377377  0.37570564  -0.00924619  1
  V  V44  1  0.74924379  0.12552507  0.37447798  1
  V  V45  1  0.37316430  0.86571420  0.51087969  1
  V  V46  1  0.24623430  0.74359607  0.00565872  1
  V  V47  1  0.25072532  0.25124331  -0.00152581  1
  V  V48  1  0.75050438  0.87410687  0.12684488  1
  V  V49  1  0.62786322  0.13745648  -0.00925912  1
  V  V50  1  0.23804990  0.87098093  0.63039915  1
  V  V51  1  0.75071029  0.49935549  0.24640212  1
  V  V52  1  0.00044840  0.74745206  0.25058099  1
  V  V53  1  0.24823865  0.63140203  0.87334724  1
  V  V54  1  0.62575291  0.25131964  0.37650981  1
  V  V55  1  0.49611043  0.87023317  0.37664882  1
  V  V56  1  0.37599821  0.25235923  0.12607169  1
  V  V57  1  0.50094410  0.12632306  0.12613255  1
  V  V58  1  0.49819034  0.87747308  0.87183863  1
  V  V59  1  0.74131207  0.49923070  0.74621568  1
  V  V60  1  0.88006082  0.24494993  0.12093716  1
  V  V61  1  0.48736286  0.74760024  0.74012136  1
  V  V62  1  0.25426599  0.24913451  0.50633618  1
  V  V63  1  0.87421356  0.74813865  0.12496668  1
  V  V64  1  0.62814372  0.87164860  0.74040833  1
  V  V65  1  0.86649009  0.76381966  0.62409039  1
  V  V66  1  0.12662250  0.50643120  0.62282792  1
  V  V67  1  0.74895305  0.74972426  -0.00140339  1
  V  V68  1  0.75539676  0.24884736  0.50529982  1
  V  V69  1  0.12120883  0.11443208  0.50522464  1
  V  V70  1  0.38200886  0.50103403  0.37790227  1
  V  V71  1  0.38574043  0.50714200  0.87156730  1
  V  V72  1  0.74610270  0.62753072  0.37715972  1
  V  V73  1  0.37586301  0.12634693  0.25022846  1
  V  V74  1  0.12611487  0.50233610  0.11430918  1
  V  V75  1  -0.00188578  0.25132236  0.74196441  1
  V  V76  1  -0.00198728  0.37508374  0.37396000  1
  V  V77  1  0.74814931  -0.00088881  0.75038658  1
  V  V78  1  0.43128666  0.18541189  0.68454405  1
  V  V79  1  0.62193805  0.35869647  0.74944139  1
  V  V80  1  0.88184065  0.00217094  0.39479870  1
  V  V81  1  0.12108967  0.37890937  0.75464119  1
  V  V82  1  0.62519351  0.74961747  0.87158512  1
  V  V83  1  0.26090171  0.12031589  0.87363011  1
  V  V84  1  0.37487632  -0.00050542  0.37685610  1
  Zn  Zn85  1  0.37231194  0.63180853  0.24554431  1
  Zn  Zn86  1  0.62182133  0.74821899  0.38069086  1
  Zn  Zn87  1  0.25368104  0.87132985  0.12695842  1
  Zn  Zn88  1  0.74070776  0.76423000  0.51652281  1
  Zn  Zn89  1  0.12123022  0.74878780  0.37980592  1
  Zn  Zn90  1  0.13145276  0.75620169  0.87086546  1
  Zn  Zn91  1  0.74420073  0.14840784  0.87482128  1
  Zn  Zn92  1  0.49947829  0.25132036  0.25404616  1
  Zn  Zn93  1  0.00324147  0.75788876  0.74733882  1
  Zn  Zn94  1  0.49326186  0.62524800  0.11418505  1
  Zn  Zn95  1  0.00336910  0.24595664  0.24450045  1
  Zn  Zn96  1  0.00827800  0.50182106  -0.01575771  1
  Zn  Zn97  1  0.11172284  -0.00937234  0.63955027  1
  Zn  Zn98  1  -0.00408532  0.00569452  0.00520242  1
  Zn  Zn99  1  0.50628420  0.38100402  0.38344916  1
  Zn  Zn100  1  -0.00696499  0.12184227  0.61870741  1
  Zn  Zn101  1  0.61906463  0.13004188  0.50709702  1
  Zn  Zn102  1  0.88519516  0.12449305  0.24516051  1
  Zn  Zn103  1  0.00383796  0.88981292  0.38479212  1
  Zn  Zn104  1  0.88364057  0.49554105  0.86812179  1
  Zn  Zn105  1  0.25261918  0.00505071  0.75269622  1
  Zn  Zn106  1  0.87417156  0.49969485  0.37559385  1
  Zn  Zn107  1  0.18655015  0.18804687  0.18787524  1
  Zn  Zn108  1  0.19233295  0.18482606  0.69033840  1
  Zn  Zn109  1  0.18739377  0.68491923  0.18449559  1
  Zn  Zn110  1  0.18678098  0.69132268  0.69156234  1
  Zn  Zn111  1  0.69047070  0.18884322  0.18463426  1
  Zn  Zn112  1  0.69153623  0.18722689  0.68755328  1
  Zn  Zn113  1  0.68170770  0.68811647  0.18759913  1
  Zn  Zn114  1  0.68418190  0.68497428  0.68507686  1
  Zn  Zn115  1  0.31429801  0.31476850  0.31581989  1
  Zn  Zn116  1  0.31386433  0.31030360  0.81091351  1
  Zn  Zn117  1  0.31197282  0.81050363  0.31665505  1
  Zn  Zn118  1  0.32504671  0.84350066  0.80313328  1
  Zn  Zn119  1  0.81426937  0.31248574  0.30932252  1
  Zn  Zn120  1  0.80921564  0.30715277  0.81468412  1
  Zn  Zn121  1  0.79393004  0.83392599  0.35137886  1
  Zn  Zn122  1  0.81487885  0.81330836  0.80968814  1
  Zn  Zn123  1  0.18957391  0.43791086  0.43932474  1
  Zn  Zn124  1  0.19332898  0.43898498  0.93258147  1
  Zn  Zn125  1  0.18994759  0.93296612  0.43730389  1
  Zn  Zn126  1  0.18879774  0.94071288  0.94375267  1
  Zn  Zn127  1  0.68983796  0.43960332  0.43685364  1
  Zn  Zn128  1  0.69272280  0.42873035  0.93040655  1
  Zn  Zn129  1  0.68277729  0.93966783  0.44281727  1
  Zn  Zn130  1  0.68424921  0.94162960  0.93501333  1
  Zn  Zn131  1  0.30941825  0.06185959  0.06107329  1
  Zn  Zn132  1  0.30891002  0.05703714  0.56586160  1
  Zn  Zn133  1  0.31667192  0.56619118  0.06049949  1
  Zn  Zn134  1  0.31713662  0.56088660  0.56290840  1
  Zn  Zn135  1  0.80791509  0.06453935  0.05998600  1
  Zn  Zn136  1  0.80578105  0.06064439  0.56773078  1
  Zn  Zn137  1  0.81097717  0.55893909  0.05927960  1
  Zn  Zn138  1  0.81339329  0.56296802  0.56035942  1
  Zn  Zn139  1  0.43874661  0.44196653  0.18869882  1
  Zn  Zn140  1  0.43817683  0.43076695  0.69046923  1
  Zn  Zn141  1  0.43738280  0.93842134  0.18741920  1
  Zn  Zn142  1  0.43163443  0.94604177  0.69090984  1
  Zn  Zn143  1  0.93799660  0.43606091  0.18218806  1
  Zn  Zn144  1  0.93748705  0.43902401  0.68851426  1
  Zn  Zn145  1  0.93769599  0.93327318  0.19268858  1
  Zn  Zn146  1  0.93767025  0.94454786  0.68538455  1
  Zn  Zn147  1  0.06213579  0.06691486  0.31522567  1
  Zn  Zn148  1  0.06549571  0.06328888  0.81141065  1
  Zn  Zn149  1  0.06137664  0.56230039  0.30781373  1
  Zn  Zn150  1  0.06562903  0.57008658  0.81057431  1
  Zn  Zn151  1  0.56291045  0.06154300  0.31489741  1
  Zn  Zn152  1  0.55386637  0.06636674  0.81112648  1
  Zn  Zn153  1  0.56472466  0.56388930  0.31197352  1
  Zn  Zn154  1  0.56106516  0.56218552  0.80549599  1
  Zn  Zn155  1  0.43803464  0.18993428  0.44275123  1
  Zn  Zn156  1  0.44024125  0.19062605  0.94046966  1
  Zn  Zn157  1  0.43590799  0.68348140  0.43913228  1
  Zn  Zn158  1  0.43287524  0.69339323  0.93190671  1
  Zn  Zn159  1  0.93854447  0.18770305  0.43333409  1
  Zn  Zn160  1  0.93670923  0.19256532  0.93363457  1
  Zn  Zn161  1  0.94897173  0.71531975  0.45228843  1
  Zn  Zn162  1  0.93785078  0.68975768  0.93303483  1
  Zn  Zn163  1  0.06106922  0.31483652  0.06118553  1
  Zn  Zn164  1  0.06757055  0.31293215  0.56503210  1
  Zn  Zn165  1  0.06460609  0.81521717  0.06088489  1
  Zn  Zn166  1  0.05960853  0.80967093  0.55886383  1
  Zn  Zn167  1  0.55839679  0.31551402  0.06208044  1
  Zn  Zn168  1  0.56254257  0.30772608  0.57039644  1
  Zn  Zn169  1  0.56544726  0.81303493  0.06097569  1
  Zn  Zn170  1  0.56352875  0.80966692  0.56208870  1
  O  O171  1  0.12948936  0.11834779  0.11733478  1
  O  O172  1  0.13176828  0.12498882  0.60997183  1
  O  O173  1  0.11516094  0.61375031  0.12864246  1
  O  O174  1  0.11673750  0.61310761  0.62775093  1
  O  O175  1  0.61972347  0.12068723  0.11903103  1
  O  O176  1  0.62888120  0.11154829  0.62519388  1
  O  O177  1  0.62330089  0.61683433  0.11375611  1
  O  O178  1  0.61793192  0.62406240  0.61333615  1
  O  O179  1  0.37888277  0.38190879  0.38421090  1
  O  O180  1  0.38602760  0.37975406  0.87955827  1
  O  O181  1  0.37992802  0.88100478  0.38243494  1
  O  O182  1  0.39424792  0.86437523  0.89306821  1
  O  O183  1  0.88243493  0.37762517  0.38243156  1
  O  O184  1  0.87384623  0.37444517  0.88839234  1
  O  O185  1  0.88392663  0.90306803  0.35913539  1
  O  O186  1  0.87757652  0.88765280  0.88079290  1
  O  O187  1  0.25632529  0.00462872  0.36906898  1
  O  O188  1  0.24858442  0.01850369  0.88494214  1
  O  O189  1  0.25594327  0.50352337  0.36765852  1
  O  O190  1  0.26053314  0.50611368  0.86648502  1
  O  O191  1  0.75642080  0.01009892  0.36837645  1
  O  O192  1  0.75501420  0.00490420  0.86671603  1
  O  O193  1  0.75103219  0.50852357  0.36413814  1
  O  O194  1  0.75685816  0.50557178  0.86517614  1
  O  O195  1  0.24451077  0.49564766  0.13116680  1
  O  O196  1  0.24405860  0.49746320  0.63039958  1
  O  O197  1  0.24086773  0.99845963  0.13412361  1
  O  O198  1  0.24711737  0.97853959  0.62488741  1
  O  O199  1  0.74191402  0.49236607  0.13091255  1
  O  O200  1  0.75403839  0.48632608  0.62875794  1
  O  O201  1  0.74382760  0.99481389  0.13126117  1
  O  O202  1  0.74008870  1.00012750  0.64128628  1
  O  O203  1  0.00597365  0.37581847  0.25832947  1
  O  O204  1  0.01363231  0.36988072  0.74218087  1
  O  O205  1  0.00750801  0.86238712  0.25410490  1
  O  O206  1  -0.00787333  0.87827815  0.76667238  1
  O  O207  1  0.51498181  0.37426914  0.25051370  1
  O  O208  1  0.51392986  0.37612475  0.75773770  1
  O  O209  1  0.50214045  0.86769007  0.25596463  1
  O  O210  1  0.50801369  0.86596286  0.75561924  1
  O  O211  1  0.49428988  0.12597967  0.24522693  1
  O  O212  1  0.48270016  0.12156099  0.74667557  1
  O  O213  1  0.50301764  0.64240435  0.25196348  1
  O  O214  1  0.50651782  0.63795143  0.73692130  1
  O  O215  1  0.99800862  0.13307164  0.25460674  1
  O  O216  1  0.99009560  0.13420381  0.75175748  1
  O  O217  1  0.98987541  0.62203919  0.23529899  1
  O  O218  1  0.98953617  0.62108943  0.73577748  1
  O  O219  1  0.37210531  0.26266977  0.00670972  1
  O  O220  1  0.36133213  0.25869262  0.49398483  1
  O  O221  1  0.36404995  0.75605040  0.00181648  1
  O  O222  1  0.36251458  0.75676561  0.49085431  1
  O  O223  1  0.88012888  0.26271590  0.00869002  1
  O  O224  1  0.86352633  0.25740225  0.49230734  1
  O  O225  1  0.86787231  0.75586335  0.00499797  1
  O  O226  1  0.85995867  0.73585269  0.52245922  1
  O  O227  1  0.13748581  0.24837375  0.49461263  1
  O  O228  1  0.12917135  0.24812790  0.99434753  1
  O  O229  1  0.14305569  0.74529559  0.49624793  1
  O  O230  1  0.14195347  0.75870178  0.99324485  1
  O  O231  1  0.63618858  0.25123675  0.49303121  1
  O  O232  1  0.61718952  0.23515092  1.00504620  1
  O  O233  1  0.62754226  0.73837834  0.49865973  1
  O  O234  1  0.63149658  0.74373516  0.99242122  1
  O  O235  1  0.49306625  0.24467306  0.12876350  1
  O  O236  1  0.49593197  0.23162696  0.61899824  1
  O  O237  1  0.50543946  0.74954426  0.13749587  1
  O  O238  1  0.50172899  0.74652139  0.63685557  1
  O  O239  1  0.98456342  0.25797218  0.12621681  1
  O  O240  1  1.00812193  0.24465056  0.63793784  1
  O  O241  1  0.99769756  0.74237045  0.13108309  1
  O  O242  1  0.98922357  0.74143694  0.62700370  1
  O  O243  1  0.00652354  0.26426743  0.37618155  1
  O  O244  1  0.01435939  0.24868033  0.86488348  1
  O  O245  1  0.00713817  0.72011717  0.35134062  1
  O  O246  1  -0.00246917  0.76966723  0.87696605  1
  O  O247  1  0.51516497  0.25122287  0.37638925  1
  O  O248  1  0.49907104  0.26440973  0.87564653  1
  O  O249  1  0.49862710  0.75978780  0.36959557  1
  O  O250  1  0.50842180  0.75323965  0.86328848  1
  O  O251  1  0.24477882  0.13175546  0.49591351  1
  O  O252  1  0.24091830  0.13472927  0.99718409  1
  O  O253  1  0.25714966  0.63316896  0.49302236  1
  O  O254  1  0.25418867  0.63788012  0.99391681  1
  O  O255  1  0.74759105  0.13341061  0.49391771  1
  O  O256  1  0.73088023  0.12021801  0.99646448  1
  O  O257  1  0.73873324  0.62129372  0.49198891  1
  O  O258  1  0.74318990  0.63034804  0.99338930  1
  O  O259  1  0.25877028  0.36999826  0.00407587  1
  O  O260  1  0.25587628  0.36829412  0.50797813  1
  O  O261  1  0.26037082  0.86757709  0.00092749  1
  O  O262  1  0.25535762  0.86155645  0.50368906  1
  O  O263  1  0.76023069  0.38049351  0.01013911  1
  O  O264  1  0.75665640  0.37122093  0.50514462  1
  O  O265  1  0.75507411  0.87124539  0.00471722  1
  O  O266  1  0.75502994  0.85916502  0.45793143  1
  O  O267  1  0.13570893  0.49399755  0.24303403  1
  O  O268  1  0.13349658  0.49470644  0.74262661  1
  O  O269  1  0.13003506  0.99465303  0.24763908  1
  O  O270  1  0.13844220  1.00835663  0.74880851  1
  O  O271  1  0.63368438  0.49477457  0.24294424  1
  O  O272  1  0.63824897  0.49354057  0.75217228  1
  O  O273  1  0.63354748  0.99674132  0.24444803  1
  O  O274  1  0.62715848  0.99443179  0.74689963  1
  O  O275  1  0.36958230  0.00570865  0.25549615  1
  O  O276  1  0.35270432  -0.04667908  0.76600815  1
  O  O277  1  0.36190349  0.49356158  0.25876150  1
  O  O278  1  0.36589740  0.49181104  0.75895970  1
  O  O279  1  0.86160335  0.00577926  0.24232367  1
  O  O280  1  0.86535943  0.00781089  0.75759628  1
  O  O281  1  0.86422132  0.50378860  0.24640037  1
  O  O282  1  0.86368768  0.50574030  0.74767731  1
  O  O283  1  0.11906695  0.37256459  0.37053227  1
  O  O284  1  0.13279104  0.36797671  0.86399461  1
  O  O285  1  0.12321873  0.87347949  0.36267379  1
  O  O286  1  0.10964390  0.88171997  0.88216981  1
  O  O287  1  0.62670347  0.36927123  0.36748722  1
  O  O288  1  0.61201068  0.38166178  0.86460503  1
  O  O289  1  0.61036386  0.87715106  0.36723119  1
  O  O290  1  0.61554095  0.86912322  0.86971311  1
  O  O291  1  0.38005710  0.13078842  0.12971522  1
  O  O292  1  0.36463377  0.12929996  0.62998918  1
  O  O293  1  0.38433378  0.60946296  0.13511070  1
  O  O294  1  0.39080946  0.62685879  0.61922925  1
  O  O295  1  0.86775176  0.14203183  0.12039996  1
  O  O296  1  0.87075912  0.12553656  0.63879485  1
  O  O297  1  0.87708213  0.62801720  0.13170723  1
  O  O298  1  0.87943369  0.62521469  0.63468796  1
  O  O299  1  0.25599424  0.25741919  0.11960675  1
  O  O300  1  0.24257872  0.26218684  0.61802519  1
  O  O301  1  0.24667381  0.75116042  0.11126816  1
  O  O302  1  0.24891394  0.75110461  0.61087920  1
  O  O303  1  0.76027925  0.26119629  0.12716393  1
  O  O304  1  0.74728760  0.26186987  0.61561076  1
  O  O305  1  0.75248254  0.75594959  0.12075047  1
  O  O306  1  0.76034827  0.75288029  0.63299246  1
  O  O307  1  0.24532478  0.24592282  0.38231597  1
  O  O308  1  0.24209734  0.24670902  0.88122455  1
  O  O309  1  0.24703981  0.73942057  0.38119415  1
  O  O310  1  0.25440630  0.74469183  0.88367517  1
  O  O311  1  0.74317474  0.24523832  0.37910105  1
  O  O312  1  0.73637086  0.25941433  0.87940164  1
  O  O313  1  0.74470134  0.72992666  0.35896228  1
  O  O314  1  0.74471995  0.74345216  0.87782210  1
  O  O315  1  0.01302223  0.12695932  -0.00466316  1
  O  O316  1  0.01840081  0.13655584  0.49978095  1
  O  O317  1  -0.00802594  0.62454617  0.01144380  1
  O  O318  1  -0.00618526  0.61769367  0.51148043  1
  O  O319  1  0.50538199  0.11797824  0.00580213  1
  O  O320  1  0.50123929  0.10736921  0.49154248  1
  O  O321  1  0.51430645  0.63291493  -0.00477611  1
  O  O322  1  0.50957208  0.62813289  0.51185507  1
  O  O323  1  0.48748251  0.36903013  0.50368682  1
  O  O324  1  0.49506391  0.37652077  0.98663130  1
  O  O325  1  0.49202506  0.87805927  0.49397364  1
  O  O326  1  0.49783638  0.88062117  0.99575586  1
  O  O327  1  0.99480077  0.37934139  0.49568522  1
  O  O328  1  0.98733215  0.38100277  1.00252449  1
  O  O329  1  0.99387694  0.82111058  0.47140314  1
  O  O330  1  0.98959886  0.87948166  0.99432292  1
  O  O331  1  0.48656775  0.49923790  0.36705403  1
  O  O332  1  0.48932186  0.49423281  0.86717820  1
  O  O333  1  0.49461949  0.98897936  0.38073673  1
  O  O334  1  0.50491349  0.98935868  0.88472624  1
  O  O335  1  1.00084514  0.49175145  0.38105585  1
  O  O336  1  0.99656293  0.50809172  0.87254879  1
  O  O337  1  0.98698057  1.00754095  0.38266949  1
  O  O338  1  0.99027718  0.99416903  0.87887576  1
  O  O339  1  0.01141562  -0.00376513  0.12696527  1
  O  O340  1  0.00138133  0.00834387  0.62268957  1
  O  O341  1  0.01011237  0.50562892  0.12184641  1
  O  O342  1  0.00704917  0.50456244  0.61764414  1
  O  O343  1  0.50594591  0.00723690  0.12084805  1
  O  O344  1  0.50534068  -0.00855646  0.61724840  1
  O  O345  1  0.51711608  0.49888238  0.12723153  1
  O  O346  1  0.49685280  0.51407438  0.63439937  1
  O  O347  1  0.24560453  0.38148289  0.24476684  1
  O  O348  1  0.24244724  0.38269007  0.74343498  1
  O  O349  1  0.24403887  0.87945601  0.24930417  1
  O  O350  1  0.23745773  0.84864856  0.72798399  1
  O  O351  1  0.74206100  0.38188320  0.24286261  1
  O  O352  1  0.74206544  0.37900006  0.74199429  1
  O  O353  1  0.74329583  0.88381804  0.25062050  1
  O  O354  1  0.73796990  0.88515254  0.76034442  1
  O  O355  1  0.25554094  0.12015228  0.25669614  1
  O  O356  1  0.25393252  0.12889639  0.76887846  1
  O  O357  1  0.25148251  0.61683230  0.25588211  1
  O  O358  1  0.25244490  0.61509841  0.75396432  1
  O  O359  1  0.75109275  0.11894048  0.25831884  1
  O  O360  1  0.75594565  0.12000358  0.75616425  1
  O  O361  1  0.75323043  0.61536313  0.24932032  1
  O  O362  1  0.75437423  0.61688683  0.75126824  1
  O  O363  1  0.37070347  0.12059160  0.37107968  1
  O  O364  1  0.35891232  0.13114572  0.88893234  1
  O  O365  1  0.36617674  0.61591129  0.37018436  1
  O  O366  1  0.36710881  0.61482594  0.87911081  1
  O  O367  1  0.86534462  0.11718504  0.37393817  1
  O  O368  1  0.87256273  0.11654615  0.87139763  1
  O  O369  1  0.86735795  0.62065659  0.35966713  1
  O  O370  1  0.86849105  0.62884236  0.86052403  1
  O  O371  1  0.13075356  0.38082345  0.13092764  1
  O  O372  1  0.13478862  0.38669591  0.63057920  1
  O  O373  1  0.12666045  0.88343476  0.13656284  1
  O  O374  1  0.13396889  0.87458743  0.61354734  1
  O  O375  1  0.63288864  0.37863707  0.12827357  1
  O  O376  1  0.63051800  0.37333474  0.63811780  1
  O  O377  1  0.63085084  0.88158548  0.13163623  1
  O  O378  1  0.62229488  0.88257471  0.63592651  1
  O  O379  1  0.12720514  0.25955022  0.25802980  1
  O  O380  1  0.12219150  0.25801356  0.75626251  1
  O  O381  1  0.12004800  0.75734782  0.24774014  1
  O  O382  1  0.11284636  0.73566623  0.76070350  1
  O  O383  1  0.62735510  0.25819484  0.25746487  1
  O  O384  1  0.62573227  0.26005578  0.74838165  1
  O  O385  1  0.61393414  0.75876319  0.25367769  1
  O  O386  1  0.62195542  0.75738113  0.75368235  1
  O  O387  1  0.37628342  0.24550879  0.24514175  1
  O  O388  1  0.38077476  0.25708932  0.73857789  1
  O  O389  1  0.38992146  0.75251507  0.25265508  1
  O  O390  1  0.39016306  0.75486598  0.75389094  1
  O  O391  1  0.87583113  0.25104386  0.23474659  1
  O  O392  1  0.88606653  0.24446793  0.75586997  1
  O  O393  1  0.88280577  0.74028680  0.24141181  1
  O  O394  1  0.87811368  0.74165842  0.74090827  1
  O  O395  1  0.36774718  0.48888681  0.48858865  1
  O  O396  1  0.36887470  0.48807521  0.98859584  1
  O  O397  1  0.37947668  0.99043733  0.49647749  1
  O  O398  1  0.38821727  0.99387738  1.00626244  1
  O  O399  1  0.88732561  0.49238269  0.49785077  1
  O  O400  1  0.87689822  0.48615584  0.99954153  1
  O  O401  1  0.86816108  0.99974021  0.49256870  1
  O  O402  1  0.87394493  0.99669331  0.99378644  1
  O  O403  1  0.12331045  0.01018817  0.01210023  1
  O  O404  1  0.13067430  0.01367096  0.49732478  1
  O  O405  1  0.12766434  0.49322286  0.01094224  1
  O  O406  1  0.11298612  0.49404324  0.50757891  1
  O  O407  1  0.61358709  0.00383990  0.00774625  1
  O  O408  1  0.61561902  -0.00002253  0.51118538  1
  O  O409  1  0.63454499  0.50788673  0.00466053  1
  O  O410  1  0.62288323  0.51214256  0.49647347  1
  O  O411  1  0.37325555  0.37476163  0.11712643  1
  O  O412  1  0.36197575  0.38393314  0.61731186  1
  O  O413  1  0.37555743  0.87720725  0.11373000  1
  O  O414  1  0.36471102  0.87265188  0.61275204  1
  O  O415  1  0.86768671  0.36896315  0.11691862  1
  O  O416  1  0.87017557  0.37598097  0.61320850  1
  O  O417  1  0.86952473  0.86877064  0.12003702  1
  O  O418  1  0.87703657  0.86212927  0.62927973  1
  O  O419  1  0.13343416  0.13154516  0.38590343  1
  O  O420  1  0.13335714  0.13578646  0.88502823  1
  O  O421  1  0.13928318  0.61919555  0.37073356  1
  O  O422  1  0.14544113  0.62171326  0.87659939  1
  O  O423  1  0.63529591  0.13132972  0.37749374  1
  O  O424  1  0.61997942  0.12131766  0.88834104  1
  O  O425  1  0.62884370  0.62447005  0.38579729  1
  O  O426  1  0.63130213  0.62780437  0.87748340  1
