# generated using pymatgen
data_V85Zn86O256
_symmetry_space_group_name_H-M   'P 1'
_cell_length_a   16.97629401
_cell_length_b   16.97972350
_cell_length_c   16.97160134
_cell_angle_alpha   90.04038475
_cell_angle_beta   90.11629013
_cell_angle_gamma   89.98001480
_symmetry_Int_Tables_number   1
_chemical_formula_structural   V85Zn86O256
_chemical_formula_sum   'V85 Zn86 O256'
_cell_volume   4892.09965484
_cell_formula_units_Z   1
loop_
 _symmetry_equiv_pos_site_id
 _symmetry_equiv_pos_as_xyz
  1  'x, y, z'
loop_
 _atom_site_type_symbol
 _atom_site_label
 _atom_site_symmetry_multiplicity
 _atom_site_fract_x
 _atom_site_fract_y
 _atom_site_fract_z
 _atom_site_occupancy
  V  V0  1  0.63189010  0.86170004  0.75478174  1
  V  V1  1  0.37601564  0.62161352  0.25571978  1
  V  V2  1  0.37103661  0.49998295  0.37739420  1
  V  V3  1  0.25001818  0.24438427  0.49740864  1
  V  V4  1  -0.00444776  -0.01082015  0.50005535  1
  V  V5  1  0.49874656  0.36343017  0.37717347  1
  V  V6  1  0.87364664  -0.00835778  0.37617092  1
  V  V7  1  0.00151600  0.87469448  0.87592420  1
  V  V8  1  0.13327586  0.87768998  0.75201545  1
  V  V9  1  0.43680778  0.29397377  0.19089896  1
  V  V10  1  0.80181004  0.54805101  0.19475748  1
  V  V11  1  -0.00029439  0.50040200  0.49806456  1
  V  V12  1  0.12801784  0.00029843  0.13320131  1
  V  V13  1  0.49822577  0.25017382  0.75650594  1
  V  V14  1  0.62074092  0.37631667  0.76010585  1
  V  V15  1  -0.00691705  0.13012007  0.62629294  1
  V  V16  1  0.12753697  0.12637526  0.00192203  1
  V  V17  1  0.88162472  0.13045797  0.25307601  1
  V  V18  1  0.12384225  0.12166246  0.49693669  1
  V  V19  1  0.62967069  0.37510517  0.24712353  1
  V  V20  1  0.87622195  0.36811992  0.50399368  1
  V  V21  1  0.24838872  0.50281056  0.25309321  1
  V  V22  1  0.87759006  0.75206952  0.62160865  1
  V  V23  1  0.12462432  0.36989752  0.24627556  1
  V  V24  1  0.25376709  0.87903332  0.13046119  1
  V  V25  1  0.12824671  -0.00146774  0.62836431  1
  V  V26  1  0.47635213  0.78551810  0.27335849  1
  V  V27  1  0.50730448  0.86823917  0.87699632  1
  V  V28  1  0.36627005  0.11585720  0.75228507  1
  V  V29  1  0.00112583  0.49942627  0.00024310  1
  V  V30  1  0.25576665  0.62593467  0.87339924  1
  V  V31  1  0.74999456  0.61967565  0.37204296  1
  V  V32  1  0.50772518  0.49040453  -0.00369003  1
  V  V33  1  0.74389816  0.12698510  0.87103437  1
  V  V34  1  0.48971144  0.12313073  0.13607721  1
  V  V35  1  0.12203466  0.24928436  0.87540990  1
  V  V36  1  0.49323656  0.75257513  0.74987790  1
  V  V37  1  0.74842525  0.25105838  0.50235411  1
  V  V38  1  0.29717588  0.06562096  0.32003775  1
  V  V39  1  -0.00057107  0.12825193  0.12856535  1
  V  V40  1  0.12408475  0.50185562  0.12546753  1
  V  V41  1  0.37745425  0.25379655  0.62900761  1
  V  V42  1  0.00043562  0.62386447  0.62278302  1
  V  V43  1  0.87420892  0.50220566  0.88066503  1
  V  V44  1  0.12079574  0.87218004  0.25336874  1
  V  V45  1  0.74992910  -0.00220861  0.74870297  1
  V  V46  1  0.75611602  0.87412719  0.61552129  1
  V  V47  1  0.50088174  0.62471841  0.12374625  1
  V  V48  1  0.87600427  0.00288111  0.87362311  1
  V  V49  1  0.26217226  0.74683273  0.49793193  1
  V  V50  1  0.75747285  0.74862698  0.49572591  1
  V  V51  1  0.74743885  0.37470124  0.12612153  1
  V  V52  1  0.37586247  0.87541352  0.00179762  1
  V  V53  1  0.88086353  0.24971495  0.12760232  1
  V  V54  1  0.12377945  0.73890649  0.37667494  1
  V  V55  1  -0.01030479  0.73537719  0.23871394  1
  V  V56  1  0.62554593  0.87963411  0.25147097  1
  V  V57  1  0.37278262  0.74918005  0.12608289  1
  V  V58  1  0.87424944  0.62299728  0.74992487  1
  V  V59  1  0.24834679  0.37624506  0.62449711  1
  V  V60  1  0.00319979  0.00015013  -0.00009492  1
  V  V61  1  0.74695187  0.64050926  0.88096309  1
  V  V62  1  0.62576200  0.00572774  0.12442544  1
  V  V63  1  0.25849071  0.87071815  0.62080310  1
  V  V64  1  0.62229494  0.11949323  0.50160650  1
  V  V65  1  0.12855622  0.74965200  0.87415164  1
  V  V66  1  0.12381085  0.37615737  0.75117274  1
  V  V67  1  0.37405928  0.37370633  0.50069725  1
  V  V68  1  0.12131556  0.24679767  0.37194412  1
  V  V69  1  0.12760270  0.62490471  0.00386153  1
  V  V70  1  0.62383990  0.49887355  0.62743019  1
  V  V71  1  0.26016137  0.25484644  0.00529608  1
  V  V72  1  0.75280515  0.24527736  -0.00263640  1
  V  V73  1  0.49514737  0.62745090  0.62801276  1
  V  V74  1  0.48291790  0.10208607  0.61237290  1
  V  V75  1  0.62276868  0.75626833  0.37520578  1
  V  V76  1  0.75304476  0.37352838  0.62936285  1
  V  V77  1  0.37664328  0.48331659  0.88105914  1
  V  V78  1  -0.00239946  0.37186188  0.36800843  1
  V  V79  1  0.86720229  0.49838680  0.37257742  1
  V  V80  1  0.49948540  0.49845738  0.50097457  1
  V  V81  1  0.75319254  0.00478807  0.25247482  1
  V  V82  1  0.62367207  0.64438707  -0.00234977  1
  V  V83  1  0.49940158  0.00446585  -0.00343558  1
  V  V84  1  0.12548932  0.50129190  0.62467542  1
  Zn  Zn85  1  0.26566500  0.37242178  0.12503834  1
  Zn  Zn86  1  0.37572607  0.62545491  0.75134653  1
  Zn  Zn87  1  0.62231774  0.25465457  0.87559119  1
  Zn  Zn88  1  0.62310838  0.12811856  0.00002422  1
  Zn  Zn89  1  -0.00547756  0.86662271  0.37662205  1
  Zn  Zn90  1  0.62813484  -0.00473798  0.62133568  1
  Zn  Zn91  1  0.75335268  0.12959507  0.37737867  1
  Zn  Zn92  1  0.25046709  0.75055252  0.00135440  1
  Zn  Zn93  1  0.13189313  0.62312027  0.49781238  1
  Zn  Zn94  1  0.24611327  0.11749526  0.87111328  1
  Zn  Zn95  1  0.87148216  0.84845239  0.00448088  1
  Zn  Zn96  1  0.87456072  0.37621997  -0.00070332  1
  Zn  Zn97  1  0.74684698  0.50128338  0.75668693  1
  Zn  Zn98  1  0.75127666  0.85275121  0.12005008  1
  Zn  Zn99  1  0.36923301  -0.00783608  0.86705687  1
  Zn  Zn100  1  -0.00283110  0.37456894  0.87402775  1
  Zn  Zn101  1  -0.00550683  0.25408507  0.74615146  1
  Zn  Zn102  1  0.62523452  0.62333354  0.49966668  1
  Zn  Zn103  1  0.62457111  0.25004453  0.37113552  1
  Zn  Zn104  1  0.25383230  0.50137571  0.75050897  1
  Zn  Zn105  1  0.00390556  0.74933908  0.74723988  1
  Zn  Zn106  1  0.86780040  0.13821029  0.74375700  1
  Zn  Zn107  1  0.19432296  0.18769739  0.18776405  1
  Zn  Zn108  1  0.18462242  0.18885509  0.68491997  1
  Zn  Zn109  1  0.18644547  0.68679069  0.19023513  1
  Zn  Zn110  1  0.18998073  0.68924883  0.68674194  1
  Zn  Zn111  1  0.68762022  0.18965999  0.18713278  1
  Zn  Zn112  1  0.68318091  0.18855197  0.68405898  1
  Zn  Zn113  1  0.67154922  0.68801597  0.19387608  1
  Zn  Zn114  1  0.68930748  0.68415956  0.68778876  1
  Zn  Zn115  1  0.30465417  0.31278152  0.31681360  1
  Zn  Zn116  1  0.30556132  0.30742539  0.81483500  1
  Zn  Zn117  1  0.30314229  0.81476107  0.31564397  1
  Zn  Zn118  1  0.31469285  0.81469440  0.81194074  1
  Zn  Zn119  1  0.80974644  0.31204928  0.31082367  1
  Zn  Zn120  1  0.81489621  0.31347264  0.81037955  1
  Zn  Zn121  1  0.80983228  0.81161277  0.30383131  1
  Zn  Zn122  1  0.82044070  0.81308464  0.81073534  1
  Zn  Zn123  1  0.18671875  0.43649076  0.43627229  1
  Zn  Zn124  1  0.19217376  0.43516733  0.93790209  1
  Zn  Zn125  1  0.18460690  0.93187359  0.43883652  1
  Zn  Zn126  1  0.19221875  0.93950507  0.94094459  1
  Zn  Zn127  1  0.68424339  0.43402625  0.43917716  1
  Zn  Zn128  1  0.69089709  0.44419290  0.94352583  1
  Zn  Zn129  1  0.55491997  0.93881681  0.43844375  1
  Zn  Zn130  1  0.68644378  0.93509443  0.93789150  1
  Zn  Zn131  1  0.31303772  0.06097887  0.06393272  1
  Zn  Zn132  1  0.30759406  0.06222531  0.56129202  1
  Zn  Zn133  1  0.31336675  0.55851109  0.06162066  1
  Zn  Zn134  1  0.31314745  0.56437791  0.56415253  1
  Zn  Zn135  1  0.81414971  -0.00739115  0.06181301  1
  Zn  Zn136  1  0.81208317  0.06026324  0.55897405  1
  Zn  Zn137  1  0.81186133  0.68431726  0.06854672  1
  Zn  Zn138  1  0.81148562  0.55961203  0.56001358  1
  Zn  Zn139  1  0.45786382  0.45739969  0.19589140  1
  Zn  Zn140  1  0.43847022  0.43911587  0.69432083  1
  Zn  Zn141  1  0.43545967  0.95769089  0.29766169  1
  Zn  Zn142  1  0.44536268  0.93395808  0.58734142  1
  Zn  Zn143  1  0.94234471  0.43316256  0.18213887  1
  Zn  Zn144  1  0.93730061  0.43812655  0.68896063  1
  Zn  Zn145  1  0.94122774  0.93440914  0.18926231  1
  Zn  Zn146  1  0.94098245  0.93847479  0.68997698  1
  Zn  Zn147  1  0.06260172  0.06051867  0.31348806  1
  Zn  Zn148  1  0.06551883  0.06221802  0.81009004  1
  Zn  Zn149  1  0.05962473  0.56188861  0.31189591  1
  Zn  Zn150  1  0.06395503  0.56211916  0.81262724  1
  Zn  Zn151  1  0.56945077  0.07454839  0.31055854  1
  Zn  Zn152  1  0.55736083  0.05654653  0.80223632  1
  Zn  Zn153  1  0.56219058  0.56013782  0.31405657  1
  Zn  Zn154  1  0.56260614  0.56560475  0.81841023  1
  Zn  Zn155  1  0.43527900  0.17610645  0.43366162  1
  Zn  Zn156  1  0.43764778  0.18533055  0.93549357  1
  Zn  Zn157  1  0.43792949  0.68558122  0.44031962  1
  Zn  Zn158  1  0.43878833  0.68955480  0.93781474  1
  Zn  Zn159  1  0.93907415  0.18563128  0.43936370  1
  Zn  Zn160  1  0.93575434  0.18502241  0.93585440  1
  Zn  Zn161  1  0.93693740  0.68363631  0.43083519  1
  Zn  Zn162  1  0.94677779  0.68256053  0.93422954  1
  Zn  Zn163  1  0.06348681  0.31398683  0.06101475  1
  Zn  Zn164  1  0.06241999  0.31262489  0.55970376  1
  Zn  Zn165  1  0.06056742  0.81057065  0.06326207  1
  Zn  Zn166  1  0.06713193  0.81042227  0.56151415  1
  Zn  Zn167  1  0.56898048  0.31093582  0.05812986  1
  Zn  Zn168  1  0.56268801  0.30867245  0.56706213  1
  Zn  Zn169  1  0.55620858  0.81861898  0.07548101  1
  Zn  Zn170  1  0.57476400  0.80461377  0.56876584  1
  O  O171  1  0.12018442  0.11956487  0.12143483  1
  O  O172  1  0.11859877  0.11629880  0.61731470  1
  O  O173  1  0.13394464  0.61449430  0.11573835  1
  O  O174  1  0.11868520  0.61649854  0.62516890  1
  O  O175  1  0.61679106  0.12216577  0.12226809  1
  O  O176  1  0.61679283  0.12387908  0.61379320  1
  O  O177  1  0.60712833  0.63013958  0.11610593  1
  O  O178  1  0.62043694  0.61102233  0.62609283  1
  O  O179  1  0.38000585  0.37817255  0.38131699  1
  O  O180  1  0.36899729  0.38534371  0.87488509  1
  O  O181  1  0.40817001  0.85012985  0.33258846  1
  O  O182  1  0.38373188  0.87414316  0.88402792  1
  O  O183  1  0.88074293  0.37902731  0.37973987  1
  O  O184  1  0.87492252  0.38975584  0.87644584  1
  O  O185  1  0.87457160  0.88852706  0.36732954  1
  O  O186  1  0.88641859  0.88301460  0.87690159  1
  O  O187  1  0.25788446  -0.00640333  0.38177445  1
  O  O188  1  0.25728039  0.00501694  0.88155681  1
  O  O189  1  0.25753186  0.49385579  0.36565727  1
  O  O190  1  0.26198976  0.50618569  0.87627073  1
  O  O191  1  0.75917894  0.00838362  0.36001566  1
  O  O192  1  0.75880960  0.00667027  0.86811068  1
  O  O193  1  0.75874997  0.50294625  0.38136719  1
  O  O194  1  0.75996435  0.51277213  0.87811239  1
  O  O195  1  0.24248920  0.49172320  0.13035002  1
  O  O196  1  0.24350805  0.49400035  0.62643513  1
  O  O197  1  0.23735334  0.99203612  0.11958973  1
  O  O198  1  0.23531581  0.98685231  0.61392597  1
  O  O199  1  0.75128148  0.48858494  0.12936265  1
  O  O200  1  0.74152956  0.49097963  0.62594883  1
  O  O201  1  0.73519864  1.01615287  0.13808161  1
  O  O202  1  0.75386875  0.98997809  0.63135559  1
  O  O203  1  0.00749236  0.37877120  0.26146687  1
  O  O204  1  0.01248254  0.37566075  0.75046086  1
  O  O205  1  0.01077467  0.86625545  0.25179413  1
  O  O206  1  0.01101072  0.87506385  0.76111022  1
  O  O207  1  0.49576131  0.35874582  0.25377146  1
  O  O208  1  0.50993484  0.36419465  0.74350864  1
  O  O209  1  0.51611163  0.88277562  0.23849775  1
  O  O210  1  0.51502534  0.86472681  0.75992880  1
  O  O211  1  0.50168741  0.13053525  0.23486531  1
  O  O212  1  0.48728302  0.13240646  0.73974069  1
  O  O213  1  0.48832135  0.61359707  0.23849306  1
  O  O214  1  0.50264678  0.63434077  0.74667846  1
  O  O215  1  0.98974936  0.12237708  0.24549850  1
  O  O216  1  1.00222955  0.12300772  0.73325873  1
  O  O217  1  1.00106560  0.63562913  0.25049329  1
  O  O218  1  0.99298393  0.62463122  0.74112393  1
  O  O219  1  0.35772602  0.24448437  -0.00747186  1
  O  O220  1  0.36634274  0.25234185  0.50825553  1
  O  O221  1  0.37606381  0.75613762  0.01098554  1
  O  O222  1  0.36141178  0.75065400  0.49419740  1
  O  O223  1  0.86879028  0.25215939  0.00507454  1
  O  O224  1  0.87113144  0.26219945  0.49902209  1
  O  O225  1  0.88314237  0.73848956  0.00340118  1
  O  O226  1  0.86527945  0.74287553  0.50483239  1
  O  O227  1  0.13015788  0.24257136  0.49505754  1
  O  O228  1  0.12910708  0.24329590  0.99436194  1
  O  O229  1  0.13022226  0.74607886  0.49110885  1
  O  O230  1  0.12650523  0.74045984  0.99389030  1
  O  O231  1  0.63553102  0.24698606  0.50013841  1
  O  O232  1  0.63587276  0.24724348  0.99280356  1
  O  O233  1  0.64031337  0.74491586  0.49187684  1
  O  O234  1  0.61434135  0.74281966  1.00662399  1
  O  O235  1  0.49664934  0.24178095  0.12093193  1
  O  O236  1  0.48870485  0.24361939  0.63150339  1
  O  O237  1  0.48522322  0.74946531  0.14375303  1
  O  O238  1  0.51092873  0.73670658  0.63680919  1
  O  O239  1  0.98803227  0.24797985  0.11937357  1
  O  O240  1  1.00732367  0.23257467  0.62187327  1
  O  O241  1  1.00515743  0.74957550  0.13966598  1
  O  O242  1  0.99333849  0.74260737  0.62313532  1
  O  O243  1  0.01090968  0.25982437  0.38279542  1
  O  O244  1  0.01157265  0.25221245  0.87621703  1
  O  O245  1  0.00798305  0.74939243  0.36965375  1
  O  O246  1  0.00999607  0.75837792  0.87077238  1
  O  O247  1  0.49796694  0.26106432  0.38235945  1
  O  O248  1  0.50289206  0.24478493  0.86078436  1
  O  O249  1  0.51084258  0.73701846  0.36682699  1
  O  O250  1  0.49910226  0.76157271  0.86960130  1
  O  O251  1  0.23680271  0.13416482  0.50748900  1
  O  O252  1  0.23785683  0.13301179  1.00405577  1
  O  O253  1  0.24940500  0.64174678  0.50895510  1
  O  O254  1  0.24210530  0.62497814  0.99345129  1
  O  O255  1  0.74094639  0.13469909  0.50556199  1
  O  O256  1  0.74844529  0.13731849  0.98773884  1
  O  O257  1  0.74772929  0.62980462  0.49028863  1
  O  O258  1  0.73079443  0.62889604  0.99637657  1
  O  O259  1  0.24709006  0.35977564  0.00490962  1
  O  O260  1  0.25485967  0.36812942  0.50567398  1
  O  O261  1  0.25351534  0.87065158  0.01443806  1
  O  O262  1  0.24435875  0.86327129  0.51315522  1
  O  O263  1  0.75117886  0.36663635  0.00713437  1
  O  O264  1  0.75702383  0.37016258  0.50705657  1
  O  O265  1  0.76164202  0.89575518  0.00886377  1
  O  O266  1  0.75240701  0.86332956  0.51468584  1
  O  O267  1  0.13077311  0.49504696  0.24491910  1
  O  O268  1  0.12861354  0.49231663  0.74419029  1
  O  O269  1  0.11693516  0.98830960  0.24163041  1
  O  O270  1  0.12391990  0.99167007  0.73954926  1
  O  O271  1  0.59642838  0.47398406  0.24652933  1
  O  O272  1  0.62329691  0.49403625  0.74498396  1
  O  O273  1  0.63422203  0.99906931  0.24544269  1
  O  O274  1  0.64158255  0.98902022  0.75229679  1
  O  O275  1  0.35385913  0.01651566  0.25034924  1
  O  O276  1  0.37174278  0.01829449  0.74536456  1
  O  O277  1  0.36790689  0.50322399  0.25576358  1
  O  O278  1  0.37564405  0.50273268  0.76695745  1
  O  O279  1  0.87116298  0.00888207  0.25511826  1
  O  O280  1  0.86712259  0.00013205  0.75863223  1
  O  O281  1  0.86879713  0.49148010  0.25520942  1
  O  O282  1  0.87443341  0.51095029  0.75647723  1
  O  O283  1  0.11632014  0.37009621  0.36702517  1
  O  O284  1  0.12552620  0.36853944  0.86648022  1
  O  O285  1  0.12140213  0.86432246  0.36691193  1
  O  O286  1  0.12290397  0.87171903  0.86940417  1
  O  O287  1  0.61449968  0.37284687  0.36968338  1
  O  O288  1  0.63294247  0.37811319  0.86232041  1
  O  O289  1  0.62355907  0.86333994  0.36908780  1
  O  O290  1  0.61934453  0.87714534  0.86785640  1
  O  O291  1  0.39098131  0.12269347  0.12010880  1
  O  O292  1  0.37155301  0.14232591  0.63738496  1
  O  O293  1  0.38053336  0.63093122  0.12902598  1
  O  O294  1  0.39125570  0.61626141  0.63137536  1
  O  O295  1  0.88564987  0.13339725  0.13355705  1
  O  O296  1  0.89039186  0.11736575  0.62482615  1
  O  O297  1  0.86043829  0.60341675  0.13923037  1
  O  O298  1  0.87826028  0.63015446  0.63019814  1
  O  O299  1  0.24779019  0.25337938  0.11154075  1
  O  O300  1  0.25332678  0.25729277  0.61584135  1
  O  O301  1  0.25988447  0.75336460  0.12622228  1
  O  O302  1  0.24477144  0.76189310  0.61391803  1
  O  O303  1  0.76086007  0.25359495  0.11561561  1
  O  O304  1  0.74520001  0.26502346  0.61722436  1
  O  O305  1  0.75068175  0.74362089  0.14122866  1
  O  O306  1  0.75930443  0.75019354  0.61704160  1
  O  O307  1  0.23392193  0.25872378  0.38943206  1
  O  O308  1  0.23668717  0.24536939  0.88561665  1
  O  O309  1  0.24059581  0.75551257  0.39019161  1
  O  O310  1  0.24626756  0.74357399  0.87779918  1
  O  O311  1  0.75195799  0.25151467  0.39128417  1
  O  O312  1  0.74903237  0.24333107  0.87889785  1
  O  O313  1  0.74484642  0.74247275  0.37728827  1
  O  O314  1  0.75999288  0.73895646  0.87331138  1
  O  O315  1  0.01176817  0.12278580  0.00616621  1
  O  O316  1  0.00500104  0.11626649  0.51084721  1
  O  O317  1  0.01976938  0.61096251  -0.00847689  1
  O  O318  1  -0.00095411  0.61655125  0.50608083  1
  O  O319  1  0.50297923  0.11765099  0.00104437  1
  O  O320  1  0.51636084  0.14144212  0.50746912  1
  O  O321  1  0.50762758  0.62380004  0.00363285  1
  O  O322  1  0.50351982  0.61847644  0.50978507  1
  O  O323  1  0.49399618  0.37741216  0.49543724  1
  O  O324  1  0.50888789  0.39130751  1.00228387  1
  O  O325  1  0.50829729  0.87590620  0.51656831  1
  O  O326  1  0.49770511  0.88232593  0.99578892  1
  O  O327  1  0.99331663  0.37963961  0.49179507  1
  O  O328  1  1.00061703  0.38753151  0.99636081  1
  O  O329  1  1.00313089  0.88607671  0.50006301  1
  O  O330  1  1.00416405  0.88061420  0.98760024  1
  O  O331  1  0.49138161  0.48793304  0.38239956  1
  O  O332  1  0.48728088  0.50475059  0.88546241  1
  O  O333  1  0.50294427  1.00854954  0.37027916  1
  O  O334  1  0.49661527  0.98992925  0.88029663  1
  O  O335  1  0.98862472  0.49314756  0.37789449  1
  O  O336  1  0.99420194  0.49932086  0.88085635  1
  O  O337  1  0.99246995  0.99637545  0.38394790  1
  O  O338  1  0.99596783  0.99454124  0.87627980  1
  O  O339  1  0.01117238  0.00649762  0.11943104  1
  O  O340  1  0.00832598  0.00448843  0.61862823  1
  O  O341  1  0.01505570  0.49602534  0.11688587  1
  O  O342  1  0.00547398  0.50438197  0.61848802  1
  O  O343  1  0.51223570  0.01421583  0.11696490  1
  O  O344  1  0.51544712  0.00922108  0.65026081  1
  O  O345  1  0.49122922  0.51348980  0.10480091  1
  O  O346  1  0.50733741  0.50303200  0.62187498  1
  O  O347  1  0.24105982  0.38404893  0.24750014  1
  O  O348  1  0.23851172  0.37446708  0.74336364  1
  O  O349  1  0.23535269  0.86760113  0.23764231  1
  O  O350  1  0.23928524  0.86766539  0.73932736  1
  O  O351  1  0.74269959  0.37556660  0.24165118  1
  O  O352  1  0.74260766  0.37967836  0.74270580  1
  O  O353  1  0.73952051  0.88618417  0.24852788  1
  O  O354  1  0.74979587  0.87906582  0.74538017  1
  O  O355  1  0.22573500  0.11840628  0.26886724  1
  O  O356  1  0.26199406  0.13550759  0.75050263  1
  O  O357  1  0.25934743  0.61027204  0.24393474  1
  O  O358  1  0.25354184  0.62338528  0.75799088  1
  O  O359  1  0.76325363  0.12297391  0.25171068  1
  O  O360  1  0.74937462  0.11630841  0.75076443  1
  O  O361  1  0.73778487  0.60838759  0.25511333  1
  O  O362  1  0.75780488  0.62227516  0.75802438  1
  O  O363  1  0.35473085  0.12788406  0.37727494  1
  O  O364  1  0.37399287  0.12507530  0.85976420  1
  O  O365  1  0.38073293  0.61650939  0.36369211  1
  O  O366  1  0.36341420  0.62478914  0.87684065  1
  O  O367  1  0.87644374  0.11945824  0.36842131  1
  O  O368  1  0.86447224  0.11929597  0.86733185  1
  O  O369  1  0.85980732  0.61444875  0.37418611  1
  O  O370  1  0.87248720  0.61820027  0.86677985  1
  O  O371  1  0.12288050  0.37965064  0.13759349  1
  O  O372  1  0.12711069  0.38158956  0.63004354  1
  O  O373  1  0.12960469  0.88235247  0.13037029  1
  O  O374  1  0.12812804  0.88070136  0.63388453  1
  O  O375  1  0.63984554  0.36642459  0.13065369  1
  O  O376  1  0.63076979  0.38436203  0.63169101  1
  O  O377  1  0.63037856  0.88774455  0.13256944  1
  O  O378  1  0.64204572  0.87440831  0.63690015  1
  O  O379  1  0.12951845  0.25947775  0.25935644  1
  O  O380  1  0.12115106  0.25693730  0.75732485  1
  O  O381  1  0.12044945  0.75322341  0.25860397  1
  O  O382  1  0.12394776  0.75800043  0.75630409  1
  O  O383  1  0.62909369  0.26395400  0.25443269  1
  O  O384  1  0.61627203  0.25823721  0.74948181  1
  O  O385  1  0.61026428  0.76330239  0.25875225  1
  O  O386  1  0.62473673  0.75822258  0.74896153  1
  O  O387  1  0.37046957  0.24713799  0.24798378  1
  O  O388  1  0.38078828  0.25264364  0.74467680  1
  O  O389  1  0.37369866  0.73642956  0.24541010  1
  O  O390  1  0.38983112  0.74923159  0.75174835  1
  O  O391  1  0.87149681  0.24342883  0.24055246  1
  O  O392  1  0.88174708  0.25033837  0.74873712  1
  O  O393  1  0.89138667  0.75206061  0.25445467  1
  O  O394  1  0.87961417  0.73745041  0.74133158  1
  O  O395  1  0.37875278  0.49375631  0.49695316  1
  O  O396  1  0.38390952  0.50278505  0.98716147  1
  O  O397  1  0.41450054  1.03748388  0.54592860  1
  O  O398  1  0.38817521  0.99275440  1.00320811  1
  O  O399  1  0.87852280  0.48934014  0.49037095  1
  O  O400  1  0.88869706  0.50170038  0.99064971  1
  O  O401  1  0.88303754  1.00464047  0.48874416  1
  O  O402  1  0.88954722  1.01513317  0.98149477  1
  O  O403  1  0.12049634  0.00850027  0.00799210  1
  O  O404  1  0.11595596  0.00605591  0.50414018  1
  O  O405  1  0.12468768  0.50315821  0.00722867  1
  O  O406  1  0.11911813  0.50117284  0.50495820  1
  O  O407  1  0.61533868  0.00237614  0.00714743  1
  O  O408  1  0.62806327  0.01693661  0.50163082  1
  O  O409  1  0.61011574  0.51224996  -0.00709401  1
  O  O410  1  0.61708491  0.49915451  0.50900435  1
  O  O411  1  0.38688748  0.36714455  0.14086360  1
  O  O412  1  0.37055753  0.36896964  0.62222860  1
  O  O413  1  0.36476013  0.86576378  0.12164699  1
  O  O414  1  0.35570394  0.88009190  0.63363855  1
  O  O415  1  0.86652797  0.36748571  0.12353306  1
  O  O416  1  0.86554294  0.38443870  0.61540055  1
  O  O417  1  0.86707103  0.89868543  0.11421439  1
  O  O418  1  0.87270330  0.85898875  0.63450899  1
  O  O419  1  0.11193203  0.13324924  0.38920332  1
  O  O420  1  0.12421962  0.13145174  0.88359458  1
  O  O421  1  0.12473075  0.63432970  0.37567996  1
  O  O422  1  0.13819130  0.62735042  0.87944990  1
  O  O423  1  0.63190703  0.13351851  0.38842531  1
  O  O424  1  0.63684622  0.12170788  0.86974764  1
  O  O425  1  0.63434343  0.63048918  0.37393554  1
  O  O426  1  0.63168285  0.62967029  0.88768178  1
