# generated using pymatgen
data_V85Zn86O256
_symmetry_space_group_name_H-M   'P 1'
_cell_length_a   16.96271982
_cell_length_b   16.95688558
_cell_length_c   16.96389912
_cell_angle_alpha   90.03345034
_cell_angle_beta   89.91760882
_cell_angle_gamma   89.91757520
_symmetry_Int_Tables_number   1
_chemical_formula_structural   V85Zn86O256
_chemical_formula_sum   'V85 Zn86 O256'
_cell_volume   4879.39848154
_cell_formula_units_Z   1
loop_
 _symmetry_equiv_pos_site_id
 _symmetry_equiv_pos_as_xyz
  1  'x, y, z'
loop_
 _atom_site_type_symbol
 _atom_site_label
 _atom_site_symmetry_multiplicity
 _atom_site_fract_x
 _atom_site_fract_y
 _atom_site_fract_z
 _atom_site_occupancy
  V  V0  1  0.49958509  0.49446260  0.00079380  1
  V  V1  1  0.00162969  0.25530829  0.75004687  1
  V  V2  1  0.12765212  0.73567888  0.87891446  1
  V  V3  1  0.63244003  0.37422042  0.24478966  1
  V  V4  1  0.12112626  0.00477433  0.11029630  1
  V  V5  1  0.37370381  0.87409817  -0.00111288  1
  V  V6  1  0.25498662  -0.00043335  0.24520484  1
  V  V7  1  0.13412686  0.12743368  0.48649978  1
  V  V8  1  0.75991101  0.49505380  0.24696424  1
  V  V9  1  0.12430353  0.75168504  0.37169327  1
  V  V10  1  0.49960438  0.23353985  0.74262768  1
  V  V11  1  0.87450010  0.00019125  0.37524235  1
  V  V12  1  0.62324405  0.87296992  0.75180414  1
  V  V13  1  0.37052400  0.36674749  0.50247536  1
  V  V14  1  0.75027227  0.74819114  0.00159785  1
  V  V15  1  0.31761439  0.17362895  0.31098250  1
  V  V16  1  0.75286054  0.61953748  0.37353852  1
  V  V17  1  0.62646731  0.74633835  0.37413425  1
  V  V18  1  0.12441438  -0.00196829  0.62408970  1
  V  V19  1  0.87312314  0.37991387  0.49949203  1
  V  V20  1  0.87628971  0.37731573  0.00297532  1
  V  V21  1  0.37475506  0.74700575  0.12663021  1
  V  V22  1  0.49431617  0.37760050  0.86490828  1
  V  V23  1  0.25238154  0.62502366  0.36490848  1
  V  V24  1  0.49855498  0.50266214  0.52447120  1
  V  V25  1  0.37871148  0.74238266  0.62568316  1
  V  V26  1  0.87050051  0.61792861  0.75218301  1
  V  V27  1  0.87253351  0.75110251  0.62540925  1
  V  V28  1  0.25096883  0.74953290  0.49766252  1
  V  V29  1  0.00056338  0.75141404  0.75038428  1
  V  V30  1  0.24267577  0.49043808  0.24616178  1
  V  V31  1  0.13333147  0.48808860  0.63079026  1
  V  V32  1  0.75052978  0.87552118  0.62638961  1
  V  V33  1  0.49961663  -0.00009250  0.50382119  1
  V  V34  1  0.74992021  0.26125000  0.00546236  1
  V  V35  1  0.62545241  0.12304713  0.50950969  1
  V  V36  1  0.87730259  0.25044866  0.13008506  1
  V  V37  1  0.62007294  0.25923024  0.87882106  1
  V  V38  1  0.35940664  0.62582529  0.75735690  1
  V  V39  1  0.74757325  0.12710037  0.87492738  1
  V  V40  1  0.00292364  0.87801787  0.88212620  1
  V  V41  1  0.49496105  0.74376036  0.25092846  1
  V  V42  1  0.01107655  0.62594323  0.12334765  1
  V  V43  1  0.37105883  -0.00397150  0.37148358  1
  V  V44  1  0.74683683  0.00047500  0.75424866  1
  V  V45  1  0.00301146  0.62287103  0.62179452  1
  V  V46  1  0.49755196  0.87378716  0.87543624  1
  V  V47  1  0.63179131  0.49780549  0.12131032  1
  V  V48  1  0.50102144  0.74135548  0.74819987  1
  V  V49  1  0.35763183  0.50652258  0.87922983  1
  V  V50  1  0.24930084  0.87141007  0.62469186  1
  V  V51  1  0.62139830  -0.00032231  0.62647452  1
  V  V52  1  -0.00029440  0.12019278  0.10356631  1
  V  V53  1  -0.00206812  0.00245877  0.50076435  1
  V  V54  1  0.48752717  0.12559771  0.12756314  1
  V  V55  1  0.87706355  0.00116161  0.88021262  1
  V  V56  1  0.62485614  0.74603992  0.87503194  1
  V  V57  1  0.24535826  0.24353192  0.01527436  1
  V  V58  1  0.13258114  0.23336989  0.87722519  1
  V  V59  1  0.49801963  0.62082404  0.12882159  1
  V  V60  1  0.87601661  0.87626469  0.00334232  1
  V  V61  1  0.24726524  0.87491902  0.12185440  1
  V  V62  1  0.62990264  0.25042111  0.37484283  1
  V  V63  1  0.73461931  0.27127051  0.52370220  1
  V  V64  1  0.50138481  0.87360309  0.37384154  1
  V  V65  1  -0.00176396  0.87639066  0.37311713  1
  V  V66  1  0.25559381  -0.00004918  0.75303228  1
  V  V67  1  0.24627538  0.73513838  -0.00173628  1
  V  V68  1  0.49823452  0.00044712  0.00109208  1
  V  V69  1  0.75089740  0.12689917  0.37603572  1
  V  V70  1  0.00807647  0.50450592  -0.00077201  1
  V  V71  1  0.87710774  0.62538803  0.24850814  1
  V  V72  1  0.00161385  0.49867211  0.48958205  1
  V  V73  1  0.00898258  0.37650604  0.87128406  1
  V  V74  1  0.50512294  0.24654560  0.24997137  1
  V  V75  1  0.62444018  0.12596456  0.00619920  1
  V  V76  1  0.37402367  0.01185869  0.87184601  1
  V  V77  1  0.12469440  0.87497893  0.75219500  1
  V  V78  1  -0.00381859  0.12567400  0.62418317  1
  V  V79  1  0.87348195  0.87462732  0.50103870  1
  V  V80  1  0.38463118  0.50862687  0.36798805  1
  V  V81  1  0.88983474  0.12800808  0.25349722  1
  V  V82  1  0.32851936  0.17957667  0.68970952  1
  V  V83  1  0.00422482  0.36405068  0.36672485  1
  V  V84  1  0.62289750  0.62128592  0.51269287  1
  Zn  Zn85  1  0.13523204  0.25564807  0.37676117  1
  Zn  Zn86  1  0.62878886  0.87730788  0.24841260  1
  Zn  Zn87  1  0.25010274  0.35791052  0.62702232  1
  Zn  Zn88  1  0.62500437  -0.00192418  0.13000970  1
  Zn  Zn89  1  -0.00004428  0.75209371  0.24684262  1
  Zn  Zn90  1  0.36175153  0.37645420  0.00910199  1
  Zn  Zn91  1  0.87169692  0.49508881  0.87322103  1
  Zn  Zn92  1  0.62735155  0.62183927  -0.00061179  1
  Zn  Zn93  1  0.37672592  0.87187984  0.50128363  1
  Zn  Zn94  1  0.74630660  0.87703820  0.12747092  1
  Zn  Zn95  1  0.87619590  0.74973687  0.12515672  1
  Zn  Zn96  1  0.50548134  0.37911292  0.37715306  1
  Zn  Zn97  1  0.70686569  0.42456418  0.65911761  1
  Zn  Zn98  1  0.12750588  0.48585345  0.12289068  1
  Zn  Zn99  1  0.74712653  0.61769680  0.87354169  1
  Zn  Zn100  1  0.12678401  0.62266612  0.49813592  1
  Zn  Zn101  1  0.12085335  0.88496265  0.24906982  1
  Zn  Zn102  1  0.87658711  0.25760496  0.62747122  1
  Zn  Zn103  1  0.87329704  0.12614645  0.75005665  1
  Zn  Zn104  1  0.74905590  -0.00068908  0.24599629  1
  Zn  Zn105  1  0.74928328  0.74774158  0.49903999  1
  Zn  Zn106  1  0.36712204  0.25740221  0.13108883  1
  Zn  Zn107  1  0.16863800  0.30513021  0.19389890  1
  Zn  Zn108  1  0.16725738  0.18503008  0.68755083  1
  Zn  Zn109  1  0.18727126  0.68762520  0.18934197  1
  Zn  Zn110  1  0.18446964  0.68632562  0.68711901  1
  Zn  Zn111  1  0.69288580  0.18331132  0.18762606  1
  Zn  Zn112  1  0.68990997  0.26742363  0.69579233  1
  Zn  Zn113  1  0.68720167  0.68773912  0.18610709  1
  Zn  Zn114  1  0.68427089  0.58779709  0.68991507  1
  Zn  Zn115  1  0.31950479  0.33374669  0.31643372  1
  Zn  Zn116  1  0.30509433  0.32120226  0.81920888  1
  Zn  Zn117  1  0.31333733  0.81488398  0.30945241  1
  Zn  Zn118  1  0.31080764  0.81183794  0.81512000  1
  Zn  Zn119  1  0.81811377  0.31474848  0.31738142  1
  Zn  Zn120  1  0.81924238  0.31155053  0.81631683  1
  Zn  Zn121  1  0.81146225  0.80981492  0.30915726  1
  Zn  Zn122  1  0.81169646  0.80951986  0.81379611  1
  Zn  Zn123  1  0.18771480  0.43861822  0.44019185  1
  Zn  Zn124  1  0.18361907  0.42948756  0.94031746  1
  Zn  Zn125  1  0.18619451  0.94002106  0.43611476  1
  Zn  Zn126  1  0.19030527  0.93622579  0.93528926  1
  Zn  Zn127  1  0.68290355  0.44374924  0.43710665  1
  Zn  Zn128  1  0.68986350  0.43938746  0.82750125  1
  Zn  Zn129  1  0.68820725  0.93562026  0.43572068  1
  Zn  Zn130  1  0.68657238  0.93641285  0.94241693  1
  Zn  Zn131  1  0.30799103  0.06765568  0.05703509  1
  Zn  Zn132  1  0.31186703  0.05632105  0.55893062  1
  Zn  Zn133  1  0.31559195  0.56054262  0.06836431  1
  Zn  Zn134  1  0.31425428  0.56502948  0.55943477  1
  Zn  Zn135  1  0.81109660  0.06406305  0.06295257  1
  Zn  Zn136  1  0.80816436  0.06677600  0.56384748  1
  Zn  Zn137  1  0.81557986  0.56206964  0.06129825  1
  Zn  Zn138  1  0.81850910  0.56367897  0.55518368  1
  Zn  Zn139  1  0.43782260  0.43368094  0.19013977  1
  Zn  Zn140  1  0.39493038  0.42136663  0.70663877  1
  Zn  Zn141  1  0.43958957  0.93504632  0.18733876  1
  Zn  Zn142  1  0.43553178  0.93274540  0.68709481  1
  Zn  Zn143  1  0.94448865  0.43582333  0.18372214  1
  Zn  Zn144  1  0.93964676  0.43839649  0.68069683  1
  Zn  Zn145  1  0.93647052  0.94329826  0.18813885  1
  Zn  Zn146  1  0.93624247  0.93991945  0.69290522  1
  Zn  Zn147  1  0.10962730  0.12225797  0.25846207  1
  Zn  Zn148  1  0.05957239  0.06093911  0.81043086  1
  Zn  Zn149  1  0.06296617  0.56388888  0.31256646  1
  Zn  Zn150  1  0.05848189  0.55919315  0.80804296  1
  Zn  Zn151  1  0.56283193  0.06277375  0.31392040  1
  Zn  Zn152  1  0.56266951  0.06515805  0.81693857  1
  Zn  Zn153  1  0.56884243  0.56392703  0.30912226  1
  Zn  Zn154  1  0.55552529  0.56008907  0.80970127  1
  Zn  Zn155  1  0.44740927  0.18714668  0.44286484  1
  Zn  Zn156  1  0.43231690  0.19242524  0.94204480  1
  Zn  Zn157  1  0.44008964  0.68281795  0.44118076  1
  Zn  Zn158  1  0.43779778  0.68332714  0.94153210  1
  Zn  Zn159  1  0.93386745  0.19297263  0.44311307  1
  Zn  Zn160  1  0.93592250  0.19132698  0.93482764  1
  Zn  Zn161  1  0.93603220  0.68618682  0.43464010  1
  Zn  Zn162  1  0.94089941  0.68907658  0.93805651  1
  Zn  Zn163  1  0.05927477  0.30802342  0.05589766  1
  Zn  Zn164  1  0.06475637  0.31063843  0.55656985  1
  Zn  Zn165  1  0.06420516  0.81167242  0.06202042  1
  Zn  Zn166  1  0.06205439  0.81118572  0.55928788  1
  Zn  Zn167  1  0.55767934  0.31559598  0.06495363  1
  Zn  Zn168  1  0.55421531  0.31737856  0.56470226  1
  Zn  Zn169  1  0.56379284  0.81206176  0.06331348  1
  Zn  Zn170  1  0.56351231  0.80946301  0.56267705  1
  O  O171  1  0.10357527  0.11860747  0.12790491  1
  O  O172  1  0.11184780  0.11596922  0.61534940  1
  O  O173  1  0.11307980  0.62145914  0.13137990  1
  O  O174  1  0.11147691  0.62788138  0.62016750  1
  O  O175  1  0.61850170  0.12712279  0.11487764  1
  O  O176  1  0.62862348  0.11453426  0.61055376  1
  O  O177  1  0.61542226  0.61681443  0.12521860  1
  O  O178  1  0.62586492  0.64541175  0.60928097  1
  O  O179  1  0.38333162  0.39292937  0.38679485  1
  O  O180  1  0.37984444  0.38951378  0.88424869  1
  O  O181  1  0.38363651  0.87993023  0.37716704  1
  O  O182  1  0.38020889  0.87995735  0.88175960  1
  O  O183  1  0.88885007  0.37250047  0.38857399  1
  O  O184  1  0.88525663  0.37156101  0.88849199  1
  O  O185  1  0.87862839  0.88012490  0.38025454  1
  O  O186  1  0.88102509  0.88014672  0.88281757  1
  O  O187  1  0.26369239  -0.00971522  0.36604733  1
  O  O188  1  0.25714011  -0.00479088  0.86100488  1
  O  O189  1  0.25811866  0.50710620  0.36918152  1
  O  O190  1  0.25959134  0.49875680  0.88330295  1
  O  O191  1  0.76153465  0.00799719  0.37959673  1
  O  O192  1  0.75287763  0.00604120  0.87359461  1
  O  O193  1  0.74306173  0.51282091  0.36324246  1
  O  O194  1  0.75956057  0.50560390  0.88292085  1
  O  O195  1  0.24845049  0.50635393  0.14298455  1
  O  O196  1  0.23192766  0.50934780  0.61717031  1
  O  O197  1  0.24877429  0.99394429  0.12773154  1
  O  O198  1  0.24694905  0.99020377  0.63331795  1
  O  O199  1  0.74136923  0.50546582  0.13274090  1
  O  O200  1  0.74489726  0.51830419  0.62252064  1
  O  O201  1  0.74564811  0.99872373  0.12582550  1
  O  O202  1  0.74327258  0.99570067  0.63356381  1
  O  O203  1  -0.00511194  0.37996365  0.26884104  1
  O  O204  1  -0.00975011  0.36727631  0.75764447  1
  O  O205  1  -0.00100400  0.87660834  0.26218877  1
  O  O206  1  0.00396202  0.87014186  0.75963498  1
  O  O207  1  0.51008391  0.36199060  0.25456716  1
  O  O208  1  0.48693477  0.36451293  0.76340066  1
  O  O209  1  0.50161633  0.86700573  0.26161670  1
  O  O210  1  0.50257352  0.86660491  0.75886302  1
  O  O211  1  0.50686507  0.13721909  0.24262470  1
  O  O212  1  0.49832477  0.13389784  0.75220872  1
  O  O213  1  0.50352943  0.63314965  0.24308578  1
  O  O214  1  0.48865878  0.63950738  0.75662126  1
  O  O215  1  0.98969414  0.12186489  0.24867940  1
  O  O216  1  0.99812133  0.13080367  0.74012999  1
  O  O217  1  0.99288737  0.62469990  0.24414393  1
  O  O218  1  0.99230602  0.63233396  0.73985096  1
  O  O219  1  0.35818969  0.25143684  0.00354691  1
  O  O220  1  0.38597171  0.26832828  0.49002952  1
  O  O221  1  0.36860657  0.75517647  0.00613754  1
  O  O222  1  0.36999267  0.74872517  0.50800078  1
  O  O223  1  0.86784153  0.25421932  0.00606010  1
  O  O224  1  0.86193243  0.26366479  0.50403642  1
  O  O225  1  0.86761145  0.75858457  -0.00144391  1
  O  O226  1  0.87587717  0.75662893  0.50702678  1
  O  O227  1  0.12618061  0.23367434  0.49488309  1
  O  O228  1  0.13112717  0.24749939  0.98526798  1
  O  O229  1  0.13281195  0.75011997  0.48765140  1
  O  O230  1  0.13443502  0.75376089  0.99077651  1
  O  O231  1  0.62597487  0.24100974  0.49161554  1
  O  O232  1  0.63019644  0.24643194  0.99836967  1
  O  O233  1  0.62312625  0.74345978  0.48658389  1
  O  O234  1  0.63195128  0.74816752  0.99207591  1
  O  O235  1  0.49906891  0.24283690  0.13464702  1
  O  O236  1  0.50469374  0.25142940  0.64442698  1
  O  O237  1  0.49764610  0.74164815  0.13259121  1
  O  O238  1  0.48956298  0.75790245  0.63571079  1
  O  O239  1  0.98691840  0.23229962  0.11520171  1
  O  O240  1  1.00114679  0.24302686  0.63116510  1
  O  O241  1  0.99896038  0.74201297  0.12621644  1
  O  O242  1  0.99231043  0.74520694  0.62719131  1
  O  O243  1  0.00034068  0.26189948  0.37946263  1
  O  O244  1  0.00583930  0.25513846  0.86881250  1
  O  O245  1  0.00799745  0.75827178  0.37503107  1
  O  O246  1  0.00752272  0.75928549  0.87087115  1
  O  O247  1  0.51603306  0.24845062  0.36846696  1
  O  O248  1  0.50303302  0.25696707  0.87462125  1
  O  O249  1  0.50341253  0.75341777  0.36973263  1
  O  O250  1  0.50487216  0.75486543  0.87244961  1
  O  O251  1  0.23220013  0.11146203  0.50068777  1
  O  O252  1  0.24899610  0.14277771  0.99645862  1
  O  O253  1  0.25008032  0.63686615  0.48880820  1
  O  O254  1  0.25288419  0.63670398  1.00851491  1
  O  O255  1  0.74295250  0.12898779  0.48962186  1
  O  O256  1  0.74168094  0.13146374  0.99261168  1
  O  O257  1  0.74438637  0.62701721  0.48807251  1
  O  O258  1  0.75046782  0.63749160  0.99871192  1
  O  O259  1  0.24705355  0.35220394  -0.00856880  1
  O  O260  1  0.26577619  0.37810538  0.50240335  1
  O  O261  1  0.25475036  0.87016701  0.01033903  1
  O  O262  1  0.25088030  0.86321891  0.50223220  1
  O  O263  1  0.75982593  0.36158921  0.00052098  1
  O  O264  1  0.76156837  0.37515329  0.48764378  1
  O  O265  1  0.75843279  0.86430086  -0.00080081  1
  O  O266  1  0.75535352  0.87191375  0.50757001  1
  O  O267  1  0.14138220  0.50352518  0.25353648  1
  O  O268  1  0.11749323  0.50244233  0.72875553  1
  O  O269  1  0.14365037  1.00711524  0.23962676  1
  O  O270  1  0.13308725  0.99536043  0.74406467  1
  O  O271  1  0.63388299  0.49201818  0.24179740  1
  O  O272  1  0.63185400  0.50392675  0.74911342  1
  O  O273  1  0.62866270  0.99820594  0.25067914  1
  O  O274  1  0.62717153  0.99390336  0.74810403  1
  O  O275  1  0.36632180  -0.00546774  0.25588217  1
  O  O276  1  0.36730246  -0.00687912  0.75774964  1
  O  O277  1  0.36530094  0.49480989  0.26436615  1
  O  O278  1  0.38328610  0.51529839  0.77187703  1
  O  O279  1  0.87235244  0.00944945  0.26089857  1
  O  O280  1  0.86497682  0.00122474  0.76288449  1
  O  O281  1  0.86421663  0.50383836  0.24270358  1
  O  O282  1  0.88148619  0.51555220  0.74686351  1
  O  O283  1  0.11064696  0.37230888  0.38555699  1
  O  O284  1  0.11145760  0.36621005  0.87410915  1
  O  O285  1  0.11529488  0.87169820  0.37247054  1
  O  O286  1  0.11700206  0.87260548  0.87026332  1
  O  O287  1  0.62573250  0.36753857  0.36559266  1
  O  O288  1  0.61324996  0.36402507  0.87856398  1
  O  O289  1  0.61789819  0.86498391  0.37483458  1
  O  O290  1  0.61811446  0.86657294  0.87325681  1
  O  O291  1  0.38554251  0.13015027  0.12250570  1
  O  O292  1  0.37891757  0.12405236  0.62404222  1
  O  O293  1  0.38999970  0.63117791  0.12314644  1
  O  O294  1  0.36934894  0.63657708  0.63502145  1
  O  O295  1  0.88451717  0.12584911  0.13282906  1
  O  O296  1  0.88800924  0.12131888  0.62613611  1
  O  O297  1  0.88243216  0.62539755  0.13635653  1
  O  O298  1  0.88542185  0.63323680  0.63102313  1
  O  O299  1  0.24539412  0.24675680  0.11816440  1
  O  O300  1  0.25999040  0.23678855  0.63706063  1
  O  O301  1  0.25251706  0.75697864  0.12091484  1
  O  O302  1  0.25328543  0.75216730  0.61535280  1
  O  O303  1  0.76465026  0.23929591  0.11606631  1
  O  O304  1  0.76124586  0.22639201  0.61508306  1
  O  O305  1  0.75287670  0.75258305  0.11553813  1
  O  O306  1  0.76726365  0.75766680  0.62231476  1
  O  O307  1  0.26579153  0.23961379  0.36783937  1
  O  O308  1  0.23364327  0.24738565  0.86764023  1
  O  O309  1  0.24626646  0.74651646  0.37795318  1
  O  O310  1  0.23970078  0.75576074  0.88641070  1
  O  O311  1  0.74137123  0.24621858  0.38370288  1
  O  O312  1  0.74062911  0.24347637  0.88430329  1
  O  O313  1  0.74138257  0.73923250  0.37416460  1
  O  O314  1  0.74034019  0.74811307  0.88199565  1
  O  O315  1  -0.00721123  0.11820790  0.00540126  1
  O  O316  1  0.00276128  0.11981904  0.50640472  1
  O  O317  1  -0.00761406  0.61627243  0.01026307  1
  O  O318  1  -0.00150788  0.61718794  0.50475388  1
  O  O319  1  0.50581064  0.12329870  0.00870739  1
  O  O320  1  0.51183869  0.11007678  0.49373541  1
  O  O321  1  0.50342795  0.61213324  0.00828024  1
  O  O322  1  0.50721805  0.61129444  0.50103382  1
  O  O323  1  0.49840081  0.39086113  0.49655592  1
  O  O324  1  0.49890556  0.38602567  0.99427626  1
  O  O325  1  0.50090282  0.87934128  0.48780299  1
  O  O326  1  0.49342088  0.87905372  0.99438143  1
  O  O327  1  0.99198373  0.38097437  0.49571521  1
  O  O328  1  0.99351572  0.38089810  0.98990527  1
  O  O329  1  0.99480645  0.87996403  0.49021830  1
  O  O330  1  0.99318475  0.87115889  0.98856157  1
  O  O331  1  0.48986312  0.50323045  0.36848262  1
  O  O332  1  0.49733050  0.49321774  0.88558664  1
  O  O333  1  0.49126416  0.99162744  0.37918281  1
  O  O334  1  0.49399715  0.99309834  0.88087306  1
  O  O335  1  1.00626490  0.49504621  0.38637263  1
  O  O336  1  0.99505012  0.49308200  0.87994061  1
  O  O337  1  0.98454719  0.99163704  0.38290823  1
  O  O338  1  0.98907211  0.99046405  0.86861271  1
  O  O339  1  0.00620253  0.00967520  0.12484579  1
  O  O340  1  0.00401488  0.00456175  0.62207032  1
  O  O341  1  0.00293947  0.50869051  0.11695543  1
  O  O342  1  0.00846771  0.50726461  0.61385542  1
  O  O343  1  0.49924751  0.00867470  0.11926255  1
  O  O344  1  0.50479103  -0.01225513  0.61135167  1
  O  O345  1  0.50546679  0.50527888  0.12360924  1
  O  O346  1  0.49101756  0.49769107  0.62022203  1
  O  O347  1  0.24475667  0.38633963  0.25151751  1
  O  O348  1  0.28732526  0.38314790  0.73051581  1
  O  O349  1  0.24855933  0.88093927  0.23641724  1
  O  O350  1  0.24396923  0.88068876  0.74526105  1
  O  O351  1  0.74493751  0.38299452  0.25610859  1
  O  O352  1  0.73964314  0.36045910  0.75182428  1
  O  O353  1  0.74864020  0.87856222  0.24762450  1
  O  O354  1  0.74364191  0.87904983  0.74635816  1
  O  O355  1  0.26068694  0.11645595  0.25028542  1
  O  O356  1  0.25795996  0.11724554  0.73793306  1
  O  O357  1  0.25111391  0.62030790  0.26111216  1
  O  O358  1  0.26001711  0.63397085  0.75350092  1
  O  O359  1  0.75884781  0.12545060  0.26558151  1
  O  O360  1  0.74833055  0.12054489  0.76873499  1
  O  O361  1  0.75680820  0.61897657  0.25359588  1
  O  O362  1  0.76863601  0.63741268  0.75311596  1
  O  O363  1  0.37790085  0.11715464  0.37438925  1
  O  O364  1  0.38111182  0.11028646  0.87943400  1
  O  O365  1  0.36883659  0.61492487  0.37873654  1
  O  O366  1  0.37336946  0.61553279  0.87417882  1
  O  O367  1  0.87088401  0.12047326  0.37314863  1
  O  O368  1  0.86579979  0.11740310  0.87701480  1
  O  O369  1  0.86641080  0.62805618  0.36188278  1
  O  O370  1  0.88170742  0.62827298  0.85765283  1
  O  O371  1  0.11059747  0.37331904  0.12910819  1
  O  O372  1  0.13245216  0.38262375  0.61858597  1
  O  O373  1  0.13111218  0.88371523  0.12756610  1
  O  O374  1  0.12882650  0.87791834  0.63021067  1
  O  O375  1  0.62272305  0.38126138  0.13738790  1
  O  O376  1  0.66018625  0.33752999  0.60089552  1
  O  O377  1  0.62507024  0.87826671  0.12851265  1
  O  O378  1  0.63098119  0.87868979  0.63093342  1
  O  O379  1  0.13500315  0.23081538  0.26733439  1
  O  O380  1  0.11041769  0.24879812  0.76092181  1
  O  O381  1  0.12417770  0.75553066  0.26210433  1
  O  O382  1  0.11995385  0.75715738  0.75637370  1
  O  O383  1  0.62446907  0.25486833  0.25396422  1
  O  O384  1  0.60860430  0.24103034  0.76735127  1
  O  O385  1  0.61495789  0.74818362  0.26088370  1
  O  O386  1  0.61464325  0.75744487  0.76045480  1
  O  O387  1  0.38091622  0.24414174  0.25835458  1
  O  O388  1  0.38325285  0.23910280  0.75681537  1
  O  O389  1  0.38748593  0.75416407  0.24394164  1
  O  O390  1  0.38011335  0.74617567  0.74599166  1
  O  O391  1  0.86928998  0.24213813  0.24085528  1
  O  O392  1  0.88670052  0.24445354  0.74855406  1
  O  O393  1  0.87912564  0.73989598  0.24671236  1
  O  O394  1  0.88289424  0.74688787  0.74267086  1
  O  O395  1  0.38779234  0.50117254  0.49208598  1
  O  O396  1  0.38095932  0.50153339  0.99286120  1
  O  O397  1  0.38302471  0.99468286  0.49118668  1
  O  O398  1  0.37815663  0.99395478  0.99358025  1
  O  O399  1  0.88579953  0.49014875  0.49904244  1
  O  O400  1  0.88581446  0.48997831  1.00310099  1
  O  O401  1  0.87767542  0.99466155  0.49628890  1
  O  O402  1  0.86761248  0.99156120  0.98734103  1
  O  O403  1  0.13351643  -0.00091873  0.01142296  1
  O  O404  1  0.11587154  0.00217696  0.50590445  1
  O  O405  1  0.11208702  0.49694404  0.00027124  1
  O  O406  1  0.11709022  0.50368907  0.50799972  1
  O  O407  1  0.61550123  0.01009378  -0.00058767  1
  O  O408  1  0.61838724  0.00318954  0.50230691  1
  O  O409  1  0.61639004  0.49986224  0.01616144  1
  O  O410  1  0.60930502  0.50687569  0.50044279  1
  O  O411  1  0.37934493  0.37008602  0.12202276  1
  O  O412  1  0.38177917  0.37504809  0.60320276  1
  O  O413  1  0.36845560  0.86825131  0.11892124  1
  O  O414  1  0.36592483  0.86163130  0.62366780  1
  O  O415  1  0.88506873  0.36330407  0.11341915  1
  O  O416  1  0.87634898  0.37533275  0.60794330  1
  O  O417  1  0.87892391  0.87623789  0.11106714  1
  O  O418  1  0.87317918  0.87021042  0.62196531  1
  O  O419  1  0.12073030  0.11648329  0.38800261  1
  O  O420  1  0.12027079  0.13515828  0.87200301  1
  O  O421  1  0.13318684  0.63498006  0.37640776  1
  O  O422  1  0.11612287  0.63732221  0.86916431  1
  O  O423  1  0.63409158  0.13095847  0.38102224  1
  O  O424  1  0.62770926  0.13349678  0.88931403  1
  O  O425  1  0.63186057  0.63073942  0.38045284  1
  O  O426  1  0.62307068  0.63709881  0.87681029  1
