# generated using pymatgen
data_V85Zn86O256
_symmetry_space_group_name_H-M   'P 1'
_cell_length_a   16.93445553
_cell_length_b   16.95074556
_cell_length_c   16.94951197
_cell_angle_alpha   89.92534203
_cell_angle_beta   90.06776929
_cell_angle_gamma   90.06814833
_symmetry_Int_Tables_number   1
_chemical_formula_structural   V85Zn86O256
_chemical_formula_sum   'V85 Zn86 O256'
_cell_volume   4865.37435951
_cell_formula_units_Z   1
loop_
 _symmetry_equiv_pos_site_id
 _symmetry_equiv_pos_as_xyz
  1  'x, y, z'
loop_
 _atom_site_type_symbol
 _atom_site_label
 _atom_site_symmetry_multiplicity
 _atom_site_fract_x
 _atom_site_fract_y
 _atom_site_fract_z
 _atom_site_occupancy
  V  V0  1  0.60903117  0.25888428  0.36476483  1
  V  V1  1  0.87525417  0.00246848  0.37387268  1
  V  V2  1  -0.00536989  0.37515507  0.38009554  1
  V  V3  1  0.50671833  0.01218499  0.50690878  1
  V  V4  1  -0.00226738  0.75012094  0.25106693  1
  V  V5  1  0.74821517  0.87923024  0.62452848  1
  V  V6  1  0.74599038  0.49635656  0.74472836  1
  V  V7  1  0.49694203  0.38600410  0.87257874  1
  V  V8  1  0.62322603  0.87394523  0.24934721  1
  V  V9  1  0.73596021  0.50011008  0.24727835  1
  V  V10  1  -0.00321093  0.12664347  0.62657796  1
  V  V11  1  0.38665016  0.24576912  0.62237314  1
  V  V12  1  0.12384384  0.37489912  0.25369526  1
  V  V13  1  0.87793838  0.12377196  0.24455865  1
  V  V14  1  0.24816452  0.37284182  0.62578571  1
  V  V15  1  0.87146216  0.88001437  -0.00390172  1
  V  V16  1  0.87518442  0.75010130  0.62365913  1
  V  V17  1  0.50678626  0.24669579  0.75265751  1
  V  V18  1  -0.00440812  0.00699936  0.00081605  1
  V  V19  1  0.24325295  0.13243274  0.87182760  1
  V  V20  1  0.00014576  0.00132278  0.50027119  1
  V  V21  1  0.51413986  0.61928162  0.61468962  1
  V  V22  1  0.87082805  0.49827551  0.37686453  1
  V  V23  1  0.48290291  0.12318451  0.13547107  1
  V  V24  1  0.87517820  0.62429836  0.75165366  1
  V  V25  1  0.86775809  0.37332763  0.00136630  1
  V  V26  1  0.87879677  0.26171334  0.62156497  1
  V  V27  1  0.25548353  0.00350007  0.24448973  1
  V  V28  1  0.01644355  0.37622213  0.87701068  1
  V  V29  1  0.49792293  0.87362193  0.87485255  1
  V  V30  1  0.00000330  0.87559523  0.37537875  1
  V  V31  1  0.75853217  0.12659553  0.88117666  1
  V  V32  1  0.87212855  0.24965584  0.12185900  1
  V  V33  1  0.12154478  0.50410971  0.12594771  1
  V  V34  1  0.25480734  0.74888071  0.50754132  1
  V  V35  1  0.73999491  0.37591430  0.61911112  1
  V  V36  1  0.62192931  0.00196909  0.12524170  1
  V  V37  1  0.62480199  0.74521939  0.37539051  1
  V  V38  1  0.87345803  0.49484441  0.87631294  1
  V  V39  1  0.42347669  0.29708490  0.18182336  1
  V  V40  1  0.24988671  0.49293096  0.75094710  1
  V  V41  1  0.38108857  0.12427798  0.74837761  1
  V  V42  1  0.00619434  0.62522881  0.62475518  1
  V  V43  1  0.12198090  0.13545393  -0.00070109  1
  V  V44  1  0.73631424  0.37394212  0.12771916  1
  V  V45  1  0.01154453  0.25555026  0.75616819  1
  V  V46  1  0.50510310  0.63790605  0.13024489  1
  V  V47  1  0.37000659  0.85661183  0.00174070  1
  V  V48  1  0.62378114  0.87781656  0.74748059  1
  V  V49  1  0.37678901  0.00345341  0.37363016  1
  V  V50  1  0.74558793  0.74561937  0.49632036  1
  V  V51  1  0.12322986  0.49495091  0.62844406  1
  V  V52  1  0.37922596  0.60781201  0.74353821  1
  V  V53  1  0.25634595  0.25504121  -0.00468617  1
  V  V54  1  0.74798724  0.87565862  0.12324398  1
  V  V55  1  -0.00049779  0.62649723  0.12256617  1
  V  V56  1  0.62446324  0.13326155  0.00046676  1
  V  V57  1  0.24958318  0.85889426  0.12057462  1
  V  V58  1  0.49941428  0.87623833  0.37814373  1
  V  V59  1  0.74921049  0.24608184  0.49660887  1
  V  V60  1  0.86840583  0.62384866  0.25323214  1
  V  V61  1  0.12372436  0.87784941  0.24895444  1
  V  V62  1  0.00047537  0.24765114  0.24428652  1
  V  V63  1  0.25233764  0.50696989  0.25138502  1
  V  V64  1  0.50721409  0.51130390  0.01211016  1
  V  V65  1  -0.00045672  0.75146089  0.75437107  1
  V  V66  1  0.38788869  0.37784686  0.49798146  1
  V  V67  1  0.62352082  0.74650653  0.87534501  1
  V  V68  1  0.25552894  0.87337819  0.62723414  1
  V  V69  1  0.74311541  0.12541813  0.37611696  1
  V  V70  1  0.49313963  0.00201912  -0.00070018  1
  V  V71  1  -0.00107554  0.88104083  0.87633062  1
  V  V72  1  0.12447934  0.74893875  0.37495845  1
  V  V73  1  0.38207866  0.50034850  0.37968676  1
  V  V74  1  0.48979663  0.74958997  0.73986351  1
  V  V75  1  0.25013195  0.24934818  0.50029671  1
  V  V76  1  0.24910221  0.00257859  0.75087424  1
  V  V77  1  0.74604182  0.74437388  0.00104957  1
  V  V78  1  0.74847454  0.62364309  0.87759697  1
  V  V79  1  0.87525279  0.87520644  0.49918445  1
  V  V80  1  0.12494430  0.00025010  0.62618153  1
  V  V81  1  0.12402529  0.00653080  0.12212242  1
  V  V82  1  0.24749933  0.37076271  0.12516387  1
  V  V83  1  0.24922585  0.12401904  0.37201086  1
  V  V84  1  0.25555547  0.62722343  0.37390569  1
  Zn  Zn85  1  0.62624520  0.01534323  0.62616801  1
  Zn  Zn86  1  0.37061350  -0.00066056  0.87549989  1
  Zn  Zn87  1  0.75100384  0.00014832  0.24886580  1
  Zn  Zn88  1  0.87251743  0.75019356  0.12551380  1
  Zn  Zn89  1  0.37789277  0.87510120  0.50578040  1
  Zn  Zn90  1  0.62948577  0.25290971  0.87831428  1
  Zn  Zn91  1  0.12916212  0.74812631  0.88545317  1
  Zn  Zn92  1  0.12276916  0.24833592  0.37601214  1
  Zn  Zn93  1  0.62438253  0.37687037  0.74738768  1
  Zn  Zn94  1  0.52866853  0.49434600  0.49969824  1
  Zn  Zn95  1  0.37641732  0.37805813  -0.00691878  1
  Zn  Zn96  1  0.75856046  -0.00214357  0.76191745  1
  Zn  Zn97  1  0.12429799  0.62297444  0.49990552  1
  Zn  Zn98  1  0.14981795  0.64279759  0.01204992  1
  Zn  Zn99  1  -0.00374927  0.49701334  0.50103603  1
  Zn  Zn100  1  0.48224731  0.75007655  0.25221732  1
  Zn  Zn101  1  -0.00399630  0.50345946  0.00058358  1
  Zn  Zn102  1  0.25349582  0.62657064  0.87603547  1
  Zn  Zn103  1  0.69288231  0.57869766  0.43073778  1
  Zn  Zn104  1  0.12495655  0.12612521  0.49945899  1
  Zn  Zn105  1  0.87814831  0.12203070  0.75747998  1
  Zn  Zn106  1  0.12531312  0.87602049  0.75365530  1
  Zn  Zn107  1  0.19126439  0.18816804  0.18612426  1
  Zn  Zn108  1  0.18759458  0.18816539  0.68495506  1
  Zn  Zn109  1  0.32035564  0.68447526  0.18764551  1
  Zn  Zn110  1  0.20306971  0.70169932  0.71594539  1
  Zn  Zn111  1  0.68824941  0.18621531  0.18665471  1
  Zn  Zn112  1  0.69615841  0.18601303  0.69309697  1
  Zn  Zn113  1  0.68246975  0.68653561  0.18773488  1
  Zn  Zn114  1  0.68716256  0.69049221  0.68932768  1
  Zn  Zn115  1  0.30927203  0.31751588  0.31854167  1
  Zn  Zn116  1  0.31493517  0.31178552  0.81027453  1
  Zn  Zn117  1  0.30750717  0.82140898  0.31880056  1
  Zn  Zn118  1  0.31290621  0.81236027  0.81433652  1
  Zn  Zn119  1  0.81022148  0.31340060  0.30895658  1
  Zn  Zn120  1  0.81373080  0.30632235  0.80998801  1
  Zn  Zn121  1  0.81020831  0.81270109  0.31209087  1
  Zn  Zn122  1  0.81315615  0.81517016  0.81401742  1
  Zn  Zn123  1  0.18769591  0.43919575  0.44199464  1
  Zn  Zn124  1  0.19832239  0.46569377  0.95023434  1
  Zn  Zn125  1  0.18805347  0.93748651  0.44040803  1
  Zn  Zn126  1  0.18512707  0.93706160  0.93778813  1
  Zn  Zn127  1  0.68672076  0.41469287  0.43551511  1
  Zn  Zn128  1  0.68374068  0.43419480  0.93684973  1
  Zn  Zn129  1  0.68680135  0.93770941  0.43719183  1
  Zn  Zn130  1  0.68325828  0.94112892  0.93784528  1
  Zn  Zn131  1  0.30827064  0.06057098  0.05730964  1
  Zn  Zn132  1  0.31635502  0.06221708  0.56128986  1
  Zn  Zn133  1  0.32474020  0.55788148  0.05584220  1
  Zn  Zn134  1  0.31610601  0.56541014  0.56652381  1
  Zn  Zn135  1  0.80978301  0.06406219  0.06114689  1
  Zn  Zn136  1  0.81264365  0.06468845  0.56549514  1
  Zn  Zn137  1  0.80923523  0.56073969  0.06631677  1
  Zn  Zn138  1  0.81613158  0.56009589  0.56443622  1
  Zn  Zn139  1  0.43448103  0.46153911  0.18557479  1
  Zn  Zn140  1  0.44518472  0.43344116  0.67793440  1
  Zn  Zn141  1  0.43355437  0.93133580  0.18645716  1
  Zn  Zn142  1  0.43770954  0.94041554  0.68724583  1
  Zn  Zn143  1  0.93328850  0.43734953  0.19113558  1
  Zn  Zn144  1  0.93877951  0.43709330  0.69307160  1
  Zn  Zn145  1  0.93768258  0.93879818  0.18181724  1
  Zn  Zn146  1  0.93364503  0.93978340  0.68992808  1
  Zn  Zn147  1  0.06304570  0.06452610  0.31023499  1
  Zn  Zn148  1  0.06040207  0.06418435  0.81444314  1
  Zn  Zn149  1  0.06157539  0.56409460  0.31140617  1
  Zn  Zn150  1  0.06769680  0.56395292  0.81631143  1
  Zn  Zn151  1  0.56215794  0.06393988  0.31111390  1
  Zn  Zn152  1  0.56642087  0.06162357  0.81584709  1
  Zn  Zn153  1  0.55558218  0.56325129  0.30614996  1
  Zn  Zn154  1  0.56490875  0.56453688  0.80810215  1
  Zn  Zn155  1  0.43154488  0.18695355  0.43095042  1
  Zn  Zn156  1  0.43612222  0.18849152  0.93403684  1
  Zn  Zn157  1  0.43656049  0.68879889  0.44034744  1
  Zn  Zn158  1  0.43788408  0.67890746  0.93027950  1
  Zn  Zn159  1  0.93551005  0.18849390  0.43646065  1
  Zn  Zn160  1  0.93944159  0.19362206  0.93956309  1
  Zn  Zn161  1  0.93440748  0.68379486  0.43828136  1
  Zn  Zn162  1  0.93478220  0.69032282  0.93887552  1
  Zn  Zn163  1  0.05948929  0.31595397  0.06176498  1
  Zn  Zn164  1  0.06490001  0.31296638  0.56176101  1
  Zn  Zn165  1  0.06288059  0.81227051  0.06258276  1
  Zn  Zn166  1  0.06649836  0.81230992  0.56414640  1
  Zn  Zn167  1  0.55897457  0.31363113  0.05850550  1
  Zn  Zn168  1  0.57069054  0.19077026  0.55645085  1
  Zn  Zn169  1  0.56070761  0.81018345  0.06072692  1
  Zn  Zn170  1  0.56273814  0.81201318  0.56168788  1
  O  O171  1  0.13222452  0.11426741  0.11584016  1
  O  O172  1  0.11406410  0.11946219  0.62348257  1
  O  O173  1  0.11390649  0.61499124  0.12433267  1
  O  O174  1  0.11179094  0.62058913  0.62795123  1
  O  O175  1  0.61734401  0.11880861  0.11919329  1
  O  O176  1  0.63601127  0.12714430  0.62053720  1
  O  O177  1  0.60633052  0.63198110  0.12302707  1
  O  O178  1  0.61314244  0.62755791  0.62945889  1
  O  O179  1  0.36644407  0.38701660  0.38694700  1
  O  O180  1  0.39256587  0.36926357  0.87267349  1
  O  O181  1  0.38159847  0.88830812  0.38108066  1
  O  O182  1  0.37852403  0.87602955  0.88505227  1
  O  O183  1  0.88368631  0.38465414  0.36540867  1
  O  O184  1  0.87373308  0.37971962  0.88362445  1
  O  O185  1  0.88067994  0.88223120  0.37839607  1
  O  O186  1  0.88088479  0.87374765  0.88835293  1
  O  O187  1  0.25574840  0.00393019  0.36911598  1
  O  O188  1  0.24894466  0.00813814  0.86696947  1
  O  O189  1  0.25048849  0.50969053  0.37013955  1
  O  O190  1  0.25066106  0.48969139  0.85168550  1
  O  O191  1  0.75863139  0.00560283  0.37433188  1
  O  O192  1  0.74145187  0.01749546  0.87798041  1
  O  O193  1  0.75511368  0.49696693  0.36201439  1
  O  O194  1  0.75819976  0.50241215  0.87054997  1
  O  O195  1  0.24279000  0.48967792  0.13459941  1
  O  O196  1  0.24307489  0.49022709  0.62674387  1
  O  O197  1  0.24418203  0.99501655  0.13026967  1
  O  O198  1  0.24184990  0.99782231  0.62938823  1
  O  O199  1  0.75101999  0.48858641  0.13624174  1
  O  O200  1  0.76366882  0.48703586  0.63334922  1
  O  O201  1  0.74008245  0.99304158  0.12482665  1
  O  O202  1  0.74855346  0.98673955  0.62172947  1
  O  O203  1  0.00672959  0.36908587  0.25737180  1
  O  O204  1  -0.00248957  0.36440888  0.76150169  1
  O  O205  1  0.00332818  0.87106346  0.25451087  1
  O  O206  1  -0.00380429  0.87004987  0.76075178  1
  O  O207  1  0.47750625  0.36105064  0.23469019  1
  O  O208  1  0.50223542  0.36650347  0.75482511  1
  O  O209  1  0.50565375  0.87612236  0.26165957  1
  O  O210  1  0.50479462  0.86875707  0.75184822  1
  O  O211  1  0.49711014  0.11901220  0.23413331  1
  O  O212  1  0.48898414  0.12947355  0.75863416  1
  O  O213  1  0.49695394  0.63114613  0.23649217  1
  O  O214  1  0.49479357  0.62966759  0.74087312  1
  O  O215  1  0.98919420  0.13398811  0.25352450  1
  O  O216  1  1.00050371  0.13717435  0.74543410  1
  O  O217  1  0.99302901  0.63164230  0.24272172  1
  O  O218  1  0.99360089  0.63231709  0.74630695  1
  O  O219  1  0.36014982  0.25260186  -0.00231056  1
  O  O220  1  0.36772984  0.25460340  0.50451998  1
  O  O221  1  0.37469441  0.75824631  -0.00810948  1
  O  O222  1  0.35860356  0.75527181  0.49641718  1
  O  O223  1  0.87781404  0.25686132  0.01422830  1
  O  O224  1  0.87410299  0.24632164  0.51586471  1
  O  O225  1  0.86260734  0.75979824  0.00195733  1
  O  O226  1  0.86929311  0.75762673  0.50289923  1
  O  O227  1  0.13753278  0.24775411  0.49816042  1
  O  O228  1  0.12930181  0.23974311  1.00610652  1
  O  O229  1  0.13186794  0.75050553  0.48945473  1
  O  O230  1  0.13067669  0.75281645  1.00004443  1
  O  O231  1  0.63843876  0.24545157  0.48008578  1
  O  O232  1  0.61990510  0.23589267  1.00175863  1
  O  O233  1  0.63417479  0.75645967  0.48923117  1
  O  O234  1  0.63546024  0.75900992  0.98813551  1
  O  O235  1  0.49070605  0.23908397  0.12197103  1
  O  O236  1  0.49080070  0.24593996  0.62847618  1
  O  O237  1  0.49665149  0.74256924  0.12617153  1
  O  O238  1  0.50535719  0.74036244  0.63100684  1
  O  O239  1  0.99181183  0.25685141  0.13784899  1
  O  O240  1  0.99523830  0.24703022  0.63046377  1
  O  O241  1  0.99690395  0.74488402  0.13469554  1
  O  O242  1  0.99311306  0.74447892  0.62909403  1
  O  O243  1  0.00015532  0.25631585  0.36413141  1
  O  O244  1  -0.00080016  0.25869818  0.86373254  1
  O  O245  1  0.00495457  0.75451084  0.37266753  1
  O  O246  1  -0.00305431  0.75987451  0.86851298  1
  O  O247  1  0.50953552  0.24201164  0.37369848  1
  O  O248  1  0.50271387  0.25649150  0.86616113  1
  O  O249  1  0.50553785  0.76018275  0.37649179  1
  O  O250  1  0.50741936  0.75372047  0.86673121  1
  O  O251  1  0.25032520  0.13212748  0.49274051  1
  O  O252  1  0.24383347  0.13471790  0.99184476  1
  O  O253  1  0.24588164  0.63338038  0.49673158  1
  O  O254  1  0.24317253  0.58049622  0.98437833  1
  O  O255  1  0.76265757  0.13537452  0.48933942  1
  O  O256  1  0.73787516  0.12205697  0.99315720  1
  O  O257  1  0.75886325  0.64106280  0.50318499  1
  O  O258  1  0.75517001  0.63605383  0.99488227  1
  O  O259  1  0.25236427  0.37338990  0.00736092  1
  O  O260  1  0.25453487  0.36587833  0.50834312  1
  O  O261  1  0.26255712  0.87951679  0.00544368  1
  O  O262  1  0.24979108  0.86869935  0.50961954  1
  O  O263  1  0.75856060  0.38146955  0.01286985  1
  O  O264  1  0.75701200  0.35701539  0.50687368  1
  O  O265  1  0.75440254  0.87152944  0.00318281  1
  O  O266  1  0.75465289  0.86810278  0.50637631  1
  O  O267  1  0.13133577  0.49388822  0.24534068  1
  O  O268  1  0.13295813  0.50375574  0.73625772  1
  O  O269  1  0.12844692  0.99711904  0.24059617  1
  O  O270  1  0.12762060  1.00146098  0.73936666  1
  O  O271  1  0.63726347  0.50218793  0.25456741  1
  O  O272  1  0.64269379  0.49970712  0.75281725  1
  O  O273  1  0.62546222  0.98923755  0.24484905  1
  O  O274  1  0.62498334  0.98717044  0.74742846  1
  O  O275  1  0.36553127  -0.00693289  0.25889909  1
  O  O276  1  0.36982949  0.00896121  0.75175099  1
  O  O277  1  0.36004730  0.49558558  0.26329261  1
  O  O278  1  0.37164926  0.50293176  0.73954027  1
  O  O279  1  0.87661229  0.00798947  0.25257544  1
  O  O280  1  0.87157729  0.00855681  0.74797797  1
  O  O281  1  0.86679084  0.50725420  0.25724740  1
  O  O282  1  0.86779559  0.50379537  0.75907846  1
  O  O283  1  0.12079733  0.37515199  0.36520159  1
  O  O284  1  0.11299025  0.39033074  0.88846417  1
  O  O285  1  0.11866826  0.87158521  0.37191651  1
  O  O286  1  0.11271892  0.87311625  0.87321788  1
  O  O287  1  0.62069599  0.35861476  0.36419219  1
  O  O288  1  0.61477940  0.36981599  0.86870221  1
  O  O289  1  0.61761209  0.87132470  0.36763635  1
  O  O290  1  0.61826049  0.86788925  0.86805897  1
  O  O291  1  0.38407054  0.11840358  0.12264462  1
  O  O292  1  0.36744019  0.13373515  0.63694546  1
  O  O293  1  0.38811785  0.61750486  0.12567614  1
  O  O294  1  0.38761753  0.62560949  0.63698258  1
  O  O295  1  0.86781415  0.13505213  0.13333704  1
  O  O296  1  0.88832473  0.13294966  0.62515005  1
  O  O297  1  0.87958846  0.62585971  0.13711908  1
  O  O298  1  0.88539616  0.62977885  0.63174320  1
  O  O299  1  0.24210292  0.26444082  0.11580436  1
  O  O300  1  0.25745066  0.25398188  0.61785897  1
  O  O301  1  0.24584247  0.76076212  0.13181305  1
  O  O302  1  0.23976750  0.76143542  0.62043672  1
  O  O303  1  0.75845536  0.26455340  0.13330693  1
  O  O304  1  0.76366638  0.25589539  0.62111818  1
  O  O305  1  0.74736111  0.75662459  0.11659814  1
  O  O306  1  0.75442563  0.76037968  0.61960051  1
  O  O307  1  0.24871115  0.24072372  0.38249652  1
  O  O308  1  0.24863756  0.24501902  0.88029702  1
  O  O309  1  0.24133263  0.74558468  0.38324644  1
  O  O310  1  0.23420629  0.73568474  0.83142295  1
  O  O311  1  0.75482750  0.24224791  0.38112935  1
  O  O312  1  0.74608928  0.23588734  0.87299913  1
  O  O313  1  0.73954787  0.75742877  0.38444427  1
  O  O314  1  0.74358163  0.74611701  0.88044655  1
  O  O315  1  0.00872158  0.11838286  -0.00643036  1
  O  O316  1  0.00215796  0.12000071  0.50748812  1
  O  O317  1  -0.01013991  0.62502260  0.01663781  1
  O  O318  1  0.00177484  0.62302348  0.51038288  1
  O  O319  1  0.50212763  0.11788103  0.00575950  1
  O  O320  1  0.49666270  0.11581966  0.49899856  1
  O  O321  1  0.49786887  0.61790911  0.00681345  1
  O  O322  1  0.49995630  0.62543347  0.51203391  1
  O  O323  1  0.48674026  0.38094853  0.50361589  1
  O  O324  1  0.50037158  0.37912323  0.98580172  1
  O  O325  1  0.49938032  0.88270085  0.48986797  1
  O  O326  1  0.48725164  0.87984302  0.99737290  1
  O  O327  1  1.00507318  0.37463664  0.48398887  1
  O  O328  1  0.98575617  0.37510195  0.99268517  1
  O  O329  1  0.99585929  0.88089053  0.49576302  1
  O  O330  1  0.99088418  0.88217260  0.99470586  1
  O  O331  1  0.48551380  0.50950436  0.38029087  1
  O  O332  1  0.50223326  0.48741630  0.86669800  1
  O  O333  1  0.49414573  0.99758752  0.38182077  1
  O  O334  1  0.49781450  0.99161778  0.88321728  1
  O  O335  1  0.99284261  0.49224118  0.37275716  1
  O  O336  1  0.98724012  0.49319600  0.87354617  1
  O  O337  1  0.99562240  0.99642442  0.38016481  1
  O  O338  1  1.00432324  0.99118159  0.88677688  1
  O  O339  1  0.01084650  -0.00347739  0.11164037  1
  O  O340  1  0.00624742  0.00774624  0.62178819  1
  O  O341  1  0.00433813  0.50879213  0.13232839  1
  O  O342  1  0.00463840  0.50526674  0.62573907  1
  O  O343  1  0.50046709  0.00724076  0.11959133  1
  O  O344  1  0.50231089  -0.00324870  0.60978120  1
  O  O345  1  0.50909004  0.51052036  0.11800126  1
  O  O346  1  0.50318224  0.51314629  0.61897209  1
  O  O347  1  0.24003220  0.38095005  0.24548584  1
  O  O348  1  0.25770354  0.37634774  0.73320410  1
  O  O349  1  0.24098153  0.88727917  0.24335723  1
  O  O350  1  0.24794692  0.88589159  0.74402283  1
  O  O351  1  0.75349689  0.38691559  0.23739560  1
  O  O352  1  0.75244595  0.38058090  0.74157291  1
  O  O353  1  0.74206006  0.87720335  0.24171355  1
  O  O354  1  0.74242959  0.87575942  0.74320393  1
  O  O355  1  0.24395950  0.11200144  0.25622811  1
  O  O356  1  0.25437580  0.12284273  0.75536531  1
  O  O357  1  0.24929221  0.61598270  0.25895763  1
  O  O358  1  0.26599423  0.60753823  0.73655528  1
  O  O359  1  0.76269171  0.12224937  0.25675499  1
  O  O360  1  0.75422554  0.12185138  0.76747385  1
  O  O361  1  0.75522247  0.61209015  0.24214214  1
  O  O362  1  0.75722453  0.61943321  0.75452742  1
  O  O363  1  0.36210983  0.11311364  0.37611571  1
  O  O364  1  0.36207280  0.12513369  0.86595136  1
  O  O365  1  0.36141966  0.61921208  0.38342361  1
  O  O366  1  0.37453441  0.62804629  0.84933924  1
  O  O367  1  0.87059710  0.11904195  0.36636409  1
  O  O368  1  0.86221831  0.12944604  0.88339048  1
  O  O369  1  0.87875388  0.61816169  0.36050068  1
  O  O370  1  0.86957579  0.61684071  0.87127324  1
  O  O371  1  0.12763944  0.37972188  0.13692731  1
  O  O372  1  0.13441175  0.38213378  0.62156477  1
  O  O373  1  0.13218550  0.88650841  0.12791306  1
  O  O374  1  0.13187922  0.88582139  0.62796882  1
  O  O375  1  0.63776605  0.36824126  0.12174061  1
  O  O376  1  0.64144241  0.37070168  0.62738967  1
  O  O377  1  0.62567299  0.88024959  0.13150576  1
  O  O378  1  0.63282786  0.87580312  0.63216273  1
  O  O379  1  0.11836330  0.25658538  0.25098048  1
  O  O380  1  0.11005367  0.25081985  0.74319385  1
  O  O381  1  0.11696683  0.76066302  0.26651256  1
  O  O382  1  0.10381922  0.75593120  0.74269719  1
  O  O383  1  0.62929937  0.23786143  0.26716588  1
  O  O384  1  0.61259107  0.24824815  0.74838430  1
  O  O385  1  0.62349191  0.76346342  0.25636706  1
  O  O386  1  0.61935484  0.76154849  0.75599316  1
  O  O387  1  0.36055450  0.24819698  0.24222115  1
  O  O388  1  0.38567312  0.24355747  0.74145779  1
  O  O389  1  0.37005053  0.75912828  0.25363754  1
  O  O390  1  0.38861103  0.74926585  0.74727734  1
  O  O391  1  0.88145555  0.24448333  0.24187820  1
  O  O392  1  0.88556146  0.24493266  0.73702734  1
  O  O393  1  0.87803034  0.74266735  0.24980269  1
  O  O394  1  0.88200122  0.74697434  0.74490894  1
  O  O395  1  0.36700924  0.49096988  0.49346173  1
  O  O396  1  0.40076432  0.49205931  0.99772566  1
  O  O397  1  0.38684051  0.99918500  0.49326036  1
  O  O398  1  0.38411669  0.99662776  0.99663752  1
  O  O399  1  0.87575116  0.50649616  0.48169871  1
  O  O400  1  0.87513935  0.49275003  0.99357739  1
  O  O401  1  0.88130496  0.99443836  0.49558878  1
  O  O402  1  0.88473109  0.99381894  1.00696747  1
  O  O403  1  0.12009295  0.00999556  0.00558747  1
  O  O404  1  0.11989114  0.00181438  0.51137411  1
  O  O405  1  0.11121914  0.48979434  0.02168727  1
  O  O406  1  0.12153324  0.50319557  0.51336023  1
  O  O407  1  0.60923169  0.00387624  0.00675036  1
  O  O408  1  0.60931526  -0.00267938  0.49900394  1
  O  O409  1  0.60490505  0.49913288  -0.01212452  1
  O  O410  1  0.64036452  0.50009744  0.48971574  1
  O  O411  1  0.36740503  0.37170933  0.12504827  1
  O  O412  1  0.37005869  0.36397509  0.61685425  1
  O  O413  1  0.36621557  0.87616313  0.10949695  1
  O  O414  1  0.35998280  0.88223492  0.62420491  1
  O  O415  1  0.86962480  0.36957803  0.11888992  1
  O  O416  1  0.87639055  0.36366380  0.62679197  1
  O  O417  1  0.86761685  0.87343858  0.11416756  1
  O  O418  1  0.86917228  0.86869094  0.61903330  1
  O  O419  1  0.13661465  0.12427205  0.37750819  1
  O  O420  1  0.13574636  0.12240446  0.88302379  1
  O  O421  1  0.13336772  0.63344795  0.37556387  1
  O  O422  1  0.12802437  0.62663577  0.88542870  1
  O  O423  1  0.64104929  0.12101469  0.37207416  1
  O  O424  1  0.62931116  0.12854097  0.88574341  1
  O  O425  1  0.62129533  0.64100411  0.36516132  1
  O  O426  1  0.63154690  0.63929380  0.86725993  1
