# generated using pymatgen
data_V85Zn86O256
_symmetry_space_group_name_H-M   'P 1'
_cell_length_a   16.92297540
_cell_length_b   16.92254282
_cell_length_c   16.92013547
_cell_angle_alpha   89.95089351
_cell_angle_beta   90.02261274
_cell_angle_gamma   89.99320661
_symmetry_Int_Tables_number   1
_chemical_formula_structural   V85Zn86O256
_chemical_formula_sum   'V85 Zn86 O256'
_cell_volume   4845.58240976
_cell_formula_units_Z   1
loop_
 _symmetry_equiv_pos_site_id
 _symmetry_equiv_pos_as_xyz
  1  'x, y, z'
loop_
 _atom_site_type_symbol
 _atom_site_label
 _atom_site_symmetry_multiplicity
 _atom_site_fract_x
 _atom_site_fract_y
 _atom_site_fract_z
 _atom_site_occupancy
  V  V0  1  0.62504617  0.75121537  0.87732029  1
  V  V1  1  0.12361778  0.37339271  0.75415309  1
  V  V2  1  0.87412281  0.12989523  0.24774375  1
  V  V3  1  0.62600265  0.00261146  0.11942049  1
  V  V4  1  0.87441943  0.74982008  0.62390155  1
  V  V5  1  0.37484814  0.24342670  0.62660155  1
  V  V6  1  0.49447995  0.74309139  0.74971640  1
  V  V7  1  0.12838108  0.86688912  0.74933652  1
  V  V8  1  0.24748765  0.24614787  0.49934095  1
  V  V9  1  0.62631628  0.25074577  0.38330105  1
  V  V10  1  0.62528330  -0.00078698  0.62278335  1
  V  V11  1  -0.00066294  0.87375555  0.87674463  1
  V  V12  1  0.25886919  0.87805718  0.62702600  1
  V  V13  1  0.87559121  0.51159790  0.37675554  1
  V  V14  1  0.12522988  0.62426303  0.49790731  1
  V  V15  1  0.74850633  0.00155378  0.25198251  1
  V  V16  1  0.75404618  0.49621785  0.74678913  1
  V  V17  1  0.86970478  0.12853604  0.74851349  1
  V  V18  1  0.50380879  0.37979636  0.88090452  1
  V  V19  1  0.49508742  0.37879071  0.37364683  1
  V  V20  1  0.50093822  0.61627136  0.11888440  1
  V  V21  1  0.37103976  0.74818928  0.11814091  1
  V  V22  1  0.50178533  0.12468451  0.12147598  1
  V  V23  1  0.75942070  0.87330040  0.12667324  1
  V  V24  1  0.10902545  0.37947280  0.25406113  1
  V  V25  1  0.62819638  0.37212284  0.75084331  1
  V  V26  1  0.00189144  0.88545069  0.38089845  1
  V  V27  1  0.23908101  0.24201269  -0.01642557  1
  V  V28  1  0.87539293  0.62179057  0.74898982  1
  V  V29  1  0.00064869  0.51317672  0.00090600  1
  V  V30  1  0.49934060  0.74950636  0.24828208  1
  V  V31  1  0.25231145  0.49516216  0.24950376  1
  V  V32  1  0.49851688  0.25071510  0.25052734  1
  V  V33  1  0.12609895  0.75272597  0.37321030  1
  V  V34  1  0.74812562  0.12539759  0.88997065  1
  V  V35  1  0.36566180  0.12078607  0.24910601  1
  V  V36  1  0.75119953  0.62225378  0.87515692  1
  V  V37  1  0.37066292  0.25170045  0.12215795  1
  V  V38  1  0.13340841  0.01048117  0.12493288  1
  V  V39  1  0.49529235  0.87351572  0.38015666  1
  V  V40  1  0.49455719  0.50142221  0.49707976  1
  V  V41  1  0.62572838  0.50093278  0.62107902  1
  V  V42  1  0.62356451  0.87539935  0.24936665  1
  V  V43  1  0.36816074  -0.00317404  0.37322859  1
  V  V44  1  0.74875327  0.12785173  0.38146078  1
  V  V45  1  0.87819682  0.88271133  0.50292610  1
  V  V46  1  0.12030584  0.12078249  0.49860838  1
  V  V47  1  0.25982032  0.75553528  0.49998657  1
  V  V48  1  0.00069589  0.62045361  0.62172240  1
  V  V49  1  0.11856103  -0.00300712  0.62297249  1
  V  V50  1  0.62462578  0.61385212  -0.00100452  1
  V  V51  1  0.50144035  0.25114730  0.75194121  1
  V  V52  1  -0.00691355  0.12639962  0.62079598  1
  V  V53  1  0.12701785  0.74300886  0.89053952  1
  V  V54  1  -0.00743811  0.75479926  0.24524474  1
  V  V55  1  0.75137257  0.74488791  0.49700241  1
  V  V56  1  0.49718122  0.00126580  -0.00532501  1
  V  V57  1  -0.00377937  0.36727103  0.88697356  1
  V  V58  1  0.37197835  0.87680107  -0.00508861  1
  V  V59  1  0.75599903  0.74782041  0.00584850  1
  V  V60  1  0.00413046  0.00591547  0.00133990  1
  V  V61  1  0.75444556  0.36188193  0.61465621  1
  V  V62  1  0.49260574  -0.00033372  0.50033558  1
  V  V63  1  0.00148871  0.13534685  0.12122787  1
  V  V64  1  0.62643990  0.87518009  0.75136720  1
  V  V65  1  0.25445278  0.61979981  0.37523450  1
  V  V66  1  0.74913146  0.51088862  0.24885962  1
  V  V67  1  0.37383157  0.38006569  -0.00212926  1
  V  V68  1  0.24809919  0.62570905  0.89051925  1
  V  V69  1  0.13048493  0.88334856  0.25086626  1
  V  V70  1  0.37882999  0.50496755  0.87059010  1
  V  V71  1  0.00091073  0.74559400  0.75092312  1
  V  V72  1  0.25045158  0.51005815  0.74814814  1
  V  V73  1  0.85056929  0.26330471  0.10924700  1
  V  V74  1  0.38262043  0.11316418  0.76724167  1
  V  V75  1  0.87933877  0.35995609  0.49260471  1
  V  V76  1  0.37592320  0.62053125  0.25191224  1
  V  V77  1  0.37402936  0.37519084  0.49908730  1
  V  V78  1  0.62914757  0.24787960  0.89079352  1
  V  V79  1  0.24807385  0.37357811  0.62703950  1
  V  V80  1  0.62797762  0.74360041  0.37453209  1
  V  V81  1  0.25053169  0.87426725  0.12496714  1
  V  V82  1  0.22438421  0.03130538  0.77277002  1
  V  V83  1  0.63555503  0.37325707  0.24691292  1
  V  V84  1  -0.00106780  0.25095383  0.74797810  1
  Zn  Zn85  1  0.24529797  0.12201753  0.37175764  1
  Zn  Zn86  1  0.12778485  0.50975250  0.11801758  1
  Zn  Zn87  1  0.87943650  0.87291068  0.00508105  1
  Zn  Zn88  1  0.87356613  0.00017803  0.87690190  1
  Zn  Zn89  1  0.75102656  0.87456355  0.62572967  1
  Zn  Zn90  1  0.12394844  0.49741206  0.62251143  1
  Zn  Zn91  1  0.86839433  0.63566390  0.24649074  1
  Zn  Zn92  1  0.63115903  0.49124459  0.11788743  1
  Zn  Zn93  1  0.11575371  0.25627340  0.37659848  1
  Zn  Zn94  1  0.37460322  0.74620721  0.62716234  1
  Zn  Zn95  1  0.87018704  0.49066761  0.88484356  1
  Zn  Zn96  1  0.00245179  0.49173331  0.49027869  1
  Zn  Zn97  1  0.50243078  0.12509576  0.62302141  1
  Zn  Zn98  1  -0.00083438  0.63392757  0.12164799  1
  Zn  Zn99  1  0.62645116  0.12637524  0.50196803  1
  Zn  Zn100  1  0.24675872  0.37759344  0.12094771  1
  Zn  Zn101  1  0.75069661  0.00067236  0.75144777  1
  Zn  Zn102  1  0.49642557  0.87869260  0.87515827  1
  Zn  Zn103  1  -0.00899113  0.25713622  0.25229056  1
  Zn  Zn104  1  0.87712029  0.00454816  0.37900457  1
  Zn  Zn105  1  0.62664479  0.62294007  0.49687273  1
  Zn  Zn106  1  0.49191422  0.61940077  0.62804660  1
  Zn  Zn107  1  0.18628881  0.19548169  0.18589120  1
  Zn  Zn108  1  0.18255561  0.18296689  0.70074187  1
  Zn  Zn109  1  0.18337467  0.68842115  0.18345264  1
  Zn  Zn110  1  0.18941956  0.68726489  0.68595629  1
  Zn  Zn111  1  0.68520570  0.18734124  0.19018185  1
  Zn  Zn112  1  0.68603090  0.18559345  0.69097905  1
  Zn  Zn113  1  0.68574179  0.68712955  0.18484157  1
  Zn  Zn114  1  0.68619855  0.68623807  0.68550615  1
  Zn  Zn115  1  0.31205049  0.30926026  0.31522801  1
  Zn  Zn116  1  0.31389544  0.31265954  0.81180885  1
  Zn  Zn117  1  0.31231605  0.81077416  0.30804551  1
  Zn  Zn118  1  0.30945460  0.81098366  0.81601329  1
  Zn  Zn119  1  0.81417843  0.31230761  0.31470820  1
  Zn  Zn120  1  0.81327340  0.30837448  0.81876251  1
  Zn  Zn121  1  0.81204737  0.81807681  0.31802547  1
  Zn  Zn122  1  0.81253575  0.81117670  0.81363982  1
  Zn  Zn123  1  0.18894621  0.43880784  0.43531314  1
  Zn  Zn124  1  0.18504589  0.43460727  0.93624182  1
  Zn  Zn125  1  0.18868538  0.93847959  0.44118754  1
  Zn  Zn126  1  0.18513479  0.93553753  0.94127255  1
  Zn  Zn127  1  0.69014338  0.43854198  0.43302939  1
  Zn  Zn128  1  0.69938544  0.43043757  0.94226049  1
  Zn  Zn129  1  0.68699528  0.93396221  0.43887429  1
  Zn  Zn130  1  0.68846497  0.93867943  0.93967205  1
  Zn  Zn131  1  0.31189027  0.06466826  0.05699921  1
  Zn  Zn132  1  0.30927483  0.06022889  0.56737698  1
  Zn  Zn133  1  0.31508444  0.55887162  0.06259037  1
  Zn  Zn134  1  0.31553548  0.56465131  0.56578767  1
  Zn  Zn135  1  0.81958803  0.06154812  0.06429097  1
  Zn  Zn136  1  0.80972532  0.06255545  0.56492473  1
  Zn  Zn137  1  0.82141111  0.56070290  0.06956120  1
  Zn  Zn138  1  0.81219033  0.56095459  0.55925057  1
  Zn  Zn139  1  0.43867380  0.43764725  0.18741261  1
  Zn  Zn140  1  0.43625238  0.43546197  0.68868269  1
  Zn  Zn141  1  0.43631728  0.93816823  0.18731299  1
  Zn  Zn142  1  0.44077113  0.93568316  0.69122024  1
  Zn  Zn143  1  0.92876493  0.44416798  0.17980562  1
  Zn  Zn144  1  0.93575383  0.43349689  0.68158388  1
  Zn  Zn145  1  0.94147569  0.94440943  0.19066799  1
  Zn  Zn146  1  0.93748376  0.93974843  0.69095597  1
  Zn  Zn147  1  0.06136656  0.06735854  0.30987841  1
  Zn  Zn148  1  0.05520000  0.06139414  0.80991578  1
  Zn  Zn149  1  0.06183557  0.56400356  0.30937463  1
  Zn  Zn150  1  0.06398907  0.55613443  0.81699514  1
  Zn  Zn151  1  0.55904772  0.06344745  0.31068863  1
  Zn  Zn152  1  0.56678252  0.06435439  0.81392442  1
  Zn  Zn153  1  0.56229768  0.56057175  0.31111468  1
  Zn  Zn154  1  0.56638199  0.56064063  0.81209236  1
  Zn  Zn155  1  0.43779708  0.18481862  0.43721461  1
  Zn  Zn156  1  0.43850916  0.19207469  0.94094920  1
  Zn  Zn157  1  0.43862172  0.68498045  0.43875345  1
  Zn  Zn158  1  0.43711159  0.68607530  0.93648049  1
  Zn  Zn159  1  0.94104698  0.18749651  0.43305059  1
  Zn  Zn160  1  0.93707533  0.18918505  0.93670422  1
  Zn  Zn161  1  0.93881175  0.69131705  0.43303587  1
  Zn  Zn162  1  0.93400981  0.68612418  0.93504865  1
  Zn  Zn163  1  0.06785025  0.31680302  0.06858469  1
  Zn  Zn164  1  0.06044150  0.30880492  0.56517163  1
  Zn  Zn165  1  0.06513512  0.81710531  0.06491549  1
  Zn  Zn166  1  0.06427150  0.80883164  0.56113298  1
  Zn  Zn167  1  0.56120478  0.31435698  0.06386679  1
  Zn  Zn168  1  0.56264032  0.31523079  0.56341504  1
  Zn  Zn169  1  0.56311445  0.81172742  0.06234658  1
  Zn  Zn170  1  0.56211167  0.81342487  0.56262623  1
  O  O171  1  0.11689224  0.11932982  0.13374307  1
  O  O172  1  0.11709115  0.11558336  0.62085596  1
  O  O173  1  0.11257707  0.62241642  0.13214246  1
  O  O174  1  0.11872720  0.62396760  0.61546311  1
  O  O175  1  0.61335490  0.11562668  0.13286186  1
  O  O176  1  0.62301639  0.11299394  0.62455719  1
  O  O177  1  0.61804074  0.62239692  0.11518386  1
  O  O178  1  0.62196421  0.61018032  0.62354350  1
  O  O179  1  0.38728642  0.36867379  0.38248315  1
  O  O180  1  0.38363117  0.38142947  0.87929168  1
  O  O181  1  0.38481698  0.88176300  0.36561873  1
  O  O182  1  0.37545937  0.86827893  0.89102110  1
  O  O183  1  0.86870737  0.38317318  0.38910605  1
  O  O184  1  0.89256720  0.37604135  0.86541737  1
  O  O185  1  0.88423304  0.87975180  0.38496895  1
  O  O186  1  0.88936528  0.87509150  0.87330377  1
  O  O187  1  0.26445359  0.00007291  0.37984600  1
  O  O188  1  0.24737155  -0.00873547  0.86157968  1
  O  O189  1  0.25087353  0.51364947  0.36943234  1
  O  O190  1  0.25429293  0.50864913  0.86951502  1
  O  O191  1  0.74845692  0.00511306  0.36715554  1
  O  O192  1  0.74955146  0.01136038  0.87355838  1
  O  O193  1  0.76041677  0.49882621  0.36382399  1
  O  O194  1  0.75040591  0.50378720  0.86387955  1
  O  O195  1  0.24933235  0.49904894  0.13457936  1
  O  O196  1  0.25003274  0.49167460  0.63237050  1
  O  O197  1  0.23884860  0.99694998  0.12109061  1
  O  O198  1  0.23753651  0.99526060  0.63899675  1
  O  O199  1  0.74915079  0.50031888  0.14253909  1
  O  O200  1  0.74374297  0.49289869  0.62874294  1
  O  O201  1  0.74287625  0.99573490  0.12995896  1
  O  O202  1  0.73939724  0.99501683  0.62818153  1
  O  O203  1  0.00766240  0.38149069  0.24632599  1
  O  O204  1  0.00457116  0.36838909  0.74900853  1
  O  O205  1  0.00684333  0.87144425  0.25772703  1
  O  O206  1  0.00702036  0.86655738  0.75634172  1
  O  O207  1  0.50326987  0.37150053  0.25886309  1
  O  O208  1  0.50621422  0.37014528  0.75965081  1
  O  O209  1  0.50445875  0.86908093  0.25573075  1
  O  O210  1  0.51106441  0.86632007  0.75544724  1
  O  O211  1  0.49009639  0.13072047  0.24078487  1
  O  O212  1  0.49351526  0.13034157  0.74818437  1
  O  O213  1  0.49340327  0.62918514  0.24369146  1
  O  O214  1  0.50867889  0.63983154  0.75010402  1
  O  O215  1  0.98846842  0.12477502  0.23966364  1
  O  O216  1  0.99082813  0.13239458  0.74408901  1
  O  O217  1  1.00153807  0.64955774  0.25943376  1
  O  O218  1  0.99679314  0.62551467  0.74310309  1
  O  O219  1  0.37053868  0.26141370  0.00513522  1
  O  O220  1  0.36886197  0.25349774  0.50692633  1
  O  O221  1  0.38168247  0.75695703  0.01243095  1
  O  O222  1  0.36270877  0.75016332  0.49856032  1
  O  O223  1  0.87502913  0.24576027  0.01285906  1
  O  O224  1  0.87236596  0.26130411  0.49391414  1
  O  O225  1  0.86015832  0.75293762  -0.00637537  1
  O  O226  1  0.86950566  0.75727147  0.50322974  1
  O  O227  1  0.13153168  0.24014637  0.50138397  1
  O  O228  1  0.14110094  0.25595729  1.00407679  1
  O  O229  1  0.13422414  0.74009889  0.49409979  1
  O  O230  1  0.12392616  0.75451323  0.98936194  1
  O  O231  1  0.61914144  0.24889621  0.48734719  1
  O  O232  1  0.61843638  0.24968330  0.98971823  1
  O  O233  1  0.63213852  0.75124077  0.49264647  1
  O  O234  1  0.63334428  0.74351579  0.99253751  1
  O  O235  1  0.48977329  0.24303723  0.12749444  1
  O  O236  1  0.49378012  0.25099211  0.63261247  1
  O  O237  1  0.49503197  0.74151513  0.13110718  1
  O  O238  1  0.50143499  0.75162235  0.63957901  1
  O  O239  1  1.00178562  0.24158427  0.12997671  1
  O  O240  1  1.00020928  0.23632444  0.63304183  1
  O  O241  1  1.00154766  0.76076974  0.14224152  1
  O  O242  1  0.99629606  0.73804169  0.62947924  1
  O  O243  1  0.00290920  0.24768387  0.36427036  1
  O  O244  1  -0.00020583  0.25983142  0.86726958  1
  O  O245  1  0.00816171  0.76439701  0.36966543  1
  O  O246  1  0.00709056  0.75377378  0.87100203  1
  O  O247  1  0.50530126  0.25579404  0.36963834  1
  O  O248  1  0.50713782  0.25734142  0.87023866  1
  O  O249  1  0.50350816  0.75749492  0.37022172  1
  O  O250  1  0.51071674  0.75023912  0.86770203  1
  O  O251  1  0.24138784  0.13127267  0.50225833  1
  O  O252  1  0.25527366  0.14249396  0.99877251  1
  O  O253  1  0.24475503  0.62997232  0.49256338  1
  O  O254  1  0.24936677  0.62046017  0.98922694  1
  O  O255  1  0.74663957  0.11888187  0.48593746  1
  O  O256  1  0.75265807  0.11937598  0.98852411  1
  O  O257  1  0.74727363  0.63959873  0.50383171  1
  O  O258  1  0.74475857  0.63014150  0.99753072  1
  O  O259  1  0.25898997  0.36857625  -0.00089259  1
  O  O260  1  0.25328503  0.36832553  0.50589523  1
  O  O261  1  0.25749409  0.87946205  0.01390505  1
  O  O262  1  0.24359582  0.86659394  0.51239844  1
  O  O263  1  0.76328397  0.35858516  -0.00862023  1
  O  O264  1  0.75645018  0.37725221  0.50929485  1
  O  O265  1  0.75166325  0.86787940  0.00926174  1
  O  O266  1  0.75911647  0.86477333  0.50198670  1
  O  O267  1  0.13384531  0.49252674  0.25218059  1
  O  O268  1  0.13283437  0.49244243  0.74619053  1
  O  O269  1  0.12020861  0.99085786  0.24124811  1
  O  O270  1  0.12259831  0.97984504  0.74319664  1
  O  O271  1  0.63608327  0.49345021  0.25231288  1
  O  O272  1  0.63541107  0.49265321  0.74279091  1
  O  O273  1  0.62749643  0.99486053  0.24162663  1
  O  O274  1  0.62308680  0.99113695  0.74302477  1
  O  O275  1  0.38085354  0.00987248  0.25880279  1
  O  O276  1  0.37931733  0.01161149  0.75309706  1
  O  O277  1  0.37037886  0.51348803  0.24498445  1
  O  O278  1  0.36485460  0.49167720  0.76226964  1
  O  O279  1  0.86695389  0.01275035  0.24995724  1
  O  O280  1  0.87482558  0.01200546  0.75561060  1
  O  O281  1  0.86354456  0.50019745  0.25942135  1
  O  O282  1  0.86404952  0.50225577  0.74570023  1
  O  O283  1  0.13006736  0.37713020  0.35919458  1
  O  O284  1  0.11105366  0.37925215  0.86109526  1
  O  O285  1  0.12181540  0.87531729  0.36948932  1
  O  O286  1  0.11746310  0.86568460  0.86868302  1
  O  O287  1  0.61640087  0.36827557  0.36885001  1
  O  O288  1  0.62007139  0.36998252  0.87016896  1
  O  O289  1  0.61537684  0.86776130  0.36839266  1
  O  O290  1  0.62410138  0.86651660  0.87079156  1
  O  O291  1  0.37955786  0.13162275  0.13105463  1
  O  O292  1  0.38151065  0.13637367  0.62190984  1
  O  O293  1  0.38151400  0.63088316  0.12720205  1
  O  O294  1  0.37869609  0.63196166  0.62643022  1
  O  O295  1  0.88103676  0.13383325  0.13086051  1
  O  O296  1  0.88330472  0.11881102  0.63209107  1
  O  O297  1  0.88569485  0.62605731  0.13445034  1
  O  O298  1  0.88204567  0.62909924  0.62786938  1
  O  O299  1  0.26282134  0.25513231  0.12084197  1
  O  O300  1  0.25553322  0.25262291  0.61845846  1
  O  O301  1  0.25992658  0.75931877  0.12992442  1
  O  O302  1  0.24971143  0.75880936  0.61726013  1
  O  O303  1  0.75152779  0.24745515  0.12203177  1
  O  O304  1  0.74228207  0.26396900  0.62531327  1
  O  O305  1  0.74335293  0.76023010  0.11706102  1
  O  O306  1  0.75643660  0.75250491  0.61898406  1
  O  O307  1  0.24855588  0.24704398  0.39016186  1
  O  O308  1  0.24931901  0.25395340  0.88359868  1
  O  O309  1  0.24510105  0.74445616  0.38000294  1
  O  O310  1  0.24307423  0.73338073  0.87126998  1
  O  O311  1  0.73848460  0.24023926  0.36831632  1
  O  O312  1  0.74219108  0.23657869  0.87227142  1
  O  O313  1  0.73937330  0.75682769  0.38270839  1
  O  O314  1  0.74086746  0.74359938  0.88013010  1
  O  O315  1  -0.00156533  0.11845129  0.00728802  1
  O  O316  1  0.00660292  0.12669152  0.50947208  1
  O  O317  1  0.00271430  0.61615139  -0.00547800  1
  O  O318  1  0.00884494  0.62737464  0.50487241  1
  O  O319  1  0.49192840  0.11795389  0.01333390  1
  O  O320  1  0.50538643  0.11371175  0.49983296  1
  O  O321  1  0.51153616  0.63062617  0.00678091  1
  O  O322  1  0.50381530  0.61470513  0.50181031  1
  O  O323  1  0.49562192  0.38101843  0.49315658  1
  O  O324  1  0.49336799  0.37281399  0.98725306  1
  O  O325  1  0.50167263  0.88088966  0.48788602  1
  O  O326  1  0.49188300  0.88273813  1.00161456  1
  O  O327  1  0.98353617  0.37586184  0.50877163  1
  O  O328  1  1.00175963  0.37047972  0.98776498  1
  O  O329  1  0.99267549  0.86901670  0.49292394  1
  O  O330  1  0.99950332  0.88061926  0.99248190  1
  O  O331  1  0.50423631  0.49020077  0.38330809  1
  O  O332  1  0.49184715  0.49296483  0.86773051  1
  O  O333  1  0.49295750  0.99280838  0.38080634  1
  O  O334  1  0.50834946  1.00015863  0.89099707  1
  O  O335  1  0.98216445  0.50391708  0.37229743  1
  O  O336  1  0.99727699  0.48822278  0.88400724  1
  O  O337  1  0.99893242  0.98941336  0.37146363  1
  O  O338  1  1.00263617  0.99212752  0.88259802  1
  O  O339  1  0.00832357  0.01030862  0.11915649  1
  O  O340  1  0.01192401  0.00713834  0.63121610  1
  O  O341  1  0.00113074  0.49859593  0.10902297  1
  O  O342  1  -0.00036037  0.51155141  0.61978631  1
  O  O343  1  0.50625763  0.00624748  0.11978959  1
  O  O344  1  0.50502317  -0.00213104  0.61621697  1
  O  O345  1  0.50338724  0.51344495  0.12733867  1
  O  O346  1  0.50853295  0.49516400  0.61830077  1
  O  O347  1  0.25837600  0.38984419  0.25207089  1
  O  O348  1  0.24145425  0.38008238  0.74685405  1
  O  O349  1  0.24322959  0.87534225  0.23895296  1
  O  O350  1  0.23966209  0.86879674  0.74366026  1
  O  O351  1  0.73850821  0.38177889  0.25692917  1
  O  O352  1  0.74948812  0.37910412  0.74052399  1
  O  O353  1  0.74433779  0.88107518  0.24488256  1
  O  O354  1  0.73817899  0.87511512  0.75078389  1
  O  O355  1  0.26184372  0.13249611  0.25116618  1
  O  O356  1  0.28031950  0.12442437  0.73396787  1
  O  O357  1  0.25656276  0.61877794  0.25623814  1
  O  O358  1  0.24622325  0.61241399  0.75399297  1
  O  O359  1  0.75387966  0.11896642  0.25787404  1
  O  O360  1  0.75758701  0.12317427  0.75503257  1
  O  O361  1  0.74680059  0.61506512  0.25164557  1
  O  O362  1  0.75339085  0.61565208  0.75263919  1
  O  O363  1  0.37459108  0.11649806  0.36608823  1
  O  O364  1  0.38028926  0.12618824  0.86549959  1
  O  O365  1  0.36697460  0.63263666  0.36377864  1
  O  O366  1  0.36338508  0.61714284  0.87856035  1
  O  O367  1  0.86621824  0.12366536  0.36711934  1
  O  O368  1  0.86314973  0.12522920  0.86927809  1
  O  O369  1  0.87334923  0.61625877  0.37104539  1
  O  O370  1  0.86780062  0.61974955  0.86559802  1
  O  O371  1  0.12998569  0.38376381  0.14110842  1
  O  O372  1  0.12997344  0.37654261  0.63300596  1
  O  O373  1  0.13311931  0.88391563  0.13199490  1
  O  O374  1  0.12942255  0.87813897  0.63057144  1
  O  O375  1  0.61341386  0.37793645  0.14056935  1
  O  O376  1  0.63515886  0.38320738  0.62783005  1
  O  O377  1  0.63182150  0.88167515  0.13153429  1
  O  O378  1  0.62507356  0.88298538  0.63344654  1
  O  O379  1  0.12808429  0.27079672  0.25116277  1
  O  O380  1  0.10989943  0.26026974  0.74467619  1
  O  O381  1  0.11969718  0.76606737  0.25574539  1
  O  O382  1  0.11916696  0.75348126  0.75481098  1
  O  O383  1  0.61725656  0.25730062  0.25787085  1
  O  O384  1  0.61823015  0.25553374  0.75657560  1
  O  O385  1  0.61995847  0.75506877  0.25592058  1
  O  O386  1  0.62063636  0.75532199  0.75766577  1
  O  O387  1  0.37982420  0.24537561  0.24207284  1
  O  O388  1  0.38351555  0.24380368  0.74447393  1
  O  O389  1  0.37894376  0.73967842  0.23916876  1
  O  O390  1  0.39278148  0.75618170  0.75514055  1
  O  O391  1  0.86893277  0.24012651  0.24067107  1
  O  O392  1  0.88423327  0.23867675  0.75263828  1
  O  O393  1  0.88910623  0.75668198  0.25876825  1
  O  O394  1  0.88071038  0.74260440  0.74489049  1
  O  O395  1  0.38666796  0.49137876  0.50508535  1
  O  O396  1  0.37172666  0.48844515  0.98787738  1
  O  O397  1  0.38480646  1.00363581  0.49356282  1
  O  O398  1  0.38475979  0.98929264  1.00908200  1
  O  O399  1  0.87456861  0.49772190  0.48634248  1
  O  O400  1  0.89157888  0.50017254  0.99849475  1
  O  O401  1  0.87107072  0.98632932  0.50122405  1
  O  O402  1  0.88921795  0.99504422  0.99825818  1
  O  O403  1  0.11440079  -0.00359764  0.01007582  1
  O  O404  1  0.12940172  0.01052169  0.50959991  1
  O  O405  1  0.10709934  0.49031974  -0.00070039  1
  O  O406  1  0.12287374  0.51127381  0.49921220  1
  O  O407  1  0.61720543  -0.00583312  0.01410344  1
  O  O408  1  0.61515403  -0.00268579  0.50747943  1
  O  O409  1  0.63214429  0.50986994  -0.00269097  1
  O  O410  1  0.61735086  0.49851359  0.50512341  1
  O  O411  1  0.37760136  0.36927169  0.11518648  1
  O  O412  1  0.36950625  0.36218978  0.62165399  1
  O  O413  1  0.36898740  0.86774989  0.12168281  1
  O  O414  1  0.36205471  0.87286309  0.63230131  1
  O  O415  1  0.87214094  0.35961353  0.12962595  1
  O  O416  1  0.86137453  0.37827579  0.61075641  1
  O  O417  1  0.86246291  0.88202152  0.12819378  1
  O  O418  1  0.87755369  0.86793832  0.62039199  1
  O  O419  1  0.12719926  0.12416089  0.38476941  1
  O  O420  1  0.15584954  0.11058190  0.80184476  1
  O  O421  1  0.13302060  0.63072288  0.37985786  1
  O  O422  1  0.13777665  0.62927343  0.87230895  1
  O  O423  1  0.63008556  0.13318852  0.37276344  1
  O  O424  1  0.63861420  0.13302969  0.87259118  1
  O  O425  1  0.61785861  0.64001696  0.37527653  1
  O  O426  1  0.63088493  0.63087576  0.88112888  1
