# generated using pymatgen
data_V85Zn86O256
_symmetry_space_group_name_H-M   'P 1'
_cell_length_a   16.93308155
_cell_length_b   16.94849472
_cell_length_c   16.93836049
_cell_angle_alpha   89.95849786
_cell_angle_beta   89.90276148
_cell_angle_gamma   90.07202509
_symmetry_Int_Tables_number   1
_chemical_formula_structural   V85Zn86O256
_chemical_formula_sum   'V85 Zn86 O256'
_cell_volume   4861.13207273
_cell_formula_units_Z   1
loop_
 _symmetry_equiv_pos_site_id
 _symmetry_equiv_pos_as_xyz
  1  'x, y, z'
loop_
 _atom_site_type_symbol
 _atom_site_label
 _atom_site_symmetry_multiplicity
 _atom_site_fract_x
 _atom_site_fract_y
 _atom_site_fract_z
 _atom_site_occupancy
  V  V0  1  0.74266897  0.37282436  0.12588388  1
  V  V1  1  0.87368302  0.00893296  0.38113612  1
  V  V2  1  0.25100870  0.12225366  0.87399525  1
  V  V3  1  0.11610494  0.12233157  0.00032772  1
  V  V4  1  0.37404718  0.37995077  0.49652383  1
  V  V5  1  0.38018676  0.25255368  0.11743633  1
  V  V6  1  0.24763068  0.74543861  -0.00468848  1
  V  V7  1  0.11550280  -0.00314582  0.12611720  1
  V  V8  1  0.73932575  0.37799932  0.62465547  1
  V  V9  1  0.62281263  0.50372069  0.12190059  1
  V  V10  1  0.50182875  0.61661493  0.62688332  1
  V  V11  1  0.87563361  0.50194124  0.37328294  1
  V  V12  1  0.62560767  0.87467049  0.74922463  1
  V  V13  1  0.76748905  0.74983999  0.00728435  1
  V  V14  1  0.50376301  -0.00199792  -0.00181444  1
  V  V15  1  0.50074041  -0.00163054  0.49860869  1
  V  V16  1  0.50034659  0.74699651  0.74985502  1
  V  V17  1  0.00417711  0.25325577  0.74823764  1
  V  V18  1  0.12347303  0.62370887  0.49786340  1
  V  V19  1  0.12261053  0.48481030  0.13959680  1
  V  V20  1  0.62840651  0.75398632  0.36945903  1
  V  V21  1  0.88676595  0.88126065  0.50335714  1
  V  V22  1  0.26006327  0.62046987  0.36849442  1
  V  V23  1  0.50764636  0.12164796  0.12251515  1
  V  V24  1  0.37455768  0.25031093  0.62595510  1
  V  V25  1  0.88524425  0.63522137  0.23400842  1
  V  V26  1  0.49705271  0.50186815  0.49643917  1
  V  V27  1  0.12618109  0.25390858  0.87309852  1
  V  V28  1  0.74562917  0.49773916  0.24817714  1
  V  V29  1  0.37833343  0.12283270  0.24809726  1
  V  V30  1  0.11945354  0.00099978  0.62219858  1
  V  V31  1  0.74658948  -0.00340490  0.25299277  1
  V  V32  1  0.63067413  0.24751534  0.37263274  1
  V  V33  1  0.87525060  0.13041756  0.25508137  1
  V  V34  1  0.24897350  0.12330450  0.37306565  1
  V  V35  1  0.49348091  0.38020606  0.88672249  1
  V  V36  1  0.50012470  0.87264814  0.87488368  1
  V  V37  1  0.37306017  0.87435033  -0.00002957  1
  V  V38  1  0.00135011  0.37778854  0.86821229  1
  V  V39  1  0.50411560  0.75322633  0.24139367  1
  V  V40  1  0.24896312  0.25036781  0.49809311  1
  V  V41  1  0.87292455  0.25389995  0.62627499  1
  V  V42  1  0.50014001  0.12563417  0.62455139  1
  V  V43  1  0.75041851  0.24028451  -0.00399172  1
  V  V44  1  0.25465345  0.25466332  -0.00122622  1
  V  V45  1  0.12713143  0.74104991  0.87109544  1
  V  V46  1  0.62512899  0.00012632  0.62451752  1
  V  V47  1  0.37547372  0.74690947  0.62514577  1
  V  V48  1  0.75339814  0.62624288  0.37197174  1
  V  V49  1  0.75088679  0.24523524  0.49712101  1
  V  V50  1  0.62611954  0.24803619  0.87113935  1
  V  V51  1  0.36853220  0.50462440  0.89043504  1
  V  V52  1  0.87238205  0.74988249  0.62829706  1
  V  V53  1  0.00760406  0.50013567  0.00289179  1
  V  V54  1  0.24669967  -0.00759880  0.24631756  1
  V  V55  1  0.00338066  0.37458637  0.35707866  1
  V  V56  1  0.50480748  0.37740174  0.37270769  1
  V  V57  1  0.86802669  0.00553421  0.88734114  1
  V  V58  1  -0.00563351  0.62457151  0.62612962  1
  V  V59  1  0.61581959  0.62091009  0.00003464  1
  V  V60  1  0.24840450  0.87550472  0.62330425  1
  V  V61  1  0.62890575  0.74688079  0.87863636  1
  V  V62  1  -0.00066933  0.49576538  0.49926782  1
  V  V63  1  0.74606593  0.50676745  0.74537209  1
  V  V64  1  -0.00104956  0.12473864  0.62211144  1
  V  V65  1  0.12224186  0.87764785  0.75148668  1
  V  V66  1  0.24903766  0.75061955  0.49760812  1
  V  V67  1  -0.00442914  0.74853998  0.75011359  1
  V  V68  1  0.10154081  0.65739809  0.04218231  1
  V  V69  1  0.24403012  0.37889797  0.63264978  1
  V  V70  1  -0.00543125  0.88366710  0.88711976  1
  V  V71  1  0.50912947  0.25100880  0.24926886  1
  V  V72  1  0.37197581  0.74809579  0.12958940  1
  V  V73  1  0.12143033  0.25340741  0.36012906  1
  V  V74  1  0.62739654  0.62050606  0.50219208  1
  V  V75  1  0.00077153  0.87957911  0.35984141  1
  V  V76  1  0.44410766  0.57723644  0.17836040  1
  V  V77  1  0.87542446  0.50704843  0.86899887  1
  V  V78  1  0.88273902  0.25296062  0.12949003  1
  V  V79  1  0.37508078  -0.00175785  0.37369866  1
  V  V80  1  0.11869627  0.75586600  0.36748964  1
  V  V81  1  0.75002655  0.87666232  0.62385882  1
  V  V82  1  0.87256593  0.37733990  -0.00110296  1
  V  V83  1  0.50519480  0.87576195  0.36930062  1
  V  V84  1  0.12176182  0.12213372  0.49580795  1
  Zn  Zn85  1  0.25000857  -0.00002064  0.75053374  1
  Zn  Zn86  1  0.63140453  0.11938625  -0.00716146  1
  Zn  Zn87  1  0.74954520  0.00831676  0.75702242  1
  Zn  Zn88  1  0.50004541  0.25554334  0.74938523  1
  Zn  Zn89  1  0.12062497  0.49346697  0.63239468  1
  Zn  Zn90  1  0.87368265  0.37579480  0.49674556  1
  Zn  Zn91  1  0.75366158  0.62625905  0.87225833  1
  Zn  Zn92  1  0.75600898  0.86804910  0.12722965  1
  Zn  Zn93  1  0.24420096  0.87266011  0.12735786  1
  Zn  Zn94  1  0.62991479  0.12289585  0.49692629  1
  Zn  Zn95  1  0.36815708  0.62271320  0.75851521  1
  Zn  Zn96  1  0.62738669  -0.01144397  0.13036049  1
  Zn  Zn97  1  0.24281790  0.51157669  0.76154258  1
  Zn  Zn98  1  0.37399627  -0.00086686  0.87145452  1
  Zn  Zn99  1  0.25015347  0.36875680  0.13080949  1
  Zn  Zn100  1  0.61846153  0.38059009  0.74934861  1
  Zn  Zn101  1  0.86981770  0.12592290  0.75669969  1
  Zn  Zn102  1  0.75155779  0.75065847  0.49834119  1
  Zn  Zn103  1  0.37441924  0.12132971  0.74945822  1
  Zn  Zn104  1  0.37564771  0.87415235  0.49831653  1
  Zn  Zn105  1  0.25230939  0.49888367  0.25375928  1
  Zn  Zn106  1  0.00051698  0.12877001  0.13103651  1
  Zn  Zn107  1  0.19134858  0.18169189  0.18466022  1
  Zn  Zn108  1  0.18735274  0.19020655  0.68826448  1
  Zn  Zn109  1  0.17735981  0.68980549  0.18832202  1
  Zn  Zn110  1  0.18317654  0.68422992  0.68578599  1
  Zn  Zn111  1  0.69365226  0.18142696  0.18840956  1
  Zn  Zn112  1  0.68585276  0.18823947  0.69001578  1
  Zn  Zn113  1  0.68949437  0.68519288  0.18666563  1
  Zn  Zn114  1  0.68669420  0.68569458  0.68792302  1
  Zn  Zn115  1  0.31570928  0.30636667  0.31546846  1
  Zn  Zn116  1  0.31800590  0.31565043  0.81353186  1
  Zn  Zn117  1  0.31442882  0.81001268  0.31256869  1
  Zn  Zn118  1  0.31072444  0.80949123  0.81102321  1
  Zn  Zn119  1  0.81384663  0.31720317  0.31146126  1
  Zn  Zn120  1  0.81138818  0.31600116  0.81087411  1
  Zn  Zn121  1  0.81952464  0.81387052  0.30986532  1
  Zn  Zn122  1  0.81245203  0.81767601  0.81469858  1
  Zn  Zn123  1  0.18539130  0.43810514  0.43686514  1
  Zn  Zn124  1  0.18708126  0.43524621  0.94036204  1
  Zn  Zn125  1  0.18398293  0.93865195  0.43657156  1
  Zn  Zn126  1  0.18438889  0.93619100  0.94036122  1
  Zn  Zn127  1  0.68514385  0.43611065  0.43856724  1
  Zn  Zn128  1  0.68536078  0.43473790  0.93562692  1
  Zn  Zn129  1  0.69222952  0.93743975  0.43748047  1
  Zn  Zn130  1  0.68957015  0.93127980  0.94204421  1
  Zn  Zn131  1  0.31267796  0.06471441  0.06010724  1
  Zn  Zn132  1  0.31113502  0.06131095  0.56140294  1
  Zn  Zn133  1  0.29218181  0.56185552  0.05722111  1
  Zn  Zn134  1  0.31271695  0.56283926  0.56234047  1
  Zn  Zn135  1  0.81777998  0.05912606  0.06869993  1
  Zn  Zn136  1  0.81259055  0.06487649  0.56737282  1
  Zn  Zn137  1  0.81052703  0.56662812  0.05744891  1
  Zn  Zn138  1  0.81318647  0.56257184  0.56267082  1
  Zn  Zn139  1  0.40326337  0.41101221  0.21282908  1
  Zn  Zn140  1  0.43106427  0.43979424  0.69627791  1
  Zn  Zn141  1  0.43829703  0.93499307  0.18579115  1
  Zn  Zn142  1  0.43554626  0.93628794  0.68811032  1
  Zn  Zn143  1  0.93059176  0.44490799  0.18477394  1
  Zn  Zn144  1  0.93326099  0.43786866  0.68796223  1
  Zn  Zn145  1  0.92726932  0.93788819  0.18481503  1
  Zn  Zn146  1  0.93538889  0.94122886  0.69448246  1
  Zn  Zn147  1  0.05686522  0.06118246  0.30976165  1
  Zn  Zn148  1  0.05918799  0.06457057  0.81070626  1
  Zn  Zn149  1  0.06387420  0.56407297  0.31220651  1
  Zn  Zn150  1  0.06455923  0.56129503  0.80673425  1
  Zn  Zn151  1  0.56588027  0.06593672  0.31426519  1
  Zn  Zn152  1  0.56237826  0.06389672  0.81059666  1
  Zn  Zn153  1  0.56761028  0.56023372  0.31529353  1
  Zn  Zn154  1  0.55895458  0.55860683  0.81560373  1
  Zn  Zn155  1  0.43884216  0.18758753  0.43810540  1
  Zn  Zn156  1  0.44101807  0.18657401  0.93392997  1
  Zn  Zn157  1  0.43924008  0.69013126  0.43617623  1
  Zn  Zn158  1  0.43797967  0.68464488  0.94190366  1
  Zn  Zn159  1  0.93977346  0.19180211  0.43770116  1
  Zn  Zn160  1  0.93578960  0.18826344  0.93950032  1
  Zn  Zn161  1  0.93677710  0.69179927  0.43726485  1
  Zn  Zn162  1  0.94317360  0.68542949  0.93335377  1
  Zn  Zn163  1  0.06399794  0.31465997  0.05811593  1
  Zn  Zn164  1  0.06355419  0.30990963  0.55543339  1
  Zn  Zn165  1  0.05222755  0.82354440  0.06927079  1
  Zn  Zn166  1  0.06244772  0.81165837  0.56094085  1
  Zn  Zn167  1  0.56616868  0.31286808  0.06047550  1
  Zn  Zn168  1  0.56292772  0.31210970  0.55983250  1
  Zn  Zn169  1  0.57131596  0.81485324  0.06418014  1
  Zn  Zn170  1  0.56322725  0.80905142  0.55759484  1
  O  O171  1  0.12324185  0.11891779  0.11667886  1
  O  O172  1  0.12070548  0.12032408  0.61843430  1
  O  O173  1  0.13282911  0.59806853  0.12796293  1
  O  O174  1  0.10963169  0.62975791  0.61139301  1
  O  O175  1  0.61514131  0.12080435  0.12270920  1
  O  O176  1  0.61513532  0.12015732  0.62026744  1
  O  O177  1  0.63144384  0.61170893  0.11683544  1
  O  O178  1  0.61451414  0.63284956  0.61384869  1
  O  O179  1  0.38829704  0.36518844  0.39050788  1
  O  O180  1  0.38547090  0.38199834  0.87751841  1
  O  O181  1  0.38472846  0.88032953  0.37575583  1
  O  O182  1  0.37989114  0.87203420  0.88615098  1
  O  O183  1  0.88432063  0.38417243  0.37639602  1
  O  O184  1  0.88272491  0.38328396  0.87976907  1
  O  O185  1  0.88511999  0.88104950  0.38398427  1
  O  O186  1  0.88863993  0.88524400  0.87052168  1
  O  O187  1  0.25306762  0.00472341  0.36809204  1
  O  O188  1  0.24881271  0.00840920  0.87512842  1
  O  O189  1  0.24592714  0.51571009  0.37559793  1
  O  O190  1  0.26327564  0.49106754  0.87847221  1
  O  O191  1  0.76307285  -0.00107951  0.36929934  1
  O  O192  1  0.76367650  -0.00711138  0.87704147  1
  O  O193  1  0.75161443  0.50562955  0.36781385  1
  O  O194  1  0.75854615  0.49874960  0.86467246  1
  O  O195  1  0.23675097  0.48946536  0.12798530  1
  O  O196  1  0.24999521  0.48427917  0.61910097  1
  O  O197  1  0.24445348  1.00098469  0.13214990  1
  O  O198  1  0.23795206  0.99398727  0.62449349  1
  O  O199  1  0.74395949  0.49363781  0.12917969  1
  O  O200  1  0.75740672  0.49322401  0.63633118  1
  O  O201  1  0.74943999  1.00383009  0.14216840  1
  O  O202  1  0.74125829  0.99107569  0.62225477  1
  O  O203  1  -0.00629607  0.38085011  0.25859603  1
  O  O204  1  -0.00361091  0.37005465  0.76072636  1
  O  O205  1  -0.00218406  0.87908198  0.26204721  1
  O  O206  1  0.00906420  0.86659854  0.75047419  1
  O  O207  1  0.49547572  0.36354686  0.26048730  1
  O  O208  1  0.50058269  0.37447848  0.75921287  1
  O  O209  1  0.49922038  0.86819009  0.26058592  1
  O  O210  1  0.50588490  0.86706356  0.75387228  1
  O  O211  1  0.49786688  0.12916791  0.24252160  1
  O  O212  1  0.49701434  0.12641501  0.73502472  1
  O  O213  1  0.50058746  0.63232266  0.24746273  1
  O  O214  1  0.49881959  0.62909899  0.74106173  1
  O  O215  1  0.98312150  0.12528307  0.24999354  1
  O  O216  1  0.99889479  0.13483098  0.73752122  1
  O  O217  1  0.98269196  0.61914237  0.25638397  1
  O  O218  1  1.00170346  0.63937994  0.74034762  1
  O  O219  1  0.36637083  0.23582666  0.00662925  1
  O  O220  1  0.37025658  0.25563447  0.50847864  1
  O  O221  1  0.36724713  0.75338618  0.00723060  1
  O  O222  1  0.36685469  0.75161397  0.50577992  1
  O  O223  1  0.86785714  0.25728389  0.00520926  1
  O  O224  1  0.86885205  0.25459678  0.50724878  1
  O  O225  1  0.86588496  0.74087564  -0.00520493  1
  O  O226  1  0.87401218  0.75986519  0.51237375  1
  O  O227  1  0.13163841  0.23862119  0.49252908  1
  O  O228  1  0.13210133  0.24162366  0.99276156  1
  O  O229  1  0.13185989  0.74427886  0.49497626  1
  O  O230  1  0.12962592  0.75752736  0.98668896  1
  O  O231  1  0.63349387  0.24992712  0.49185102  1
  O  O232  1  0.63476196  0.24733327  0.99281535  1
  O  O233  1  0.62485085  0.73786712  0.48665382  1
  O  O234  1  0.62699920  0.74299632  0.98776600  1
  O  O235  1  0.50109018  0.24151857  0.12981639  1
  O  O236  1  0.49224443  0.24234586  0.62209681  1
  O  O237  1  0.49523945  0.75491439  0.13602024  1
  O  O238  1  0.49237886  0.74294957  0.62677718  1
  O  O239  1  0.98545958  0.25498300  0.11961927  1
  O  O240  1  0.99524297  0.24849087  0.63059558  1
  O  O241  1  1.06661390  0.72448391  0.11823790  1
  O  O242  1  0.99280946  0.74550567  0.63016464  1
  O  O243  1  0.00932409  0.26298912  0.37969044  1
  O  O244  1  0.00473346  0.25630740  0.86794374  1
  O  O245  1  0.00514772  0.76724175  0.38300941  1
  O  O246  1  0.00266788  0.76168498  0.86578782  1
  O  O247  1  0.50645614  0.25465671  0.36770711  1
  O  O248  1  0.50440518  0.26008234  0.87205058  1
  O  O249  1  0.50606785  0.75585116  0.36478830  1
  O  O250  1  0.50655697  0.75385447  0.87045970  1
  O  O251  1  0.24315906  0.12946082  0.49253618  1
  O  O252  1  0.24140935  0.13107915  0.98910322  1
  O  O253  1  0.24131890  0.63108260  0.49489302  1
  O  O254  1  0.22251337  0.64284614  1.00973242  1
  O  O255  1  0.74968030  0.14151017  0.50615033  1
  O  O256  1  0.75136925  0.13722408  1.00600682  1
  O  O257  1  0.74292685  0.62599663  0.49385152  1
  O  O258  1  0.74173774  0.63499247  0.99319987  1
  O  O259  1  0.24673442  0.35691392  0.00346712  1
  O  O260  1  0.25864252  0.37034602  0.50199321  1
  O  O261  1  0.25753545  0.86598064  0.00181830  1
  O  O262  1  0.24940916  0.86717116  0.50408858  1
  O  O263  1  0.75554207  0.36977289  0.00729106  1
  O  O264  1  0.75173160  0.37042413  0.50830329  1
  O  O265  1  0.74978682  0.85171799  -0.00408483  1
  O  O266  1  0.75771296  0.87167402  0.51104633  1
  O  O267  1  0.12571967  0.49390909  0.24261765  1
  O  O268  1  0.13004393  0.49863156  0.74463548  1
  O  O269  1  0.13462382  1.01087436  0.23681498  1
  O  O270  1  0.12554066  0.99347118  0.74198060  1
  O  O271  1  0.63798136  0.50635372  0.24125034  1
  O  O272  1  0.64138753  0.49878634  0.75560368  1
  O  O273  1  0.64277188  1.00630480  0.25577519  1
  O  O274  1  0.62521148  0.99187999  0.74290275  1
  O  O275  1  0.37094464  0.00437171  0.25405177  1
  O  O276  1  0.36828260  0.00111039  0.75175787  1
  O  O277  1  0.38264495  0.52249949  0.23731608  1
  O  O278  1  0.36543159  0.50281174  0.76381418  1
  O  O279  1  0.86942055  0.00944654  0.26233757  1
  O  O280  1  0.87279979  0.00346707  0.76345105  1
  O  O281  1  0.86299693  0.50910438  0.25562012  1
  O  O282  1  0.86310990  0.49498543  0.75843125  1
  O  O283  1  0.11751252  0.36545052  0.37801441  1
  O  O284  1  0.11670544  0.36121829  0.88079897  1
  O  O285  1  0.10828756  0.87219309  0.38269523  1
  O  O286  1  0.11437209  0.87205358  0.86673431  1
  O  O287  1  0.61215693  0.36482850  0.38005643  1
  O  O288  1  0.61378650  0.36728710  0.87404501  1
  O  O289  1  0.61945218  0.86420171  0.37999295  1
  O  O290  1  0.62007434  0.86602141  0.86967745  1
  O  O291  1  0.38895920  0.12806004  0.12823677  1
  O  O292  1  0.37969452  0.13324649  0.62296996  1
  O  O293  1  0.37734159  0.63043889  0.11586054  1
  O  O294  1  0.38310618  0.63628143  0.62031169  1
  O  O295  1  0.87787711  0.13596114  0.13339305  1
  O  O296  1  0.88481485  0.13841246  0.62221674  1
  O  O297  1  0.87595704  0.61919920  0.13491912  1
  O  O298  1  0.88584328  0.63526328  0.61832995  1
  O  O299  1  0.26210160  0.24528006  0.11739083  1
  O  O300  1  0.25568607  0.25717574  0.61813194  1
  O  O301  1  0.25683515  0.75271519  0.12147179  1
  O  O302  1  0.25437396  0.75428366  0.61347682  1
  O  O303  1  0.75354645  0.25779286  0.11796026  1
  O  O304  1  0.75656722  0.25969009  0.61896769  1
  O  O305  1  0.75043714  0.74364358  0.11018089  1
  O  O306  1  0.75688286  0.75614449  0.62466873  1
  O  O307  1  0.24456198  0.24263579  0.37936528  1
  O  O308  1  0.24370376  0.24596924  0.87836497  1
  O  O309  1  0.24414844  0.74579023  0.38450491  1
  O  O310  1  0.23996063  0.75460239  0.88270079  1
  O  O311  1  0.74199132  0.26149825  0.38374721  1
  O  O312  1  0.74140870  0.25917717  0.88445131  1
  O  O313  1  0.74483051  0.74435288  0.37503147  1
  O  O314  1  0.74396666  0.74667081  0.87670199  1
  O  O315  1  0.01337184  0.13093867  0.00351614  1
  O  O316  1  0.00854147  0.13267221  0.51307460  1
  O  O317  1  0.01160869  0.61736086  -0.00178676  1
  O  O318  1  0.00410840  0.61637096  0.50248152  1
  O  O319  1  0.50174335  0.11391129  0.00586732  1
  O  O320  1  0.49992666  0.11728821  0.50928930  1
  O  O321  1  0.51598898  0.62895840  0.00328124  1
  O  O322  1  0.50530669  0.61901238  0.50244161  1
  O  O323  1  0.49531380  0.38393347  0.49710066  1
  O  O324  1  0.50303953  0.37169848  0.98544688  1
  O  O325  1  0.49928036  0.87921000  0.48779500  1
  O  O326  1  0.49376990  0.87893276  0.99574794  1
  O  O327  1  0.99949531  0.38790886  0.49867293  1
  O  O328  1  0.99431189  0.38108716  0.98801807  1
  O  O329  1  0.98863931  0.87830686  0.50354506  1
  O  O330  1  1.00061835  0.87535572  0.98542892  1
  O  O331  1  0.50385196  0.49082525  0.38231275  1
  O  O332  1  0.48873407  0.48818200  0.87519658  1
  O  O333  1  0.49828713  0.99309361  0.37778808  1
  O  O334  1  0.49834023  0.99232014  0.88158871  1
  O  O335  1  0.99891033  0.49376610  0.38248399  1
  O  O336  1  0.99619213  0.49372210  0.87892502  1
  O  O337  1  0.99055723  0.98861417  0.37511740  1
  O  O338  1  0.99642280  0.98791401  0.87097815  1
  O  O339  1  0.01332222  0.00466675  0.13318997  1
  O  O340  1  0.01040211  0.00977431  0.62981027  1
  O  O341  1  0.01189436  0.49087578  0.11717577  1
  O  O342  1  -0.00285230  0.50785502  0.61881032  1
  O  O343  1  0.50341485  0.00436161  0.11797532  1
  O  O344  1  0.50410549  0.00435085  0.61826366  1
  O  O345  1  0.50484785  0.50728715  0.13571527  1
  O  O346  1  0.49361562  0.51208235  0.61882615  1
  O  O347  1  0.28790039  0.38707924  0.24310383  1
  O  O348  1  0.25374119  0.37086112  0.73285347  1
  O  O349  1  0.25593468  0.88877443  0.24982769  1
  O  O350  1  0.23627225  0.87283605  0.74292890  1
  O  O351  1  0.75371592  0.38566790  0.23884814  1
  O  O352  1  0.74791926  0.38442842  0.74022343  1
  O  O353  1  0.75829782  0.89297193  0.25516248  1
  O  O354  1  0.74399998  0.87708035  0.73769336  1
  O  O355  1  0.25943848  0.11581872  0.25516984  1
  O  O356  1  0.24728598  0.12567536  0.76293108  1
  O  O357  1  0.24365432  0.62542441  0.26624991  1
  O  O358  1  0.25550201  0.62574894  0.74153109  1
  O  O359  1  0.76418801  0.11531804  0.25188389  1
  O  O360  1  0.75752882  0.12057105  0.73765259  1
  O  O361  1  0.75790061  0.61865185  0.25723797  1
  O  O362  1  0.75010154  0.61127238  0.74928057  1
  O  O363  1  0.37149877  0.11847891  0.36960880  1
  O  O364  1  0.36498997  0.12283241  0.87221034  1
  O  O365  1  0.35815001  0.63171736  0.37892375  1
  O  O366  1  0.38169151  0.60960214  0.87741801  1
  O  O367  1  0.88122983  0.11620922  0.37407764  1
  O  O368  1  0.88454884  0.10977964  0.87469937  1
  O  O369  1  0.86349896  0.62203034  0.37741550  1
  O  O370  1  0.87710001  0.61055079  0.87535286  1
  O  O371  1  0.12840649  0.37995125  0.12681552  1
  O  O372  1  0.14124723  0.37168932  0.61589837  1
  O  O373  1  0.12705653  0.89307028  0.12402050  1
  O  O374  1  0.12597740  0.88331719  0.62939153  1
  O  O375  1  0.63489233  0.38592472  0.11971053  1
  O  O376  1  0.63601185  0.37368100  0.62493981  1
  O  O377  1  0.64010658  0.87605962  0.12440635  1
  O  O378  1  0.63136919  0.87661713  0.62688821  1
  O  O379  1  0.13220408  0.24373463  0.26129561  1
  O  O380  1  0.11254386  0.24790232  0.75684453  1
  O  O381  1  0.13054622  0.75499024  0.26915236  1
  O  O382  1  0.11636525  0.75885725  0.75202623  1
  O  O383  1  0.61681158  0.24511216  0.25442168  1
  O  O384  1  0.62249680  0.25692905  0.75706671  1
  O  O385  1  0.61866329  0.74227680  0.26054342  1
  O  O386  1  0.62083311  0.75279042  0.75957207  1
  O  O387  1  0.38903952  0.24015073  0.24253065  1
  O  O388  1  0.37522399  0.24759350  0.73528735  1
  O  O389  1  0.38212596  0.75213087  0.23666276  1
  O  O390  1  0.38213272  0.74828966  0.74164170  1
  O  O391  1  0.86656240  0.24416926  0.24089090  1
  O  O392  1  0.88564048  0.25055048  0.74369072  1
  O  O393  1  0.87272110  0.73417989  0.25070186  1
  O  O394  1  0.88134902  0.75839411  0.73758623  1
  O  O395  1  0.38647374  0.49329952  0.50160286  1
  O  O396  1  0.36778911  0.50462593  0.99082955  1
  O  O397  1  0.38236590  0.99728245  0.49273687  1
  O  O398  1  0.38482423  0.99066873  0.99953657  1
  O  O399  1  0.88278919  0.50002578  0.49212009  1
  O  O400  1  0.88619608  0.49639501  0.99449546  1
  O  O401  1  0.86860420  0.99461464  0.49236937  1
  O  O402  1  0.87582203  1.00342686  0.98730955  1
  O  O403  1  0.13051866  0.00877375  0.01465004  1
  O  O404  1  0.12767257  0.01405926  0.50618504  1
  O  O405  1  0.11439206  0.49457951  0.00805609  1
  O  O406  1  0.11720856  0.50859580  0.50510026  1
  O  O407  1  0.61481161  -0.00001618  -0.00102864  1
  O  O408  1  0.61833580  0.00088205  0.50437117  1
  O  O409  1  0.63105055  0.50797880  0.00815573  1
  O  O410  1  0.61528349  0.51245363  0.49574371  1
  O  O411  1  0.38398024  0.35428526  0.11413822  1
  O  O412  1  0.36856460  0.36884352  0.61495941  1
  O  O413  1  0.37408348  0.86605441  0.11380075  1
  O  O414  1  0.36980238  0.86257192  0.62245823  1
  O  O415  1  0.86418722  0.37121535  0.11947291  1
  O  O416  1  0.86883541  0.36428086  0.62317926  1
  O  O417  1  0.86794265  0.87563320  0.12094709  1
  O  O418  1  0.86886666  0.87304273  0.62118534  1
  O  O419  1  0.12594858  0.12884425  0.38073436  1
  O  O420  1  0.12760880  0.13380728  0.88037977  1
  O  O421  1  0.12636606  0.63436059  0.38540071  1
  O  O422  1  0.11411807  0.64180617  0.87311110  1
  O  O423  1  0.62084856  0.14228330  0.37989040  1
  O  O424  1  0.61688858  0.14183008  0.87562642  1
  O  O425  1  0.63721190  0.63000792  0.37981944  1
  O  O426  1  0.62588251  0.63063016  0.88003050  1
