# generated using pymatgen
data_V85Zn86O256
_symmetry_space_group_name_H-M   'P 1'
_cell_length_a   16.91924461
_cell_length_b   16.92567134
_cell_length_c   16.92240617
_cell_angle_alpha   89.98884641
_cell_angle_beta   90.07363783
_cell_angle_gamma   89.93460585
_symmetry_Int_Tables_number   1
_chemical_formula_structural   V85Zn86O256
_chemical_formula_sum   'V85 Zn86 O256'
_cell_volume   4846.05498891
_cell_formula_units_Z   1
loop_
 _symmetry_equiv_pos_site_id
 _symmetry_equiv_pos_as_xyz
  1  'x, y, z'
loop_
 _atom_site_type_symbol
 _atom_site_label
 _atom_site_symmetry_multiplicity
 _atom_site_fract_x
 _atom_site_fract_y
 _atom_site_fract_z
 _atom_site_occupancy
  V  V0  1  0.87563647  0.12694560  0.74563489  1
  V  V1  1  0.37513818  0.87581467  -0.00107337  1
  V  V2  1  0.37054625  0.49982378  0.87552462  1
  V  V3  1  0.24795783  0.39124077  0.12872408  1
  V  V4  1  0.87928113  0.74431358  0.62315426  1
  V  V5  1  0.37740827  0.38011541  0.00353590  1
  V  V6  1  0.49737506  0.63356875  0.12195659  1
  V  V7  1  0.74738590  0.88635158  0.12723123  1
  V  V8  1  0.37699675  0.74735000  0.62605141  1
  V  V9  1  0.49621201  0.88036193  0.87593068  1
  V  V10  1  0.62846652  0.12536118  0.50355325  1
  V  V11  1  0.12384816  0.74945835  0.37464793  1
  V  V12  1  0.49148756  0.13220019  0.62622652  1
  V  V13  1  0.24149028  0.62504989  0.87269097  1
  V  V14  1  0.00293115  0.13277042  0.11586753  1
  V  V15  1  0.61994823  0.63819216  -0.00328811  1
  V  V16  1  0.86717570  0.63129726  0.24469068  1
  V  V17  1  0.87798754  0.62231125  0.74553056  1
  V  V18  1  0.49911700  0.50160822  0.50021424  1
  V  V19  1  0.86931260  0.50325366  0.37302812  1
  V  V20  1  0.74765678  0.50320663  0.24466759  1
  V  V21  1  0.87329116  0.87420961  0.49870844  1
  V  V22  1  0.51451117  0.75419298  0.26484705  1
  V  V23  1  0.49996784  0.25054593  0.24815534  1
  V  V24  1  0.13665065  0.23996634  0.37111557  1
  V  V25  1  0.62150309  0.11639276  0.00179740  1
  V  V26  1  0.00166097  -0.00132436  0.50294496  1
  V  V27  1  0.86871108  0.37698559  0.00876785  1
  V  V28  1  0.62703640  0.89538132  0.25740484  1
  V  V29  1  0.13002301  0.38982502  0.24941206  1
  V  V30  1  0.00690959  0.74359617  0.75036726  1
  V  V31  1  0.24737616  0.74739348  0.00016229  1
  V  V32  1  0.63053542  0.25151392  0.37635001  1
  V  V33  1  0.12639191  0.23929946  0.88062777  1
  V  V34  1  0.50010544  0.37816188  0.87961934  1
  V  V35  1  -0.00478113  0.75261498  0.24035019  1
  V  V36  1  0.25707103  -0.00321949  0.75902145  1
  V  V37  1  0.25762621  0.86814626  0.12801894  1
  V  V38  1  0.74816202  0.74537197  0.48599954  1
  V  V39  1  -0.00129810  0.86820224  0.87747159  1
  V  V40  1  0.37074485  0.49985085  0.36803815  1
  V  V41  1  0.87348587  0.50019534  0.87676199  1
  V  V42  1  -0.00143463  0.87310373  0.37587864  1
  V  V43  1  0.87835271  0.36774544  0.50306710  1
  V  V44  1  0.24637492  0.62055038  0.36998297  1
  V  V45  1  0.50051264  -0.00575707  0.49818622  1
  V  V46  1  0.36876366  0.36328621  0.50249599  1
  V  V47  1  0.36954925  0.00723166  0.37739805  1
  V  V48  1  0.74448328  0.63540900  0.87416401  1
  V  V49  1  0.12542521  0.87610044  0.24819825  1
  V  V50  1  0.75012248  0.49863358  0.74969286  1
  V  V51  1  0.13370009  0.50352009  0.62899940  1
  V  V52  1  0.50085376  0.37632237  0.37483880  1
  V  V53  1  0.75153350  -0.00050471  0.75064966  1
  V  V54  1  0.74920459  0.86949345  0.62604841  1
  V  V55  1  0.00897326  0.50034237  0.00324224  1
  V  V56  1  -0.00101672  0.00487480  -0.00323767  1
  V  V57  1  0.12878647  0.00406764  0.11591207  1
  V  V58  1  0.62250263  0.37390396  0.74813230  1
  V  V59  1  -0.00010088  0.13099331  0.62047364  1
  V  V60  1  0.50401238  0.74503114  0.75790604  1
  V  V61  1  0.13721323  0.12418569  0.49435503  1
  V  V62  1  0.00324133  0.62289361  0.12476578  1
  V  V63  1  -0.00044448  0.25482696  0.24608410  1
  V  V64  1  0.13541603  0.37780152  0.75123682  1
  V  V65  1  0.37363820  0.63678458  0.24726022  1
  V  V66  1  0.75494244  0.36740095  0.62539774  1
  V  V67  1  0.12597986  0.87273631  0.75466710  1
  V  V68  1  0.24634214  0.00980366  0.25406499  1
  V  V69  1  0.25109644  0.87330940  0.62720125  1
  V  V70  1  0.37364673  0.12816823  0.75919515  1
  V  V71  1  -0.00238063  0.25273969  0.74609018  1
  V  V72  1  0.37884060  0.87205917  0.49394031  1
  V  V73  1  0.37160201  0.61777843  0.74873684  1
  V  V74  1  0.62678151  0.86810586  0.75848642  1
  V  V75  1  0.37253869  0.24757538  0.12513838  1
  V  V76  1  0.00314062  0.37608815  0.37863169  1
  V  V77  1  0.62217900  -0.00200538  0.62762223  1
  V  V78  1  0.62884619  0.62709878  0.48813467  1
  V  V79  1  0.63229352  0.37553480  0.24314096  1
  V  V80  1  0.24932027  0.74832973  0.49904646  1
  V  V81  1  0.00012086  0.37532459  0.87595815  1
  V  V82  1  0.62084860  0.50038924  0.11439826  1
  V  V83  1  0.74468081  0.25345852  0.00196167  1
  V  V84  1  -0.00223973  0.50583140  0.50902509  1
  Zn  Zn85  1  0.50426777  0.62505779  0.62560847  1
  Zn  Zn86  1  0.12791781  0.00063515  0.62695145  1
  Zn  Zn87  1  0.87467768  0.00102667  0.87738805  1
  Zn  Zn88  1  0.49583828  -0.00162902  0.00381438  1
  Zn  Zn89  1  0.74487766  0.11087943  0.35803192  1
  Zn  Zn90  1  0.86738644  0.25133023  0.12644621  1
  Zn  Zn91  1  0.87030264  0.00361559  0.37000669  1
  Zn  Zn92  1  0.25220526  0.11363262  0.89181254  1
  Zn  Zn93  1  0.48978058  0.25688318  0.74546450  1
  Zn  Zn94  1  0.26074771  0.36564589  0.63024745  1
  Zn  Zn95  1  0.75672099  0.75085308  0.01230700  1
  Zn  Zn96  1  0.62214103  0.24879727  0.87352857  1
  Zn  Zn97  1  0.87100242  0.12377280  0.24935251  1
  Zn  Zn98  1  0.87829126  0.86967663  0.01479125  1
  Zn  Zn99  1  0.37164695  0.12791082  0.25451562  1
  Zn  Zn100  1  0.62713570  0.50110051  0.62197501  1
  Zn  Zn101  1  0.24543493  0.24480528  0.00634296  1
  Zn  Zn102  1  0.11907716  0.62688325  0.50408892  1
  Zn  Zn103  1  0.74863631  0.12664604  0.87426022  1
  Zn  Zn104  1  0.75784752  0.24627958  0.50116297  1
  Zn  Zn105  1  0.12556567  0.62678924  0.00202026  1
  Zn  Zn106  1  0.50234217  0.11308253  0.13140124  1
  Zn  Zn107  1  0.18477168  0.19066294  0.18489952  1
  Zn  Zn108  1  0.19099359  0.18491607  0.69091562  1
  Zn  Zn109  1  0.18534266  0.68614749  0.18732590  1
  Zn  Zn110  1  0.18909280  0.68415325  0.68770527  1
  Zn  Zn111  1  0.68811269  0.18498743  0.18132270  1
  Zn  Zn112  1  0.68503143  0.18870954  0.68678639  1
  Zn  Zn113  1  0.68858761  0.69328657  0.18311748  1
  Zn  Zn114  1  0.68725096  0.68387543  0.68123268  1
  Zn  Zn115  1  0.31183038  0.31619815  0.31097800  1
  Zn  Zn116  1  0.31184230  0.30804204  0.81553820  1
  Zn  Zn117  1  0.31385663  0.81369354  0.31288912  1
  Zn  Zn118  1  0.31504154  0.80556562  0.81632734  1
  Zn  Zn119  1  0.81285189  0.31186426  0.31212561  1
  Zn  Zn120  1  0.81306435  0.31069239  0.81685806  1
  Zn  Zn121  1  0.80919348  0.81876558  0.30567701  1
  Zn  Zn122  1  0.81846756  0.81002336  0.81707861  1
  Zn  Zn123  1  0.18605438  0.43812161  0.43933874  1
  Zn  Zn124  1  0.19095403  0.43486380  0.93864901  1
  Zn  Zn125  1  0.18714463  0.93730240  0.43828764  1
  Zn  Zn126  1  0.18597478  0.93132808  0.93773480  1
  Zn  Zn127  1  0.68988017  0.43894780  0.43589750  1
  Zn  Zn128  1  0.68677837  0.44056792  0.93602647  1
  Zn  Zn129  1  0.68560001  0.93242172  0.43358681  1
  Zn  Zn130  1  0.68932191  0.93534714  0.93797727  1
  Zn  Zn131  1  0.31624613  0.06183907  0.06475021  1
  Zn  Zn132  1  0.31317680  0.05981351  0.56908291  1
  Zn  Zn133  1  0.31760616  0.56509867  0.06061991  1
  Zn  Zn134  1  0.31131828  0.55976761  0.55851364  1
  Zn  Zn135  1  0.81322641  0.06378051  0.06426263  1
  Zn  Zn136  1  0.81362613  0.05948859  0.56080237  1
  Zn  Zn137  1  0.81083392  0.56513888  0.06383179  1
  Zn  Zn138  1  0.80946031  0.55909482  0.56232639  1
  Zn  Zn139  1  0.44081238  0.44224286  0.18690943  1
  Zn  Zn140  1  0.43708495  0.43943376  0.68460194  1
  Zn  Zn141  1  0.43987969  0.93546292  0.19025026  1
  Zn  Zn142  1  0.43695279  0.93842038  0.68803768  1
  Zn  Zn143  1  0.93883028  0.43994135  0.18742299  1
  Zn  Zn144  1  0.94137686  0.43602632  0.68517791  1
  Zn  Zn145  1  0.93203403  0.94229805  0.18572021  1
  Zn  Zn146  1  0.93825108  0.93580821  0.68597574  1
  Zn  Zn147  1  0.04045177  0.05600333  0.30263778  1
  Zn  Zn148  1  0.06321652  0.05971344  0.80976059  1
  Zn  Zn149  1  0.05669833  0.56532378  0.31466086  1
  Zn  Zn150  1  0.06126325  0.55990731  0.81147788  1
  Zn  Zn151  1  0.55700816  0.06596485  0.32025586  1
  Zn  Zn152  1  0.56176475  0.06261747  0.81605453  1
  Zn  Zn153  1  0.56045248  0.56430627  0.30920627  1
  Zn  Zn154  1  0.56050459  0.55799621  0.81554516  1
  Zn  Zn155  1  0.44219951  0.18545543  0.43633665  1
  Zn  Zn156  1  0.43827044  0.19271966  0.93798177  1
  Zn  Zn157  1  0.43802938  0.68484029  0.43580506  1
  Zn  Zn158  1  0.43294058  0.69183540  0.93943483  1
  Zn  Zn159  1  0.94099074  0.18631330  0.43140266  1
  Zn  Zn160  1  0.93394380  0.18913831  0.93456603  1
  Zn  Zn161  1  0.93404116  0.68561217  0.43131414  1
  Zn  Zn162  1  0.93575174  0.68793367  0.93675933  1
  Zn  Zn163  1  0.06478690  0.31987597  0.06217315  1
  Zn  Zn164  1  0.10605268  0.29239818  0.57863503  1
  Zn  Zn165  1  0.06711481  0.81268173  0.06135910  1
  Zn  Zn166  1  0.06303766  0.81036707  0.56650816  1
  Zn  Zn167  1  0.56189442  0.31037035  0.06189489  1
  Zn  Zn168  1  0.56188181  0.31417998  0.56269525  1
  Zn  Zn169  1  0.56486295  0.81624377  0.07147357  1
  Zn  Zn170  1  0.56359597  0.80793089  0.56483806  1
  O  O171  1  0.11401654  0.11774345  0.12667390  1
  O  O172  1  0.11444185  0.12155411  0.61616316  1
  O  O173  1  0.10891025  0.62641185  0.12481694  1
  O  O174  1  0.12864666  0.60934453  0.62383169  1
  O  O175  1  0.61732424  0.13473522  0.10606784  1
  O  O176  1  0.61523698  0.11738143  0.62338764  1
  O  O177  1  0.61874904  0.62037616  0.11585440  1
  O  O178  1  0.62247294  0.61902798  0.61286155  1
  O  O179  1  0.38043818  0.38280216  0.37963887  1
  O  O180  1  0.37617811  0.37992856  0.88251952  1
  O  O181  1  0.37072181  0.88255956  0.38956796  1
  O  O182  1  0.38464621  0.86898492  0.88320759  1
  O  O183  1  0.88247662  0.38392283  0.37929231  1
  O  O184  1  0.88217077  0.38187859  0.88129339  1
  O  O185  1  0.88392535  0.87627609  0.38081861  1
  O  O186  1  0.89253923  0.88282148  0.86514219  1
  O  O187  1  0.25616128  -0.00604105  0.36615952  1
  O  O188  1  0.24354451  -0.00212459  0.86337594  1
  O  O189  1  0.25668518  0.50947616  0.37884990  1
  O  O190  1  0.26218282  0.50641473  0.87956926  1
  O  O191  1  0.75932413  0.00434116  0.39585655  1
  O  O192  1  0.75179967  0.00019023  0.86081033  1
  O  O193  1  0.75927952  0.49483480  0.36183896  1
  O  O194  1  0.75593799  0.50595452  0.86601346  1
  O  O195  1  0.25255513  0.48988412  0.12229345  1
  O  O196  1  0.23635883  0.49103597  0.61798858  1
  O  O197  1  0.24369342  0.99226244  0.13379391  1
  O  O198  1  0.24993466  0.98869371  0.63792543  1
  O  O199  1  0.73940694  0.50447122  0.13640018  1
  O  O200  1  0.74997331  0.48908905  0.63431953  1
  O  O201  1  0.75028903  0.98793270  0.12180661  1
  O  O202  1  0.74516954  0.99137500  0.63425129  1
  O  O203  1  0.00832294  0.37156213  0.25411791  1
  O  O204  1  0.00451440  0.36818674  0.75639023  1
  O  O205  1  0.00569405  0.86737140  0.25368118  1
  O  O206  1  0.00851641  0.86741384  0.75292044  1
  O  O207  1  0.50719953  0.36812961  0.25570068  1
  O  O208  1  0.50689720  0.37605876  0.75265470  1
  O  O209  1  0.51245037  0.86128534  0.24499950  1
  O  O210  1  0.50597870  0.86816363  0.75592267  1
  O  O211  1  0.49947682  0.14042941  0.25165873  1
  O  O212  1  0.48792347  0.12380798  0.74528186  1
  O  O213  1  0.49310976  0.63588770  0.24704643  1
  O  O214  1  0.49436069  0.62959264  0.74981926  1
  O  O215  1  1.00719561  0.14718076  0.23836731  1
  O  O216  1  0.99610660  0.13042947  0.74149995  1
  O  O217  1  0.99264753  0.63260625  0.24348956  1
  O  O218  1  0.99027971  0.63180209  0.75486298  1
  O  O219  1  0.37434441  0.26241879  0.00923551  1
  O  O220  1  0.38151734  0.26514554  0.49202059  1
  O  O221  1  0.36071035  0.76010465  -0.00007303  1
  O  O222  1  0.37230480  0.75501067  0.50469133  1
  O  O223  1  0.86754918  0.26053411  -0.00113856  1
  O  O224  1  0.87786065  0.26443536  0.49445573  1
  O  O225  1  0.86697044  0.76118190  -0.01810929  1
  O  O226  1  0.87099648  0.75090810  0.50628628  1
  O  O227  1  0.11518342  0.23834777  0.47807692  1
  O  O228  1  0.12219930  0.25755738  0.98332326  1
  O  O229  1  0.12934114  0.74736693  0.49458575  1
  O  O230  1  0.13952729  0.74733623  1.00083326  1
  O  O231  1  0.62387016  0.24302638  0.49257517  1
  O  O232  1  0.62991222  0.24640785  0.99404618  1
  O  O233  1  0.63286228  0.73690435  0.50335201  1
  O  O234  1  0.62782628  0.74004388  1.00243239  1
  O  O235  1  0.48830707  0.25365075  0.13394720  1
  O  O236  1  0.50529463  0.23630714  0.62733799  1
  O  O237  1  0.50423491  0.73788100  0.13722972  1
  O  O238  1  0.49186703  0.74799052  0.63650321  1
  O  O239  1  1.00248600  0.24780267  0.12731122  1
  O  O240  1  1.00960101  0.24220454  0.63330051  1
  O  O241  1  1.00167855  0.74655352  0.13504594  1
  O  O242  1  0.98694708  0.75084238  0.63183694  1
  O  O243  1  0.00531986  0.26306899  0.36517238  1
  O  O244  1  0.00828019  0.25481035  0.86878932  1
  O  O245  1  0.00513728  0.75469110  0.36715561  1
  O  O246  1  -0.00054201  0.75620332  0.86272836  1
  O  O247  1  0.51126562  0.25494585  0.36883650  1
  O  O248  1  0.49755170  0.26586296  0.86756196  1
  O  O249  1  0.49664022  0.75022813  0.36321284  1
  O  O250  1  0.49652185  0.75620407  0.86222257  1
  O  O251  1  0.23635178  0.11597187  0.50368052  1
  O  O252  1  0.25357600  0.13091540  1.00283532  1
  O  O253  1  0.24860594  0.63124867  0.48781424  1
  O  O254  1  0.24991660  0.63017323  0.99364526  1
  O  O255  1  0.73485131  0.12913224  0.51401228  1
  O  O256  1  0.74007803  0.13172954  0.99787256  1
  O  O257  1  0.73850700  0.62925736  0.50150838  1
  O  O258  1  0.74259802  0.62742398  0.99085123  1
  O  O259  1  0.25567376  0.37085864  0.01347907  1
  O  O260  1  0.26702331  0.37727998  0.49546100  1
  O  O261  1  0.25355622  0.86746638  0.00718879  1
  O  O262  1  0.25662654  0.86840450  0.50706114  1
  O  O263  1  0.75858977  0.36956680  -0.00809573  1
  O  O264  1  0.75963827  0.37600167  0.50778050  1
  O  O265  1  0.74719813  0.87416662  0.01321912  1
  O  O266  1  0.75186377  0.86316397  0.50817698  1
  O  O267  1  0.12041988  0.48886325  0.25729104  1
  O  O268  1  0.12056210  0.49377641  0.73810343  1
  O  O269  1  0.12786743  0.99482647  0.24169651  1
  O  O270  1  0.13187640  0.98913943  0.74702325  1
  O  O271  1  0.63067345  0.49524618  0.24480117  1
  O  O272  1  0.63143376  0.48947757  0.74874080  1
  O  O273  1  0.61525201  0.99420867  0.25451386  1
  O  O274  1  0.63117816  0.99272285  0.74575222  1
  O  O275  1  0.36540877  -0.00226147  0.26193705  1
  O  O276  1  0.36741694  0.00992073  0.74839694  1
  O  O277  1  0.38293223  0.51019820  0.26367763  1
  O  O278  1  0.37721380  0.51049692  0.75519182  1
  O  O279  1  0.92449516  0.01782776  0.26584848  1
  O  O280  1  0.86769105  0.00721235  0.74683853  1
  O  O281  1  0.86642185  0.50386179  0.25370842  1
  O  O282  1  0.87190264  0.50559586  0.75396317  1
  O  O283  1  0.11993420  0.36813939  0.37047756  1
  O  O284  1  0.11897697  0.37289619  0.86782856  1
  O  O285  1  0.11930859  0.86803228  0.36959029  1
  O  O286  1  0.11549096  0.87400926  0.86252112  1
  O  O287  1  0.61990106  0.37015906  0.36842860  1
  O  O288  1  0.61544920  0.37828033  0.86734906  1
  O  O289  1  0.62538823  0.87375662  0.35742218  1
  O  O290  1  0.62016233  0.87452420  0.86322406  1
  O  O291  1  0.37894067  0.13634467  0.13196401  1
  O  O292  1  0.38326411  0.12117959  0.63533006  1
  O  O293  1  0.38336155  0.61969605  0.13635105  1
  O  O294  1  0.37514607  0.62766491  0.63165925  1
  O  O295  1  0.89128104  0.12932186  0.12431887  1
  O  O296  1  0.88760806  0.12225843  0.63299931  1
  O  O297  1  0.88440515  0.62165116  0.13702370  1
  O  O298  1  0.86899619  0.62895401  0.63660047  1
  O  O299  1  0.26162716  0.26009667  0.12970501  1
  O  O300  1  0.21286530  0.26393287  0.61760354  1
  O  O301  1  0.24464496  0.75863311  0.11970649  1
  O  O302  1  0.25697755  0.75341253  0.61976323  1
  O  O303  1  0.75004776  0.25294906  0.10752153  1
  O  O304  1  0.74823870  0.26341054  0.62366010  1
  O  O305  1  0.74974525  0.76734393  0.12724518  1
  O  O306  1  0.76218868  0.75251843  0.62067618  1
  O  O307  1  0.23551518  0.24970545  0.36787821  1
  O  O308  1  0.23411039  0.24884352  0.87667239  1
  O  O309  1  0.24321153  0.74513271  0.37956913  1
  O  O310  1  0.25316657  0.73635654  0.88391319  1
  O  O311  1  0.73749497  0.25372139  0.37948701  1
  O  O312  1  0.74772377  0.24686191  0.88500175  1
  O  O313  1  0.75920555  0.75205492  0.38765119  1
  O  O314  1  0.74584334  0.73663947  0.86671447  1
  O  O315  1  -0.00193669  0.11825869  0.00260977  1
  O  O316  1  0.00495783  0.11714848  0.50508387  1
  O  O317  1  -0.00076657  0.61832677  0.00593888  1
  O  O318  1  0.00001030  0.61019358  0.49027428  1
  O  O319  1  0.51087569  0.12491305  -0.00404649  1
  O  O320  1  0.50839186  0.11853494  0.50846788  1
  O  O321  1  0.50506690  0.63169575  0.00793054  1
  O  O322  1  0.50918486  0.61911120  0.49988032  1
  O  O323  1  0.49428876  0.38310440  0.49379692  1
  O  O324  1  0.49105806  0.37315018  0.99216768  1
  O  O325  1  0.49140046  0.88187892  0.50945851  1
  O  O326  1  0.49326752  0.86782203  0.99303110  1
  O  O327  1  0.99360420  0.38688451  0.49096825  1
  O  O328  1  0.99274278  0.38377543  0.99530250  1
  O  O329  1  0.99608638  0.87895705  0.49830253  1
  O  O330  1  1.00167629  0.88074644  0.99196796  1
  O  O331  1  0.49394191  0.49674216  0.38248352  1
  O  O332  1  0.48563274  0.48769824  0.87046961  1
  O  O333  1  0.49029842  1.00224087  0.39161875  1
  O  O334  1  0.50262955  0.98385642  0.87836095  1
  O  O335  1  0.99302439  0.48988790  0.37849847  1
  O  O336  1  0.99210169  0.49648255  0.88245936  1
  O  O337  1  1.00831914  0.98879858  0.39363058  1
  O  O338  1  1.00497111  0.99408111  0.88556503  1
  O  O339  1  0.00887626  0.00675385  0.11180613  1
  O  O340  1  0.00386991  0.00505305  0.61674484  1
  O  O341  1  -0.00452241  0.50884028  0.11482131  1
  O  O342  1  0.00599541  0.50112564  0.61462371  1
  O  O343  1  0.49100327  0.00145460  0.11818879  1
  O  O344  1  0.50229989  0.00735146  0.61712396  1
  O  O345  1  0.51167864  0.51693171  0.13433751  1
  O  O346  1  0.50082851  0.50161508  0.60978347  1
  O  O347  1  0.24564764  0.37865413  0.23851189  1
  O  O348  1  0.23904707  0.37365012  0.75122533  1
  O  O349  1  0.24379936  0.87942022  0.24426827  1
  O  O350  1  0.24594006  0.87583647  0.74907906  1
  O  O351  1  0.73769948  0.38124097  0.25118502  1
  O  O352  1  0.74614323  0.37921941  0.74542251  1
  O  O353  1  0.73683321  0.88075511  0.24492692  1
  O  O354  1  0.74495869  0.87818246  0.74738409  1
  O  O355  1  0.24886363  0.11264575  0.24567590  1
  O  O356  1  0.25945448  0.11523819  0.75261447  1
  O  O357  1  0.25676373  0.63131031  0.26103816  1
  O  O358  1  0.26029040  0.62959372  0.75936386  1
  O  O359  1  0.75683730  0.13168195  0.24689705  1
  O  O360  1  0.75792878  0.11784756  0.74549615  1
  O  O361  1  0.75730462  0.61838075  0.24601278  1
  O  O362  1  0.75414720  0.61705929  0.75390572  1
  O  O363  1  0.37636234  0.11227827  0.37581514  1
  O  O364  1  0.37384133  0.12708782  0.86332729  1
  O  O365  1  0.36667308  0.61930079  0.36865882  1
  O  O366  1  0.37038924  0.61663588  0.86937868  1
  O  O367  1  0.86835939  0.12571744  0.37275078  1
  O  O368  1  0.87479818  0.12101255  0.85871434  1
  O  O369  1  0.88049916  0.61069678  0.36073572  1
  O  O370  1  0.86601185  0.61900727  0.86328438  1
  O  O371  1  0.13981925  0.37382894  0.13316796  1
  O  O372  1  0.11548578  0.39062278  0.63797639  1
  O  O373  1  0.13261299  0.88368407  0.13064427  1
  O  O374  1  0.13315763  0.87340288  0.63659044  1
  O  O375  1  0.61522479  0.38609934  0.13333949  1
  O  O376  1  0.63216012  0.37885763  0.63119847  1
  O  O377  1  0.63446137  0.87355091  0.14181401  1
  O  O378  1  0.62901975  0.87884380  0.63529726  1
  O  O379  1  0.12060731  0.26035592  0.25814242  1
  O  O380  1  0.11497684  0.25784489  0.76180389  1
  O  O381  1  0.11599234  0.75539275  0.25551239  1
  O  O382  1  0.11356978  0.75395717  0.74201976  1
  O  O383  1  0.61981388  0.25868705  0.25390544  1
  O  O384  1  0.62422813  0.26393161  0.75189598  1
  O  O385  1  0.61485724  0.74287170  0.25729649  1
  O  O386  1  0.61659135  0.75659339  0.74204055  1
  O  O387  1  0.38326411  0.25182915  0.24614294  1
  O  O388  1  0.37081684  0.23443332  0.74783605  1
  O  O389  1  0.38233539  0.74065901  0.25450142  1
  O  O390  1  0.38235528  0.73822725  0.74539851  1
  O  O391  1  0.88680706  0.25717059  0.24421583  1
  O  O392  1  0.88870498  0.24393146  0.75315755  1
  O  O393  1  0.88332763  0.74137943  0.25809469  1
  O  O394  1  0.88296934  0.74180576  0.74284801  1
  O  O395  1  0.38291020  0.49684280  0.48832794  1
  O  O396  1  0.37350910  0.48817896  0.99270728  1
  O  O397  1  0.37913157  0.99208589  0.49738551  1
  O  O398  1  0.37105011  0.98061607  1.00131403  1
  O  O399  1  0.87962827  0.49563929  0.49174754  1
  O  O400  1  0.87784056  0.49511743  0.99444552  1
  O  O401  1  0.88670536  0.98958813  0.50555741  1
  O  O402  1  0.88558910  0.99456141  0.99731442  1
  O  O403  1  0.12145796  -0.00529937  0.01104356  1
  O  O404  1  0.11942290  0.00549881  0.50379298  1
  O  O405  1  0.11193280  0.50043732  -0.00433222  1
  O  O406  1  0.11585639  0.49931425  0.51111727  1
  O  O407  1  0.62436154  0.01411726  -0.00577114  1
  O  O408  1  0.61668161  0.00412591  0.50674145  1
  O  O409  1  0.62897567  0.50719087  0.01140561  1
  O  O410  1  0.61874517  0.50793449  0.49799238  1
  O  O411  1  0.36797942  0.37497652  0.12172233  1
  O  O412  1  0.37572694  0.37757275  0.60857390  1
  O  O413  1  0.36172953  0.87386379  0.12245088  1
  O  O414  1  0.36950741  0.86794235  0.61875941  1
  O  O415  1  0.87805017  0.37619889  0.11155117  1
  O  O416  1  0.86860674  0.38077448  0.61473050  1
  O  O417  1  0.85933247  0.87818422  0.13164686  1
  O  O418  1  0.86985298  0.86480916  0.61957053  1
  O  O419  1  0.11747247  0.13466688  0.37574126  1
  O  O420  1  0.12567960  0.13731776  0.86952590  1
  O  O421  1  0.13092886  0.63108496  0.37537251  1
  O  O422  1  0.13847669  0.61699416  0.87545578  1
  O  O423  1  0.62665814  0.13323908  0.38628527  1
  O  O424  1  0.62671214  0.12914855  0.88322374  1
  O  O425  1  0.62304030  0.62077414  0.38888130  1
  O  O426  1  0.63214492  0.61488724  0.88526805  1
