# generated using pymatgen
data_V85Zn86O256
_symmetry_space_group_name_H-M   'P 1'
_cell_length_a   16.91433177
_cell_length_b   16.91005586
_cell_length_c   16.90758363
_cell_angle_alpha   90.02008897
_cell_angle_beta   90.04813749
_cell_angle_gamma   89.97527571
_symmetry_Int_Tables_number   1
_chemical_formula_structural   V85Zn86O256
_chemical_formula_sum   'V85 Zn86 O256'
_cell_volume   4835.94342252
_cell_formula_units_Z   1
loop_
 _symmetry_equiv_pos_site_id
 _symmetry_equiv_pos_as_xyz
  1  'x, y, z'
loop_
 _atom_site_type_symbol
 _atom_site_label
 _atom_site_symmetry_multiplicity
 _atom_site_fract_x
 _atom_site_fract_y
 _atom_site_fract_z
 _atom_site_occupancy
  V  V0  1  0.74987256  0.37126280  0.12551731  1
  V  V1  1  0.49908654  0.62432230  0.61990145  1
  V  V2  1  0.37276612  0.63118139  0.24420902  1
  V  V3  1  0.49993176  0.12480940  0.62695098  1
  V  V4  1  0.61876619  0.75597939  0.87740397  1
  V  V5  1  0.49878971  0.25246284  0.75391739  1
  V  V6  1  0.74794887  0.37330048  0.62562953  1
  V  V7  1  0.12245833  0.38295099  0.74749256  1
  V  V8  1  0.38028839  0.49382896  0.87403734  1
  V  V9  1  0.49429087  0.75598755  0.74736325  1
  V  V10  1  0.37139838  0.86168156  0.49917397  1
  V  V11  1  0.25118929  0.49598545  0.24519804  1
  V  V12  1  0.12445864  0.74935881  0.37944723  1
  V  V13  1  0.49194049  0.12422863  0.12995050  1
  V  V14  1  0.12646595  0.87491809  0.75753872  1
  V  V15  1  -0.00296348  0.24869954  0.75173902  1
  V  V16  1  0.37121702  0.12609957  0.75682528  1
  V  V17  1  0.24888609  0.00384566  0.75265199  1
  V  V18  1  0.49992700  -0.00551644  -0.00276787  1
  V  V19  1  0.25318824  0.25910973  -0.00212211  1
  V  V20  1  0.87242042  0.87792730  0.50179750  1
  V  V21  1  0.37208047  0.25099996  0.62601450  1
  V  V22  1  0.74498312  0.25060300  0.48945236  1
  V  V23  1  0.62549537  0.49807551  0.12787589  1
  V  V24  1  0.13161012  0.00188351  0.61506638  1
  V  V25  1  0.37063791  0.25578240  0.13637354  1
  V  V26  1  0.12634896  0.36686817  0.24672807  1
  V  V27  1  0.25084097  0.62785391  0.37749196  1
  V  V28  1  0.00120899  0.75128045  0.75792723  1
  V  V29  1  0.37596298  -0.00528926  0.87529056  1
  V  V30  1  0.12615876  0.87738220  0.24369138  1
  V  V31  1  0.37243501  0.63040830  0.74659763  1
  V  V32  1  0.62225548  0.12701904  0.49378817  1
  V  V33  1  0.62635297  0.62604686  0.00158156  1
  V  V34  1  0.37945603  0.86517116  0.00185589  1
  V  V35  1  0.74650514  0.75206259  0.50062641  1
  V  V36  1  0.87338055  0.13521310  0.24413718  1
  V  V37  1  -0.00060123  0.50205125  0.49368941  1
  V  V38  1  0.13576065  0.11756090  0.00632421  1
  V  V39  1  0.87296487  0.38139515  0.49530060  1
  V  V40  1  0.61941633  0.88224044  0.75465408  1
  V  V41  1  0.74877316  0.62402792  0.87706001  1
  V  V42  1  0.74896856  0.49887057  0.75060485  1
  V  V43  1  0.12096793  0.24381416  0.38148066  1
  V  V44  1  0.75197231  0.24780715  -0.00045100  1
  V  V45  1  0.37533502  0.00789639  0.37509254  1
  V  V46  1  0.86538308  -0.00035692  0.36309903  1
  V  V47  1  0.25086980  0.00849542  0.24500675  1
  V  V48  1  0.00062140  0.87441402  0.37424555  1
  V  V49  1  0.50507033  0.36658100  0.37548267  1
  V  V50  1  0.50059923  0.75171693  0.24732544  1
  V  V51  1  0.37705712  0.37971856  0.50153379  1
  V  V52  1  0.87477298  0.62334114  0.75065389  1
  V  V53  1  0.38422260  0.50158247  0.37708266  1
  V  V54  1  0.25221140  0.86235248  0.62107701  1
  V  V55  1  0.75678791  0.75052075  0.00874651  1
  V  V56  1  0.61739239  0.37620451  0.75365426  1
  V  V57  1  0.00052774  0.00111090  -0.00911070  1
  V  V58  1  0.49642350  0.62576181  0.12290215  1
  V  V59  1  -0.00006127  0.50204656  0.00447387  1
  V  V60  1  0.62097155  0.25327418  0.87801638  1
  V  V61  1  0.88139546  0.87787552  -0.01617082  1
  V  V62  1  0.87440069  0.24883336  0.62353104  1
  V  V63  1  -0.00280762  0.37574103  0.36684003  1
  V  V64  1  0.24775501  0.62678315  0.87683076  1
  V  V65  1  0.12650496  0.49729713  0.12500927  1
  V  V66  1  0.00196697  0.00640282  0.49449227  1
  V  V67  1  0.88055137  0.61958547  0.24394462  1
  V  V68  1  0.13075127  0.24143577  0.87309552  1
  V  V69  1  0.62490502  0.12288704  0.00156455  1
  V  V70  1  0.62854824  0.87962478  0.24886003  1
  V  V71  1  0.79193152  0.93409368  0.68316969  1
  V  V72  1  0.12057248  0.62797711  0.00588126  1
  V  V73  1  0.62409318  -0.00405870  0.62436974  1
  V  V74  1  0.00546626  0.12696215  0.62152135  1
  V  V75  1  0.12905536  0.62178146  0.50306063  1
  V  V76  1  0.87778383  0.37348974  -0.00165030  1
  V  V77  1  0.75600143  0.11333544  0.86897267  1
  V  V78  1  0.00142268  0.61970500  0.62432842  1
  V  V79  1  -0.00469910  0.74752208  0.23691519  1
  V  V80  1  0.24379110  0.38404159  0.62129381  1
  V  V81  1  0.76248134  0.88161664  0.13081590  1
  V  V82  1  0.75397195  0.49948116  0.25840700  1
  V  V83  1  0.87056630  0.75020735  0.62542398  1
  V  V84  1  0.25594527  0.86784995  0.12718503  1
  Zn  Zn85  1  0.87671376  0.49962246  0.87659619  1
  Zn  Zn86  1  0.49761363  -0.00424102  0.50026226  1
  Zn  Zn87  1  0.24549576  0.24238533  0.50359492  1
  Zn  Zn88  1  0.62712449  0.74905076  0.37376760  1
  Zn  Zn89  1  0.62091407  0.62259675  0.49383376  1
  Zn  Zn90  1  0.00253241  0.37433315  0.87646032  1
  Zn  Zn91  1  0.50525108  0.24033712  0.25556048  1
  Zn  Zn92  1  0.62777664  0.36464216  0.25511924  1
  Zn  Zn93  1  0.61619383  0.49789349  0.62229356  1
  Zn  Zn94  1  0.38391432  0.37262189  -0.00020525  1
  Zn  Zn95  1  0.87313976  0.10956094  0.75057228  1
  Zn  Zn96  1  0.24437298  0.50398455  0.74689673  1
  Zn  Zn97  1  0.00647824  0.12291499  0.12687853  1
  Zn  Zn98  1  0.25235396  0.74758362  0.00596284  1
  Zn  Zn99  1  0.50423219  0.49321780  -0.00514769  1
  Zn  Zn100  1  0.62793673  0.00039486  0.12740109  1
  Zn  Zn101  1  0.24557618  0.12423032  0.38261656  1
  Zn  Zn102  1  0.12252948  0.75423466  0.88169433  1
  Zn  Zn103  1  0.75354639  0.62512233  0.37592289  1
  Zn  Zn104  1  0.88992341  0.25218834  0.12558586  1
  Zn  Zn105  1  0.50054142  0.87304176  0.37602482  1
  Zn  Zn106  1  0.74017465  0.12386441  0.36446127  1
  Zn  Zn107  1  0.18922091  0.18989633  0.18584365  1
  Zn  Zn108  1  0.18721640  0.18991845  0.68479037  1
  Zn  Zn109  1  0.18413265  0.68740451  0.18835990  1
  Zn  Zn110  1  0.18518522  0.68679288  0.68763002  1
  Zn  Zn111  1  0.68811108  0.18643133  0.19000185  1
  Zn  Zn112  1  0.68738265  0.18646652  0.68640604  1
  Zn  Zn113  1  0.68962911  0.68817943  0.18930227  1
  Zn  Zn114  1  0.68385156  0.69098205  0.68815581  1
  Zn  Zn115  1  0.30953652  0.31184763  0.31564398  1
  Zn  Zn116  1  0.30576261  0.31360100  0.81103994  1
  Zn  Zn117  1  0.31253587  0.81243486  0.31475484  1
  Zn  Zn118  1  0.30977731  0.81373973  0.81519544  1
  Zn  Zn119  1  0.81234165  0.31325537  0.31285245  1
  Zn  Zn120  1  0.81028997  0.30927245  0.81485945  1
  Zn  Zn121  1  0.81544434  0.80968735  0.31288668  1
  Zn  Zn122  1  0.80988269  0.80441030  0.81771694  1
  Zn  Zn123  1  0.18798051  0.43930726  0.43422154  1
  Zn  Zn124  1  0.18829407  0.43706066  0.93333792  1
  Zn  Zn125  1  0.19118521  0.93697788  0.43458321  1
  Zn  Zn126  1  0.19401834  0.93945192  0.93853105  1
  Zn  Zn127  1  0.68338324  0.44308036  0.44130659  1
  Zn  Zn128  1  0.68579396  0.43648784  0.93887022  1
  Zn  Zn129  1  0.68615860  0.93275728  0.43991038  1
  Zn  Zn130  1  0.68938374  0.93580373  0.94063240  1
  Zn  Zn131  1  0.31196198  0.06286180  0.06350496  1
  Zn  Zn132  1  0.31252846  0.06229721  0.56028873  1
  Zn  Zn133  1  0.31098611  0.55970140  0.06080224  1
  Zn  Zn134  1  0.31458981  0.56482197  0.56262315  1
  Zn  Zn135  1  0.81633234  0.05900374  0.05979751  1
  Zn  Zn136  1  0.81673961  0.07029827  0.55390513  1
  Zn  Zn137  1  0.81577477  0.56286214  0.06974406  1
  Zn  Zn138  1  0.80803610  0.56171213  0.56266186  1
  Zn  Zn139  1  0.43821095  0.43671930  0.18905847  1
  Zn  Zn140  1  0.43348555  0.44148985  0.68995563  1
  Zn  Zn141  1  0.43585565  0.93874050  0.18626013  1
  Zn  Zn142  1  0.43582062  0.93565433  0.68395834  1
  Zn  Zn143  1  0.93935367  0.43823661  0.18388450  1
  Zn  Zn144  1  0.93696989  0.43788448  0.68464201  1
  Zn  Zn145  1  0.94364972  0.94195878  0.17966741  1
  Zn  Zn146  1  0.95540447  0.93753065  0.68740987  1
  Zn  Zn147  1  0.06030301  0.06112113  0.30642194  1
  Zn  Zn148  1  0.06255487  0.06284262  0.81305896  1
  Zn  Zn149  1  0.06103474  0.56174149  0.31137779  1
  Zn  Zn150  1  0.06044948  0.56330728  0.81854498  1
  Zn  Zn151  1  0.55995775  0.05747172  0.31180784  1
  Zn  Zn152  1  0.56205415  0.06315841  0.81570425  1
  Zn  Zn153  1  0.56589462  0.56317408  0.31251983  1
  Zn  Zn154  1  0.56108625  0.56659102  0.80887329  1
  Zn  Zn155  1  0.43272831  0.18767660  0.44260243  1
  Zn  Zn156  1  0.43657839  0.18572515  0.94000352  1
  Zn  Zn157  1  0.43757608  0.68997036  0.43318538  1
  Zn  Zn158  1  0.43912323  0.68316884  0.93413015  1
  Zn  Zn159  1  0.93619677  0.18920728  0.43195633  1
  Zn  Zn160  1  0.94070321  0.18437820  0.93826889  1
  Zn  Zn161  1  0.93327205  0.68688430  0.43190352  1
  Zn  Zn162  1  0.93623176  0.68711433  0.94174217  1
  Zn  Zn163  1  0.06419922  0.30823034  0.06415430  1
  Zn  Zn164  1  0.06110569  0.31650377  0.56126937  1
  Zn  Zn165  1  0.06349678  0.81844629  0.06207555  1
  Zn  Zn166  1  0.06200894  0.81197187  0.56443265  1
  Zn  Zn167  1  0.55731919  0.31295904  0.06474880  1
  Zn  Zn168  1  0.55994426  0.31349566  0.56223343  1
  Zn  Zn169  1  0.56479740  0.81304444  0.06752112  1
  Zn  Zn170  1  0.56022585  0.81207061  0.56576020  1
  O  O171  1  0.13001017  0.12541032  0.10952315  1
  O  O172  1  0.11402425  0.11722052  0.62844379  1
  O  O173  1  0.13019339  0.61151493  0.11811292  1
  O  O174  1  0.11491284  0.63118790  0.61423913  1
  O  O175  1  0.62151868  0.12212706  0.11246170  1
  O  O176  1  0.62024128  0.11515802  0.62033916  1
  O  O177  1  0.62027711  0.61769791  0.12185161  1
  O  O178  1  0.60748580  0.62675981  0.63023955  1
  O  O179  1  0.37904087  0.38250009  0.38214623  1
  O  O180  1  0.36940878  0.39159741  0.86934246  1
  O  O181  1  0.37338319  0.88108016  0.38580605  1
  O  O182  1  0.37040837  0.88759418  0.88277787  1
  O  O183  1  0.88517366  0.37022750  0.38265888  1
  O  O184  1  0.87406343  0.37618176  0.88772490  1
  O  O185  1  0.88068680  0.88444494  0.37885783  1
  O  O186  1  0.87166555  0.87385264  0.88511292  1
  O  O187  1  0.25848840  0.00092551  0.36559600  1
  O  O188  1  0.25768688  -0.00082124  0.86032935  1
  O  O189  1  0.25554697  0.51082877  0.36539246  1
  O  O190  1  0.25657926  0.51167468  0.87239731  1
  O  O191  1  0.76382441  0.00052807  0.38242502  1
  O  O192  1  0.74550660  0.01488113  0.87749534  1
  O  O193  1  0.74982936  0.49591248  0.36098166  1
  O  O194  1  0.74986953  0.50470497  0.86565431  1
  O  O195  1  0.24508197  0.50144288  0.13702240  1
  O  O196  1  0.25323097  0.48870897  0.62710893  1
  O  O197  1  0.25758421  0.99074346  0.13976275  1
  O  O198  1  0.24402138  0.99404146  0.63295961  1
  O  O199  1  0.74488191  0.48937834  0.13110398  1
  O  O200  1  0.75239818  0.49302972  0.63956117  1
  O  O201  1  0.74890224  0.98417845  0.11926175  1
  O  O202  1  0.74318346  1.00327712  0.61973028  1
  O  O203  1  0.00863506  0.38456647  0.25990405  1
  O  O204  1  0.00520903  0.36737552  0.74876222  1
  O  O205  1  0.00703757  0.86795304  0.25180874  1
  O  O206  1  0.01363860  0.86379588  0.74640514  1
  O  O207  1  0.49871676  0.37441684  0.26668236  1
  O  O208  1  0.50997861  0.37106953  0.74642022  1
  O  O209  1  0.50683456  0.86612660  0.24500417  1
  O  O210  1  0.50594900  0.86889068  0.74807283  1
  O  O211  1  0.50308948  0.12006857  0.23424324  1
  O  O212  1  0.49420815  0.13105770  0.74579656  1
  O  O213  1  0.49270127  0.62937993  0.24329583  1
  O  O214  1  0.49090938  0.63514895  0.74472226  1
  O  O215  1  0.97873621  0.11147468  0.24549977  1
  O  O216  1  0.99561501  0.13055792  0.74195243  1
  O  O217  1  0.99310524  0.63510300  0.25202735  1
  O  O218  1  0.99718935  0.62846545  0.74169682  1
  O  O219  1  0.36734969  0.25060389  0.00380249  1
  O  O220  1  0.37107749  0.25982312  0.50958634  1
  O  O221  1  0.37649931  0.76183600  -0.00790223  1
  O  O222  1  0.37046304  0.76245480  0.49338900  1
  O  O223  1  0.86984368  0.25688931  0.00000138  1
  O  O224  1  0.86784865  0.25771513  0.50361814  1
  O  O225  1  0.86849412  0.76222564  -0.00319360  1
  O  O226  1  0.87465153  0.75862396  0.50893391  1
  O  O227  1  0.12401127  0.25674123  0.48490800  1
  O  O228  1  0.13447988  0.24194588  0.99239428  1
  O  O229  1  0.11618655  0.74087615  0.48722272  1
  O  O230  1  0.12613491  0.74255373  1.00082152  1
  O  O231  1  0.63272633  0.23980461  0.50800386  1
  O  O232  1  0.62955493  0.24260536  0.99506939  1
  O  O233  1  0.63386222  0.74751483  0.50276145  1
  O  O234  1  0.63054528  0.74639643  0.99427453  1
  O  O235  1  0.48693395  0.24111885  0.12578040  1
  O  O236  1  0.49262332  0.24528116  0.63350617  1
  O  O237  1  0.50452802  0.73540194  0.13346522  1
  O  O238  1  0.50081889  0.74239798  0.63977550  1
  O  O239  1  1.00212163  0.23889434  0.12356711  1
  O  O240  1  0.99761150  0.24321253  0.62900467  1
  O  O241  1  1.00769013  0.75129212  0.13911408  1
  O  O242  1  0.98951725  0.74236974  0.63187753  1
  O  O243  1  0.00974030  0.26138167  0.37682156  1
  O  O244  1  0.00632582  0.25147797  0.86598527  1
  O  O245  1  0.00630687  0.75715282  0.36807965  1
  O  O246  1  0.00133783  0.74260610  0.86134927  1
  O  O247  1  0.49039438  0.26304897  0.37512805  1
  O  O248  1  0.51319328  0.24177275  0.87017825  1
  O  O249  1  0.50213466  0.75106272  0.35975788  1
  O  O250  1  0.51290010  0.74382169  0.86615276  1
  O  O251  1  0.24833187  0.12773476  0.49812697  1
  O  O252  1  0.23982403  0.12989625  0.99852919  1
  O  O253  1  0.24051635  0.62068438  0.49222422  1
  O  O254  1  0.24052247  0.62627203  0.99478649  1
  O  O255  1  0.74100025  0.13468632  0.49694957  1
  O  O256  1  0.74445769  0.12800289  0.99316424  1
  O  O257  1  0.75689697  0.64069761  0.49917468  1
  O  O258  1  0.74803020  0.63228387  0.99915296  1
  O  O259  1  0.25280651  0.36252786  -0.00341022  1
  O  O260  1  0.25783112  0.37482030  0.50480329  1
  O  O261  1  0.25880566  0.87421511  0.00961228  1
  O  O262  1  0.26016087  0.87842384  0.50699637  1
  O  O263  1  0.75695971  0.37094426  0.00658251  1
  O  O264  1  0.75566085  0.36953653  0.50291371  1
  O  O265  1  0.76134574  0.86993627  0.00685781  1
  O  O266  1  0.75764884  0.86372426  0.50232057  1
  O  O267  1  0.13139556  0.49522835  0.24394347  1
  O  O268  1  0.12173435  0.48697847  0.75515809  1
  O  O269  1  0.13850180  0.98927011  0.25792571  1
  O  O270  1  0.13089745  0.99487519  0.74146358  1
  O  O271  1  0.63419189  0.49620724  0.24032114  1
  O  O272  1  0.63063137  0.49251746  0.74920861  1
  O  O273  1  0.62235774  0.98488268  0.24717088  1
  O  O274  1  0.62121623  0.99002178  0.74609934  1
  O  O275  1  0.36289388  -0.00864942  0.26327799  1
  O  O276  1  0.36969356  0.00461878  0.75527190  1
  O  O277  1  0.36820804  0.50797507  0.25549628  1
  O  O278  1  0.36994384  0.51015081  0.75982388  1
  O  O279  1  0.87516866  -0.00447877  0.26162139  1
  O  O280  1  0.86550866  -0.00881643  0.73523127  1
  O  O281  1  0.87065074  0.51046294  0.24387195  1
  O  O282  1  0.86814417  0.50463218  0.75299751  1
  O  O283  1  0.11706733  0.36973868  0.36772860  1
  O  O284  1  0.12455719  0.36328233  0.86561968  1
  O  O285  1  0.12221349  0.86670156  0.36749550  1
  O  O286  1  0.13560811  0.87336726  0.86182198  1
  O  O287  1  0.60748252  0.37968784  0.37899693  1
  O  O288  1  0.62987063  0.36535438  0.86651344  1
  O  O289  1  0.62213737  0.87170530  0.36565815  1
  O  O290  1  0.62885541  0.86761080  0.86867642  1
  O  O291  1  0.38290965  0.13625191  0.11822571  1
  O  O292  1  0.38156903  0.12752470  0.63631977  1
  O  O293  1  0.38332405  0.61815186  0.13237365  1
  O  O294  1  0.38053457  0.62469946  0.63807845  1
  O  O295  1  0.87045875  0.12682657  0.13543267  1
  O  O296  1  0.88623918  0.13030127  0.62726016  1
  O  O297  1  0.87182403  0.63144939  0.14249436  1
  O  O298  1  0.88185531  0.63172968  0.63063807  1
  O  O299  1  0.26426481  0.24547192  0.11697473  1
  O  O300  1  0.25563916  0.26310560  0.62569372  1
  O  O301  1  0.24850216  0.76218743  0.12727478  1
  O  O302  1  0.24539076  0.76308083  0.62712782  1
  O  O303  1  0.75266771  0.26110188  0.11855067  1
  O  O304  1  0.75535971  0.25509093  0.61827528  1
  O  O305  1  0.74535814  0.75940192  0.11276072  1
  O  O306  1  0.76396378  0.74555079  0.62310460  1
  O  O307  1  0.23472432  0.24856284  0.37650613  1
  O  O308  1  0.24307976  0.24926778  0.88219907  1
  O  O309  1  0.24052566  0.73619919  0.36790133  1
  O  O310  1  0.24740162  0.73758486  0.87818192  1
  O  O311  1  0.75075878  0.24805614  0.38633756  1
  O  O312  1  0.73869716  0.24276910  0.88120753  1
  O  O313  1  0.74956700  0.75159010  0.38614986  1
  O  O314  1  0.73896408  0.74327706  0.88596359  1
  O  O315  1  0.01460037  0.11859950  -0.00251196  1
  O  O316  1  -0.00479573  0.11459799  0.50461531  1
  O  O317  1  0.01106885  0.61821113  -0.00269070  1
  O  O318  1  0.00247533  0.61940841  0.50338497  1
  O  O319  1  0.50809873  0.11810323  0.00638430  1
  O  O320  1  0.50571021  0.12431475  0.50911380  1
  O  O321  1  0.50631318  0.62051239  0.00762683  1
  O  O322  1  0.49546175  0.63530191  0.51680368  1
  O  O323  1  0.48719434  0.37295964  0.49127257  1
  O  O324  1  0.49881306  0.38011668  0.99821157  1
  O  O325  1  0.48603789  0.87383516  0.50011706  1
  O  O326  1  0.49345827  0.88283463  1.00677327  1
  O  O327  1  0.99286473  0.38408094  0.49375457  1
  O  O328  1  0.99301833  0.38073242  0.99951099  1
  O  O329  1  0.99449464  0.88553844  0.49711304  1
  O  O330  1  0.98854082  0.87950557  1.00027290  1
  O  O331  1  0.48800409  0.49415180  0.37009521  1
  O  O332  1  0.48389295  0.50920101  0.87348101  1
  O  O333  1  0.48608483  0.99405684  0.37490671  1
  O  O334  1  0.49204947  1.00373317  0.88775235  1
  O  O335  1  1.00161531  0.49341473  0.38569075  1
  O  O336  1  0.99818504  0.49587133  0.88908048  1
  O  O337  1  0.99421322  0.99457296  0.38013782  1
  O  O338  1  1.00328623  1.00185527  0.88815277  1
  O  O339  1  -0.00062818  0.00552669  0.10505534  1
  O  O340  1  0.01018826  0.00758320  0.61522304  1
  O  O341  1  0.00898530  0.49859109  0.11296010  1
  O  O342  1  -0.00556117  0.51269846  0.61393240  1
  O  O343  1  0.49854204  0.00705878  0.11348868  1
  O  O344  1  0.50728061  0.00703218  0.62420102  1
  O  O345  1  0.50927285  0.50909157  0.12790778  1
  O  O346  1  0.49741460  0.51915918  0.63291413  1
  O  O347  1  0.24052585  0.38616235  0.25749758  1
  O  O348  1  0.23903234  0.37772552  0.74097193  1
  O  O349  1  0.24474119  0.87963395  0.24587933  1
  O  O350  1  0.24634022  0.88232282  0.74121115  1
  O  O351  1  0.75175587  0.38075867  0.24184163  1
  O  O352  1  0.74177125  0.38054843  0.74813039  1
  O  O353  1  0.74667166  0.86630967  0.23649433  1
  O  O354  1  0.74084857  0.87040537  0.74977257  1
  O  O355  1  0.24424779  0.11075700  0.25309407  1
  O  O356  1  0.25899221  0.11675285  0.74209399  1
  O  O357  1  0.25654483  0.61981337  0.25497215  1
  O  O358  1  0.25442497  0.62486365  0.75588459  1
  O  O359  1  0.76469145  0.12138081  0.25060295  1
  O  O360  1  0.75095792  0.12848038  0.76384230  1
  O  O361  1  0.75929599  0.61648069  0.24865818  1
  O  O362  1  0.75239421  0.61795714  0.75402240  1
  O  O363  1  0.37409201  0.11135609  0.37672695  1
  O  O364  1  0.37925772  0.11472785  0.86325949  1
  O  O365  1  0.36904112  0.61937641  0.36883882  1
  O  O366  1  0.36736318  0.61913982  0.86670059  1
  O  O367  1  0.87348270  0.11423107  0.36516104  1
  O  O368  1  0.86074210  0.12883300  0.87188598  1
  O  O369  1  0.87068322  0.63080890  0.35483510  1
  O  O370  1  0.86696711  0.62413652  0.86885508  1
  O  O371  1  0.12304449  0.38652552  0.13280668  1
  O  O372  1  0.13175819  0.37131735  0.63294794  1
  O  O373  1  0.13351779  0.87359246  0.13768038  1
  O  O374  1  0.13145683  0.88320749  0.63087827  1
  O  O375  1  0.63329607  0.38234996  0.12572626  1
  O  O376  1  0.63050790  0.37476749  0.63481469  1
  O  O377  1  0.63783853  0.87673448  0.13044030  1
  O  O378  1  0.62369505  0.88801728  0.63321870  1
  O  O379  1  0.13026930  0.26260962  0.25575244  1
  O  O380  1  0.11510901  0.25433847  0.75424785  1
  O  O381  1  0.11521151  0.75309624  0.25971121  1
  O  O382  1  0.11754392  0.75732739  0.75109913  1
  O  O383  1  0.61922697  0.25181355  0.24764697  1
  O  O384  1  0.62101192  0.25681989  0.75744430  1
  O  O385  1  0.61760738  0.75920935  0.24774901  1
  O  O386  1  0.61906768  0.76184293  0.75708035  1
  O  O387  1  0.37532361  0.25080149  0.23941106  1
  O  O388  1  0.37747639  0.24354166  0.74853687  1
  O  O389  1  0.38110974  0.73810841  0.25312497  1
  O  O390  1  0.38331889  0.74449562  0.75883557  1
  O  O391  1  0.87500013  0.23825263  0.25007851  1
  O  O392  1  0.88626127  0.25276284  0.74437718  1
  O  O393  1  0.89049071  0.74622308  0.24997164  1
  O  O394  1  0.88078039  0.74480833  0.74511101  1
  O  O395  1  0.37002310  0.49339520  0.48922569  1
  O  O396  1  0.37376196  0.49929972  0.98480299  1
  O  O397  1  0.37550807  0.99259214  0.48713435  1
  O  O398  1  0.37939334  0.99412175  0.99222496  1
  O  O399  1  0.87922729  0.48849375  0.50337750  1
  O  O400  1  0.88233914  0.49403197  1.00187346  1
  O  O401  1  0.88327451  0.99659426  0.49137305  1
  O  O402  1  0.88189455  0.98660817  0.99709794  1
  O  O403  1  0.12403426  0.01229026  -0.00632935  1
  O  O404  1  0.11863900  -0.00573953  0.50777409  1
  O  O405  1  0.12100412  0.50308223  0.00636156  1
  O  O406  1  0.11554893  0.51200649  0.49516311  1
  O  O407  1  0.61686809  0.00555920  0.00027752  1
  O  O408  1  0.62131062  0.00430359  0.50885444  1
  O  O409  1  0.62820214  0.50734317  0.01156947  1
  O  O410  1  0.63564589  0.51126988  0.51249318  1
  O  O411  1  0.37893091  0.36009259  0.12406386  1
  O  O412  1  0.36961073  0.37347113  0.61888103  1
  O  O413  1  0.36850191  0.87665967  0.11502122  1
  O  O414  1  0.36596789  0.88032506  0.60998797  1
  O  O415  1  0.86878884  0.37384294  0.11485969  1
  O  O416  1  0.86957745  0.36867536  0.61631379  1
  O  O417  1  0.86464854  0.87555219  0.11985170  1
  O  O418  1  0.86956418  0.87252015  0.62611399  1
  O  O419  1  0.11802283  0.14169622  0.36709176  1
  O  O420  1  0.12423035  0.13638982  0.88041386  1
  O  O421  1  0.13085390  0.62985129  0.38014846  1
  O  O422  1  0.13199515  0.62607039  0.88480903  1
  O  O423  1  0.62297932  0.11590935  0.38916777  1
  O  O424  1  0.63233549  0.13027111  0.88448217  1
  O  O425  1  0.63237295  0.62957351  0.37541600  1
  O  O426  1  0.62991902  0.63124252  0.88085234  1
