# generated using pymatgen
data_V85Zn86O256
_symmetry_space_group_name_H-M   'P 1'
_cell_length_a   16.92138912
_cell_length_b   16.92422298
_cell_length_c   16.91945375
_cell_angle_alpha   90.01421085
_cell_angle_beta   90.06201988
_cell_angle_gamma   90.03760996
_symmetry_Int_Tables_number   1
_chemical_formula_structural   V85Zn86O256
_chemical_formula_sum   'V85 Zn86 O256'
_cell_volume   4845.41218805
_cell_formula_units_Z   1
loop_
 _symmetry_equiv_pos_site_id
 _symmetry_equiv_pos_as_xyz
  1  'x, y, z'
loop_
 _atom_site_type_symbol
 _atom_site_label
 _atom_site_symmetry_multiplicity
 _atom_site_fract_x
 _atom_site_fract_y
 _atom_site_fract_z
 _atom_site_occupancy
  V  V0  1  0.63128647  0.50023100  0.63230864  1
  V  V1  1  0.49942054  0.62481862  0.62473738  1
  V  V2  1  0.24100037  0.12402314  0.87985031  1
  V  V3  1  0.37483950  0.00198881  0.37642168  1
  V  V4  1  0.25691392  0.37736260  0.11963965  1
  V  V5  1  0.25244826  0.37975125  0.63195309  1
  V  V6  1  0.62623499  0.88754826  0.74509618  1
  V  V7  1  0.75190421  0.87035732  0.12808868  1
  V  V8  1  0.87278105  0.87805135  -0.00472705  1
  V  V9  1  -0.00231695  0.50102427  0.00285685  1
  V  V10  1  0.24754300  0.00232640  0.74254710  1
  V  V11  1  0.00198660  0.24376881  0.25802829  1
  V  V12  1  0.63051606  0.62141805  -0.00265110  1
  V  V13  1  0.75020796  0.74993726  0.49721177  1
  V  V14  1  0.37553162  0.87151468  -0.00078104  1
  V  V15  1  -0.00378542  0.74952679  0.75140550  1
  V  V16  1  0.37099019  0.87074123  0.49738556  1
  V  V17  1  0.87347946  0.11473994  0.75032905  1
  V  V18  1  0.37717108  0.12915038  0.75139638  1
  V  V19  1  0.50221700  0.49850670  0.49951335  1
  V  V20  1  0.12806222  0.49881653  0.13325233  1
  V  V21  1  0.62703350  0.12335894  -0.00070304  1
  V  V22  1  0.37951144  0.74960103  0.12913451  1
  V  V23  1  0.88268750  0.74773605  0.13412747  1
  V  V24  1  0.62626222  -0.00192046  0.12994989  1
  V  V25  1  0.75346031  0.24553055  0.49818640  1
  V  V26  1  0.63028206  0.24334824  0.37410331  1
  V  V27  1  -0.00348721  0.37352348  0.87479025  1
  V  V28  1  0.87706622  0.01708398  0.37038718  1
  V  V29  1  0.49793776  0.12408355  0.12818031  1
  V  V30  1  0.49785318  0.87234389  0.87302040  1
  V  V31  1  0.50384851  0.25348142  0.25030696  1
  V  V32  1  0.87505071  0.87850342  0.49694200  1
  V  V33  1  0.13430291  0.37390794  0.25809030  1
  V  V34  1  0.37148656  0.62184186  0.24774372  1
  V  V35  1  -0.00088453  0.38485283  0.37283025  1
  V  V36  1  -0.00114747  0.62388954  0.62655203  1
  V  V37  1  0.25183165  0.63316429  0.37693751  1
  V  V38  1  0.38304785  0.25040031  0.62733513  1
  V  V39  1  0.49905164  -0.00225325  0.00071192  1
  V  V40  1  0.62531567  0.62359692  0.49910083  1
  V  V41  1  0.75502063  0.37456430  0.63540022  1
  V  V42  1  0.62036015  0.24718646  0.87065066  1
  V  V43  1  0.36763589  0.49229400  0.86844234  1
  V  V44  1  0.85971923  0.62336392  0.75516995  1
  V  V45  1  0.49816421  0.74808174  0.74999858  1
  V  V46  1  0.87498757  0.24269661  0.12942940  1
  V  V47  1  0.63467004  0.74409056  0.87280862  1
  V  V48  1  0.61755484  0.37185642  0.75132548  1
  V  V49  1  0.24790831  0.00110208  0.24808612  1
  V  V50  1  0.87204014  0.75194995  0.62585838  1
  V  V51  1  0.63112341  0.48423202  0.12970338  1
  V  V52  1  0.12252282  0.86703966  0.24738434  1
  V  V53  1  0.50845621  0.11843420  0.62573266  1
  V  V54  1  0.36764182  0.49812246  0.37156853  1
  V  V55  1  -0.00479623  0.87961116  0.87396029  1
  V  V56  1  0.75636928  0.48528051  0.25316700  1
  V  V57  1  0.49250433  0.49197651  0.00007622  1
  V  V58  1  0.74341021  0.88961835  0.62349619  1
  V  V59  1  0.62435368  0.87128158  0.25022138  1
  V  V60  1  0.74900248  0.25285983  0.00324997  1
  V  V61  1  0.00538039  0.00548187  0.50833321  1
  V  V62  1  0.12385420  0.87892778  0.74795880  1
  V  V63  1  0.75524844  0.01388461  0.25231398  1
  V  V64  1  0.25033605  0.74868648  -0.00206748  1
  V  V65  1  0.24485825  0.25344643  0.49668774  1
  V  V66  1  0.50509579  0.62558016  0.12997003  1
  V  V67  1  0.12821216  0.50175626  0.62999905  1
  V  V68  1  0.87499471  0.38231334  0.49654927  1
  V  V69  1  0.36934168  0.74944550  0.62174295  1
  V  V70  1  0.50742191  0.37585738  0.37174101  1
  V  V71  1  0.24274053  0.87563314  0.61750915  1
  V  V72  1  -0.00141856  0.87023905  0.37031839  1
  V  V73  1  0.12499925  0.12468131  0.51618617  1
  V  V74  1  0.49907774  0.86985305  0.36924447  1
  V  V75  1  0.13106911  0.63310294  0.50226620  1
  V  V76  1  0.24235869  0.13033210  0.37488799  1
  V  V77  1  0.12598166  0.37542585  0.75425905  1
  V  V78  1  0.00012389  0.00928129  -0.00387235  1
  V  V79  1  0.12344222  0.62504276  -0.00014692  1
  V  V80  1  0.86077844  0.50332977  0.87353866  1
  V  V81  1  0.62256575  0.74592027  0.36794148  1
  V  V82  1  0.12519614  0.00752363  0.11937237  1
  V  V83  1  0.37513903  0.37479797  0.49972771  1
  V  V84  1  0.87002215  0.37493965  0.00668846  1
  Zn  Zn85  1  -0.00324935  0.50501984  0.49632441  1
  Zn  Zn86  1  -0.00024252  0.24287591  0.74218129  1
  Zn  Zn87  1  0.75445892  0.74328530  -0.00291133  1
  Zn  Zn88  1  0.88430732  0.24464655  0.62564001  1
  Zn  Zn89  1  0.00200580  0.12788015  0.12324265  1
  Zn  Zn90  1  0.50734294  -0.00275668  0.50277033  1
  Zn  Zn91  1  0.74904276  0.10664281  0.86892833  1
  Zn  Zn92  1  0.36698220  0.61997620  0.74904965  1
  Zn  Zn93  1  0.12613140  0.75034181  0.37473594  1
  Zn  Zn94  1  0.00328701  0.63123735  0.13239671  1
  Zn  Zn95  1  0.63496506  0.11718208  0.50123502  1
  Zn  Zn96  1  0.49340587  0.36525257  0.87663066  1
  Zn  Zn97  1  0.37767584  0.25656382  0.12069473  1
  Zn  Zn98  1  0.24940593  0.87617764  0.12247444  1
  Zn  Zn99  1  0.37398089  0.12808944  0.25123858  1
  Zn  Zn100  1  0.24824569  0.61904034  0.86994047  1
  Zn  Zn101  1  0.24867017  0.24870356  0.00232813  1
  Zn  Zn102  1  0.12496654  0.74865241  0.87436173  1
  Zn  Zn103  1  0.75475157  0.61460658  0.37319617  1
  Zn  Zn104  1  0.11847126  0.24402567  0.88367462  1
  Zn  Zn105  1  0.88210155  0.61641493  0.26420519  1
  Zn  Zn106  1  0.37336739  -0.00013388  0.87376012  1
  Zn  Zn107  1  0.18500371  0.19163202  0.18796482  1
  Zn  Zn108  1  0.18912171  0.19604515  0.69122330  1
  Zn  Zn109  1  0.19187518  0.68579639  0.18560924  1
  Zn  Zn110  1  0.18788340  0.69013265  0.69068580  1
  Zn  Zn111  1  0.68503092  0.19438539  0.18582206  1
  Zn  Zn112  1  0.69591760  0.18769488  0.68916725  1
  Zn  Zn113  1  0.69587442  0.67974883  0.18892663  1
  Zn  Zn114  1  0.68500097  0.69510067  0.68539736  1
  Zn  Zn115  1  0.31677820  0.31154950  0.30886342  1
  Zn  Zn116  1  0.31146247  0.31044737  0.81443062  1
  Zn  Zn117  1  0.31098649  0.81207752  0.30780044  1
  Zn  Zn118  1  0.31044952  0.80872217  0.81003921  1
  Zn  Zn119  1  0.81530973  0.31418076  0.31224634  1
  Zn  Zn120  1  0.81132035  0.30369726  0.81478926  1
  Zn  Zn121  1  0.81194957  0.81354901  0.31347910  1
  Zn  Zn122  1  0.80768761  0.93582815  0.81150879  1
  Zn  Zn123  1  0.18477405  0.44272772  0.44004248  1
  Zn  Zn124  1  0.18486217  0.43518846  0.94210802  1
  Zn  Zn125  1  0.18498060  0.94039623  0.43601697  1
  Zn  Zn126  1  0.18558824  0.93807684  0.93380178  1
  Zn  Zn127  1  0.68965465  0.43258855  0.43892096  1
  Zn  Zn128  1  0.68434862  0.43454931  0.93932405  1
  Zn  Zn129  1  0.68994188  0.94105565  0.43519130  1
  Zn  Zn130  1  0.67958053  0.92912287  0.94315959  1
  Zn  Zn131  1  0.31513580  0.06230805  0.06107955  1
  Zn  Zn132  1  0.31410534  0.06283203  0.56172233  1
  Zn  Zn133  1  0.31000714  0.56009637  0.06153877  1
  Zn  Zn134  1  0.31210034  0.56193686  0.56095041  1
  Zn  Zn135  1  0.81262233  0.06096070  0.06120197  1
  Zn  Zn136  1  0.81990373  0.06552866  0.56286563  1
  Zn  Zn137  1  0.81045157  0.56180608  0.06764770  1
  Zn  Zn138  1  0.81179933  0.56279712  0.56243543  1
  Zn  Zn139  1  0.44144705  0.44022484  0.19048980  1
  Zn  Zn140  1  0.44189294  0.43668208  0.68935075  1
  Zn  Zn141  1  0.43558269  0.93670482  0.18969571  1
  Zn  Zn142  1  0.43433814  0.93921148  0.68731711  1
  Zn  Zn143  1  0.93983614  0.43293497  0.18674950  1
  Zn  Zn144  1  0.93720830  0.43861876  0.68939590  1
  Zn  Zn145  1  0.93874269  0.94009126  0.18654235  1
  Zn  Zn146  1  0.93700216  0.93879012  0.68273802  1
  Zn  Zn147  1  0.06432051  0.06050693  0.31648860  1
  Zn  Zn148  1  0.05864633  0.05933919  0.80500037  1
  Zn  Zn149  1  0.06182466  0.56627425  0.31077703  1
  Zn  Zn150  1  0.05954772  0.55948314  0.81432247  1
  Zn  Zn151  1  0.56382162  0.06131561  0.31532125  1
  Zn  Zn152  1  0.55938012  0.06432121  0.81292645  1
  Zn  Zn153  1  0.56437221  0.56054195  0.30869992  1
  Zn  Zn154  1  0.55916374  0.55975074  0.81341116  1
  Zn  Zn155  1  0.43734658  0.18725335  0.44004103  1
  Zn  Zn156  1  0.43199258  0.18879437  0.94092264  1
  Zn  Zn157  1  0.43834457  0.68829684  0.43676120  1
  Zn  Zn158  1  0.43888288  0.67906048  0.93831623  1
  Zn  Zn159  1  0.94378493  0.19486174  0.44251630  1
  Zn  Zn160  1  0.93051660  0.18728561  0.92843119  1
  Zn  Zn161  1  0.93866936  0.68746795  0.43573828  1
  Zn  Zn162  1  0.93479795  0.68999971  0.93824801  1
  Zn  Zn163  1  0.06588713  0.30921404  0.06382206  1
  Zn  Zn164  1  0.06263801  0.31396470  0.56078017  1
  Zn  Zn165  1  0.06244463  0.81789025  0.06135093  1
  Zn  Zn166  1  0.06007928  0.81331199  0.55928688  1
  Zn  Zn167  1  0.56068136  0.30955292  0.06063910  1
  Zn  Zn168  1  0.56613245  0.31007191  0.56118013  1
  Zn  Zn169  1  0.56401615  0.80738464  0.06163189  1
  Zn  Zn170  1  0.56115518  0.81450033  0.55867152  1
  O  O171  1  0.12427722  0.11179939  0.12932250  1
  O  O172  1  0.13561621  0.12786327  0.61540040  1
  O  O173  1  0.12658683  0.61774090  0.11643971  1
  O  O174  1  0.12097910  0.62091653  0.62165256  1
  O  O175  1  0.61535865  0.12048473  0.11944611  1
  O  O176  1  0.60987137  0.13417446  0.62664524  1
  O  O177  1  0.61824276  0.61996863  0.11865385  1
  O  O178  1  0.62018987  0.61831307  0.62153871  1
  O  O179  1  0.38249168  0.38265016  0.37832528  1
  O  O180  1  0.37753617  0.38521465  0.87233670  1
  O  O181  1  0.37863814  0.87766959  0.37869006  1
  O  O182  1  0.38498606  0.87336578  0.87700296  1
  O  O183  1  0.88535304  0.37420546  0.38391890  1
  O  O184  1  0.87946704  0.38123411  0.88315791  1
  O  O185  1  0.88238930  0.87962554  0.37975621  1
  O  O186  1  0.88247283  0.87450987  0.88296370  1
  O  O187  1  0.25846907  0.00553721  0.36823756  1
  O  O188  1  0.25002071  0.00588908  0.86097551  1
  O  O189  1  0.26359708  0.50855614  0.38075028  1
  O  O190  1  0.26527357  0.49766831  0.88451186  1
  O  O191  1  0.76829970  -0.00413105  0.36623852  1
  O  O192  1  0.74309322  -0.00645232  0.88098349  1
  O  O193  1  0.73911252  0.49557217  0.35759243  1
  O  O194  1  0.76168396  0.49732227  0.88103392  1
  O  O195  1  0.24094306  0.49072501  0.12379627  1
  O  O196  1  0.24537479  0.48823729  0.62142124  1
  O  O197  1  0.24510314  0.99950434  0.13166044  1
  O  O198  1  0.25612044  0.99058128  0.63453763  1
  O  O199  1  0.73658174  0.49894112  0.13075050  1
  O  O200  1  0.73766416  0.49201105  0.62034608  1
  O  O201  1  0.74602144  0.99154881  0.13182964  1
  O  O202  1  0.74998839  0.98821087  0.61273079  1
  O  O203  1  0.00913790  0.37001562  0.25642085  1
  O  O204  1  0.00716943  0.37906405  0.76064237  1
  O  O205  1  0.01033968  0.88254289  0.25763307  1
  O  O206  1  0.00376827  0.87031699  0.75343122  1
  O  O207  1  0.49792180  0.36751412  0.25988940  1
  O  O208  1  0.51327788  0.37152659  0.75187479  1
  O  O209  1  0.50439381  0.87668610  0.26173523  1
  O  O210  1  0.50199076  0.86850480  0.75460834  1
  O  O211  1  0.50028536  0.13018787  0.24326156  1
  O  O212  1  0.48998785  0.12194053  0.73865921  1
  O  O213  1  0.49121612  0.62013039  0.23724342  1
  O  O214  1  0.49627451  0.63282047  0.74237838  1
  O  O215  1  1.00792768  0.14085442  0.25317438  1
  O  O216  1  0.98355970  0.12652037  0.75819547  1
  O  O217  1  0.99449266  0.62241773  0.24415858  1
  O  O218  1  1.00069496  0.63253902  0.74101055  1
  O  O219  1  0.36359661  0.24196046  0.00910774  1
  O  O220  1  0.36650797  0.25589766  0.50757997  1
  O  O221  1  0.37031674  0.75066544  0.00724250  1
  O  O222  1  0.37908281  0.76190636  0.50638907  1
  O  O223  1  0.86737124  0.25610101  0.00316348  1
  O  O224  1  0.86966857  0.26181415  0.50194777  1
  O  O225  1  0.87287578  0.76219459  0.00690728  1
  O  O226  1  0.86711612  0.75712992  0.50563839  1
  O  O227  1  0.13969411  0.24602315  0.50197362  1
  O  O228  1  0.13388102  0.25394418  0.99566415  1
  O  O229  1  0.12407901  0.73726808  0.49962855  1
  O  O230  1  0.13218413  0.74330385  1.00181302  1
  O  O231  1  0.63490916  0.24699301  0.49294835  1
  O  O232  1  0.63032066  0.24093266  0.99816622  1
  O  O233  1  0.63039835  0.74517392  0.49085548  1
  O  O234  1  0.62398077  0.73909811  0.99049178  1
  O  O235  1  0.50132406  0.24193068  0.13241044  1
  O  O236  1  0.48744736  0.24430954  0.62034469  1
  O  O237  1  0.49151358  0.73815568  0.11880455  1
  O  O238  1  0.49098732  0.74725349  0.62974546  1
  O  O239  1  0.99421820  0.24844872  0.13552286  1
  O  O240  1  0.99866350  0.25613322  0.62827644  1
  O  O241  1  0.98587074  0.75416340  0.12109375  1
  O  O242  1  0.99380083  0.74504286  0.63041704  1
  O  O243  1  -0.00208690  0.26181358  0.36269949  1
  O  O244  1  -0.00061913  0.26481939  0.87506609  1
  O  O245  1  0.00517265  0.76633104  0.38175362  1
  O  O246  1  0.00082700  0.75958579  0.86720419  1
  O  O247  1  0.50313874  0.25656423  0.36980723  1
  O  O248  1  0.51456593  0.24832949  0.88413159  1
  O  O249  1  0.50961707  0.75704816  0.37669410  1
  O  O250  1  0.50062112  0.75387062  0.86649605  1
  O  O251  1  0.24707279  0.13273480  0.49508141  1
  O  O252  1  0.24977436  0.11330144  0.98128369  1
  O  O253  1  0.24351637  0.62270143  0.49138265  1
  O  O254  1  0.24183256  0.63139203  0.99708519  1
  O  O255  1  0.75371498  0.14115978  0.50416005  1
  O  O256  1  0.73665059  0.12782162  1.00229730  1
  O  O257  1  0.74177000  0.63276242  0.49989381  1
  O  O258  1  0.73503123  0.62396979  1.00414195  1
  O  O259  1  0.25024072  0.37710878  0.01699770  1
  O  O260  1  0.25511357  0.37070737  0.50550212  1
  O  O261  1  0.25686453  0.86803706  -0.00034327  1
  O  O262  1  0.25637669  0.87987677  0.50649900  1
  O  O263  1  0.75787723  0.36619452  -0.00160247  1
  O  O264  1  0.75732542  0.36855084  0.50837002  1
  O  O265  1  0.75513889  0.87194012  0.01360471  1
  O  O266  1  0.75492091  0.86781890  0.50209583  1
  O  O267  1  0.12163913  0.49192141  0.23885521  1
  O  O268  1  0.12100313  0.49255015  0.73862535  1
  O  O269  1  0.13488978  0.99434178  0.24594098  1
  O  O270  1  0.13006276  0.98690666  0.74676817  1
  O  O271  1  0.62983836  0.50054693  0.23463097  1
  O  O272  1  0.62054618  0.49148382  0.74160478  1
  O  O273  1  0.63257666  0.99173221  0.24865884  1
  O  O274  1  0.61685177  0.98617711  0.75152345  1
  O  O275  1  0.36257772  0.00036977  0.25661294  1
  O  O276  1  0.36587211  0.00931626  0.75061191  1
  O  O277  1  0.38019576  0.50936511  0.26034775  1
  O  O278  1  0.38127178  0.49983178  0.76461323  1
  O  O279  1  0.87098963  0.00051661  0.26070709  1
  O  O280  1  0.87638176  0.00582127  0.74972360  1
  O  O281  1  0.85999853  0.49572894  0.23923420  1
  O  O282  1  0.87948242  0.51141077  0.76115828  1
  O  O283  1  0.11975407  0.38078106  0.36695399  1
  O  O284  1  0.11608562  0.38110158  0.86775353  1
  O  O285  1  0.11879495  0.87546986  0.36567530  1
  O  O286  1  0.11814119  0.87050697  0.86390897  1
  O  O287  1  0.61129001  0.36522495  0.38306131  1
  O  O288  1  0.62282183  0.36694138  0.86773561  1
  O  O289  1  0.61720353  0.86692735  0.36972299  1
  O  O290  1  0.61166910  0.86392678  0.86861500  1
  O  O291  1  0.38956850  0.11943719  0.12831988  1
  O  O292  1  0.37972445  0.13291981  0.63076999  1
  O  O293  1  0.37974119  0.62766872  0.13093835  1
  O  O294  1  0.38000719  0.63343649  0.62340622  1
  O  O295  1  0.87872203  0.13862755  0.11880839  1
  O  O296  1  0.87207782  0.12651742  0.64130408  1
  O  O297  1  0.87557794  0.64206234  0.11990308  1
  O  O298  1  0.88227833  0.62894841  0.63117279  1
  O  O299  1  0.25159438  0.26570381  0.13023383  1
  O  O300  1  0.25932141  0.26222411  0.61879863  1
  O  O301  1  0.25899034  0.75090988  0.11327518  1
  O  O302  1  0.26303959  0.75968462  0.62796543  1
  O  O303  1  0.75705741  0.24668046  0.11366613  1
  O  O304  1  0.75154428  0.26115011  0.61574681  1
  O  O305  1  0.75783835  0.75649962  0.12224702  1
  O  O306  1  0.75183625  0.75661958  0.61170301  1
  O  O307  1  0.25995491  0.24203879  0.38401547  1
  O  O308  1  0.24861994  0.23220585  0.87248881  1
  O  O309  1  0.25059289  0.73745925  0.37267672  1
  O  O310  1  0.24859344  0.74971865  0.88784608  1
  O  O311  1  0.74085424  0.25924951  0.38289458  1
  O  O312  1  0.73808572  0.24722611  0.88965022  1
  O  O313  1  0.74174030  0.75300261  0.38612929  1
  O  O314  1  0.73321651  0.75318953  0.87667535  1
  O  O315  1  -0.00676048  0.11186157  -0.00549876  1
  O  O316  1  0.01390278  0.11938238  0.49299710  1
  O  O317  1  0.00607563  0.61888921  0.00483507  1
  O  O318  1  0.00654541  0.62633136  0.51323041  1
  O  O319  1  0.50934151  0.11833406  0.00674723  1
  O  O320  1  0.49672967  0.12348189  0.51606017  1
  O  O321  1  0.50770345  0.61296610  0.01036501  1
  O  O322  1  0.50567117  0.61972258  0.50525092  1
  O  O323  1  0.49347691  0.37786134  0.49427800  1
  O  O324  1  0.50232766  0.38849591  1.00015465  1
  O  O325  1  0.49138692  0.87673922  0.48745031  1
  O  O326  1  0.49670116  0.87608182  0.99178220  1
  O  O327  1  0.99449935  0.37759914  0.48977169  1
  O  O328  1  0.99329261  0.38283529  0.99461462  1
  O  O329  1  0.99568010  0.88424256  0.49201658  1
  O  O330  1  0.99242758  0.88035513  0.99084838  1
  O  O331  1  0.49521319  0.49334485  0.37895041  1
  O  O332  1  0.49279372  0.49589195  0.88780835  1
  O  O333  1  0.48538891  0.99338801  0.37148294  1
  O  O334  1  0.49863810  0.98949227  0.88176573  1
  O  O335  1  1.00507522  0.48925548  0.37745517  1
  O  O336  1  0.99317586  0.49280874  0.88722014  1
  O  O337  1  0.99077212  0.99282083  0.37834568  1
  O  O338  1  1.00682333  0.98683873  0.88126896  1
  O  O339  1  0.00701372  0.00419207  0.11639014  1
  O  O340  1  -0.00143319  -0.00341846  0.60739248  1
  O  O341  1  0.00748397  0.49752024  0.11382166  1
  O  O342  1  0.00821707  0.50938974  0.62457474  1
  O  O343  1  0.50675603  0.00414612  0.12366016  1
  O  O344  1  0.49462173  0.01429691  0.62311162  1
  O  O345  1  0.50819719  0.50396879  0.11737662  1
  O  O346  1  0.50884230  0.50404904  0.61932404  1
  O  O347  1  0.23879594  0.37187556  0.24682339  1
  O  O348  1  0.24151386  0.37211791  0.74245864  1
  O  O349  1  0.24315962  0.88466798  0.24721965  1
  O  O350  1  0.24249304  0.88006883  0.74318414  1
  O  O351  1  0.74962091  0.38518331  0.24779211  1
  O  O352  1  0.74224238  0.37044783  0.73949274  1
  O  O353  1  0.74605061  0.88131876  0.24086337  1
  O  O354  1  0.73914381  0.87426216  0.73654714  1
  O  O355  1  0.25088174  0.12012567  0.25692582  1
  O  O356  1  0.25540007  0.11784452  0.75269146  1
  O  O357  1  0.26332129  0.62543846  0.25667017  1
  O  O358  1  0.25391036  0.63248859  0.75706811  1
  O  O359  1  0.74360104  0.11256465  0.24382636  1
  O  O360  1  0.76162974  0.12297509  0.75257540  1
  O  O361  1  0.75654463  0.60836108  0.25162102  1
  O  O362  1  0.76110698  0.63177383  0.74378121  1
  O  O363  1  0.36724526  0.11584302  0.37607837  1
  O  O364  1  0.36722386  0.12142230  0.86523375  1
  O  O365  1  0.37186491  0.62013913  0.36861071  1
  O  O366  1  0.37567449  0.60834027  0.87400319  1
  O  O367  1  0.88184257  0.11513308  0.37728323  1
  O  O368  1  0.86490612  0.12547902  0.86166183  1
  O  O369  1  0.86771492  0.62776302  0.37815145  1
  O  O370  1  0.87978542  0.61728178  0.86680436  1
  O  O371  1  0.13381477  0.38236594  0.13377517  1
  O  O372  1  0.13348679  0.38377586  0.63053162  1
  O  O373  1  0.12599772  0.88603571  0.13219810  1
  O  O374  1  0.13662171  0.86845195  0.62848848  1
  O  O375  1  0.62226181  0.38634586  0.12225603  1
  O  O376  1  0.63008197  0.38074658  0.63189571  1
  O  O377  1  0.63145344  0.87569452  0.13045694  1
  O  O378  1  0.63106543  0.86820707  0.63298799  1
  O  O379  1  0.11183368  0.26109216  0.24706585  1
  O  O380  1  0.12202795  0.26426594  0.75683907  1
  O  O381  1  0.13247307  0.76343882  0.24857860  1
  O  O382  1  0.11253817  0.76088795  0.74824621  1
  O  O383  1  0.61384248  0.24916366  0.25757535  1
  O  O384  1  0.63156638  0.25680926  0.76038228  1
  O  O385  1  0.63386149  0.75284968  0.26126643  1
  O  O386  1  0.61225952  0.75475992  0.75452080  1
  O  O387  1  0.38937976  0.24669789  0.24546190  1
  O  O388  1  0.36923286  0.23838314  0.74166818  1
  O  O389  1  0.37201144  0.74300515  0.23597508  1
  O  O390  1  0.38575794  0.75237172  0.74046440  1
  O  O391  1  0.88887062  0.25704849  0.24174367  1
  O  O392  1  0.87694953  0.24131110  0.74771700  1
  O  O393  1  0.87052782  0.75196418  0.23563582  1
  O  O394  1  0.88820264  0.74141247  0.74272565  1
  O  O395  1  0.38302057  0.49452243  0.49330430  1
  O  O396  1  0.38853270  0.50357226  0.99563424  1
  O  O397  1  0.37592520  0.98879944  0.49158662  1
  O  O398  1  0.38182109  0.98958012  0.99771586  1
  O  O399  1  0.87689089  0.48751716  0.50563272  1
  O  O400  1  0.87968114  0.49444007  0.99886497  1
  O  O401  1  0.88200024  0.99835598  0.48775140  1
  O  O402  1  0.88384929  0.98553196  1.00923246  1
  O  O403  1  0.11444831  -0.00841641  0.00841282  1
  O  O404  1  0.11736260  0.01084937  0.49639941  1
  O  O405  1  0.11718601  0.50634449  0.00809425  1
  O  O406  1  0.12278115  0.51081110  0.51379931  1
  O  O407  1  0.61772615  0.00431912  0.01053058  1
  O  O408  1  0.61954193  0.00607569  0.48865855  1
  O  O409  1  0.61693211  0.50344646  0.00823626  1
  O  O410  1  0.62061766  0.50378823  0.50718843  1
  O  O411  1  0.35982033  0.38039878  0.13493854  1
  O  O412  1  0.37081371  0.37049412  0.62306895  1
  O  O413  1  0.37569877  0.86543537  0.11953019  1
  O  O414  1  0.36796312  0.86988851  0.61617140  1
  O  O415  1  0.88160865  0.36361442  0.11122452  1
  O  O416  1  0.86619256  0.37722057  0.62117053  1
  O  O417  1  0.86903877  0.86710359  0.12150427  1
  O  O418  1  0.86613642  0.86976838  0.61754700  1
  O  O419  1  0.13993139  0.12121388  0.38233944  1
  O  O420  1  0.13819774  0.12279156  0.86467013  1
  O  O421  1  0.13489500  0.62411801  0.38303790  1
  O  O422  1  0.12314692  0.62540421  0.88798930  1
  O  O423  1  0.61845649  0.14008012  0.37825726  1
  O  O424  1  0.62564586  0.12895386  0.88315258  1
  O  O425  1  0.62597272  0.63113063  0.37947736  1
  O  O426  1  0.61527824  0.63148732  0.88403328  1
