# generated using pymatgen
data_V85Zn86O256
_symmetry_space_group_name_H-M   'P 1'
_cell_length_a   16.92218094
_cell_length_b   16.92179320
_cell_length_c   16.91873408
_cell_angle_alpha   89.96830170
_cell_angle_beta   89.99598607
_cell_angle_gamma   90.00648936
_symmetry_Int_Tables_number   1
_chemical_formula_structural   V85Zn86O256
_chemical_formula_sum   'V85 Zn86 O256'
_cell_volume   4844.74041251
_cell_formula_units_Z   1
loop_
 _symmetry_equiv_pos_site_id
 _symmetry_equiv_pos_as_xyz
  1  'x, y, z'
loop_
 _atom_site_type_symbol
 _atom_site_label
 _atom_site_symmetry_multiplicity
 _atom_site_fract_x
 _atom_site_fract_y
 _atom_site_fract_z
 _atom_site_occupancy
  V  V0  1  0.74424076  -0.00813763  0.25191847  1
  V  V1  1  0.25281310  0.87772306  0.62377847  1
  V  V2  1  0.87530171  0.12167819  0.25030421  1
  V  V3  1  0.37459475  0.50183380  0.37352374  1
  V  V4  1  0.86102925  0.00380714  0.87745431  1
  V  V5  1  0.24521249  0.38569655  0.63359973  1
  V  V6  1  0.62337187  0.36840859  0.24936900  1
  V  V7  1  0.87725812  0.25356466  0.63304295  1
  V  V8  1  0.37629692  0.37642653  0.50018231  1
  V  V9  1  0.24705486  0.25061594  0.50040443  1
  V  V10  1  0.12507400  0.24964080  0.37338149  1
  V  V11  1  0.75051181  0.37206987  0.12529976  1
  V  V12  1  0.12334343  0.74513195  0.37553481  1
  V  V13  1  0.86975931  0.86871522  0.00037626  1
  V  V14  1  0.00121003  0.24852781  0.24903620  1
  V  V15  1  0.62388034  0.37683754  0.74740009  1
  V  V16  1  0.51099773  0.75251509  0.24905286  1
  V  V17  1  0.49627005  0.37299108  0.87987209  1
  V  V18  1  0.25062120  0.74829357  0.49871307  1
  V  V19  1  -0.00511170  0.38699863  0.37282691  1
  V  V20  1  0.87331808  0.37288698  0.00139210  1
  V  V21  1  0.87681060  0.61952324  0.26115360  1
  V  V22  1  -0.00347806  0.36645001  0.86611023  1
  V  V23  1  0.74225733  0.87016043  0.12743812  1
  V  V24  1  0.62267402  0.24744782  0.37511171  1
  V  V25  1  0.13332730  0.49881279  0.11370263  1
  V  V26  1  0.87916936  -0.00270558  0.37975515  1
  V  V27  1  0.50390943  0.51534148  0.50225556  1
  V  V28  1  0.37212011  0.26379392  0.12163163  1
  V  V29  1  0.25809804  0.00050355  0.25286673  1
  V  V30  1  0.75161937  0.25058332  0.50118271  1
  V  V31  1  0.86851973  0.74474456  0.12231200  1
  V  V32  1  0.37313138  0.00030373  0.87475300  1
  V  V33  1  0.38097639  0.75006305  0.62215748  1
  V  V34  1  0.37619334  0.62305956  0.74589052  1
  V  V35  1  0.24800641  0.00545402  0.74893727  1
  V  V36  1  0.74512705  0.74440523  0.51384006  1
  V  V37  1  0.49967050  0.62612000  0.12408891  1
  V  V38  1  0.13071611  0.87441737  0.24486748  1
  V  V39  1  0.61917786  0.51768765  0.62418637  1
  V  V40  1  0.24624164  0.27224084  -0.00020260  1
  V  V41  1  0.37140657  0.75389334  0.12693182  1
  V  V42  1  0.12400796  0.61993297  0.51704208  1
  V  V43  1  0.25108931  0.49725561  0.24580088  1
  V  V44  1  0.88258519  0.63157358  0.74268997  1
  V  V45  1  0.00605677  0.12245724  0.11971208  1
  V  V46  1  0.12977539  -0.00177878  0.12010293  1
  V  V47  1  0.50120208  0.37450488  0.37322018  1
  V  V48  1  0.49767755  0.49890368  0.00027377  1
  V  V49  1  0.50383405  0.12033419  0.62563116  1
  V  V50  1  0.24367915  0.12183043  0.89094939  1
  V  V51  1  0.25013161  0.62775888  0.87307298  1
  V  V52  1  0.50184006  0.88207693  0.36673798  1
  V  V53  1  0.12207803  0.74604172  0.87703329  1
  V  V54  1  -0.00040040  0.50263931  0.52019041  1
  V  V55  1  0.74882815  0.50477613  0.74967821  1
  V  V56  1  0.11966738  0.00283365  0.61489009  1
  V  V57  1  0.62849146  0.24215558  0.87511761  1
  V  V58  1  0.00428926  0.62454430  0.12035241  1
  V  V59  1  -0.00055786  0.12966835  0.62574394  1
  V  V60  1  0.50007200  0.00290672  0.00022108  1
  V  V61  1  0.37400339  0.25016798  0.62694212  1
  V  V62  1  0.75555016  0.49702167  0.26031568  1
  V  V63  1  0.11837535  0.24303821  0.87141338  1
  V  V64  1  0.00172968  0.87738250  0.38188038  1
  V  V65  1  0.12801919  0.37493673  0.24184730  1
  V  V66  1  0.00071896  0.75010718  0.24938505  1
  V  V67  1  0.74750824  0.00465749  0.73266896  1
  V  V68  1  0.63100361  0.75400802  0.88139068  1
  V  V69  1  0.62629523  0.49834203  0.12452362  1
  V  V70  1  0.24488839  0.74965268  0.00406689  1
  V  V71  1  0.48899400  0.00125638  0.49716502  1
  V  V72  1  0.50041094  0.24900862  0.75084181  1
  V  V73  1  0.00269126  0.50073702  -0.00229825  1
  V  V74  1  0.87117844  0.50162817  0.87704020  1
  V  V75  1  -0.00306102  0.87525674  0.87343715  1
  V  V76  1  0.49740785  0.12911955  0.13260821  1
  V  V77  1  0.75053167  0.23979898  -0.00087518  1
  V  V78  1  0.62793920  0.11378171  0.50259103  1
  V  V79  1  0.50240468  0.74838359  0.74844847  1
  V  V80  1  0.37393097  0.49838655  0.87354289  1
  V  V81  1  0.86898536  0.86956638  0.51146799  1
  V  V82  1  0.62972302  0.87845100  0.73618252  1
  V  V83  1  0.36962672  0.87538704  0.00125747  1
  V  V84  1  0.12388270  0.87597251  0.74931083  1
  Zn  Zn85  1  0.00272306  0.00147938  -0.00307839  1
  Zn  Zn86  1  0.63273892  0.62930049  0.00225420  1
  Zn  Zn87  1  0.00029056  0.74976529  0.73592344  1
  Zn  Zn88  1  0.87679540  0.24716803  0.12525154  1
  Zn  Zn89  1  0.11778677  0.12283398  0.49488903  1
  Zn  Zn90  1  0.50073697  0.87734222  0.87287672  1
  Zn  Zn91  1  0.37684369  0.13318300  0.25401411  1
  Zn  Zn92  1  0.74818069  0.62581509  0.38346019  1
  Zn  Zn93  1  0.62354164  -0.00071626  0.12733110  1
  Zn  Zn94  1  0.37339451  0.87787884  0.49322110  1
  Zn  Zn95  1  0.75485144  0.63465403  0.88386397  1
  Zn  Zn96  1  0.87390045  0.13004654  0.75472785  1
  Zn  Zn97  1  0.62792979  0.74657211  0.38004230  1
  Zn  Zn98  1  0.12066994  0.38243009  0.74498726  1
  Zn  Zn99  1  0.24720861  0.62237400  0.37461621  1
  Zn  Zn100  1  0.74817503  0.37742404  0.62176083  1
  Zn  Zn101  1  0.62832508  0.12005254  -0.00105647  1
  Zn  Zn102  1  0.37287678  0.62713141  0.24902171  1
  Zn  Zn103  1  0.25675504  0.12096330  0.37773313  1
  Zn  Zn104  1  0.75006737  0.12162552  0.37398181  1
  Zn  Zn105  1  0.87060780  0.38117574  0.49541737  1
  Zn  Zn106  1  0.37516924  0.12470681  0.75331589  1
  Zn  Zn107  1  0.19190389  0.18563661  0.18120311  1
  Zn  Zn108  1  0.18489821  0.18952225  0.69054177  1
  Zn  Zn109  1  0.18738799  0.68313067  0.18609646  1
  Zn  Zn110  1  0.19039783  0.69061707  0.69046215  1
  Zn  Zn111  1  0.68681846  0.18384692  0.18629773  1
  Zn  Zn112  1  0.68957898  0.18556936  0.68620085  1
  Zn  Zn113  1  0.68878736  0.68193492  0.19110444  1
  Zn  Zn114  1  0.69284298  0.69105314  0.69009003  1
  Zn  Zn115  1  0.31186889  0.31218475  0.30952209  1
  Zn  Zn116  1  0.31116111  0.31020935  0.81520462  1
  Zn  Zn117  1  0.31509960  0.81566843  0.31207592  1
  Zn  Zn118  1  0.31271349  0.81426556  0.81219403  1
  Zn  Zn119  1  0.81285568  0.30848685  0.31341095  1
  Zn  Zn120  1  0.80755055  0.31462532  0.81318656  1
  Zn  Zn121  1  0.81292610  0.80748486  0.31717930  1
  Zn  Zn122  1  0.80989272  0.81644311  0.80598485  1
  Zn  Zn123  1  0.18434706  0.43614711  0.43794223  1
  Zn  Zn124  1  0.17360326  0.45061167  0.90441506  1
  Zn  Zn125  1  0.18983574  0.93541651  0.43385155  1
  Zn  Zn126  1  0.18679657  0.93388005  0.93828756  1
  Zn  Zn127  1  0.68429874  0.43977748  0.44007377  1
  Zn  Zn128  1  0.68532659  0.43524080  0.93785357  1
  Zn  Zn129  1  0.68732569  0.93089406  0.43696556  1
  Zn  Zn130  1  0.68548231  0.93135869  0.93991436  1
  Zn  Zn131  1  0.31332782  0.06129052  0.07024051  1
  Zn  Zn132  1  0.31076495  0.06840304  0.56243329  1
  Zn  Zn133  1  0.31356554  0.56501061  0.05696274  1
  Zn  Zn134  1  0.31412272  0.56529902  0.56091015  1
  Zn  Zn135  1  0.81516308  0.05751342  0.06559964  1
  Zn  Zn136  1  0.81932504  0.06503688  0.55872524  1
  Zn  Zn137  1  0.81093937  0.56266139  0.06494458  1
  Zn  Zn138  1  0.81155260  0.55822969  0.56275637  1
  Zn  Zn139  1  0.43891833  0.43519518  0.18887762  1
  Zn  Zn140  1  0.43737719  0.43859356  0.68764068  1
  Zn  Zn141  1  0.43787722  0.93635881  0.18535802  1
  Zn  Zn142  1  0.43905947  0.93676603  0.68659361  1
  Zn  Zn143  1  0.93896471  0.43717711  0.18548766  1
  Zn  Zn144  1  0.93161570  0.43562572  0.68783979  1
  Zn  Zn145  1  0.93779883  0.93552775  0.18936294  1
  Zn  Zn146  1  0.93977347  0.94317520  0.69006842  1
  Zn  Zn147  1  0.06555616  0.06116841  0.30958103  1
  Zn  Zn148  1  0.05823970  0.06340861  0.80810749  1
  Zn  Zn149  1  0.06569643  0.56448578  0.31021876  1
  Zn  Zn150  1  0.06221971  0.55965903  0.80791622  1
  Zn  Zn151  1  0.56247297  0.06213887  0.31305746  1
  Zn  Zn152  1  0.56444229  0.06003360  0.81146191  1
  Zn  Zn153  1  0.56573791  0.56367477  0.31233048  1
  Zn  Zn154  1  0.56169025  0.56786257  0.81278980  1
  Zn  Zn155  1  0.43771266  0.18698253  0.43608125  1
  Zn  Zn156  1  0.43120508  0.18731845  0.94173923  1
  Zn  Zn157  1  0.43806671  0.69045426  0.43161404  1
  Zn  Zn158  1  0.44091941  0.68901959  0.93614322  1
  Zn  Zn159  1  0.93928449  0.18771485  0.43997390  1
  Zn  Zn160  1  0.93564210  0.18398684  0.93907033  1
  Zn  Zn161  1  0.93669099  0.68921939  0.56086901  1
  Zn  Zn162  1  0.93702473  0.68631667  0.93623262  1
  Zn  Zn163  1  0.06497099  0.31077792  0.05670701  1
  Zn  Zn164  1  0.06110210  0.31520856  0.56213560  1
  Zn  Zn165  1  0.05939441  0.81477403  0.06090240  1
  Zn  Zn166  1  0.06567273  0.81653864  0.56013303  1
  Zn  Zn167  1  0.56050173  0.30923733  0.06108955  1
  Zn  Zn168  1  0.56283407  0.31287520  0.56038856  1
  Zn  Zn169  1  0.55812233  0.81577778  0.06150309  1
  Zn  Zn170  1  0.56153894  0.81448681  0.55884627  1
  O  O171  1  0.11674665  0.11275672  0.13111255  1
  O  O172  1  0.11874718  0.12028443  0.62489579  1
  O  O173  1  0.11219362  0.61535456  0.12627505  1
  O  O174  1  0.13574113  0.62326741  0.61645295  1
  O  O175  1  0.61147432  0.12620967  0.11979507  1
  O  O176  1  0.61487451  0.13207836  0.61484667  1
  O  O177  1  0.61659169  0.61715353  0.12493413  1
  O  O178  1  0.62249824  0.61629186  0.63693096  1
  O  O179  1  0.38223656  0.38240836  0.37662454  1
  O  O180  1  0.38409344  0.38547707  0.86763013  1
  O  O181  1  0.39401488  0.86832620  0.37793327  1
  O  O182  1  0.37709346  0.88190787  0.88249847  1
  O  O183  1  0.89154955  0.36824543  0.37550491  1
  O  O184  1  0.87843667  0.37960894  0.88090527  1
  O  O185  1  0.88435813  0.87990028  0.38026038  1
  O  O186  1  0.87826922  0.87933423  0.88005182  1
  O  O187  1  0.24402194  0.00283422  0.35885667  1
  O  O188  1  0.25102134  0.00449677  0.86904405  1
  O  O189  1  0.25834676  0.49674297  0.36700592  1
  O  O190  1  0.26911894  0.51416602  0.88908020  1
  O  O191  1  0.75793539  -0.00214711  0.36811258  1
  O  O192  1  0.75957706  -0.00558945  0.87338280  1
  O  O193  1  0.74870088  0.49811669  0.36358922  1
  O  O194  1  0.75946534  0.49635062  0.86902814  1
  O  O195  1  0.24021539  0.50606450  0.12640325  1
  O  O196  1  0.25835694  0.48345250  0.62041814  1
  O  O197  1  0.24005374  1.00030535  0.13600171  1
  O  O198  1  0.24589255  0.99915588  0.63239429  1
  O  O199  1  0.74415346  0.48908872  0.13220067  1
  O  O200  1  0.73949865  0.49881718  0.63331702  1
  O  O201  1  0.75075147  0.98874011  0.13325446  1
  O  O202  1  0.75354084  1.00293872  0.63427184  1
  O  O203  1  0.00588080  0.36988434  0.25681508  1
  O  O204  1  -0.00178536  0.37716236  0.76299925  1
  O  O205  1  0.00609110  0.86711115  0.25731279  1
  O  O206  1  0.00393003  0.87247351  0.75758865  1
  O  O207  1  0.50862730  0.37805387  0.26319231  1
  O  O208  1  0.50564091  0.36965498  0.75884026  1
  O  O209  1  0.49861876  0.87014724  0.25802409  1
  O  O210  1  0.51039681  0.86890297  0.75061095  1
  O  O211  1  0.49956043  0.12265099  0.23627271  1
  O  O212  1  0.50040127  0.13009275  0.74198560  1
  O  O213  1  0.49657297  0.63078817  0.23740530  1
  O  O214  1  0.49223672  0.64052074  0.75264648  1
  O  O215  1  0.99433008  0.12933527  0.24339019  1
  O  O216  1  0.99243845  0.12144409  0.73441545  1
  O  O217  1  0.99568713  0.62893538  0.24128826  1
  O  O218  1  0.98638890  0.62570507  0.75592148  1
  O  O219  1  0.35772536  0.24877897  0.00684754  1
  O  O220  1  0.36886573  0.25745655  0.50794267  1
  O  O221  1  0.37096839  0.75751958  0.00450249  1
  O  O222  1  0.36908905  0.74750303  0.50701740  1
  O  O223  1  0.86674976  0.25448919  0.00140380  1
  O  O224  1  0.86225326  0.25050141  0.50394438  1
  O  O225  1  0.87970417  0.75560756  0.00980771  1
  O  O226  1  0.86733506  0.76306065  0.50252967  1
  O  O227  1  0.13142018  0.25332289  0.49052247  1
  O  O228  1  0.13948869  0.24866125  0.99293421  1
  O  O229  1  0.13137036  0.74171848  0.49247265  1
  O  O230  1  0.13457897  0.75850541  0.99237390  1
  O  O231  1  0.63446106  0.24360550  0.49481511  1
  O  O232  1  0.63295331  0.24970255  0.99156475  1
  O  O233  1  0.64065582  0.75472743  0.50356925  1
  O  O234  1  0.61796147  0.75328169  0.98430349  1
  O  O235  1  0.48516597  0.23935881  0.11324109  1
  O  O236  1  0.49281293  0.24384971  0.62822748  1
  O  O237  1  0.49342462  0.74441166  0.12798055  1
  O  O238  1  0.48791108  0.75560496  0.62961605  1
  O  O239  1  1.00167820  0.24153830  0.13081199  1
  O  O240  1  0.98849729  0.24740781  0.62140476  1
  O  O241  1  0.99436687  0.74092587  0.12706690  1
  O  O242  1  1.00769750  0.74756543  0.62386062  1
  O  O243  1  0.00847736  0.25794704  0.36997195  1
  O  O244  1  0.00489548  0.25302868  0.88028542  1
  O  O245  1  0.01537842  0.75858238  0.36792221  1
  O  O246  1  0.00660897  0.75915444  0.87490745  1
  O  O247  1  0.51485098  0.25922645  0.38317689  1
  O  O248  1  0.50264058  0.25663894  0.87299563  1
  O  O249  1  0.50311343  0.75697053  0.36423784  1
  O  O250  1  0.50865002  0.75469486  0.86529849  1
  O  O251  1  0.24519207  0.14014769  0.49913083  1
  O  O252  1  0.24946875  0.12041952  0.99178021  1
  O  O253  1  0.24349912  0.63051017  0.49605190  1
  O  O254  1  0.25668177  0.63996688  0.98665433  1
  O  O255  1  0.74320361  0.13042473  0.49709746  1
  O  O256  1  0.75041015  0.13574390  1.00733584  1
  O  O257  1  0.75945104  0.63967061  0.50240304  1
  O  O258  1  0.74567296  0.61980605  0.99640651  1
  O  O259  1  0.24440927  0.36871666  -0.01276381  1
  O  O260  1  0.25485862  0.36721255  0.50739910  1
  O  O261  1  0.26167725  0.86535954  -0.00399545  1
  O  O262  1  0.25272990  0.86730231  0.50418966  1
  O  O263  1  0.75412956  0.36713935  0.00616836  1
  O  O264  1  0.75027967  0.36670242  0.50050332  1
  O  O265  1  0.76226625  0.87667948  0.00950302  1
  O  O266  1  0.76296332  0.86864175  0.49951829  1
  O  O267  1  0.13144336  0.49389800  0.23979996  1
  O  O268  1  0.13867177  0.48330572  0.79523413  1
  O  O269  1  0.13176722  0.99102668  0.24241364  1
  O  O270  1  0.13206684  0.99495011  0.74255352  1
  O  O271  1  0.63192294  0.48622447  0.24409421  1
  O  O272  1  0.62897582  0.49540927  0.74773499  1
  O  O273  1  0.64019030  1.00444592  0.24850957  1
  O  O274  1  0.63617266  0.98979672  0.75386572  1
  O  O275  1  0.36004457  -0.00107435  0.24251940  1
  O  O276  1  0.36627581  0.00076641  0.75524600  1
  O  O277  1  0.36809158  0.49924721  0.25464816  1
  O  O278  1  0.38389674  0.51230910  0.75897936  1
  O  O279  1  0.86866501  0.00404614  0.25856725  1
  O  O280  1  0.86003705  -0.00422463  0.75980481  1
  O  O281  1  0.86717731  0.50574019  0.24335749  1
  O  O282  1  0.86735422  0.50654068  0.75653478  1
  O  O283  1  0.11645427  0.36892085  0.36347351  1
  O  O284  1  0.10675273  0.35804176  0.88596856  1
  O  O285  1  0.11921603  0.87002013  0.36636196  1
  O  O286  1  0.11622615  0.86872221  0.87056344  1
  O  O287  1  0.61945131  0.36962971  0.36941291  1
  O  O288  1  0.61725006  0.36825703  0.86464779  1
  O  O289  1  0.60695741  0.86920271  0.37977517  1
  O  O290  1  0.62233917  0.86656245  0.86638522  1
  O  O291  1  0.38363210  0.13287863  0.12780701  1
  O  O292  1  0.38140775  0.13742512  0.62663412  1
  O  O293  1  0.38256499  0.63544713  0.12306683  1
  O  O294  1  0.36792142  0.63394074  0.63777312  1
  O  O295  1  0.88280453  0.12178114  0.13736343  1
  O  O296  1  0.88083070  0.13462945  0.62605484  1
  O  O297  1  0.88623390  0.62943450  0.12928802  1
  O  O298  1  0.87545358  0.62041443  0.63937077  1
  O  O299  1  0.25615346  0.25198223  0.10926960  1
  O  O300  1  0.25707977  0.25415614  0.61923886  1
  O  O301  1  0.25725740  0.74317335  0.11585529  1
  O  O302  1  0.25991936  0.75742673  0.62071878  1
  O  O303  1  0.75087589  0.25565864  0.11802080  1
  O  O304  1  0.75516314  0.25217537  0.61672497  1
  O  O305  1  0.76200245  0.75367847  0.13238375  1
  O  O306  1  0.75269808  0.75156814  0.61446143  1
  O  O307  1  0.23995887  0.25679084  0.38297245  1
  O  O308  1  0.24537046  0.24126803  0.88530126  1
  O  O309  1  0.24021143  0.75047764  0.37862637  1
  O  O310  1  0.24325121  0.74787746  0.88127433  1
  O  O311  1  0.73984319  0.24767647  0.38205015  1
  O  O312  1  0.73983676  0.25499588  0.88481990  1
  O  O313  1  0.74866990  0.75028675  0.38960910  1
  O  O314  1  0.73504349  0.75323882  0.86898582  1
  O  O315  1  -0.00617861  0.12014324  0.01562431  1
  O  O316  1  0.00180318  0.12765957  0.51481988  1
  O  O317  1  -0.00588938  0.61009487  0.00524578  1
  O  O318  1  0.00687892  0.61001873  0.50581796  1
  O  O319  1  0.49646532  0.11368524  0.00660279  1
  O  O320  1  0.50688673  0.12010002  0.50542352  1
  O  O321  1  0.50521751  0.62009037  0.00937633  1
  O  O322  1  0.49582583  0.61435706  0.49610026  1
  O  O323  1  0.49552034  0.38077904  0.48921251  1
  O  O324  1  0.50491492  0.38179543  0.98699221  1
  O  O325  1  0.49716815  0.88634527  0.49310033  1
  O  O326  1  0.48904387  0.88692849  0.99957292  1
  O  O327  1  1.00383406  0.38747048  0.48750082  1
  O  O328  1  0.99069569  0.38284853  0.99629342  1
  O  O329  1  0.99260236  0.87187650  0.48661829  1
  O  O330  1  0.98732278  0.87726839  0.99220269  1
  O  O331  1  0.49434546  0.49421198  0.37908043  1
  O  O332  1  0.49533371  0.49550371  0.88098893  1
  O  O333  1  0.50142219  0.99080970  0.37969105  1
  O  O334  1  0.49200537  1.00071845  0.88204904  1
  O  O335  1  1.00217799  0.48739209  0.36928555  1
  O  O336  1  0.98663719  0.49212332  0.88175948  1
  O  O337  1  0.99319835  0.98961686  0.36683748  1
  O  O338  1  0.99142511  0.98809841  0.87360059  1
  O  O339  1  0.00803915  0.00573009  0.12706903  1
  O  O340  1  0.01185666  0.00803285  0.62757561  1
  O  O341  1  0.00854113  0.50441822  0.11669874  1
  O  O342  1  0.00713067  0.49002434  0.61851964  1
  O  O343  1  0.50027274  0.00936683  0.11883906  1
  O  O344  1  0.49499062  0.01369561  0.61782441  1
  O  O345  1  0.50304541  0.50587761  0.11915879  1
  O  O346  1  0.50660544  0.49557824  0.61449287  1
  O  O347  1  0.24094543  0.38690379  0.25010729  1
  O  O348  1  0.25457776  0.37126656  0.73530433  1
  O  O349  1  0.24160966  0.88503094  0.25342584  1
  O  O350  1  0.24552172  0.88647437  0.74576537  1
  O  O351  1  0.74562093  0.37799317  0.24576868  1
  O  O352  1  0.74111520  0.38824008  0.74943093  1
  O  O353  1  0.76015449  0.88133296  0.24096442  1
  O  O354  1  0.73799889  0.88529962  0.74786581  1
  O  O355  1  0.24915156  0.11125099  0.24956664  1
  O  O356  1  0.24963408  0.11454616  0.75663994  1
  O  O357  1  0.25065872  0.61087279  0.25205238  1
  O  O358  1  0.26100803  0.63389250  0.76447056  1
  O  O359  1  0.75984361  0.11685969  0.25082987  1
  O  O360  1  0.74963086  0.10911560  0.74952251  1
  O  O361  1  0.76187710  0.61164845  0.24407771  1
  O  O362  1  0.75886161  0.61619063  0.75566473  1
  O  O363  1  0.36918074  0.13794507  0.36662291  1
  O  O364  1  0.36373837  0.11797272  0.87409544  1
  O  O365  1  0.37296365  0.61225965  0.37107918  1
  O  O366  1  0.37218680  0.62312547  0.86607811  1
  O  O367  1  0.87715432  0.11699052  0.36639590  1
  O  O368  1  0.87958920  0.10709668  0.87333957  1
  O  O369  1  0.87140543  0.62544640  0.35937315  1
  O  O370  1  0.87351784  0.61584874  0.86719625  1
  O  O371  1  0.11758434  0.38392351  0.13414996  1
  O  O372  1  0.13995325  0.37081324  0.62792376  1
  O  O373  1  0.11758054  0.87918197  0.13844033  1
  O  O374  1  0.13267091  0.88509785  0.62888377  1
  O  O375  1  0.62731566  0.37532310  0.13277979  1
  O  O376  1  0.62263989  0.37721151  0.63899530  1
  O  O377  1  0.63900606  0.87404678  0.11971394  1
  O  O378  1  0.62040023  0.87676795  0.63797072  1
  O  O379  1  0.12452592  0.25792540  0.25255104  1
  O  O380  1  0.13229446  0.25755990  0.76810362  1
  O  O381  1  0.12367071  0.75531958  0.25416305  1
  O  O382  1  0.12551737  0.75916992  0.75945136  1
  O  O383  1  0.63138580  0.26009842  0.25846341  1
  O  O384  1  0.62194387  0.25681100  0.75604362  1
  O  O385  1  0.61255131  0.75144489  0.24256017  1
  O  O386  1  0.62074387  0.76098686  0.75372644  1
  O  O387  1  0.36321460  0.25184532  0.22731376  1
  O  O388  1  0.38191493  0.24749067  0.74384154  1
  O  O389  1  0.38130237  0.74853792  0.24091572  1
  O  O390  1  0.38326021  0.74805593  0.74380393  1
  O  O391  1  0.88074714  0.23871173  0.24909479  1
  O  O392  1  0.86375868  0.24920301  0.73759836  1
  O  O393  1  0.88282451  0.74192745  0.24197354  1
  O  O394  1  0.87538519  0.73475495  0.75560952  1
  O  O395  1  0.38103956  0.49523050  0.49170367  1
  O  O396  1  0.39068262  0.50578560  0.99268609  1
  O  O397  1  0.38523382  1.00377131  0.50114132  1
  O  O398  1  0.37745138  0.99238366  0.99756080  1
  O  O399  1  0.89302050  0.49788379  0.50529289  1
  O  O400  1  0.87913095  0.49296089  0.99374661  1
  O  O401  1  0.87026313  0.99094462  0.48565270  1
  O  O402  1  0.87590297  0.99179267  0.98945816  1
  O  O403  1  0.12188979  -0.01170646  0.01509942  1
  O  O404  1  0.13431828  0.00281872  0.51107342  1
  O  O405  1  0.11557307  0.49398379  0.00316833  1
  O  O406  1  0.11232063  0.50838495  0.49279152  1
  O  O407  1  0.61503115  0.00039947  0.00183169  1
  O  O408  1  0.61780911  0.01072938  0.49412058  1
  O  O409  1  0.61363523  0.49857517  0.00544310  1
  O  O410  1  0.61640162  0.49785661  0.51201270  1
  O  O411  1  0.38371590  0.36278018  0.11922153  1
  O  O412  1  0.37065800  0.36537348  0.62167233  1
  O  O413  1  0.37859682  0.86232401  0.11664903  1
  O  O414  1  0.36924828  0.86812922  0.62150680  1
  O  O415  1  0.86953853  0.37095309  0.11895816  1
  O  O416  1  0.87047130  0.36720450  0.61963499  1
  O  O417  1  0.87124895  0.86499388  0.11830427  1
  O  O418  1  0.88329327  0.88478044  0.60824296  1
  O  O419  1  0.12619088  0.13834066  0.37396741  1
  O  O420  1  0.13019706  0.12888922  0.87222564  1
  O  O421  1  0.12578033  0.63301517  0.38039515  1
  O  O422  1  0.13268484  0.63962908  0.87148525  1
  O  O423  1  0.62538337  0.13291112  0.38216455  1
  O  O424  1  0.61831854  0.13866203  0.87762926  1
  O  O425  1  0.63486566  0.63223947  0.36260430  1
  O  O426  1  0.62605249  0.64238209  0.87273293  1
