# generated using pymatgen
data_V85Zn86O256
_symmetry_space_group_name_H-M   'P 1'
_cell_length_a   16.94831859
_cell_length_b   16.95125753
_cell_length_c   16.97444307
_cell_angle_alpha   90.04281112
_cell_angle_beta   90.03417303
_cell_angle_gamma   89.94411572
_symmetry_Int_Tables_number   1
_chemical_formula_structural   V85Zn86O256
_chemical_formula_sum   'V85 Zn86 O256'
_cell_volume   4876.67339180
_cell_formula_units_Z   1
loop_
 _symmetry_equiv_pos_site_id
 _symmetry_equiv_pos_as_xyz
  1  'x, y, z'
loop_
 _atom_site_type_symbol
 _atom_site_label
 _atom_site_symmetry_multiplicity
 _atom_site_fract_x
 _atom_site_fract_y
 _atom_site_fract_z
 _atom_site_occupancy
  V  V0  1  0.25178183  0.61879540  0.86104358  1
  V  V1  1  0.62773869  0.14221019  0.50589966  1
  V  V2  1  0.75217202  0.74864316  0.00619617  1
  V  V3  1  -0.00513519  0.74930920  0.75214073  1
  V  V4  1  0.63574220  0.74966154  0.38031154  1
  V  V5  1  0.74638422  0.36582273  0.61954691  1
  V  V6  1  0.25472683  0.50146933  0.25481572  1
  V  V7  1  0.38285969  0.37752125  -0.00299337  1
  V  V8  1  0.13335267  0.63036769  0.50571931  1
  V  V9  1  0.25163636  0.12710363  0.37715557  1
  V  V10  1  0.87877142  0.12495489  0.74637834  1
  V  V11  1  0.37961800  0.62156940  0.25446463  1
  V  V12  1  0.25118395  -0.00034867  0.25213781  1
  V  V13  1  0.49937396  0.25340718  0.75126817  1
  V  V14  1  0.87941368  0.62357902  0.23132296  1
  V  V15  1  0.00410530  0.49778561  0.50450674  1
  V  V16  1  0.12540421  0.87414060  0.25311470  1
  V  V17  1  0.51034559  0.74879525  0.24859276  1
  V  V18  1  0.12298637  0.87605399  0.75145698  1
  V  V19  1  0.37734135  0.87355077  -0.00236375  1
  V  V20  1  0.49550123  0.62163483  0.61706639  1
  V  V21  1  0.00154907  0.74463635  0.23398338  1
  V  V22  1  0.49529480  0.74526518  0.74614380  1
  V  V23  1  0.11677810  0.37993654  0.75551699  1
  V  V24  1  0.75064541  0.62626748  0.87029806  1
  V  V25  1  0.12594266  0.00150899  0.12516635  1
  V  V26  1  0.12053649  0.50890776  0.12618976  1
  V  V27  1  0.50090534  0.61278477  0.12338635  1
  V  V28  1  -0.00978712  -0.00642426  0.49739121  1
  V  V29  1  0.88396710  0.24851976  0.62287287  1
  V  V30  1  0.73866945  0.11885629  0.37535780  1
  V  V31  1  0.76010737  0.61939269  0.38109191  1
  V  V32  1  0.25561785  0.63149601  0.37822581  1
  V  V33  1  0.87523195  0.87150885  0.00089691  1
  V  V34  1  0.37840798  0.49933242  0.86322723  1
  V  V35  1  0.61933487  0.37925272  0.75238421  1
  V  V36  1  0.63715439  0.37648749  0.25057233  1
  V  V37  1  -0.00170111  0.87598039  0.87443088  1
  V  V38  1  -0.04971311  0.67478463  0.57864961  1
  V  V39  1  0.88141583  0.62297448  0.75093980  1
  V  V40  1  0.36646211  0.87168261  0.50076539  1
  V  V41  1  0.11530972  0.25609587  0.87722143  1
  V  V42  1  0.12621368  0.25459042  0.37597276  1
  V  V43  1  0.50387527  0.24783452  0.26181810  1
  V  V44  1  0.62008922  0.49901379  0.61241239  1
  V  V45  1  0.51217516  -0.00314754  0.50739454  1
  V  V46  1  0.12612385  0.37499725  0.25080105  1
  V  V47  1  0.00118125  0.50125829  -0.00186094  1
  V  V48  1  0.87445469  0.37068753  0.02006353  1
  V  V49  1  0.37887152  0.74934153  0.12632083  1
  V  V50  1  0.25211915  0.74118584  -0.00071365  1
  V  V51  1  0.74971223  0.49988253  0.74594592  1
  V  V52  1  0.49959452  0.39501841  0.37772355  1
  V  V53  1  0.11605368  0.00657219  0.62762744  1
  V  V54  1  0.62298234  0.25689788  0.87769631  1
  V  V55  1  0.61990050  0.12469528  0.00098415  1
  V  V56  1  0.62336378  0.62178544  -0.00100589  1
  V  V57  1  0.12076808  0.75164306  0.37928788  1
  V  V58  1  -0.01133296  0.24971738  0.24841068  1
  V  V59  1  0.37449316  0.12726741  0.74640268  1
  V  V60  1  0.36601670  0.74574686  0.62377961  1
  V  V61  1  0.62152305  0.00117063  0.13280645  1
  V  V62  1  0.25198383  0.87479141  0.12507997  1
  V  V63  1  0.37544007  -0.00085611  0.87273747  1
  V  V64  1  0.62443928  0.75449670  0.87128170  1
  V  V65  1  0.24817137  -0.00050360  0.74799602  1
  V  V66  1  0.25151683  0.37600050  0.12534852  1
  V  V67  1  0.50196975  0.87247062  0.37550635  1
  V  V68  1  0.24790721  0.12770932  0.87542808  1
  V  V69  1  0.87033575  0.37154562  0.49692837  1
  V  V70  1  0.37553950  -0.00061703  0.37894380  1
  V  V71  1  0.75425113  0.84735567  0.60236526  1
  V  V72  1  0.74030581  -0.00398282  0.74162878  1
  V  V73  1  0.74642908  0.12721628  0.87610368  1
  V  V74  1  0.87051881  0.00121212  0.87889652  1
  V  V75  1  0.88032616  0.48529454  0.87129990  1
  V  V76  1  -0.00595278  0.12765899  0.12688826  1
  V  V77  1  0.87278714  0.10100936  0.26314827  1
  V  V78  1  0.12894298  0.50459260  0.63332098  1
  V  V79  1  0.00173061  0.37496075  0.37626108  1
  V  V80  1  0.24991582  0.25246614  0.00042091  1
  V  V81  1  0.74999546  0.88464988  0.12262140  1
  V  V82  1  0.25015507  0.37222439  0.63055377  1
  V  V83  1  0.12331806  0.12641282  0.00182986  1
  V  V84  1  0.11644317  0.12699757  0.50449886  1
  Zn  Zn85  1  0.11800470  0.62916649  0.00299613  1
  Zn  Zn86  1  0.38357048  0.38147051  0.49560349  1
  Zn  Zn87  1  0.74115792  0.27043633  0.02754711  1
  Zn  Zn88  1  0.50448060  0.49376326  -0.00742227  1
  Zn  Zn89  1  0.37624362  0.25083836  0.62175389  1
  Zn  Zn90  1  0.50598561  0.12110018  0.62853408  1
  Zn  Zn91  1  -0.00319041  0.25138632  0.75373991  1
  Zn  Zn92  1  0.37614815  0.12680527  0.24979519  1
  Zn  Zn93  1  0.62541669  0.62423584  0.49723216  1
  Zn  Zn94  1  0.87673413  0.49968368  0.37110085  1
  Zn  Zn95  1  -0.02082418  0.88820643  0.36565410  1
  Zn  Zn96  1  0.25446017  0.24945001  0.50305760  1
  Zn  Zn97  1  0.12640651  0.74735117  0.87614765  1
  Zn  Zn98  1  0.62297904  0.87727956  0.73700598  1
  Zn  Zn99  1  0.49830925  -0.00058476  0.00049380  1
  Zn  Zn100  1  0.50002047  0.87428326  0.86928252  1
  Zn  Zn101  1  0.65789616  0.47494337  0.11654477  1
  Zn  Zn102  1  0.62988573  0.87843143  0.25064550  1
  Zn  Zn103  1  0.37656127  0.24759508  0.12805764  1
  Zn  Zn104  1  -0.00124204  0.00146548  0.00022727  1
  Zn  Zn105  1  0.24695743  0.87329862  0.62157900  1
  Zn  Zn106  1  0.49573185  0.12610932  0.12781793  1
  Zn  Zn107  1  0.18693808  0.18903379  0.18961031  1
  Zn  Zn108  1  0.18437653  0.19072562  0.69028670  1
  Zn  Zn109  1  0.18966051  0.68816765  0.18895394  1
  Zn  Zn110  1  0.18429263  0.69117442  0.68901934  1
  Zn  Zn111  1  0.68507955  0.19013011  0.19531096  1
  Zn  Zn112  1  0.68857065  0.18682291  0.68757698  1
  Zn  Zn113  1  0.70863603  0.65102015  0.17050900  1
  Zn  Zn114  1  0.68553938  0.68689218  0.68403831  1
  Zn  Zn115  1  0.31917655  0.31332638  0.31553972  1
  Zn  Zn116  1  0.30744888  0.31656429  0.81267598  1
  Zn  Zn117  1  0.31438167  0.80918939  0.31349185  1
  Zn  Zn118  1  0.31194329  0.80897592  0.81024026  1
  Zn  Zn119  1  0.81034947  0.30133156  0.32123722  1
  Zn  Zn120  1  0.80552171  0.30991973  0.80893806  1
  Zn  Zn121  1  0.81116201  0.81217654  0.29857726  1
  Zn  Zn122  1  0.81166349  0.81298416  0.80888263  1
  Zn  Zn123  1  0.22103741  0.45675173  0.45775522  1
  Zn  Zn124  1  0.18961322  0.43992073  0.93812420  1
  Zn  Zn125  1  0.18270602  0.93987033  0.43848410  1
  Zn  Zn126  1  0.18989951  0.93720148  0.93787243  1
  Zn  Zn127  1  0.68732396  0.43415817  0.42969322  1
  Zn  Zn128  1  0.69318687  0.43862833  0.93470304  1
  Zn  Zn129  1  0.69744743  0.93690316  0.43531811  1
  Zn  Zn130  1  0.68597082  0.94004867  0.93822749  1
  Zn  Zn131  1  0.31367969  0.06373384  0.06255060  1
  Zn  Zn132  1  0.30936493  0.05983604  0.56233778  1
  Zn  Zn133  1  0.31578296  0.55883389  0.06381902  1
  Zn  Zn134  1  0.31503778  0.55908531  0.56605219  1
  Zn  Zn135  1  0.78966826  0.09685949  0.08690930  1
  Zn  Zn136  1  0.80798799  0.06462794  0.56207243  1
  Zn  Zn137  1  0.81749690  0.55969313  0.05496358  1
  Zn  Zn138  1  0.80740615  0.55589350  0.55702106  1
  Zn  Zn139  1  0.43872178  0.43224317  0.19224164  1
  Zn  Zn140  1  0.43738668  0.43880005  0.68647785  1
  Zn  Zn141  1  0.43955274  0.93876756  0.18942006  1
  Zn  Zn142  1  0.43808744  0.93283010  0.68541522  1
  Zn  Zn143  1  0.94009151  0.44175854  0.18914927  1
  Zn  Zn144  1  0.94003338  0.43564555  0.68433930  1
  Zn  Zn145  1  0.94090040  0.93385840  0.18156547  1
  Zn  Zn146  1  0.92924405  0.93761253  0.68308477  1
  Zn  Zn147  1  0.06263030  0.06421872  0.31584885  1
  Zn  Zn148  1  0.05866650  0.06466805  0.81573059  1
  Zn  Zn149  1  0.06280465  0.56531417  0.31643726  1
  Zn  Zn150  1  0.06292598  0.56293192  0.81864137  1
  Zn  Zn151  1  0.56166327  0.06232887  0.31707773  1
  Zn  Zn152  1  0.55986209  0.06412573  0.81365090  1
  Zn  Zn153  1  0.57442183  0.56030108  0.30673550  1
  Zn  Zn154  1  0.55839395  0.56542417  0.80782387  1
  Zn  Zn155  1  0.43853378  0.19027185  0.44127095  1
  Zn  Zn156  1  0.43763778  0.19146439  0.93465789  1
  Zn  Zn157  1  0.43977541  0.68837682  0.43953418  1
  Zn  Zn158  1  0.43695517  0.68312459  0.93324528  1
  Zn  Zn159  1  0.93646491  0.18741280  0.43808961  1
  Zn  Zn160  1  0.93300641  0.18983589  0.94184259  1
  Zn  Zn161  1  0.90720711  0.73688296  0.40904769  1
  Zn  Zn162  1  0.93686146  0.68473797  0.93673172  1
  Zn  Zn163  1  0.05876042  0.31695271  0.06358645  1
  Zn  Zn164  1  0.06579203  0.31483579  0.56440293  1
  Zn  Zn165  1  0.06640305  0.81591452  0.05942432  1
  Zn  Zn166  1  0.06612674  0.81878262  0.56134753  1
  Zn  Zn167  1  0.55960663  0.30866091  0.07098158  1
  Zn  Zn168  1  0.55630295  0.31457216  0.56215739  1
  Zn  Zn169  1  0.56404982  0.81040535  0.06106987  1
  Zn  Zn170  1  0.56481355  0.81324440  0.56361377  1
  O  O171  1  0.11855504  0.12019522  0.12154114  1
  O  O172  1  0.12728428  0.11898369  0.61783890  1
  O  O173  1  0.13351728  0.61225285  0.12259370  1
  O  O174  1  0.13356404  0.61737665  0.61877928  1
  O  O175  1  0.61933312  0.11639031  0.11654257  1
  O  O176  1  0.62415964  0.12896201  0.61153294  1
  O  O177  1  0.61213488  0.63750019  0.10730068  1
  O  O178  1  0.61784314  0.61500422  0.62190597  1
  O  O179  1  0.39479492  0.37744571  0.37149205  1
  O  O180  1  0.36461535  0.38957502  0.88373008  1
  O  O181  1  0.38071042  0.87732971  0.38273343  1
  O  O182  1  0.37340847  0.88204766  0.88052785  1
  O  O183  1  0.88070273  0.37609745  0.38188627  1
  O  O184  1  0.86846458  0.38455951  0.87100608  1
  O  O185  1  0.87867098  0.84231735  0.37954766  1
  O  O186  1  0.87730645  0.88194503  0.88063700  1
  O  O187  1  0.25344637  0.00785670  0.37199880  1
  O  O188  1  0.25888174  0.00561507  0.86962932  1
  O  O189  1  0.23666412  0.51472207  0.35818511  1
  O  O190  1  0.25804391  0.51305741  0.87964593  1
  O  O191  1  0.75649310  0.01695924  0.38151773  1
  O  O192  1  0.75422570  0.00674856  0.86772172  1
  O  O193  1  0.75495405  0.51574828  0.37344953  1
  O  O194  1  0.75752317  0.50754885  0.86462500  1
  O  O195  1  0.24447010  0.49414931  0.13430799  1
  O  O196  1  0.23570037  0.48799257  0.62875639  1
  O  O197  1  0.24534015  0.99461413  0.13105166  1
  O  O198  1  0.23725734  0.99815994  0.63218317  1
  O  O199  1  0.74119536  0.54437694  0.13232476  1
  O  O200  1  0.74241114  0.49018626  0.62961109  1
  O  O201  1  0.73710050  0.99483664  0.11585905  1
  O  O202  1  0.74902262  1.00542495  0.64273223  1
  O  O203  1  0.00557634  0.36824629  0.25598374  1
  O  O204  1  0.01151206  0.37211370  0.75018243  1
  O  O205  1  0.00697025  0.86402964  0.24904736  1
  O  O206  1  0.00257549  0.86880481  0.75271814  1
  O  O207  1  0.50659406  0.36685059  0.25855625  1
  O  O208  1  0.51156947  0.36929649  0.74603175  1
  O  O209  1  0.50227928  0.86540012  0.25652386  1
  O  O210  1  0.50532690  0.86353251  0.74869149  1
  O  O211  1  0.49963866  0.13589792  0.25386011  1
  O  O212  1  0.49143557  0.13208181  0.74866083  1
  O  O213  1  0.50004831  0.62935614  0.24181600  1
  O  O214  1  0.50386581  0.63790280  0.73605583  1
  O  O215  1  0.99524085  0.12982788  0.24664634  1
  O  O216  1  0.98226424  0.12650321  0.75562399  1
  O  O217  1  0.99619066  0.63657818  0.25137176  1
  O  O218  1  0.99002068  0.63182365  0.75571732  1
  O  O219  1  0.36622193  0.25885644  -0.00278916  1
  O  O220  1  0.37274515  0.25981592  0.50434743  1
  O  O221  1  0.37055569  0.75497713  0.00357227  1
  O  O222  1  0.38084266  0.76125788  0.50937490  1
  O  O223  1  0.87268654  0.26944942  -0.00291457  1
  O  O224  1  0.88208050  0.26239772  0.50735775  1
  O  O225  1  0.86476418  0.75943377  -0.01023330  1
  O  O226  1  0.89467124  0.73267627  0.52347595  1
  O  O227  1  0.12291114  0.24216435  0.49269144  1
  O  O228  1  0.12999687  0.24836402  0.99597984  1
  O  O229  1  0.12032814  0.74249665  0.49325160  1
  O  O230  1  0.13700360  0.75003114  0.99668395  1
  O  O231  1  0.62133144  0.24027484  0.50066821  1
  O  O232  1  0.62605822  0.24679601  0.99370588  1
  O  O233  1  0.61705616  0.74615251  0.48177152  1
  O  O234  1  0.63035713  0.74333633  0.98922746  1
  O  O235  1  0.49541070  0.24699088  0.14088419  1
  O  O236  1  0.49663854  0.24803052  0.63858964  1
  O  O237  1  0.49572983  0.74483765  0.13183521  1
  O  O238  1  0.49258268  0.74374930  0.62894635  1
  O  O239  1  1.00893984  0.23958760  0.13616926  1
  O  O240  1  0.98714632  0.25550882  0.62907787  1
  O  O241  1  1.01167741  0.74978843  0.13550311  1
  O  O242  1  1.00849402  0.74313372  0.63356686  1
  O  O243  1  0.00816035  0.25458876  0.36843370  1
  O  O244  1  0.01231211  0.24603943  0.87822537  1
  O  O245  1  0.01645938  0.74829600  0.36227666  1
  O  O246  1  0.00276697  0.75713870  0.86846524  1
  O  O247  1  0.49826690  0.25353585  0.36398766  1
  O  O248  1  0.51165682  0.24804891  0.86334636  1
  O  O249  1  0.50815780  0.75352056  0.36712766  1
  O  O250  1  0.50523747  0.74797835  0.86492006  1
  O  O251  1  0.23989492  0.12535889  0.49062822  1
  O  O252  1  0.24380985  0.13196531  0.99482054  1
  O  O253  1  0.24078172  0.62607057  0.49166075  1
  O  O254  1  0.25267982  0.63533015  1.00030457  1
  O  O255  1  0.73203440  0.11918102  0.49527632  1
  O  O256  1  0.73487210  0.11774959  0.98293655  1
  O  O257  1  0.74811102  0.62489710  0.48524913  1
  O  O258  1  0.74376653  0.63247259  0.98819633  1
  O  O259  1  0.25595406  0.37207827  0.00936769  1
  O  O260  1  0.22845365  0.36344212  0.52502722  1
  O  O261  1  0.26009578  0.86474019  0.00216379  1
  O  O262  1  0.26240460  0.88163509  0.50002062  1
  O  O263  1  0.76528864  0.38098198  0.00347779  1
  O  O264  1  0.75907192  0.38007835  0.50558750  1
  O  O265  1  0.75540963  0.86866467  0.00350301  1
  O  O266  1  0.75126035  0.86510107  0.50374945  1
  O  O267  1  0.12815062  0.49445317  0.24301341  1
  O  O268  1  0.11773612  0.49450455  0.74412787  1
  O  O269  1  0.13097388  0.99461707  0.24615970  1
  O  O270  1  0.12528549  0.99667958  0.74588520  1
  O  O271  1  0.62479110  0.48098713  0.24106251  1
  O  O272  1  0.62865752  0.49405760  0.74385219  1
  O  O273  1  0.61888324  0.99853154  0.23709213  1
  O  O274  1  0.63587258  0.99957837  0.75579142  1
  O  O275  1  0.36823213  -0.00010914  0.26048938  1
  O  O276  1  0.37068147  0.00497751  0.75502657  1
  O  O277  1  0.36575981  0.50860042  0.24395415  1
  O  O278  1  0.37310166  0.49417002  0.76465813  1
  O  O279  1  0.88335625  0.00253979  0.25526221  1
  O  O280  1  0.86542839  0.00693946  0.75949495  1
  O  O281  1  0.89069044  0.52038629  0.25590701  1
  O  O282  1  0.87382683  0.50426092  0.75368473  1
  O  O283  1  0.12352598  0.36362784  0.37190790  1
  O  O284  1  0.13240243  0.36774440  0.86848239  1
  O  O285  1  0.12741409  0.86785748  0.36687697  1
  O  O286  1  0.11911868  0.87735841  0.86492530  1
  O  O287  1  0.61322104  0.37835141  0.36323140  1
  O  O288  1  0.63072277  0.36883845  0.86538133  1
  O  O289  1  0.62458466  0.86416979  0.37069585  1
  O  O290  1  0.62162956  0.86261161  0.87716238  1
  O  O291  1  0.37617238  0.12733067  0.12997806  1
  O  O292  1  0.37232785  0.12534222  0.63833517  1
  O  O293  1  0.38386659  0.63087649  0.13013277  1
  O  O294  1  0.38079202  0.63236203  0.62041080  1
  O  O295  1  0.89166887  0.11151675  0.14141679  1
  O  O296  1  0.86460154  0.13693545  0.63446261  1
  O  O297  1  0.87994315  0.62560349  0.13302928  1
  O  O298  1  0.88248628  0.61406245  0.63115183  1
  O  O299  1  0.25040663  0.25966228  0.12066344  1
  O  O300  1  0.25257152  0.25896853  0.62866005  1
  O  O301  1  0.25793372  0.75501183  0.11858759  1
  O  O302  1  0.26178350  0.75258887  0.62993094  1
  O  O303  1  0.75835240  0.20492991  0.11507268  1
  O  O304  1  0.75682759  0.26274152  0.62975413  1
  O  O305  1  0.74427923  0.75329342  0.10821475  1
  O  O306  1  0.75498808  0.74765115  0.61980570  1
  O  O307  1  0.24378997  0.24419884  0.37635836  1
  O  O308  1  0.23999196  0.24500574  0.88094275  1
  O  O309  1  0.23721811  0.73956491  0.36648420  1
  O  O310  1  0.25282070  0.73734167  0.88191548  1
  O  O311  1  0.76786231  0.21757295  0.38365438  1
  O  O312  1  0.73669837  0.24212034  0.87344645  1
  O  O313  1  0.73808060  0.74275807  0.36857614  1
  O  O314  1  0.74169643  0.74504378  0.87703639  1
  O  O315  1  0.00318043  0.12505373  0.01008189  1
  O  O316  1  0.01225720  0.11723636  0.49592367  1
  O  O317  1  0.00043590  0.60978542  -0.00420942  1
  O  O318  1  0.00829305  0.61784029  0.51068660  1
  O  O319  1  0.51004271  0.12625521  -0.00238252  1
  O  O320  1  0.51231151  0.11527254  0.50006523  1
  O  O321  1  0.50694949  0.62278089  0.00509197  1
  O  O322  1  0.50361576  0.62575463  0.51211787  1
  O  O323  1  0.50307985  0.37834334  0.48347448  1
  O  O324  1  0.48647473  0.37330952  1.00514750  1
  O  O325  1  0.49405643  0.88367202  0.49674339  1
  O  O326  1  0.48604349  0.87206129  0.99622858  1
  O  O327  1  0.99702389  0.38087512  0.49442222  1
  O  O328  1  0.98572088  0.38519548  1.00409805  1
  O  O329  1  1.00291430  0.89040057  0.49912774  1
  O  O330  1  0.99206521  0.87602117  0.99366968  1
  O  O331  1  0.50256928  0.49418979  0.36931613  1
  O  O332  1  0.48387046  0.50729646  0.87509850  1
  O  O333  1  0.49459361  0.99184591  0.38388192  1
  O  O334  1  0.48610199  0.99729634  0.87541986  1
  O  O335  1  1.00346335  0.49476269  0.38882917  1
  O  O336  1  0.99107944  0.49898708  0.88282284  1
  O  O337  1  1.00779858  0.99762990  0.39110522  1
  O  O338  1  0.98972891  0.99342729  0.87627061  1
  O  O339  1  0.01139444  0.00586222  0.12221355  1
  O  O340  1  0.01033009  -0.00421684  0.62008050  1
  O  O341  1  0.01224752  0.49521333  0.11671069  1
  O  O342  1  0.01293233  0.49136115  0.61243251  1
  O  O343  1  0.50601233  0.00173219  0.12019904  1
  O  O344  1  0.49576432  0.00166201  0.61104973  1
  O  O345  1  0.49784309  0.50983673  0.12274465  1
  O  O346  1  0.50757745  0.50803254  0.62948470  1
  O  O347  1  0.24809466  0.38249720  0.24548256  1
  O  O348  1  0.23502145  0.36984493  0.73945065  1
  O  O349  1  0.24663903  0.87903755  0.24483659  1
  O  O350  1  0.23911167  0.88139263  0.75188398  1
  O  O351  1  0.73619116  0.36455926  0.26235792  1
  O  O352  1  0.73814896  0.37990258  0.74034400  1
  O  O353  1  0.74694946  0.86749923  0.22620005  1
  O  O354  1  0.74502881  0.89044936  0.75620969  1
  O  O355  1  0.24850469  0.12005611  0.26323000  1
  O  O356  1  0.25487760  0.12022376  0.75696346  1
  O  O357  1  0.25820333  0.62033532  0.25546416  1
  O  O358  1  0.24774352  0.62805194  0.76331590  1
  O  O359  1  0.76461276  0.11907563  0.26178654  1
  O  O360  1  0.75399605  0.11781979  0.75998440  1
  O  O361  1  0.77617469  0.63843264  0.26228206  1
  O  O362  1  0.76195895  0.62062908  0.75050073  1
  O  O363  1  0.36583126  0.11898338  0.37801714  1
  O  O364  1  0.37030832  0.11877620  0.86559800  1
  O  O365  1  0.36446997  0.63329523  0.37055273  1
  O  O366  1  0.36248036  0.61274471  0.87856456  1
  O  O367  1  0.88471229  0.11843205  0.36271903  1
  O  O368  1  0.86519622  0.12053824  0.87217684  1
  O  O369  1  0.86595327  0.63046837  0.37985375  1
  O  O370  1  0.87022955  0.61568796  0.86588583  1
  O  O371  1  0.13627002  0.38215237  0.12995193  1
  O  O372  1  0.12809244  0.38059959  0.63778048  1
  O  O373  1  0.13331204  0.88175422  0.13088203  1
  O  O374  1  0.12679188  0.88257035  0.63775232  1
  O  O375  1  0.62996067  0.36804510  0.13927146  1
  O  O376  1  0.62917640  0.37987685  0.62935433  1
  O  O377  1  0.63103887  0.88471920  0.12027089  1
  O  O378  1  0.64603165  0.86567359  0.62432530  1
  O  O379  1  0.11917272  0.25587207  0.25872030  1
  O  O380  1  0.11943707  0.25605681  0.76104462  1
  O  O381  1  0.11928490  0.75419802  0.25354485  1
  O  O382  1  0.11446151  0.75872104  0.75406134  1
  O  O383  1  0.61266672  0.25737119  0.25132249  1
  O  O384  1  0.61909896  0.25753273  0.75575469  1
  O  O385  1  0.61494163  0.74825579  0.25718210  1
  O  O386  1  0.61903349  0.74972842  0.75772973  1
  O  O387  1  0.38709707  0.24856371  0.24997905  1
  O  O388  1  0.38208419  0.24381301  0.75427015  1
  O  O389  1  0.38664226  0.74248828  0.24586559  1
  O  O390  1  0.38406516  0.75524277  0.73870794  1
  O  O391  1  0.88780284  0.24296215  0.25400252  1
  O  O392  1  0.87423012  0.24302334  0.74360603  1
  O  O393  1  0.89404643  0.73970891  0.24591079  1
  O  O394  1  0.88677390  0.74227764  0.75335192  1
  O  O395  1  0.33100478  0.48165636  0.48963117  1
  O  O396  1  0.37740532  0.49173615  0.99303701  1
  O  O397  1  0.38250788  0.99439240  0.49515893  1
  O  O398  1  0.37277261  0.99138577  0.99036834  1
  O  O399  1  0.88584073  0.48821593  0.49966028  1
  O  O400  1  0.88105852  0.49059113  0.99090365  1
  O  O401  1  0.89287140  1.00894320  0.50928224  1
  O  O402  1  0.87390997  0.99300374  0.98519926  1
  O  O403  1  0.12574746  0.00722703  0.00606009  1
  O  O404  1  0.11924772  0.00733764  0.51037192  1
  O  O405  1  0.11762290  0.49866673  0.00821422  1
  O  O406  1  0.12232680  0.51150657  0.50780676  1
  O  O407  1  0.61832786  0.00843909  0.00336535  1
  O  O408  1  0.61237141  -0.00241370  0.49573550  1
  O  O409  1  0.62397498  0.50652899  0.00127137  1
  O  O410  1  0.63078235  0.49956480  0.51053493  1
  O  O411  1  0.36398467  0.37583488  0.11828550  1
  O  O412  1  0.35903650  0.37673783  0.62895119  1
  O  O413  1  0.37075789  0.87072536  0.11737141  1
  O  O414  1  0.37117055  0.86768016  0.61671057  1
  O  O415  1  0.87473988  0.37732586  0.11923020  1
  O  O416  1  0.86635291  0.36934568  0.61864419  1
  O  O417  1  0.86783321  0.88250906  0.10807337  1
  O  O418  1  0.84828495  0.87811713  0.63362644  1
  O  O419  1  0.13140628  0.13575973  0.38088613  1
  O  O420  1  0.12849194  0.13155153  0.88243830  1
  O  O421  1  0.13187679  0.63249889  0.38486938  1
  O  O422  1  0.13966309  0.62498445  0.88141986  1
  O  O423  1  0.63202110  0.12305507  0.38488403  1
  O  O424  1  0.62802608  0.13344720  0.87942694  1
  O  O425  1  0.63801632  0.63261505  0.37164959  1
  O  O426  1  0.62678492  0.63183205  0.88207930  1
