# generated using pymatgen
data_V85Zn86O256
_symmetry_space_group_name_H-M   'P 1'
_cell_length_a   16.93987273
_cell_length_b   16.94355891
_cell_length_c   16.95469526
_cell_angle_alpha   89.90896603
_cell_angle_beta   90.02151197
_cell_angle_gamma   89.99883146
_symmetry_Int_Tables_number   1
_chemical_formula_structural   V85Zn86O256
_chemical_formula_sum   'V85 Zn86 O256'
_cell_volume   4866.35950355
_cell_formula_units_Z   1
loop_
 _symmetry_equiv_pos_site_id
 _symmetry_equiv_pos_as_xyz
  1  'x, y, z'
loop_
 _atom_site_type_symbol
 _atom_site_label
 _atom_site_symmetry_multiplicity
 _atom_site_fract_x
 _atom_site_fract_y
 _atom_site_fract_z
 _atom_site_occupancy
  V  V0  1  0.00063471  0.37880065  0.86947778  1
  V  V1  1  -0.01101901  0.24962963  0.24797988  1
  V  V2  1  0.37197542  0.62847503  0.24925131  1
  V  V3  1  0.64044710  0.87909711  0.25098550  1
  V  V4  1  0.50452694  0.00158157  0.50618908  1
  V  V5  1  0.62023685  0.62764576  -0.00068541  1
  V  V6  1  0.13520544  0.12526974  -0.00468478  1
  V  V7  1  0.13165819  0.88774302  0.25153739  1
  V  V8  1  0.49996977  0.75498420  0.74886414  1
  V  V9  1  0.13060780  0.12065208  0.50669811  1
  V  V10  1  0.86992290  0.10950887  0.24873026  1
  V  V11  1  0.62460039  0.75851061  0.87059059  1
  V  V12  1  0.12567447  0.37203739  0.24910229  1
  V  V13  1  0.50240351  0.24825752  0.25254957  1
  V  V14  1  0.87530612  0.75035123  0.62731423  1
  V  V15  1  0.36183785  0.12494234  0.25212672  1
  V  V16  1  0.36303319  0.00593784  0.37173714  1
  V  V17  1  0.73549258  0.87670060  0.62871529  1
  V  V18  1  0.75471199  0.12117469  0.87578645  1
  V  V19  1  0.24600607  0.37495421  0.63618428  1
  V  V20  1  0.75218862  0.36524350  0.12669050  1
  V  V21  1  0.36574635  0.49429865  0.87501765  1
  V  V22  1  0.00595908  -0.00228332  0.51051308  1
  V  V23  1  -0.00134951  0.88295778  0.37649627  1
  V  V24  1  0.00070654  0.49368322  0.50337344  1
  V  V25  1  0.87469481  0.49772465  0.37668526  1
  V  V26  1  -0.01258128  0.00210560  -0.00607949  1
  V  V27  1  0.63903291  0.48854863  0.63757520  1
  V  V28  1  0.62308543  0.74942307  0.37390188  1
  V  V29  1  0.12925028  0.23985320  0.37212508  1
  V  V30  1  -0.00514228  0.50206419  -0.00430397  1
  V  V31  1  0.87782339  0.36805914  0.00523135  1
  V  V32  1  0.00419170  0.62223120  0.12802931  1
  V  V33  1  0.49808185  0.87823458  0.37226772  1
  V  V34  1  0.86173044  0.36626673  0.49878633  1
  V  V35  1  0.49907060  0.61733512  0.62600031  1
  V  V36  1  0.24817215  0.49912139  0.25013239  1
  V  V37  1  0.25218027  0.24765200  0.49463244  1
  V  V38  1  0.49618655  0.62704355  0.12439999  1
  V  V39  1  0.87564871  0.62576272  0.25084942  1
  V  V40  1  -0.00640711  0.87785306  0.87606064  1
  V  V41  1  0.74500171  0.62198915  0.87192738  1
  V  V42  1  0.74959693  0.50080213  0.24245154  1
  V  V43  1  0.24532678  0.00479514  0.74263638  1
  V  V44  1  0.49945697  -0.00747116  0.00327606  1
  V  V45  1  0.49946718  0.12341329  0.12567078  1
  V  V46  1  0.87422144  0.88069610  0.49899113  1
  V  V47  1  0.86662223  0.24467675  0.61850806  1
  V  V48  1  0.62467290  0.62140050  0.50051149  1
  V  V49  1  0.00416209  0.25086509  0.74647399  1
  V  V50  1  0.13001415  0.25329838  0.87302759  1
  V  V51  1  0.87081359  0.62471645  0.75610792  1
  V  V52  1  0.36889639  0.61791728  0.75030194  1
  V  V53  1  0.37645754  0.49707362  0.37680291  1
  V  V54  1  0.37533228  0.12651367  0.75777749  1
  V  V55  1  0.63007437  0.12534696  0.50636231  1
  V  V56  1  0.37220598  0.75521789  0.11360908  1
  V  V57  1  0.12322511  0.63704603  -0.00187500  1
  V  V58  1  0.62889065  0.25331707  0.87483975  1
  V  V59  1  -0.00003980  0.75251604  0.24959981  1
  V  V60  1  0.49790815  0.75435754  0.24633929  1
  V  V61  1  0.37151738  0.74963965  0.62401336  1
  V  V62  1  0.63696626  0.00006676  0.13152231  1
  V  V63  1  0.50200487  0.37530203  0.87793237  1
  V  V64  1  0.74999623  0.74926458  0.50148092  1
  V  V65  1  0.01115172  0.75090579  0.75675477  1
  V  V66  1  0.12629062  0.75046406  0.37507102  1
  V  V67  1  0.50626135  0.25580409  0.74921025  1
  V  V68  1  0.37339339  0.87633362  0.49885217  1
  V  V69  1  0.37803224  0.24924572  0.62447538  1
  V  V70  1  0.36459274  0.00067282  0.88091693  1
  V  V71  1  0.49397259  0.87843709  0.87294357  1
  V  V72  1  -0.00299449  0.13128791  0.12157218  1
  V  V73  1  0.49116776  0.49466340  0.00274704  1
  V  V74  1  0.00175004  0.37071264  0.37638385  1
  V  V75  1  0.75515961  0.10876727  0.37874281  1
  V  V76  1  -0.00086140  0.62157535  0.62730933  1
  V  V77  1  0.25052979  0.88365315  0.11922292  1
  V  V78  1  0.24540690  0.63221673  0.87334853  1
  V  V79  1  0.12512823  0.49351677  0.63824078  1
  V  V80  1  0.73275841  -0.00278180  0.74697591  1
  V  V81  1  0.25708566  0.37387015  0.11449146  1
  V  V82  1  0.87864985  0.11268739  0.74977892  1
  V  V83  1  0.63698454  0.25088529  0.37805789  1
  V  V84  1  0.12550166  0.62089655  0.50046113  1
  Zn  Zn85  1  0.62426024  0.37631398  0.25004011  1
  Zn  Zn86  1  0.12795803  0.00638335  0.12706388  1
  Zn  Zn87  1  0.24956140  0.62434628  0.37526747  1
  Zn  Zn88  1  0.76387526  0.76191770  -0.00230955  1
  Zn  Zn89  1  0.37573931  0.37457115  0.50001980  1
  Zn  Zn90  1  0.74896193  0.62359031  0.37423252  1
  Zn  Zn91  1  0.38188604  0.25486561  0.11733474  1
  Zn  Zn92  1  0.12835276  0.49746804  0.11930944  1
  Zn  Zn93  1  0.82388753  0.46304035  0.83097913  1
  Zn  Zn94  1  0.12386007  0.87909976  0.74747398  1
  Zn  Zn95  1  0.24351133  0.75874924  -0.00577269  1
  Zn  Zn96  1  0.50124873  0.49434513  0.49980780  1
  Zn  Zn97  1  0.26104226  0.25216122  -0.00980198  1
  Zn  Zn98  1  0.85271270  0.77843186  0.12842954  1
  Zn  Zn99  1  0.50817494  0.12110556  0.62950507  1
  Zn  Zn100  1  0.75466266  0.24650064  0.00345053  1
  Zn  Zn101  1  0.62764306  0.12574016  0.00139980  1
  Zn  Zn102  1  0.00602090  0.12051521  0.62803238  1
  Zn  Zn103  1  0.62243904  0.50040218  0.12644958  1
  Zn  Zn104  1  0.50215509  0.37208048  0.37713087  1
  Zn  Zn105  1  0.24298101  0.88045079  0.62297598  1
  Zn  Zn106  1  0.24866069  0.74966745  0.50011631  1
  Zn  Zn107  1  0.18490889  0.19177168  0.18157980  1
  Zn  Zn108  1  0.19009462  0.18768184  0.68894710  1
  Zn  Zn109  1  0.18627173  0.69145535  0.18465069  1
  Zn  Zn110  1  0.18848810  0.68480006  0.68578022  1
  Zn  Zn111  1  0.68820723  0.18488634  0.19267463  1
  Zn  Zn112  1  0.68871816  0.18826414  0.69088083  1
  Zn  Zn113  1  0.68741862  0.68944760  0.18446076  1
  Zn  Zn114  1  0.68520465  0.68432064  0.68758909  1
  Zn  Zn115  1  0.31378952  0.31114971  0.30860546  1
  Zn  Zn116  1  0.31691487  0.31402093  0.81319371  1
  Zn  Zn117  1  0.30963987  0.81506849  0.31026617  1
  Zn  Zn118  1  0.31301723  0.81597277  0.81135675  1
  Zn  Zn119  1  0.81101611  0.31095985  0.31369559  1
  Zn  Zn120  1  0.81665801  0.29846659  0.80819213  1
  Zn  Zn121  1  0.81448728  0.80981550  0.31738706  1
  Zn  Zn122  1  0.81279650  0.81532950  0.81333234  1
  Zn  Zn123  1  0.18989974  0.43204509  0.43957551  1
  Zn  Zn124  1  0.18009980  0.44354251  0.93437648  1
  Zn  Zn125  1  0.18827904  0.93775877  0.43944411  1
  Zn  Zn126  1  0.17705125  0.93672844  0.93353934  1
  Zn  Zn127  1  0.68602162  0.44001662  0.43527415  1
  Zn  Zn128  1  0.68107374  0.43709064  0.94652365  1
  Zn  Zn129  1  0.68561854  0.93732969  0.43969706  1
  Zn  Zn130  1  0.68807338  0.94394322  0.93142424  1
  Zn  Zn131  1  0.31604319  0.06373190  0.06380148  1
  Zn  Zn132  1  0.31767778  0.06731668  0.56278114  1
  Zn  Zn133  1  0.30977543  0.56444202  0.06010819  1
  Zn  Zn134  1  0.30890406  0.55884900  0.56223918  1
  Zn  Zn135  1  0.81320476  0.06543981  0.06552100  1
  Zn  Zn136  1  0.81246856  0.05951617  0.56463631  1
  Zn  Zn137  1  0.82961965  0.59749936  0.04556782  1
  Zn  Zn138  1  0.81237800  0.56065598  0.56266257  1
  Zn  Zn139  1  0.43622963  0.43679210  0.19115040  1
  Zn  Zn140  1  0.43763715  0.43483138  0.68928895  1
  Zn  Zn141  1  0.43496716  0.93910492  0.18790425  1
  Zn  Zn142  1  0.43383662  0.93821731  0.68788575  1
  Zn  Zn143  1  0.93615367  0.43937815  0.18564703  1
  Zn  Zn144  1  0.90306569  0.42016811  0.69755060  1
  Zn  Zn145  1  0.94405661  0.94256467  0.18464587  1
  Zn  Zn146  1  0.93481396  0.93318298  0.68730914  1
  Zn  Zn147  1  0.05910299  0.06386487  0.31652724  1
  Zn  Zn148  1  0.06340122  0.06373759  0.81844908  1
  Zn  Zn149  1  0.06336976  0.55960820  0.31525856  1
  Zn  Zn150  1  0.06012234  0.56483206  0.81469670  1
  Zn  Zn151  1  0.56153411  0.06334450  0.31610970  1
  Zn  Zn152  1  0.56151807  0.06724505  0.81612165  1
  Zn  Zn153  1  0.56095617  0.56276944  0.31130691  1
  Zn  Zn154  1  0.55967264  0.56166163  0.81169176  1
  Zn  Zn155  1  0.44131220  0.18544733  0.43595322  1
  Zn  Zn156  1  0.43963313  0.18578178  0.94094471  1
  Zn  Zn157  1  0.43757740  0.68531863  0.43648694  1
  Zn  Zn158  1  0.43606714  0.68648248  0.93554213  1
  Zn  Zn159  1  0.93846306  0.18127004  0.43662737  1
  Zn  Zn160  1  0.93872087  0.18924356  0.93348515  1
  Zn  Zn161  1  0.94022640  0.68900463  0.43825064  1
  Zn  Zn162  1  0.93698610  0.69586854  0.93657505  1
  Zn  Zn163  1  0.06619546  0.31272255  0.06150104  1
  Zn  Zn164  1  0.06214105  0.30888364  0.56350211  1
  Zn  Zn165  1  0.03791837  0.82465777  0.07593278  1
  Zn  Zn166  1  0.06538254  0.81190773  0.56770766  1
  Zn  Zn167  1  0.56650213  0.31253646  0.06247771  1
  Zn  Zn168  1  0.56487225  0.31363364  0.55861701  1
  Zn  Zn169  1  0.61284198  0.83336430  0.04382898  1
  Zn  Zn170  1  0.55697609  0.80810137  0.56046926  1
  O  O171  1  0.11742951  0.12764307  0.11259562  1
  O  O172  1  0.12512986  0.13024853  0.61057811  1
  O  O173  1  0.12302690  0.61819436  0.11771201  1
  O  O174  1  0.12101286  0.61595849  0.61776867  1
  O  O175  1  0.61658514  0.11518336  0.12977391  1
  O  O176  1  0.62826567  0.13174994  0.61061998  1
  O  O177  1  0.61352995  0.62434464  0.11623472  1
  O  O178  1  0.61593258  0.61939322  0.61837906  1
  O  O179  1  0.37503544  0.38654291  0.37265620  1
  O  O180  1  0.38614902  0.38426712  0.87207549  1
  O  O181  1  0.37892983  0.88053573  0.38065942  1
  O  O182  1  0.38581375  0.88428554  0.87426639  1
  O  O183  1  0.88259584  0.37539165  0.38102418  1
  O  O184  1  0.88680936  0.37833278  0.88928240  1
  O  O185  1  0.88686128  0.86624501  0.38700278  1
  O  O186  1  0.89085617  0.86863064  0.87630937  1
  O  O187  1  0.26385203  -0.00314336  0.37663355  1
  O  O188  1  0.26148585  -0.00425082  0.86989841  1
  O  O189  1  0.25593517  0.49966502  0.36719254  1
  O  O190  1  0.26052057  0.50829128  0.88005524  1
  O  O191  1  0.74866800  0.01016587  0.37357169  1
  O  O192  1  0.74651499  0.00746746  0.85969612  1
  O  O193  1  0.75731851  0.50174775  0.36449102  1
  O  O194  1  0.74020944  0.51585380  0.88300788  1
  O  O195  1  0.25059581  0.49120555  0.13234084  1
  O  O196  1  0.24231747  0.48298837  0.61972364  1
  O  O197  1  0.24864434  0.98820992  0.12296461  1
  O  O198  1  0.26066116  1.00111798  0.63936846  1
  O  O199  1  0.75187640  0.49609964  0.13826986  1
  O  O200  1  0.73808553  0.50363640  0.62554792  1
  O  O201  1  0.73556662  1.00515919  0.12629234  1
  O  O202  1  0.75115331  0.99090580  0.63688225  1
  O  O203  1  0.00439424  0.36750819  0.25360258  1
  O  O204  1  -0.00954030  0.36402933  0.75882232  1
  O  O205  1  0.01077491  0.87286226  0.26268385  1
  O  O206  1  -0.00263226  0.86642037  0.75529251  1
  O  O207  1  0.50115246  0.36090628  0.25033947  1
  O  O208  1  0.49634044  0.36228107  0.75903526  1
  O  O209  1  0.50221545  0.87052572  0.25701580  1
  O  O210  1  0.49338438  0.86555969  0.75568046  1
  O  O211  1  0.49689471  0.13360829  0.24487844  1
  O  O212  1  0.49529598  0.13640338  0.74840354  1
  O  O213  1  0.49289361  0.63190114  0.24330969  1
  O  O214  1  0.48810018  0.63102044  0.74307289  1
  O  O215  1  0.99147506  0.12960123  0.24469432  1
  O  O216  1  0.99417758  0.12799418  0.75001194  1
  O  O217  1  0.99613632  0.62681457  0.24777609  1
  O  O218  1  0.99395826  0.63519823  0.74683171  1
  O  O219  1  0.37255484  0.24577743  0.00424448  1
  O  O220  1  0.36988310  0.24700094  0.50763151  1
  O  O221  1  0.37306128  0.74816439  0.01145163  1
  O  O222  1  0.37547110  0.75696215  0.50588591  1
  O  O223  1  0.87585345  0.26391810  -0.00129595  1
  O  O224  1  0.87881773  0.24970255  0.50923467  1
  O  O225  1  0.86599236  0.71318716  0.02037947  1
  O  O226  1  0.87191253  0.75607763  0.50829606  1
  O  O227  1  0.13245990  0.24332041  0.49152095  1
  O  O228  1  0.12652802  0.24139901  0.99157748  1
  O  O229  1  0.12359738  0.73990033  0.49314079  1
  O  O230  1  0.11935990  0.73839686  1.00670768  1
  O  O231  1  0.62080913  0.23903775  0.48852992  1
  O  O232  1  0.62886133  0.24728265  0.98764840  1
  O  O233  1  0.62703366  0.73877878  0.49609761  1
  O  O234  1  0.60543327  0.73503087  0.98404102  1
  O  O235  1  0.50421454  0.24066845  0.13188754  1
  O  O236  1  0.49431608  0.25107132  0.63304037  1
  O  O237  1  0.48754182  0.74548657  0.13335741  1
  O  O238  1  0.48995233  0.73955794  0.62924662  1
  O  O239  1  1.00533973  0.23980067  0.13285562  1
  O  O240  1  0.99670124  0.24380561  0.63271604  1
  O  O241  1  1.01689036  0.72780120  0.13773774  1
  O  O242  1  0.99119163  0.74200682  0.63090387  1
  O  O243  1  0.00772636  0.25159970  0.36789900  1
  O  O244  1  0.00726476  0.25756403  0.86725002  1
  O  O245  1  0.01035127  0.75803682  0.37179527  1
  O  O246  1  0.00036237  0.75813519  0.86668168  1
  O  O247  1  0.51106467  0.24739017  0.36668066  1
  O  O248  1  0.50776305  0.25613617  0.87037504  1
  O  O249  1  0.50347100  0.75650970  0.36831014  1
  O  O250  1  0.49802866  0.75782265  0.86574718  1
  O  O251  1  0.24594608  0.13715223  0.50363430  1
  O  O252  1  0.23752157  0.12846859  1.00567991  1
  O  O253  1  0.23655402  0.62538124  0.49861139  1
  O  O254  1  0.24041396  0.62927513  0.99232951  1
  O  O255  1  0.74708630  0.11769187  0.48742346  1
  O  O256  1  0.75091377  0.12640619  0.99067337  1
  O  O257  1  0.74219253  0.63109108  0.49900096  1
  O  O258  1  0.73191934  0.62775522  0.99049560  1
  O  O259  1  0.24271208  0.37956374  0.01297239  1
  O  O260  1  0.25379710  0.36110520  0.50771010  1
  O  O261  1  0.23772438  0.87533716  0.01450636  1
  O  O262  1  0.26251743  0.87272518  0.50183111  1
  O  O263  1  0.75905880  0.37637477  0.00919976  1
  O  O264  1  0.76305030  0.37551928  0.49281073  1
  O  O265  1  0.71565358  0.86292058  -0.00171021  1
  O  O266  1  0.75691514  0.87039730  0.50581843  1
  O  O267  1  0.13687475  0.49356539  0.25242348  1
  O  O268  1  0.12053227  0.50421109  0.73691845  1
  O  O269  1  0.12094839  0.99144927  0.25144887  1
  O  O270  1  0.14367602  1.01096170  0.75375195  1
  O  O271  1  0.63438698  0.49941156  0.24868754  1
  O  O272  1  0.62037131  0.50353929  0.73594035  1
  O  O273  1  0.62038119  0.99431303  0.24150158  1
  O  O274  1  0.63418180  1.00589290  0.74688355  1
  O  O275  1  0.38136171  0.01316822  0.25949009  1
  O  O276  1  0.37069133  0.00884892  0.75829888  1
  O  O277  1  0.36487252  0.50592774  0.25585702  1
  O  O278  1  0.38008648  0.50808336  0.75977761  1
  O  O279  1  0.88176801  0.01094163  0.25179077  1
  O  O280  1  0.86923955  0.01029594  0.74330868  1
  O  O281  1  0.87057541  0.50488294  0.25878929  1
  O  O282  1  0.88982434  0.52299285  0.74985479  1
  O  O283  1  0.12053411  0.36439502  0.36892385  1
  O  O284  1  0.11019996  0.36874554  0.87980118  1
  O  O285  1  0.12126048  0.86868702  0.37167718  1
  O  O286  1  0.10747660  0.88326537  0.86215823  1
  O  O287  1  0.62523520  0.36490373  0.37251751  1
  O  O288  1  0.61284090  0.36943224  0.87907947  1
  O  O289  1  0.61818805  0.87051312  0.36972127  1
  O  O290  1  0.61046783  0.86356297  0.86920090  1
  O  O291  1  0.38717582  0.12382095  0.13473919  1
  O  O292  1  0.37981690  0.13773504  0.63414012  1
  O  O293  1  0.37569784  0.63408915  0.13004984  1
  O  O294  1  0.37866709  0.62732907  0.63010256  1
  O  O295  1  0.88029758  0.12539440  0.13990792  1
  O  O296  1  0.88008035  0.13058754  0.62824783  1
  O  O297  1  0.88824648  0.61467451  0.14453558  1
  O  O298  1  0.87818450  0.63473967  0.62834528  1
  O  O299  1  0.25041563  0.26667408  0.12251959  1
  O  O300  1  0.25651388  0.25753637  0.61954976  1
  O  O301  1  0.25622191  0.76089231  0.12150948  1
  O  O302  1  0.26326395  0.74780990  0.62257487  1
  O  O303  1  0.74573409  0.26130411  0.12542700  1
  O  O304  1  0.76811618  0.24621161  0.63037134  1
  O  O305  1  0.74432388  0.75630767  0.11771394  1
  O  O306  1  0.75619245  0.75424441  0.62180873  1
  O  O307  1  0.24177828  0.25511699  0.38201204  1
  O  O308  1  0.23486792  0.26114615  0.87319365  1
  O  O309  1  0.23777443  0.74871575  0.37711824  1
  O  O310  1  0.25839779  0.73818948  0.87720405  1
  O  O311  1  0.74028435  0.23825776  0.36960270  1
  O  O312  1  0.74432334  0.24247392  0.87521544  1
  O  O313  1  0.74171718  0.74682423  0.38418697  1
  O  O314  1  0.73774437  0.74393544  0.87304077  1
  O  O315  1  0.00303882  0.12133078  0.00416340  1
  O  O316  1  0.00911421  0.11313239  0.49955785  1
  O  O317  1  0.00522491  0.61980575  0.00807274  1
  O  O318  1  0.00836492  0.61791268  0.50573563  1
  O  O319  1  0.50526500  0.11488359  0.01027938  1
  O  O320  1  0.51040315  0.11714969  0.50177741  1
  O  O321  1  0.49989212  0.61676988  0.00506609  1
  O  O322  1  0.50664753  0.62359740  0.50957753  1
  O  O323  1  0.49342083  0.37694388  0.49540166  1
  O  O324  1  0.50334689  0.38562565  0.99486811  1
  O  O325  1  0.49061751  0.87952677  0.49457308  1
  O  O326  1  0.50976143  0.88752545  0.99177911  1
  O  O327  1  0.99721334  0.37709083  0.49226323  1
  O  O328  1  0.99470996  0.38258434  0.99832237  1
  O  O329  1  0.99508918  0.87843255  0.49667553  1
  O  O330  1  1.01315070  0.89663386  0.98927451  1
  O  O331  1  0.48967938  0.49788934  0.37447476  1
  O  O332  1  0.49263114  0.49306922  0.88172565  1
  O  O333  1  0.49316325  0.99460233  0.38586038  1
  O  O334  1  0.49585006  0.99452533  0.88084910  1
  O  O335  1  0.99473154  0.49152102  0.38207538  1
  O  O336  1  1.00226430  0.49228677  0.88270920  1
  O  O337  1  1.00346568  0.98750484  0.38702913  1
  O  O338  1  0.99492702  0.99969878  0.88609312  1
  O  O339  1  0.00660387  0.01646376  0.11441260  1
  O  O340  1  -0.00150104  -0.00156294  0.61427062  1
  O  O341  1  0.00581173  0.50823439  0.12170486  1
  O  O342  1  0.00693298  0.50373447  0.61765235  1
  O  O343  1  0.50277451  0.00588725  0.11946532  1
  O  O344  1  0.49262081  0.00148247  0.61100279  1
  O  O345  1  0.49555698  0.50654049  0.11906784  1
  O  O346  1  0.50032287  0.50967854  0.62387459  1
  O  O347  1  0.24527586  0.38155995  0.24206818  1
  O  O348  1  0.25097623  0.36970568  0.73482258  1
  O  O349  1  0.23985774  0.87118447  0.23779467  1
  O  O350  1  0.25340522  0.89224056  0.74850505  1
  O  O351  1  0.75183667  0.38149186  0.24264871  1
  O  O352  1  0.80176998  0.38963011  0.74892890  1
  O  O353  1  0.73975560  0.87247462  0.25724192  1
  O  O354  1  0.75104677  0.88808271  0.74419779  1
  O  O355  1  0.26292928  0.13162863  0.24150481  1
  O  O356  1  0.26242573  0.11704162  0.74807209  1
  O  O357  1  0.25305899  0.61668433  0.25020778  1
  O  O358  1  0.26074200  0.62764872  0.75612394  1
  O  O359  1  0.76384531  0.12485098  0.25786003  1
  O  O360  1  0.75593384  0.11379005  0.75311821  1
  O  O361  1  0.75825713  0.61923280  0.25119684  1
  O  O362  1  0.75750694  0.63005802  0.75836629  1
  O  O363  1  0.37819678  0.11874055  0.36420739  1
  O  O364  1  0.38325265  0.11601276  0.86469288  1
  O  O365  1  0.37211006  0.61619700  0.36835465  1
  O  O366  1  0.36927901  0.61715885  0.86699092  1
  O  O367  1  0.86322855  0.12612137  0.36611036  1
  O  O368  1  0.86322091  0.13233799  0.86405868  1
  O  O369  1  0.87695739  0.62008407  0.36621706  1
  O  O370  1  0.86044146  0.63284141  0.86715257  1
  O  O371  1  0.13354800  0.37721723  0.13297005  1
  O  O372  1  0.13684541  0.37868818  0.62076576  1
  O  O373  1  0.13158040  0.87923074  0.13583054  1
  O  O374  1  0.13067358  0.87105138  0.63355364  1
  O  O375  1  0.63644755  0.38105158  0.12640494  1
  O  O376  1  0.62289430  0.39034948  0.62092430  1
  O  O377  1  0.61563075  0.89308225  0.14004923  1
  O  O378  1  0.63664636  0.86631932  0.61840589  1
  O  O379  1  0.11685825  0.25168071  0.25663555  1
  O  O380  1  0.11321393  0.24125088  0.75719399  1
  O  O381  1  0.12048354  0.75711086  0.25952088  1
  O  O382  1  0.11293697  0.74602646  0.74619383  1
  O  O383  1  0.61882527  0.24953347  0.25911568  1
  O  O384  1  0.61924800  0.24710729  0.76215379  1
  O  O385  1  0.61768739  0.75800809  0.25537316  1
  O  O386  1  0.60811636  0.74089499  0.75567434  1
  O  O387  1  0.38409152  0.24122367  0.24664803  1
  O  O388  1  0.38229329  0.24367724  0.74581524  1
  O  O389  1  0.37783256  0.74542166  0.24477489  1
  O  O390  1  0.38170352  0.74317343  0.74184925  1
  O  O391  1  0.88695540  0.24269592  0.25585629  1
  O  O392  1  0.88686836  0.23441180  0.73810212  1
  O  O393  1  0.88152888  0.74170617  0.24981390  1
  O  O394  1  0.88051829  0.74394767  0.74207861  1
  O  O395  1  0.37492068  0.49956853  0.48933572  1
  O  O396  1  0.38325711  0.50602798  0.99054382  1
  O  O397  1  0.38016783  0.99444818  0.49367593  1
  O  O398  1  0.38467996  1.00623599  0.99123536  1
  O  O399  1  0.88058102  0.49067360  0.49608968  1
  O  O400  1  0.88941971  0.50073788  1.00495667  1
  O  O401  1  0.88255043  0.98567006  0.50507082  1
  O  O402  1  0.88899818  1.00323300  1.00606660  1
  O  O403  1  0.11847404  0.01738078  -0.00174569  1
  O  O404  1  0.11979683  0.00853704  0.49648341  1
  O  O405  1  0.11183158  0.50981057  0.00062505  1
  O  O406  1  0.12005095  0.50433737  0.50341875  1
  O  O407  1  0.61814553  0.00488730  0.01468999  1
  O  O408  1  0.61597888  0.00931123  0.49575467  1
  O  O409  1  0.60994311  0.51183414  0.00217236  1
  O  O410  1  0.62427804  0.51144421  0.50502244  1
  O  O411  1  0.36030668  0.37521261  0.12914556  1
  O  O412  1  0.36596833  0.36476029  0.62551057  1
  O  O413  1  0.35944240  0.87017818  0.13007937  1
  O  O414  1  0.37453118  0.86525570  0.61609677  1
  O  O415  1  0.86646679  0.37971349  0.11698043  1
  O  O416  1  0.88675800  0.35367153  0.60796825  1
  O  O417  1  0.93109101  0.85459532  0.12125375  1
  O  O418  1  0.86740861  0.86334132  0.61923887  1
  O  O419  1  0.12207475  0.13521986  0.38325315  1
  O  O420  1  0.12121865  0.13623027  0.88869225  1
  O  O421  1  0.12410966  0.63206214  0.38308953  1
  O  O422  1  0.13525982  0.62138073  0.88245895  1
  O  O423  1  0.63853143  0.12763300  0.38058840  1
  O  O424  1  0.63707242  0.13277747  0.87635143  1
  O  O425  1  0.62354549  0.63041309  0.38378985  1
  O  O426  1  0.62539861  0.63346012  0.87747279  1
