# generated using pymatgen
data_V85Zn86O256
_symmetry_space_group_name_H-M   'P 1'
_cell_length_a   16.93971347
_cell_length_b   16.92928418
_cell_length_c   16.92803545
_cell_angle_alpha   89.98650546
_cell_angle_beta   89.99244278
_cell_angle_gamma   89.99867293
_symmetry_Int_Tables_number   1
_chemical_formula_structural   V85Zn86O256
_chemical_formula_sum   'V85 Zn86 O256'
_cell_volume   4854.57482394
_cell_formula_units_Z   1
loop_
 _symmetry_equiv_pos_site_id
 _symmetry_equiv_pos_as_xyz
  1  'x, y, z'
loop_
 _atom_site_type_symbol
 _atom_site_label
 _atom_site_symmetry_multiplicity
 _atom_site_fract_x
 _atom_site_fract_y
 _atom_site_fract_z
 _atom_site_occupancy
  V  V0  1  0.50278206  0.76193894  0.25343828  1
  V  V1  1  0.50224295  0.25224073  0.75079319  1
  V  V2  1  0.87334831  0.75100940  0.12506894  1
  V  V3  1  0.12724936  0.49841656  0.13994791  1
  V  V4  1  0.87425159  0.49920194  0.37338132  1
  V  V5  1  0.37421603  0.62558825  0.74450098  1
  V  V6  1  0.87790185  0.12112963  0.75195929  1
  V  V7  1  0.87245104  0.11928642  0.24728052  1
  V  V8  1  0.50171065  0.37698318  0.86926108  1
  V  V9  1  0.00124881  0.62677322  0.12523631  1
  V  V10  1  0.75055147  0.62582878  0.86927047  1
  V  V11  1  0.74912409  0.49890089  0.75027336  1
  V  V12  1  0.00930185  0.24583445  0.25240085  1
  V  V13  1  0.12624882  0.74548454  0.37720766  1
  V  V14  1  0.00602516  0.12494735  0.61705763  1
  V  V15  1  0.87102707  0.88407451  -0.00244362  1
  V  V16  1  0.37481810  0.01182320  0.36327676  1
  V  V17  1  0.37528454  -0.00500939  0.86846983  1
  V  V18  1  0.25056229  0.62542583  0.87354411  1
  V  V19  1  0.00148800  0.50135588  0.00106008  1
  V  V20  1  0.37686316  0.87571655  0.48752259  1
  V  V21  1  0.50058461  0.49180742  0.48817036  1
  V  V22  1  0.61597182  0.75417840  0.87671814  1
  V  V23  1  0.50132707  -0.00475085  0.49571713  1
  V  V24  1  0.37967539  0.87380001  -0.00407885  1
  V  V25  1  0.74636999  0.37331284  0.62989826  1
  V  V26  1  0.24998591  0.75058313  0.00080864  1
  V  V27  1  0.50028788  0.61974207  0.12832977  1
  V  V28  1  0.74819326  0.75113056  0.00170531  1
  V  V29  1  -0.01336925  0.74418708  0.74719898  1
  V  V30  1  0.62635949  -0.00214035  0.13914204  1
  V  V31  1  0.24642662  0.89107720  0.12920796  1
  V  V32  1  0.24628439  0.37956780  0.14107617  1
  V  V33  1  0.50151639  0.49716886  0.00152852  1
  V  V34  1  0.24998017  0.37434153  0.62171469  1
  V  V35  1  0.75121451  -0.00144110  0.75365815  1
  V  V36  1  0.49504156  0.12675540  0.13268353  1
  V  V37  1  0.62488384  0.62229301  0.00544488  1
  V  V38  1  0.74459209  0.87735730  0.13967421  1
  V  V39  1  0.87490739  0.25057413  0.62583978  1
  V  V40  1  0.00223794  0.75352669  0.24890781  1
  V  V41  1  0.12337964  0.75113447  0.87207623  1
  V  V42  1  0.61935777  0.25649751  0.36956453  1
  V  V43  1  0.23802147  0.24071154  0.49763493  1
  V  V44  1  0.12008626  0.11858782  0.00088330  1
  V  V45  1  0.00056636  0.87564275  0.37964144  1
  V  V46  1  0.87971162  0.37909518  0.49838877  1
  V  V47  1  0.62661957  0.25363637  0.87224978  1
  V  V48  1  0.37317184  0.75015385  0.12894696  1
  V  V49  1  0.24837002  0.50317461  0.74478129  1
  V  V50  1  -0.01237350  0.62740300  0.61636236  1
  V  V51  1  0.25222603  0.88332973  0.62647718  1
  V  V52  1  0.87846132  0.24555395  0.12733630  1
  V  V53  1  0.87584128  0.50403045  0.87063326  1
  V  V54  1  0.50421183  0.12283253  0.62487191  1
  V  V55  1  0.25046245  0.12091506  0.86905884  1
  V  V56  1  0.24764366  0.25684855  -0.00173575  1
  V  V57  1  0.87507235  0.37487095  0.00171471  1
  V  V58  1  0.74940013  0.24603653  0.49673017  1
  V  V59  1  0.50005948  0.62342882  0.62239632  1
  V  V60  1  0.50135307  -0.00096690  -0.00520966  1
  V  V61  1  0.37501640  0.12321840  0.75133378  1
  V  V62  1  0.37005737  0.61454633  0.25866685  1
  V  V63  1  0.12899745  0.88102572  0.74852845  1
  V  V64  1  0.62582918  0.12422857  0.00153522  1
  V  V65  1  0.12387459  0.25247169  0.87311222  1
  V  V66  1  -0.00588109  0.88216751  0.87293333  1
  V  V67  1  0.62299139  0.76036275  0.37355593  1
  V  V68  1  0.86683296  -0.00131549  0.37699848  1
  V  V69  1  0.75447496  0.74635839  0.50221573  1
  V  V70  1  0.37690601  0.25133630  0.62477065  1
  V  V71  1  0.74172405  0.49864235  0.24262731  1
  V  V72  1  0.75569055  0.12244776  0.87727137  1
  V  V73  1  0.11973111  0.51103432  0.61209691  1
  V  V74  1  0.01103038  0.37526089  0.36991592  1
  V  V75  1  0.62245380  0.49460067  0.62955986  1
  V  V76  1  0.12186883  0.37879227  0.74720032  1
  V  V77  1  0.75691873  0.86854375  0.62816399  1
  V  V78  1  0.37617878  0.75160223  0.62171445  1
  V  V79  1  0.38001802  0.37068468  0.48194478  1
  V  V80  1  0.37320595  0.24777130  0.12880433  1
  V  V81  1  0.12614256  0.62535917  0.00097090  1
  V  V82  1  0.24814058  0.74660326  0.49822408  1
  V  V83  1  0.23687279  0.12214766  0.36607647  1
  V  V84  1  0.61750400  0.87609601  0.75258523  1
  Zn  Zn85  1  0.75104280  0.25120777  0.00197064  1
  Zn  Zn86  1  0.37441849  0.49909358  0.87373803  1
  Zn  Zn87  1  -0.00028368  0.25055214  0.74909273  1
  Zn  Zn88  1  0.87336527  0.62401701  0.25059939  1
  Zn  Zn89  1  0.74578293  0.62256966  0.37542915  1
  Zn  Zn90  1  0.74643253  0.37558739  0.12457567  1
  Zn  Zn91  1  0.62520158  0.62331932  0.49839157  1
  Zn  Zn92  1  0.62774451  -0.00187615  0.62246694  1
  Zn  Zn93  1  0.48746056  0.25501868  0.26017700  1
  Zn  Zn94  1  -0.00088203  0.37720640  0.87361435  1
  Zn  Zn95  1  0.13330502  0.00658314  0.62135961  1
  Zn  Zn96  1  0.62641777  0.12318972  0.49608151  1
  Zn  Zn97  1  0.74710302  0.12141775  0.36675880  1
  Zn  Zn98  1  0.61188127  0.38152243  0.23957842  1
  Zn  Zn99  1  0.00430105  0.00087622  0.50059558  1
  Zn  Zn100  1  0.24099642  0.61072403  0.36707662  1
  Zn  Zn101  1  0.08206894  0.03739813  0.15715106  1
  Zn  Zn102  1  0.37346162  0.37700253  -0.00158123  1
  Zn  Zn103  1  -0.00842046  0.00472565  -0.00109130  1
  Zn  Zn104  1  0.87606344  0.87413730  0.50615837  1
  Zn  Zn105  1  0.49858283  0.75247640  0.75137857  1
  Zn  Zn106  1  0.13132203  0.88886267  0.25333145  1
  Zn  Zn107  1  0.18957766  0.18925289  0.18606755  1
  Zn  Zn108  1  0.18866001  0.18970753  0.68746014  1
  Zn  Zn109  1  0.18765641  0.69024886  0.19027897  1
  Zn  Zn110  1  0.18525848  0.69306234  0.68325151  1
  Zn  Zn111  1  0.69053325  0.18987351  0.18674570  1
  Zn  Zn112  1  0.68740563  0.18750539  0.68920726  1
  Zn  Zn113  1  0.68744528  0.68574743  0.19192176  1
  Zn  Zn114  1  0.68535483  0.68718398  0.68701792  1
  Zn  Zn115  1  0.30597893  0.30393861  0.31267731  1
  Zn  Zn116  1  0.31281433  0.31458970  0.81108211  1
  Zn  Zn117  1  0.31214797  0.81228595  0.31088090  1
  Zn  Zn118  1  0.31220311  0.81179127  0.81049056  1
  Zn  Zn119  1  0.81182517  0.31326360  0.31094680  1
  Zn  Zn120  1  0.81313864  0.31218350  0.81357725  1
  Zn  Zn121  1  0.81328911  0.81016583  0.31662169  1
  Zn  Zn122  1  0.80906125  0.81219825  0.81504717  1
  Zn  Zn123  1  0.18742568  0.43357393  0.43448539  1
  Zn  Zn124  1  0.18570874  0.44120477  0.93656142  1
  Zn  Zn125  1  0.18602149  0.94087063  0.43907046  1
  Zn  Zn126  1  0.19086486  0.93633638  0.93566353  1
  Zn  Zn127  1  0.68937275  0.43521923  0.43859654  1
  Zn  Zn128  1  0.68631836  0.43738650  0.94105769  1
  Zn  Zn129  1  0.68808510  0.93487604  0.43976563  1
  Zn  Zn130  1  0.68792001  0.93775944  0.93871614  1
  Zn  Zn131  1  0.31249717  0.06677251  0.05453344  1
  Zn  Zn132  1  0.31664042  0.06219845  0.55978016  1
  Zn  Zn133  1  0.31478412  0.56071626  0.06543475  1
  Zn  Zn134  1  0.29446428  0.54077978  0.52486725  1
  Zn  Zn135  1  0.81180696  0.06194999  0.06924645  1
  Zn  Zn136  1  0.81654286  0.05953637  0.56425814  1
  Zn  Zn137  1  0.81404782  0.56355210  0.06141576  1
  Zn  Zn138  1  0.81253319  0.56153507  0.56105755  1
  Zn  Zn139  1  0.43486748  0.43410467  0.18919071  1
  Zn  Zn140  1  0.43654264  0.43773791  0.68545623  1
  Zn  Zn141  1  0.43656470  0.94004671  0.18294537  1
  Zn  Zn142  1  0.43797967  0.93732127  0.68369931  1
  Zn  Zn143  1  0.93695804  0.43529156  0.19009411  1
  Zn  Zn144  1  0.93746618  0.44242844  0.68636774  1
  Zn  Zn145  1  0.93375261  0.93614856  0.18848986  1
  Zn  Zn146  1  0.93818013  0.93992768  0.69035408  1
  Zn  Zn147  1  0.05893145  0.06478782  0.32533933  1
  Zn  Zn148  1  0.06257992  0.06159624  0.81001820  1
  Zn  Zn149  1  0.05651394  0.56414580  0.31652892  1
  Zn  Zn150  1  0.06138036  0.56481782  0.80939660  1
  Zn  Zn151  1  0.56075500  0.06891882  0.31635832  1
  Zn  Zn152  1  0.56446506  0.06248934  0.81377527  1
  Zn  Zn153  1  0.56359752  0.57049017  0.31316101  1
  Zn  Zn154  1  0.56407675  0.56304727  0.81175892  1
  Zn  Zn155  1  0.43716770  0.18389859  0.43939450  1
  Zn  Zn156  1  0.43687713  0.18866800  0.94176206  1
  Zn  Zn157  1  0.44141940  0.68677593  0.43615218  1
  Zn  Zn158  1  0.43665309  0.68464763  0.93755102  1
  Zn  Zn159  1  0.93528395  0.19031168  0.43363406  1
  Zn  Zn160  1  0.93906494  0.19088183  0.93614511  1
  Zn  Zn161  1  0.93610634  0.68780937  0.43746989  1
  Zn  Zn162  1  0.93606045  0.69099095  0.93684372  1
  Zn  Zn163  1  0.06137960  0.31293275  0.06632393  1
  Zn  Zn164  1  0.05944605  0.31486468  0.56180924  1
  Zn  Zn165  1  0.06203711  0.82007280  0.06155825  1
  Zn  Zn166  1  0.06447619  0.81089840  0.56343313  1
  Zn  Zn167  1  0.56268897  0.31354080  0.06464087  1
  Zn  Zn168  1  0.56445791  0.31135431  0.55923446  1
  Zn  Zn169  1  0.56117841  0.81243889  0.06681476  1
  Zn  Zn170  1  0.56690682  0.81342157  0.56215401  1
  O  O171  1  0.12998708  0.12899604  0.10566804  1
  O  O172  1  0.10962124  0.12538299  0.63521833  1
  O  O173  1  0.12161839  0.62030238  0.12021410  1
  O  O174  1  0.12004894  0.61496022  0.62734145  1
  O  O175  1  0.61995587  0.12078645  0.11717629  1
  O  O176  1  0.61360078  0.12417493  0.62487516  1
  O  O177  1  0.61593480  0.63212249  0.11364428  1
  O  O178  1  0.61527181  0.61672624  0.62246980  1
  O  O179  1  0.37296653  0.36806435  0.38372578  1
  O  O180  1  0.38455489  0.37719367  0.87683395  1
  O  O181  1  0.36857131  0.88558277  0.38396514  1
  O  O182  1  0.36998751  0.88198820  0.88291597  1
  O  O183  1  0.87840646  0.38209985  0.38123532  1
  O  O184  1  0.87755146  0.38260153  0.88234268  1
  O  O185  1  0.88183981  0.88170257  0.37593341  1
  O  O186  1  0.88184673  0.86859451  0.88417007  1
  O  O187  1  0.26240162  0.01292571  0.38236902  1
  O  O188  1  0.26160670  0.00971016  0.87935206  1
  O  O189  1  0.25965411  0.51293434  0.41687771  1
  O  O190  1  0.25084387  0.50829969  0.86542950  1
  O  O191  1  0.76229564  0.00015411  0.38094053  1
  O  O192  1  0.74530955  0.00843705  0.86357603  1
  O  O193  1  0.75735720  0.49997099  0.36798657  1
  O  O194  1  0.75432361  0.50612085  0.87164065  1
  O  O195  1  0.24318673  0.48664658  0.11963785  1
  O  O196  1  0.23718712  0.49619271  0.62386994  1
  O  O197  1  0.25528645  0.98981860  0.11764056  1
  O  O198  1  0.25494108  0.98809265  0.62380939  1
  O  O199  1  0.75617902  0.50143169  0.13946245  1
  O  O200  1  0.74330119  0.49289045  0.62893846  1
  O  O201  1  0.73800951  0.99032650  0.12192813  1
  O  O202  1  0.74829227  0.99531243  0.63811115  1
  O  O203  1  -0.00492070  0.36401476  0.26215890  1
  O  O204  1  0.01120852  0.37571877  0.74995872  1
  O  O205  1  -0.00185614  0.86406437  0.25977298  1
  O  O206  1  0.00468135  0.86572191  0.75417358  1
  O  O207  1  0.49951943  0.36626207  0.24506383  1
  O  O208  1  0.49704904  0.37032936  0.76151979  1
  O  O209  1  0.49739844  0.86040152  0.23821723  1
  O  O210  1  0.51350796  0.87386414  0.74534399  1
  O  O211  1  0.50200723  0.13295163  0.23518954  1
  O  O212  1  0.49552834  0.13006809  0.74505774  1
  O  O213  1  0.49192645  0.63225271  0.24229161  1
  O  O214  1  0.49288968  0.62436168  0.73982227  1
  O  O215  1  0.99075184  0.13860865  0.25742376  1
  O  O216  1  0.99140937  0.12749271  0.74608221  1
  O  O217  1  0.99806201  0.63764310  0.24344277  1
  O  O218  1  1.00290328  0.63984707  0.74491242  1
  O  O219  1  0.36262878  0.25166293  0.00620568  1
  O  O220  1  0.37469754  0.25815968  0.50641592  1
  O  O221  1  0.37292833  0.75656891  0.00595394  1
  O  O222  1  0.37363841  0.75969383  0.50121777  1
  O  O223  1  0.87825504  0.25792661  0.00695582  1
  O  O224  1  0.86754488  0.25820998  0.50504099  1
  O  O225  1  0.86756124  0.75693087  0.00661098  1
  O  O226  1  0.85836250  0.75351185  0.49269913  1
  O  O227  1  0.14042916  0.25336898  0.50677070  1
  O  O228  1  0.12836884  0.24452911  0.99187847  1
  O  O229  1  0.13584547  0.75760094  0.48975805  1
  O  O230  1  0.12920498  0.74563404  0.99304282  1
  O  O231  1  0.63316929  0.24799596  0.49094757  1
  O  O232  1  0.62465273  0.23697650  0.99039053  1
  O  O233  1  0.63202149  0.74979168  0.49051230  1
  O  O234  1  0.62787942  0.74466470  0.99457577  1
  O  O235  1  0.48695385  0.24119155  0.11527500  1
  O  O236  1  0.49760376  0.24376772  0.63072032  1
  O  O237  1  0.49025806  0.74060806  0.12817684  1
  O  O238  1  0.49560618  0.74039211  0.62420631  1
  O  O239  1  0.98963128  0.25804691  0.13879972  1
  O  O240  1  0.99416207  0.24202141  0.62813549  1
  O  O241  1  0.99575455  0.75033887  0.13128124  1
  O  O242  1  1.00385869  0.74017605  0.63741077  1
  O  O243  1  -0.00559331  0.26056884  0.36246608  1
  O  O244  1  0.01308170  0.25361570  0.87096081  1
  O  O245  1  0.00485174  0.75430197  0.36784547  1
  O  O246  1  0.00425150  0.75562541  0.86465098  1
  O  O247  1  0.51478421  0.24152686  0.37586226  1
  O  O248  1  0.50600484  0.25643767  0.87249383  1
  O  O249  1  0.51154362  0.75008722  0.36821405  1
  O  O250  1  0.51228926  0.74450027  0.87370799  1
  O  O251  1  0.25552596  0.13771547  0.49954746  1
  O  O252  1  0.24125886  0.13667519  0.98783828  1
  O  O253  1  0.25563589  0.64650405  0.50784683  1
  O  O254  1  0.24709943  0.63060174  0.99542827  1
  O  O255  1  0.75131119  0.13810887  0.50553461  1
  O  O256  1  0.74381781  0.12435928  0.99305986  1
  O  O257  1  0.74651835  0.63217812  0.50025766  1
  O  O258  1  0.74079990  0.62844762  0.99453834  1
  O  O259  1  0.24866455  0.36456886  -0.00295603  1
  O  O260  1  0.26177492  0.36098967  0.50350414  1
  O  O261  1  0.25932361  0.86980586  0.00701600  1
  O  O262  1  0.26063333  0.86872190  0.50626389  1
  O  O263  1  0.76406465  0.37475231  -0.00093848  1
  O  O264  1  0.75686021  0.36491956  0.51035561  1
  O  O265  1  0.75516712  0.86780150  0.00305472  1
  O  O266  1  0.75016929  0.86764857  0.51269738  1
  O  O267  1  0.12259727  0.50720470  0.23905230  1
  O  O268  1  0.13017016  0.49473788  0.74379432  1
  O  O269  1  0.11962280  1.00217042  0.25334255  1
  O  O270  1  0.12104272  0.98538312  0.74543365  1
  O  O271  1  0.63831589  0.50135213  0.25547576  1
  O  O272  1  0.63119813  0.50252390  0.73769981  1
  O  O273  1  0.61594711  1.00438867  0.23787162  1
  O  O274  1  0.63188205  0.99278286  0.74987235  1
  O  O275  1  0.38070157  -0.00244809  0.26516082  1
  O  O276  1  0.38331454  0.00384995  0.76239076  1
  O  O277  1  0.37558698  0.51652916  0.24437649  1
  O  O278  1  0.36697622  0.50955592  0.74785845  1
  O  O279  1  0.88144473  0.00925232  0.26067535  1
  O  O280  1  0.86757431  0.01276500  0.75040791  1
  O  O281  1  0.86721169  0.50096564  0.25785820  1
  O  O282  1  0.86877672  0.49638155  0.76414827  1
  O  O283  1  0.11005872  0.37535510  0.37720602  1
  O  O284  1  0.12445982  0.36978838  0.86610677  1
  O  O285  1  0.11707637  0.86647320  0.37200752  1
  O  O286  1  0.11900061  0.86976413  0.86989287  1
  O  O287  1  0.62972437  0.35895291  0.37460396  1
  O  O288  1  0.61708221  0.36430037  0.88129184  1
  O  O289  1  0.62820391  0.86024814  0.37616661  1
  O  O290  1  0.63066033  0.86535514  0.86753020  1
  O  O291  1  0.38267068  0.13341381  0.11507750  1
  O  O292  1  0.38583117  0.12951487  0.63078339  1
  O  O293  1  0.38076242  0.63356002  0.13093808  1
  O  O294  1  0.38084797  0.63068474  0.63434301  1
  O  O295  1  0.87763894  0.13255282  0.13165971  1
  O  O296  1  0.88232595  0.13131144  0.63378282  1
  O  O297  1  0.88366150  0.63411052  0.12312591  1
  O  O298  1  0.88864522  0.61708418  0.62745104  1
  O  O299  1  0.25113809  0.26060524  0.11677506  1
  O  O300  1  0.25674053  0.25212011  0.61633987  1
  O  O301  1  0.26151611  0.75261574  0.11918345  1
  O  O302  1  0.25724037  0.76108664  0.61889262  1
  O  O303  1  0.76468146  0.25106722  0.12114804  1
  O  O304  1  0.75386447  0.25646697  0.62133268  1
  O  O305  1  0.75236702  0.75467627  0.12028604  1
  O  O306  1  0.74456779  0.75647158  0.61743990  1
  O  O307  1  0.25359496  0.23633040  0.38874116  1
  O  O308  1  0.24107965  0.24609966  0.87859286  1
  O  O309  1  0.24254726  0.75046384  0.38126187  1
  O  O310  1  0.24437103  0.74531096  0.88111041  1
  O  O311  1  0.74454619  0.24843904  0.38337464  1
  O  O312  1  0.74248193  0.24330976  0.87764858  1
  O  O313  1  0.74037107  0.74717458  0.38119643  1
  O  O314  1  0.74098582  0.74161774  0.88095731  1
  O  O315  1  0.01595177  0.12339595  -0.01088449  1
  O  O316  1  -0.00547227  0.12978296  0.51505864  1
  O  O317  1  0.00584847  0.62267967  0.00564509  1
  O  O318  1  -0.00074025  0.63448245  0.51715825  1
  O  O319  1  0.50808070  0.11789010  0.00423413  1
  O  O320  1  0.50042134  0.11513748  0.50979032  1
  O  O321  1  0.50586829  0.61948880  0.00603754  1
  O  O322  1  0.49606521  0.61459992  0.51173936  1
  O  O323  1  0.48895766  0.37592848  0.50057039  1
  O  O324  1  0.49811243  0.38287607  0.99078209  1
  O  O325  1  0.49205980  0.88656991  0.50704180  1
  O  O326  1  0.48791820  0.88265900  1.00610056  1
  O  O327  1  0.98964047  0.36579832  0.48528736  1
  O  O328  1  0.99138013  0.38215476  0.99859816  1
  O  O329  1  0.99501770  0.86653624  0.48901792  1
  O  O330  1  0.98904158  0.87164120  0.98852752  1
  O  O331  1  0.50600687  0.50494978  0.38981018  1
  O  O332  1  0.50048627  0.49273192  0.87958341  1
  O  O333  1  0.48746029  1.00825688  0.38383435  1
  O  O334  1  0.49368229  1.00472998  0.88730784  1
  O  O335  1  0.99132262  0.48484371  0.36800756  1
  O  O336  1  0.99193434  0.50242424  0.88025888  1
  O  O337  1  0.98945363  0.98978157  0.38006996  1
  O  O338  1  1.00189417  0.98580645  0.87564180  1
  O  O339  1  -0.00432650  -0.01155054  0.11116827  1
  O  O340  1  -0.00307572  0.01626542  0.62610373  1
  O  O341  1  0.00699932  0.50461513  0.12137518  1
  O  O342  1  0.01022738  0.51567519  0.63397313  1
  O  O343  1  0.50353285  0.00774227  0.11353097  1
  O  O344  1  0.50204738  0.00800888  0.61773333  1
  O  O345  1  0.49406879  0.51265572  0.11695784  1
  O  O346  1  0.50742222  0.50397193  0.62155975  1
  O  O347  1  0.24759956  0.37285185  0.23981354  1
  O  O348  1  0.24067218  0.38111175  0.74262008  1
  O  O349  1  0.25251192  0.87391632  0.23253057  1
  O  O350  1  0.24154388  0.86972257  0.74045821  1
  O  O351  1  0.74964465  0.38997079  0.24898987  1
  O  O352  1  0.75605872  0.37971367  0.73706035  1
  O  O353  1  0.75212016  0.86975281  0.23828783  1
  O  O354  1  0.74332267  0.88110712  0.74835962  1
  O  O355  1  0.24496625  0.13148636  0.26648933  1
  O  O356  1  0.25669911  0.12991721  0.76143684  1
  O  O357  1  0.26479871  0.63037344  0.25137735  1
  O  O358  1  0.25621961  0.62407830  0.75109648  1
  O  O359  1  0.76682585  0.12815427  0.24902756  1
  O  O360  1  0.75526464  0.11814869  0.75639433  1
  O  O361  1  0.75356252  0.61355252  0.25312637  1
  O  O362  1  0.74362130  0.61946792  0.76307818  1
  O  O363  1  0.36754425  0.11599737  0.37627815  1
  O  O364  1  0.36870380  0.11889285  0.87287996  1
  O  O365  1  0.37655798  0.62941202  0.36032964  1
  O  O366  1  0.36964429  0.62558213  0.86196489  1
  O  O367  1  0.87248243  0.11637566  0.36867346  1
  O  O368  1  0.86309485  0.13176163  0.86978715  1
  O  O369  1  0.87716322  0.60951532  0.37574972  1
  O  O370  1  0.86272621  0.61657069  0.88400978  1
  O  O371  1  0.13785942  0.38336664  0.11967735  1
  O  O372  1  0.12719018  0.38365448  0.63105535  1
  O  O373  1  0.14276527  0.87419631  0.12267396  1
  O  O374  1  0.13536046  0.87193825  0.63362119  1
  O  O375  1  0.63340101  0.37013716  0.12581170  1
  O  O376  1  0.63482010  0.38053947  0.62266309  1
  O  O377  1  0.63271789  0.88536640  0.11859271  1
  O  O378  1  0.63620586  0.87581979  0.63597759  1
  O  O379  1  0.10797630  0.24639989  0.24391858  1
  O  O380  1  0.12620044  0.26110568  0.75644251  1
  O  O381  1  0.11743211  0.75737950  0.25483588  1
  O  O382  1  0.11868945  0.75931159  0.75676489  1
  O  O383  1  0.62803736  0.24968257  0.26372035  1
  O  O384  1  0.61886337  0.24390382  0.76440707  1
  O  O385  1  0.61712824  0.74495729  0.26278255  1
  O  O386  1  0.62402745  0.75716531  0.75938538  1
  O  O387  1  0.36986205  0.24940152  0.23352538  1
  O  O388  1  0.38147994  0.24329827  0.74556039  1
  O  O389  1  0.38189081  0.74576074  0.24282572  1
  O  O390  1  0.37833908  0.74301943  0.74364693  1
  O  O391  1  0.88053074  0.24416659  0.24352970  1
  O  O392  1  0.87461483  0.23972776  0.74473389  1
  O  O393  1  0.88215592  0.74778882  0.24268555  1
  O  O394  1  0.88803558  0.75174000  0.75421166  1
  O  O395  1  0.38806892  0.47575239  0.51193750  1
  O  O396  1  0.38818335  0.50210040  0.99544540  1
  O  O397  1  0.38285172  0.99343499  0.49291591  1
  O  O398  1  0.38181560  0.99397068  0.99000538  1
  O  O399  1  0.86884032  0.48583355  0.49297878  1
  O  O400  1  0.88032353  0.49453631  0.99199161  1
  O  O401  1  0.88112674  0.99580202  0.49336108  1
  O  O402  1  0.86887683  0.98756196  0.99846912  1
  O  O403  1  0.12794879  0.01645426  -0.00813273  1
  O  O404  1  0.11731300  -0.00861851  0.50996981  1
  O  O405  1  0.11880734  0.50803159  0.00502972  1
  O  O406  1  0.11757362  0.49427832  0.51505029  1
  O  O407  1  0.61797945  0.00911871  0.00178788  1
  O  O408  1  0.61644056  0.00161456  0.50134280  1
  O  O409  1  0.61278103  0.50962949  -0.00412874  1
  O  O410  1  0.61833431  0.49693773  0.51131130  1
  O  O411  1  0.35926292  0.37050853  0.11888679  1
  O  O412  1  0.36632208  0.36514414  0.62789138  1
  O  O413  1  0.36674247  0.86948392  0.11676517  1
  O  O414  1  0.37032180  0.86939751  0.61825713  1
  O  O415  1  0.87288573  0.36927517  0.11663371  1
  O  O416  1  0.87219511  0.37112578  0.61802604  1
  O  O417  1  0.86420986  0.86800556  0.11733379  1
  O  O418  1  0.86157699  0.87815869  0.62969763  1
  O  O419  1  0.13873621  0.12238530  0.38476601  1
  O  O420  1  0.13205971  0.13231637  0.87688203  1
  O  O421  1  0.12483503  0.63965356  0.36935108  1
  O  O422  1  0.13090780  0.63098229  0.87928225  1
  O  O423  1  0.63162169  0.13511859  0.37773570  1
  O  O424  1  0.63519349  0.12961478  0.88156647  1
  O  O425  1  0.62632466  0.63712222  0.38134463  1
  O  O426  1  0.63039621  0.63076877  0.88516991  1
