# generated using pymatgen
data_V85Zn86O256
_symmetry_space_group_name_H-M   'P 1'
_cell_length_a   16.92631472
_cell_length_b   16.92482497
_cell_length_c   16.93718059
_cell_angle_alpha   90.04470249
_cell_angle_beta   89.98102443
_cell_angle_gamma   90.04775717
_symmetry_Int_Tables_number   1
_chemical_formula_structural   V85Zn86O256
_chemical_formula_sum   'V85 Zn86 O256'
_cell_volume   4852.07392587
_cell_formula_units_Z   1
loop_
 _symmetry_equiv_pos_site_id
 _symmetry_equiv_pos_as_xyz
  1  'x, y, z'
loop_
 _atom_site_type_symbol
 _atom_site_label
 _atom_site_symmetry_multiplicity
 _atom_site_fract_x
 _atom_site_fract_y
 _atom_site_fract_z
 _atom_site_occupancy
  V  V0  1  0.12680474  0.12299691  0.49045446  1
  V  V1  1  0.37444797  0.12473496  0.74955798  1
  V  V2  1  0.87351888  0.61726751  0.24309218  1
  V  V3  1  0.62668970  0.50234884  0.62319099  1
  V  V4  1  0.25187774  0.24707326  0.49092482  1
  V  V5  1  0.74479118  0.12467166  0.38142153  1
  V  V6  1  0.62348160  0.86598644  0.24960324  1
  V  V7  1  0.12685315  0.87768994  0.74867033  1
  V  V8  1  0.36859480  0.61370430  0.25582633  1
  V  V9  1  0.12588278  0.87521153  0.25325234  1
  V  V10  1  0.87925776  0.24571607  0.12965799  1
  V  V11  1  0.87590040  0.36177496  0.50433731  1
  V  V12  1  0.75419904  0.62715630  0.37994969  1
  V  V13  1  0.49664823  0.62934283  0.12762637  1
  V  V14  1  0.05848140  0.56337212  0.18162421  1
  V  V15  1  0.11261452  0.12294310  0.00001260  1
  V  V16  1  0.00418699  0.62671806  0.61658772  1
  V  V17  1  0.37550651  0.25460620  0.61884258  1
  V  V18  1  0.50304269  0.50598014  0.00031368  1
  V  V19  1  0.49825906  0.37643715  0.36911411  1
  V  V20  1  0.62413579  0.63162737  0.49065740  1
  V  V21  1  0.62512252  0.24830255  0.87640199  1
  V  V22  1  0.50993884  0.24856323  0.24289138  1
  V  V23  1  0.87642578  0.62561076  0.74594782  1
  V  V24  1  0.75299335  0.36828585  0.62501592  1
  V  V25  1  0.25161071  -0.00377838  0.74616619  1
  V  V26  1  0.11861093  0.25711629  0.87452555  1
  V  V27  1  0.62532325  0.37650284  0.74951370  1
  V  V28  1  0.12601311  0.75838752  0.87600123  1
  V  V29  1  0.74803563  0.11297482  0.87219759  1
  V  V30  1  -0.00834271  0.87133470  0.38150542  1
  V  V31  1  0.24779837  0.73837825  0.49712320  1
  V  V32  1  0.75000359  0.62830838  0.86877543  1
  V  V33  1  0.36789025  0.00658604  0.37508000  1
  V  V34  1  0.25271208  0.75253443  0.00132049  1
  V  V35  1  0.12522932  0.50222864  0.62137777  1
  V  V36  1  0.62473035  0.25203871  0.38127505  1
  V  V37  1  0.49331119  0.49448745  0.49834215  1
  V  V38  1  0.37042297  0.12904178  0.25234556  1
  V  V39  1  0.24814740  0.12531087  0.87495519  1
  V  V40  1  0.88361038  -0.00861582  0.87650991  1
  V  V41  1  -0.00183912  0.74719276  0.23873687  1
  V  V42  1  0.12781280  -0.00200184  0.62195853  1
  V  V43  1  0.25177861  0.62537258  0.87560091  1
  V  V44  1  0.37706965  0.24503680  0.12461716  1
  V  V45  1  0.75087221  0.25317505  -0.00118561  1
  V  V46  1  0.67832264  0.68169950  0.04774321  1
  V  V47  1  0.63454406  0.88102825  0.74810099  1
  V  V48  1  0.62362310  0.12095141  0.01383396  1
  V  V49  1  0.62675523  0.74826844  0.87245338  1
  V  V50  1  0.49895768  0.37644114  0.87654983  1
  V  V51  1  0.12244850  0.62187800  0.00218976  1
  V  V52  1  0.87598268  0.76158290  0.61667512  1
  V  V53  1  0.49858090  0.25036200  0.74945017  1
  V  V54  1  0.50270831  0.86449210  0.37269432  1
  V  V55  1  0.74350476  0.00720140  0.24364591  1
  V  V56  1  0.24548478  0.38698125  0.12950441  1
  V  V57  1  0.87321307  0.00311200  0.37436511  1
  V  V58  1  0.00172821  0.75814994  0.74720923  1
  V  V59  1  0.50470667  0.00410392  0.49409967  1
  V  V60  1  0.12089023  -0.00165005  0.12508312  1
  V  V61  1  -0.00488487  0.25443117  0.75001127  1
  V  V62  1  0.49905814  0.75415274  0.74801323  1
  V  V63  1  -0.00016776  0.36914006  0.36866360  1
  V  V64  1  0.37604613  0.87788093  0.00324124  1
  V  V65  1  0.36768647  0.75652882  0.62433012  1
  V  V66  1  0.36734138  0.87767660  0.50097696  1
  V  V67  1  0.24855992  0.24921792  0.00253516  1
  V  V68  1  0.12675052  0.73794359  0.37901620  1
  V  V69  1  -0.00340595  0.12931275  0.62226114  1
  V  V70  1  0.86990622  0.12398774  0.74618764  1
  V  V71  1  0.25035842  0.37225559  0.62394388  1
  V  V72  1  0.87800556  0.37913515  -0.00632349  1
  V  V73  1  0.75035546  0.75987329  0.49454970  1
  V  V74  1  0.37765758  0.75468737  0.13927678  1
  V  V75  1  0.50401874  0.12607187  0.61915588  1
  V  V76  1  0.00654758  0.49765348  -0.01388453  1
  V  V77  1  0.62844769  0.48889728  0.12866254  1
  V  V78  1  0.50225995  0.88133204  0.87562802  1
  V  V79  1  0.49987953  0.62788844  0.62240970  1
  V  V80  1  0.25000827  0.49925098  0.75009686  1
  V  V81  1  -0.00116882  0.49776513  0.49555717  1
  V  V82  1  0.50438642  0.00469071  0.01605452  1
  V  V83  1  0.37482401  0.62712357  0.75031638  1
  V  V84  1  0.63026698  0.00318868  0.62485986  1
  Zn  Zn85  1  0.12997821  0.24504400  0.36762738  1
  Zn  Zn86  1  0.86917193  0.82533223  0.03282571  1
  Zn  Zn87  1  -0.01130725  0.11228542  0.13126702  1
  Zn  Zn88  1  0.74708822  0.87777189  0.12228498  1
  Zn  Zn89  1  0.87884418  0.49743577  0.86865179  1
  Zn  Zn90  1  0.75256213  0.49918230  0.74828551  1
  Zn  Zn91  1  0.37525341  0.00249881  0.87844865  1
  Zn  Zn92  1  0.87044174  0.49550168  0.37932809  1
  Zn  Zn93  1  0.12630919  0.37756395  0.24731421  1
  Zn  Zn94  1  0.24436165  0.00935141  0.25457594  1
  Zn  Zn95  1  0.00157902  0.23739458  0.25175318  1
  Zn  Zn96  1  0.25117498  0.87932816  0.12786363  1
  Zn  Zn97  1  0.74759431  0.24392266  0.50583179  1
  Zn  Zn98  1  0.11850866  0.37772139  0.75337290  1
  Zn  Zn99  1  0.37468635  0.37632457  0.00168756  1
  Zn  Zn100  1  0.37602142  0.50109649  0.87559936  1
  Zn  Zn101  1  0.36223073  0.49309548  0.38008174  1
  Zn  Zn102  1  0.74867347  0.37316413  0.13219473  1
  Zn  Zn103  1  -0.00800509  -0.00405235  0.50296095  1
  Zn  Zn104  1  -0.00535597  -0.03042535  -0.00149485  1
  Zn  Zn105  1  0.73928165  0.49261112  0.26318110  1
  Zn  Zn106  1  0.75640447  0.88367975  0.62063608  1
  Zn  Zn107  1  0.18310450  0.18851991  0.18708148  1
  Zn  Zn108  1  0.18395672  0.18511577  0.68566621  1
  Zn  Zn109  1  0.19269684  0.69574026  0.18864072  1
  Zn  Zn110  1  0.18838554  0.68775142  0.68477479  1
  Zn  Zn111  1  0.69251919  0.18882820  0.18954901  1
  Zn  Zn112  1  0.68586195  0.18644795  0.68979900  1
  Zn  Zn113  1  0.67921462  0.68084058  0.21225721  1
  Zn  Zn114  1  0.68920720  0.69230945  0.68252592  1
  Zn  Zn115  1  0.31602187  0.31893513  0.30904746  1
  Zn  Zn116  1  0.31164054  0.31253706  0.81143558  1
  Zn  Zn117  1  0.31040754  0.81512621  0.31650991  1
  Zn  Zn118  1  0.31343608  0.81670022  0.81441645  1
  Zn  Zn119  1  0.80991768  0.31436985  0.31227801  1
  Zn  Zn120  1  0.81311408  0.30999310  0.81267619  1
  Zn  Zn121  1  0.81616913  0.81173400  0.29574309  1
  Zn  Zn122  1  0.81196276  0.81091113  0.81043872  1
  Zn  Zn123  1  0.18373383  0.42975204  0.44300379  1
  Zn  Zn124  1  0.19022503  0.43697366  0.94002113  1
  Zn  Zn125  1  0.18586179  0.93341912  0.43751898  1
  Zn  Zn126  1  0.18826461  0.94046693  0.93857485  1
  Zn  Zn127  1  0.68309828  0.43479853  0.43951230  1
  Zn  Zn128  1  0.68820365  0.44362478  0.94061178  1
  Zn  Zn129  1  0.68410685  0.94009478  0.43503286  1
  Zn  Zn130  1  0.69496689  0.93265167  0.94768169  1
  Zn  Zn131  1  0.30927118  0.06367256  0.06525991  1
  Zn  Zn132  1  0.31323137  0.06518896  0.56216877  1
  Zn  Zn133  1  0.31710262  0.56487209  0.06030735  1
  Zn  Zn134  1  0.31235314  0.56247557  0.56282130  1
  Zn  Zn135  1  0.81010818  0.06012169  0.05698545  1
  Zn  Zn136  1  0.81558227  0.06184773  0.55702184  1
  Zn  Zn137  1  0.84891774  0.60508519  0.03424127  1
  Zn  Zn138  1  0.81391927  0.56210318  0.56158687  1
  Zn  Zn139  1  0.43797364  0.43294444  0.18533790  1
  Zn  Zn140  1  0.43673413  0.43868771  0.68647392  1
  Zn  Zn141  1  0.43883584  0.94145005  0.19334375  1
  Zn  Zn142  1  0.44004088  0.93942902  0.68585670  1
  Zn  Zn143  1  0.92404832  0.43407040  0.18691930  1
  Zn  Zn144  1  0.93674194  0.43743811  0.68451361  1
  Zn  Zn145  1  0.93073271  0.93156678  0.18783062  1
  Zn  Zn146  1  0.93858438  0.94348505  0.69088577  1
  Zn  Zn147  1  0.05537077  0.06085136  0.31003243  1
  Zn  Zn148  1  0.05943480  0.06582133  0.81148687  1
  Zn  Zn149  1  0.19279880  0.56125797  0.31768439  1
  Zn  Zn150  1  0.06533990  0.56939249  0.80901491  1
  Zn  Zn151  1  0.56162275  0.06544668  0.30734892  1
  Zn  Zn152  1  0.56361140  0.06288549  0.81271331  1
  Zn  Zn153  1  0.55553187  0.56548337  0.31077375  1
  Zn  Zn154  1  0.56233691  0.56417010  0.81051084  1
  Zn  Zn155  1  0.43856535  0.18893668  0.43453420  1
  Zn  Zn156  1  0.43761603  0.18575976  0.93929225  1
  Zn  Zn157  1  0.43461353  0.68592345  0.43750203  1
  Zn  Zn158  1  0.43963497  0.69118531  0.94098387  1
  Zn  Zn159  1  0.93435010  0.18293524  0.43442797  1
  Zn  Zn160  1  0.93346730  0.18715545  0.93459097  1
  Zn  Zn161  1  0.93651877  0.68670472  0.43427693  1
  Zn  Zn162  1  0.94588531  0.69871256  0.93219931  1
  Zn  Zn163  1  0.06172559  0.31689035  0.06235819  1
  Zn  Zn164  1  0.06602577  0.31045291  0.56277789  1
  Zn  Zn165  1  0.06015906  0.81391326  0.06098276  1
  Zn  Zn166  1  0.06688899  0.81514815  0.56060395  1
  Zn  Zn167  1  0.56100124  0.31158712  0.06011406  1
  Zn  Zn168  1  0.56368943  0.31489910  0.55886655  1
  Zn  Zn169  1  0.55806100  0.82061405  0.06924179  1
  Zn  Zn170  1  0.56137453  0.81609584  0.55924847  1
  O  O171  1  0.12173865  0.11524037  0.11572894  1
  O  O172  1  0.11755852  0.11503525  0.61781436  1
  O  O173  1  0.12464976  0.62190921  0.12338471  1
  O  O174  1  0.11590711  0.61708479  0.62805710  1
  O  O175  1  0.62914009  0.12935817  0.11261968  1
  O  O176  1  0.61189304  0.11982483  0.63060328  1
  O  O177  1  0.61785731  0.62651873  0.11792239  1
  O  O178  1  0.61976977  0.61988204  0.61872661  1
  O  O179  1  0.39148542  0.37645802  0.37373177  1
  O  O180  1  0.38828842  0.37562793  0.87329024  1
  O  O181  1  0.38453633  0.88274743  0.37909587  1
  O  O182  1  0.38629949  0.87674666  0.88279744  1
  O  O183  1  0.88411588  0.37401582  0.38563919  1
  O  O184  1  0.86702252  0.37973497  0.88786793  1
  O  O185  1  0.88858743  0.87476318  0.36782836  1
  O  O186  1  0.86937540  0.89321071  0.86282425  1
  O  O187  1  0.26372015  -0.00556070  0.37581279  1
  O  O188  1  0.25102323  0.00889703  0.86704567  1
  O  O189  1  0.24983155  0.49321923  0.38190655  1
  O  O190  1  0.25263553  0.50635742  0.86908606  1
  O  O191  1  0.75108501  0.00949835  0.37173834  1
  O  O192  1  0.75456563  0.01039763  0.87686741  1
  O  O193  1  0.74765906  0.51235575  0.38319285  1
  O  O194  1  0.74686691  0.51551451  0.86927089  1
  O  O195  1  0.25652285  0.48473231  0.11680579  1
  O  O196  1  0.24427775  0.49319304  0.62727527  1
  O  O197  1  0.23455059  0.99842101  0.12691260  1
  O  O198  1  0.24225828  1.00721076  0.63492222  1
  O  O199  1  0.72817813  0.49993890  0.11855298  1
  O  O200  1  0.74075750  0.49262363  0.62479569  1
  O  O201  1  0.75348843  1.00344287  0.14083804  1
  O  O202  1  0.73476563  1.00204001  0.61648538  1
  O  O203  1  -0.00399423  0.37631008  0.26382266  1
  O  O204  1  -0.00188737  0.35940088  0.74318195  1
  O  O205  1  0.00864860  0.86500783  0.25909063  1
  O  O206  1  0.00780194  0.86428247  0.74369323  1
  O  O207  1  0.49794123  0.36295771  0.25578022  1
  O  O208  1  0.50535199  0.37091908  0.75529230  1
  O  O209  1  0.50967819  0.88221060  0.26315432  1
  O  O210  1  0.50592896  0.87172047  0.75802098  1
  O  O211  1  0.48740214  0.13700061  0.25306585  1
  O  O212  1  0.49420701  0.13162791  0.74388427  1
  O  O213  1  0.48791300  0.62546886  0.23637317  1
  O  O214  1  0.49467600  0.63406484  0.74356351  1
  O  O215  1  0.99493690  0.12432152  0.24374614  1
  O  O216  1  0.99345216  0.13283323  0.74150876  1
  O  O217  1  0.99785982  0.62364286  0.24284459  1
  O  O218  1  0.99532909  0.63492012  0.73771241  1
  O  O219  1  0.36666184  0.24910650  0.00590394  1
  O  O220  1  0.36844518  0.24274933  0.51217611  1
  O  O221  1  0.37103122  0.75916187  0.00839497  1
  O  O222  1  0.36880147  0.75653069  0.50485968  1
  O  O223  1  0.86810777  0.25918704  0.00104152  1
  O  O224  1  0.87184392  0.25843186  0.50068217  1
  O  O225  1  0.86640266  0.71357887  0.00296453  1
  O  O226  1  0.86612851  0.74558733  0.50752738  1
  O  O227  1  0.13407712  0.23995235  0.49800020  1
  O  O228  1  0.12938962  0.24346457  0.99439679  1
  O  O229  1  0.13271844  0.75377805  0.48852801  1
  O  O230  1  0.13161442  0.74501453  0.99292639  1
  O  O231  1  0.62528222  0.24982633  0.48613629  1
  O  O232  1  0.63088173  0.24401047  0.99465839  1
  O  O233  1  0.63334918  0.74065639  0.50754939  1
  O  O234  1  0.62071916  0.74985109  0.99351054  1
  O  O235  1  0.49167783  0.25519142  0.13248320  1
  O  O236  1  0.49462847  0.24577246  0.62653239  1
  O  O237  1  0.48882823  0.74283464  0.11960968  1
  O  O238  1  0.48988494  0.74733169  0.62683605  1
  O  O239  1  0.98560430  0.25241982  0.12196029  1
  O  O240  1  1.00736221  0.23613955  0.63213315  1
  O  O241  1  1.00873529  0.74633654  0.14036916  1
  O  O242  1  0.99655749  0.74475607  0.62524875  1
  O  O243  1  -0.00129415  0.25922644  0.37503250  1
  O  O244  1  0.00816095  0.24332264  0.86483701  1
  O  O245  1  0.00978221  0.75598242  0.37284723  1
  O  O246  1  0.01481176  0.74334911  0.85844226  1
  O  O247  1  0.50712124  0.25574838  0.36814356  1
  O  O248  1  0.50418511  0.25782888  0.87113275  1
  O  O249  1  0.49449771  0.76623064  0.37969843  1
  O  O250  1  0.50709033  0.76124846  0.87179801  1
  O  O251  1  0.24012208  0.13501566  0.50728118  1
  O  O252  1  0.23956453  0.13100935  0.99492436  1
  O  O253  1  0.25424679  0.63860063  0.50141322  1
  O  O254  1  0.24229693  0.63063447  0.99717441  1
  O  O255  1  0.74907917  0.12637114  0.48669770  1
  O  O256  1  0.74181087  0.13150697  0.99075956  1
  O  O257  1  0.74271231  0.63322519  0.49845111  1
  O  O258  1  0.73665911  0.61905607  0.98962944  1
  O  O259  1  0.25327149  0.36508393  0.00633548  1
  O  O260  1  0.24497206  0.36239575  0.51686856  1
  O  O261  1  0.25946161  0.87212393  0.00110105  1
  O  O262  1  0.26343776  0.86712025  0.49550838  1
  O  O263  1  0.75339681  0.36760920  0.00164328  1
  O  O264  1  0.75728323  0.37248357  0.50745234  1
  O  O265  1  0.76108111  0.87144210  0.00942854  1
  O  O266  1  0.74243153  0.86343739  0.49956619  1
  O  O267  1  0.11586035  0.50564174  0.24344684  1
  O  O268  1  0.13018189  0.49946090  0.74069986  1
  O  O269  1  0.12482750  0.99194190  0.24376471  1
  O  O270  1  0.13112747  0.99802141  0.74438090  1
  O  O271  1  0.62171323  0.51164751  0.23203238  1
  O  O272  1  0.62367798  0.49684820  0.73662392  1
  O  O273  1  0.63736940  0.99276189  0.25693526  1
  O  O274  1  0.61778769  0.99211374  0.73890813  1
  O  O275  1  0.37233523  0.00973741  0.25802360  1
  O  O276  1  0.36806129  0.00554309  0.75025356  1
  O  O277  1  0.37792967  0.51164653  0.24997588  1
  O  O278  1  0.36910428  0.50858214  0.75068905  1
  O  O279  1  0.85574135  -0.00926282  0.26467250  1
  O  O280  1  0.87900525  0.01478807  0.76014909  1
  O  O281  1  0.87344005  0.50579325  0.26022641  1
  O  O282  1  0.87500631  0.51073518  0.74898943  1
  O  O283  1  0.10985062  0.36998319  0.37425581  1
  O  O284  1  0.13072293  0.36090161  0.87321993  1
  O  O285  1  0.11445646  0.87021670  0.36869202  1
  O  O286  1  0.13088043  0.86429804  0.87002443  1
  O  O287  1  0.61441320  0.36570465  0.37623603  1
  O  O288  1  0.61580557  0.37203905  0.87100972  1
  O  O289  1  0.60849845  0.88003684  0.37102130  1
  O  O290  1  0.62216343  0.86780181  0.86860537  1
  O  O291  1  0.37178523  0.13802217  0.12998245  1
  O  O292  1  0.38559404  0.13125118  0.63084505  1
  O  O293  1  0.37898398  0.63268823  0.13362359  1
  O  O294  1  0.38057498  0.63448292  0.63056197  1
  O  O295  1  0.87399344  0.14216219  0.11138073  1
  O  O296  1  0.88285984  0.11906738  0.63196332  1
  O  O297  1  0.86687948  0.61291136  0.14480526  1
  O  O298  1  0.88122081  0.63362170  0.63167981  1
  O  O299  1  0.25416286  0.25251838  0.11320424  1
  O  O300  1  0.25714896  0.25482356  0.62299325  1
  O  O301  1  0.25953026  0.75613784  0.11775896  1
  O  O302  1  0.26112940  0.75015680  0.61849867  1
  O  O303  1  0.75746765  0.25006406  0.11307626  1
  O  O304  1  0.73861040  0.26363964  0.62346401  1
  O  O305  1  0.73107804  0.73151479  0.11669498  1
  O  O306  1  0.76035585  0.75451371  0.61527572  1
  O  O307  1  0.25266786  0.25902187  0.38823768  1
  O  O308  1  0.24517574  0.24504995  0.88412583  1
  O  O309  1  0.23587554  0.75392243  0.38153003  1
  O  O310  1  0.24566447  0.74573237  0.88006099  1
  O  O311  1  0.74342962  0.23944906  0.37378345  1
  O  O312  1  0.74548838  0.24322563  0.88485785  1
  O  O313  1  0.75651489  0.73801567  0.38166331  1
  O  O314  1  0.74221036  0.73915358  0.86836373  1
  O  O315  1  0.00960126  0.12779094  0.00162293  1
  O  O316  1  0.00642014  0.12234256  0.50628299  1
  O  O317  1  0.01679630  0.61852657  -0.00369088  1
  O  O318  1  -0.00644453  0.61569886  0.51026136  1
  O  O319  1  0.51098304  0.11564253  -0.00738104  1
  O  O320  1  0.49479540  0.11730537  0.50821031  1
  O  O321  1  0.49398490  0.61824367  0.01242083  1
  O  O322  1  0.50735305  0.62168672  0.50363625  1
  O  O323  1  0.50415361  0.38640489  0.49192238  1
  O  O324  1  0.49727763  0.38145404  0.99093279  1
  O  O325  1  0.49178488  0.88279554  0.48940118  1
  O  O326  1  0.49671985  0.88447744  0.99389180  1
  O  O327  1  0.99313323  0.37675770  0.49897704  1
  O  O328  1  0.99271615  0.38673274  1.00113558  1
  O  O329  1  1.00375920  0.87576137  0.48514701  1
  O  O330  1  0.97774323  0.85658483  1.00074170  1
  O  O331  1  0.50144786  0.49274600  0.38203066  1
  O  O332  1  0.50163021  0.49470702  0.88102652  1
  O  O333  1  0.49047112  0.99787607  0.38137264  1
  O  O334  1  0.49916884  0.98938842  0.87744296  1
  O  O335  1  1.00002475  0.48639416  0.39218310  1
  O  O336  1  1.00233541  0.50433240  0.88210531  1
  O  O337  1  0.99084051  0.98690278  0.37498558  1
  O  O338  1  0.98867885  1.00126806  0.87629145  1
  O  O339  1  0.00669766  -0.00641009  0.12090658  1
  O  O340  1  0.00743215  0.01005591  0.62335906  1
  O  O341  1  0.00261645  0.50164457  0.12213185  1
  O  O342  1  0.00662529  0.50701538  0.61976009  1
  O  O343  1  0.50031309  -0.00116035  0.11525000  1
  O  O344  1  0.50531422  0.00878868  0.61670015  1
  O  O345  1  0.50484814  0.50703435  0.11880411  1
  O  O346  1  0.50608203  0.50558380  0.61802821  1
  O  O347  1  0.24857394  0.37441581  0.23444834  1
  O  O348  1  0.24821452  0.38067806  0.74107128  1
  O  O349  1  0.23595149  0.87659543  0.25129683  1
  O  O350  1  0.24590609  0.88906153  0.75392336  1
  O  O351  1  0.75342678  0.38250726  0.24568976  1
  O  O352  1  0.74372374  0.37662244  0.74409415  1
  O  O353  1  0.73388997  0.88380198  0.25782701  1
  O  O354  1  0.73722646  0.87161808  0.74358742  1
  O  O355  1  0.26360109  0.12759274  0.24635194  1
  O  O356  1  0.25379933  0.11783672  0.75432242  1
  O  O357  1  0.26290074  0.62423837  0.24679712  1
  O  O358  1  0.25526682  0.62027015  0.75418247  1
  O  O359  1  0.74661231  0.11296880  0.25972331  1
  O  O360  1  0.75744612  0.13105078  0.75908394  1
  O  O361  1  0.75649580  0.61802026  0.26394496  1
  O  O362  1  0.75835162  0.62630536  0.75122857  1
  O  O363  1  0.37635512  0.11820896  0.36756426  1
  O  O364  1  0.36766202  0.12520881  0.86713689  1
  O  O365  1  0.38123383  0.62227368  0.35832190  1
  O  O366  1  0.37035477  0.62840526  0.86834102  1
  O  O367  1  0.86022557  0.11709226  0.37455390  1
  O  O368  1  0.86594535  0.11885854  0.86760485  1
  O  O369  1  0.86778546  0.61728798  0.37300776  1
  O  O370  1  0.86833557  0.62579079  0.85821982  1
  O  O371  1  0.14064347  0.37334184  0.12406484  1
  O  O372  1  0.13232471  0.38146901  0.63104975  1
  O  O373  1  0.12551352  0.88005679  0.13372474  1
  O  O374  1  0.12232447  0.88981885  0.62986586  1
  O  O375  1  0.62268623  0.38580607  0.12428404  1
  O  O376  1  0.62904593  0.38450076  0.62839564  1
  O  O377  1  0.62627815  0.87340908  0.14391121  1
  O  O378  1  0.62168425  0.88544282  0.63243325  1
  O  O379  1  0.11975782  0.25607115  0.25172357  1
  O  O380  1  0.11696155  0.24829938  0.75867687  1
  O  O381  1  0.12046355  0.75491496  0.26110297  1
  O  O382  1  0.12257848  0.75688199  0.75368057  1
  O  O383  1  0.61418797  0.24313234  0.25663308  1
  O  O384  1  0.61716445  0.25678239  0.75665772  1
  O  O385  1  0.62297333  0.76636309  0.25946733  1
  O  O386  1  0.61810819  0.75858656  0.75395708  1
  O  O387  1  0.38195768  0.24586377  0.24300961  1
  O  O388  1  0.37933319  0.24490081  0.74024227  1
  O  O389  1  0.36874217  0.74474023  0.24209275  1
  O  O390  1  0.37848726  0.75028756  0.74184604  1
  O  O391  1  0.87412721  0.25468438  0.23157897  1
  O  O392  1  0.88254773  0.23696631  0.75558589  1
  O  O393  1  0.89012792  0.73078886  0.26293658  1
  O  O394  1  0.88465694  0.74597771  0.74188365  1
  O  O395  1  0.38972458  0.50796811  0.49938355  1
  O  O396  1  0.38757210  0.49768892  0.99652081  1
  O  O397  1  0.38152548  0.99491086  0.49596093  1
  O  O398  1  0.38224934  0.99577888  1.00065154  1
  O  O399  1  0.88359154  0.48851288  0.50347992  1
  O  O400  1  0.88811156  0.50024649  0.99481808  1
  O  O401  1  0.87401644  0.99630043  0.48300579  1
  O  O402  1  0.87897694  1.00683149  0.98231630  1
  O  O403  1  0.11692368  0.00425121  0.00522006  1
  O  O404  1  0.12554185  0.00497919  0.50686242  1
  O  O405  1  0.12036979  0.50856061  -0.00341547  1
  O  O406  1  0.11515368  0.49315793  0.51485579  1
  O  O407  1  0.61686145  0.00892329  -0.00572864  1
  O  O408  1  0.61078103  -0.00390345  0.50712056  1
  O  O409  1  0.61075713  0.49783644  0.01005265  1
  O  O410  1  0.61698750  0.50832866  0.50997842  1
  O  O411  1  0.36492415  0.36275736  0.12366666  1
  O  O412  1  0.36745617  0.36465935  0.62953020  1
  O  O413  1  0.37588154  0.87022738  0.12406062  1
  O  O414  1  0.38268576  0.86806612  0.61383377  1
  O  O415  1  0.87042186  0.36581944  0.11037987  1
  O  O416  1  0.86352115  0.37702383  0.61895255  1
  O  O417  1  0.85875562  0.85730841  0.14659469  1
  O  O418  1  0.87591925  0.86614735  0.62947221  1
  O  O419  1  0.12160070  0.12196576  0.38707570  1
  O  O420  1  0.12962806  0.13236097  0.88139264  1
  O  O421  1  0.12220262  0.63971954  0.37120247  1
  O  O422  1  0.13350897  0.63530118  0.88158338  1
  O  O423  1  0.63657943  0.13194488  0.37161511  1
  O  O424  1  0.63231843  0.13139320  0.87619897  1
  O  O425  1  0.62874085  0.62294280  0.38586380  1
  O  O426  1  0.62949089  0.64028830  0.86638745  1
