# generated using pymatgen
data_V85Zn86O256
_symmetry_space_group_name_H-M   'P 1'
_cell_length_a   16.92138399
_cell_length_b   16.92447143
_cell_length_c   16.91522843
_cell_angle_alpha   90.00832274
_cell_angle_beta   89.98226297
_cell_angle_gamma   89.99753383
_symmetry_Int_Tables_number   1
_chemical_formula_structural   V85Zn86O256
_chemical_formula_sum   'V85 Zn86 O256'
_cell_volume   4844.27552273
_cell_formula_units_Z   1
loop_
 _symmetry_equiv_pos_site_id
 _symmetry_equiv_pos_as_xyz
  1  'x, y, z'
loop_
 _atom_site_type_symbol
 _atom_site_label
 _atom_site_symmetry_multiplicity
 _atom_site_fract_x
 _atom_site_fract_y
 _atom_site_fract_z
 _atom_site_occupancy
  V  V0  1  0.62605962  0.25470262  0.87624181  1
  V  V1  1  0.50489830  0.88187027  0.87619184  1
  V  V2  1  0.87566154  0.00340967  0.87584704  1
  V  V3  1  0.91067862  0.82818224  0.55001796  1
  V  V4  1  0.12659488  0.12005095  -0.00897633  1
  V  V5  1  0.12457490  0.37578529  0.74872942  1
  V  V6  1  0.12345386  0.12500268  0.49829314  1
  V  V7  1  0.00099177  0.88166337  0.87386832  1
  V  V8  1  0.62708749  0.62452466  -0.00446018  1
  V  V9  1  0.49845972  0.37749555  0.37378182  1
  V  V10  1  0.12400290  0.00026632  0.62434724  1
  V  V11  1  0.25049514  0.50058202  0.74999458  1
  V  V12  1  0.62413124  0.11456975  0.00497408  1
  V  V13  1  0.24767991  0.25002515  0.49942244  1
  V  V14  1  0.75147899  0.74752045  -0.00678464  1
  V  V15  1  0.62767996  0.75024819  0.86562018  1
  V  V16  1  0.74648151  0.00265129  0.24464680  1
  V  V17  1  0.88005156  0.87784767  -0.00135374  1
  V  V18  1  0.88219527  0.25409950  0.12512126  1
  V  V19  1  -0.00091552  0.25010688  0.74679762  1
  V  V20  1  0.50198063  0.37707606  0.87231194  1
  V  V21  1  0.62649743  0.87911663  0.24612614  1
  V  V22  1  0.50127723  0.75143411  0.24999219  1
  V  V23  1  0.74872798  0.12903504  0.37808579  1
  V  V24  1  0.75498573  0.25425853  0.00236541  1
  V  V25  1  0.87263945  -0.00656854  0.37618609  1
  V  V26  1  0.50272540  0.24610872  0.74804231  1
  V  V27  1  0.36948771  0.62698713  0.25872666  1
  V  V28  1  0.62753918  0.62546514  0.50836752  1
  V  V29  1  0.86957470  0.62191814  0.24584995  1
  V  V30  1  0.25392481  0.74280349  0.48773689  1
  V  V31  1  0.24861384  0.50054192  0.25937368  1
  V  V32  1  0.12208242  0.87083372  0.75061230  1
  V  V33  1  0.12514855  -0.00234157  0.12416382  1
  V  V34  1  0.11777163  0.51550022  0.62955058  1
  V  V35  1  0.37660681  0.50140947  0.87546687  1
  V  V36  1  0.75079763  0.37968663  0.13237431  1
  V  V37  1  0.24657280  0.62595448  0.87816668  1
  V  V38  1  0.00549465  0.74603638  0.24897488  1
  V  V39  1  0.50217791  0.00388533  0.51356808  1
  V  V40  1  0.50346591  0.75547457  0.75026930  1
  V  V41  1  -0.00548786  0.00091060  0.50018029  1
  V  V42  1  0.37977913  0.87905570  0.00045561  1
  V  V43  1  0.00526879  0.87056665  0.37107133  1
  V  V44  1  0.50319582  0.11410602  0.12235063  1
  V  V45  1  0.11943043  0.24899676  0.37012565  1
  V  V46  1  0.37461523  0.75044578  0.12385634  1
  V  V47  1  0.86098696  0.25226388  0.62283478  1
  V  V48  1  0.25139567  0.24503863  -0.00752679  1
  V  V49  1  0.62321240  0.47885494  0.62647298  1
  V  V50  1  0.62683674  0.75037676  0.37481981  1
  V  V51  1  0.37651438  0.00019377  0.37944754  1
  V  V52  1  0.50106837  0.62320707  0.12563318  1
  V  V53  1  0.62578000  0.12590380  0.51316260  1
  V  V54  1  0.73493480  -0.00015475  0.74884312  1
  V  V55  1  0.86267710  0.49219147  0.89438527  1
  V  V56  1  0.24681488  0.74752573  0.00027788  1
  V  V57  1  0.12164740  0.62601859  0.48103418  1
  V  V58  1  0.37286573  0.25445391  0.12563660  1
  V  V59  1  0.00137245  0.12086524  0.11934137  1
  V  V60  1  0.49967910  0.88051815  0.37997502  1
  V  V61  1  0.25407697  0.87405247  0.62031022  1
  V  V62  1  0.25034366  0.00603679  0.75397442  1
  V  V63  1  0.37505242  0.12643675  0.25091680  1
  V  V64  1  0.62614609  0.24981582  0.37473316  1
  V  V65  1  0.37529160  0.75204389  0.62276760  1
  V  V66  1  0.37393034  0.00750556  0.87944172  1
  V  V67  1  0.00297836  0.62283353  0.11135708  1
  V  V68  1  0.37732693  0.62649589  0.75117937  1
  V  V69  1  0.86726834  0.49801622  0.36967997  1
  V  V70  1  0.37445295  0.37701718  0.50145769  1
  V  V71  1  0.88280723  0.12855658  0.25061006  1
  V  V72  1  0.37781505  0.24136766  0.62477091  1
  V  V73  1  0.74983277  0.75542793  0.50304268  1
  V  V74  1  0.12769076  0.37116330  0.24408408  1
  V  V75  1  0.86407542  0.37437608  0.50457951  1
  V  V76  1  0.74870151  0.48914784  0.73876721  1
  V  V77  1  0.36950747  0.37788167  0.00459003  1
  V  V78  1  0.11953781  0.74559426  0.87723267  1
  V  V79  1  -0.00093794  0.37384262  0.37270063  1
  V  V80  1  0.73076346  0.88310616  0.62503291  1
  V  V81  1  0.74978395  0.12643111  0.87610772  1
  V  V82  1  0.13453149  0.50041419  0.12079949  1
  V  V83  1  0.00519271  0.48627579  0.00132587  1
  V  V84  1  0.74637163  0.87911593  0.12054613  1
  Zn  Zn85  1  0.87339001  0.12614966  0.74830532  1
  Zn  Zn86  1  0.12890892  0.87040400  0.25033613  1
  Zn  Zn87  1  0.62821887  0.38673726  0.25500141  1
  Zn  Zn88  1  0.37170795  0.50613092  0.38095746  1
  Zn  Zn89  1  0.37444912  0.12543343  0.75187265  1
  Zn  Zn90  1  0.63221915  0.50520481  0.13172794  1
  Zn  Zn91  1  0.50224773  0.25375991  0.24595946  1
  Zn  Zn92  1  -0.00097001  0.37132450  0.87759767  1
  Zn  Zn93  1  -0.00324116  0.50336836  0.50140163  1
  Zn  Zn94  1  0.49801825  0.50353377  0.50134420  1
  Zn  Zn95  1  -0.05284586  0.70297998  0.68483299  1
  Zn  Zn96  1  0.12904799  0.24569288  0.87009587  1
  Zn  Zn97  1  0.50535381  0.62457185  0.62783950  1
  Zn  Zn98  1  0.24913523  0.37805270  0.62385060  1
  Zn  Zn99  1  0.24938489  0.12296928  0.37321477  1
  Zn  Zn100  1  0.50203508  0.49831992  0.00164519  1
  Zn  Zn101  1  0.74516225  0.61871770  0.36903273  1
  Zn  Zn102  1  0.87730701  0.74899237  0.12041029  1
  Zn  Zn103  1  -0.00333411  0.12741437  0.62394243  1
  Zn  Zn104  1  0.24938401  0.87543264  0.12671748  1
  Zn  Zn105  1  0.86792254  0.60948737  0.75865223  1
  Zn  Zn106  1  0.24932950  -0.00307817  0.25136771  1
  Zn  Zn107  1  0.19131264  0.18670523  0.18364839  1
  Zn  Zn108  1  0.18714570  0.18740241  0.68365040  1
  Zn  Zn109  1  0.18661097  0.68454757  0.18656021  1
  Zn  Zn110  1  0.18828721  0.68879568  0.69048341  1
  Zn  Zn111  1  0.68836150  0.19070011  0.18948408  1
  Zn  Zn112  1  0.68775285  0.19171306  0.69395506  1
  Zn  Zn113  1  0.68974900  0.69134769  0.18246891  1
  Zn  Zn114  1  0.72930158  0.67002079  0.67627917  1
  Zn  Zn115  1  0.30934220  0.31390569  0.31320043  1
  Zn  Zn116  1  0.31396161  0.31401891  0.81273388  1
  Zn  Zn117  1  0.31583894  0.81804905  0.31056936  1
  Zn  Zn118  1  0.31253671  0.81692731  0.81274601  1
  Zn  Zn119  1  0.81360912  0.30932959  0.31199489  1
  Zn  Zn120  1  0.81240047  0.32015758  0.81123932  1
  Zn  Zn121  1  0.81615329  0.81011031  0.30951544  1
  Zn  Zn122  1  0.81006523  0.81560008  0.80307071  1
  Zn  Zn123  1  0.18545289  0.43876924  0.43821318  1
  Zn  Zn124  1  0.18823577  0.43401229  0.93640608  1
  Zn  Zn125  1  0.18866344  0.93513488  0.43760052  1
  Zn  Zn126  1  0.19074963  0.93737741  0.94084523  1
  Zn  Zn127  1  0.68651118  0.43786986  0.43953160  1
  Zn  Zn128  1  0.68448423  0.43378569  0.94834898  1
  Zn  Zn129  1  0.68514187  0.94104796  0.43985209  1
  Zn  Zn130  1  0.68873532  0.93614690  0.93479428  1
  Zn  Zn131  1  0.31057400  0.06321821  0.06364720  1
  Zn  Zn132  1  0.31275586  0.06230128  0.56026614  1
  Zn  Zn133  1  0.31235704  0.56395811  0.06587728  1
  Zn  Zn134  1  0.30944573  0.56561979  0.56473150  1
  Zn  Zn135  1  0.81333443  0.06429772  0.06091901  1
  Zn  Zn136  1  0.80973362  0.06274240  0.56390063  1
  Zn  Zn137  1  0.81549892  0.56410602  0.05855473  1
  Zn  Zn138  1  0.81628926  0.56514959  0.56407960  1
  Zn  Zn139  1  0.43745274  0.43977646  0.19037758  1
  Zn  Zn140  1  0.43993090  0.43346252  0.68722039  1
  Zn  Zn141  1  0.43593900  0.93814483  0.18984600  1
  Zn  Zn142  1  0.43646796  0.93558468  0.69174206  1
  Zn  Zn143  1  0.93969684  0.43593214  0.18794721  1
  Zn  Zn144  1  0.93955563  0.43927430  0.68786411  1
  Zn  Zn145  1  0.93690308  0.93853336  0.18647582  1
  Zn  Zn146  1  0.93656410  0.94196972  0.69451566  1
  Zn  Zn147  1  0.06219501  0.06065686  0.31053581  1
  Zn  Zn148  1  0.06012755  0.06276828  0.80992338  1
  Zn  Zn149  1  0.05433122  0.55681819  0.30676391  1
  Zn  Zn150  1  0.05271417  0.56717017  0.81496953  1
  Zn  Zn151  1  0.56234383  0.06507808  0.31088676  1
  Zn  Zn152  1  0.55976809  0.06765509  0.81700742  1
  Zn  Zn153  1  0.56306585  0.56158798  0.31227595  1
  Zn  Zn154  1  0.56889970  0.56346330  0.80857275  1
  Zn  Zn155  1  0.44114498  0.18748692  0.43818219  1
  Zn  Zn156  1  0.44082905  0.18810792  0.94136295  1
  Zn  Zn157  1  0.44172931  0.68941591  0.44078165  1
  Zn  Zn158  1  0.43932431  0.68929000  0.93778619  1
  Zn  Zn159  1  0.93586517  0.18919754  0.43877743  1
  Zn  Zn160  1  0.94033140  0.18926422  0.93796117  1
  Zn  Zn161  1  0.94079753  0.68173596  0.43065728  1
  Zn  Zn162  1  0.91589323  0.70313436  0.89350868  1
  Zn  Zn163  1  0.06653575  0.30616680  0.06588017  1
  Zn  Zn164  1  0.05904098  0.31811327  0.56354013  1
  Zn  Zn165  1  0.06096231  0.81205230  0.06066023  1
  Zn  Zn166  1  0.08025217  0.81120519  0.55548752  1
  Zn  Zn167  1  0.56211694  0.31062560  0.06213299  1
  Zn  Zn168  1  0.55844837  0.30494796  0.55691502  1
  Zn  Zn169  1  0.56396073  0.81206462  0.05939037  1
  Zn  Zn170  1  0.56033501  0.81486231  0.56181786  1
  O  O171  1  0.11808872  0.12040946  0.11888366  1
  O  O172  1  0.12223922  0.11679813  0.61656755  1
  O  O173  1  0.11549201  0.61169332  0.13010782  1
  O  O174  1  0.12716863  0.61767930  0.62254346  1
  O  O175  1  0.61152120  0.13232087  0.12161632  1
  O  O176  1  0.63023515  0.13359464  0.61163156  1
  O  O177  1  0.61758858  0.63026373  0.11523712  1
  O  O178  1  0.63184202  0.62606650  0.61476399  1
  O  O179  1  0.38037605  0.37449662  0.38577854  1
  O  O180  1  0.38071329  0.38295112  0.88230476  1
  O  O181  1  0.39133735  0.88394879  0.37133148  1
  O  O182  1  0.38310785  0.88169619  0.88193598  1
  O  O183  1  0.88029516  0.37656246  0.38118553  1
  O  O184  1  0.88174891  0.38857480  0.87392792  1
  O  O185  1  0.88174205  0.88837541  0.36915093  1
  O  O186  1  0.88250331  0.88269889  0.87815422  1
  O  O187  1  0.26153283  0.00070396  0.37721220  1
  O  O188  1  0.26026324  -0.00926271  0.86479505  1
  O  O189  1  0.25120218  0.49927707  0.36409837  1
  O  O190  1  0.25492281  0.50627208  0.87001651  1
  O  O191  1  0.75659033  0.00717751  0.36949252  1
  O  O192  1  0.75590378  0.00399928  0.86773442  1
  O  O193  1  0.76223425  0.49939371  0.37748332  1
  O  O194  1  0.76114910  0.49282071  0.88691075  1
  O  O195  1  0.23979805  0.50469435  0.13466017  1
  O  O196  1  0.23901015  0.50105696  0.63321789  1
  O  O197  1  0.24037874  0.99802368  0.12790052  1
  O  O198  1  0.24678661  0.99094094  0.62696266  1
  O  O199  1  0.75551591  0.48175898  0.11761201  1
  O  O200  1  0.73837922  0.49410426  0.63094266  1
  O  O201  1  0.75612462  0.99311586  0.13344534  1
  O  O202  1  0.74911395  0.99154778  0.63203249  1
  O  O203  1  0.00960103  0.37855008  0.26379502  1
  O  O204  1  0.00855770  0.36856031  0.75011331  1
  O  O205  1  -0.00058526  0.86664784  0.25478954  1
  O  O206  1  0.01021441  0.87844457  0.75907346  1
  O  O207  1  0.50141605  0.37338865  0.25999296  1
  O  O208  1  0.49283627  0.36376541  0.76491264  1
  O  O209  1  0.50759568  0.87107759  0.25523909  1
  O  O210  1  0.49732080  0.86337289  0.75917034  1
  O  O211  1  0.49178023  0.12858071  0.24095178  1
  O  O212  1  0.49477594  0.14083820  0.75648989  1
  O  O213  1  0.49500563  0.63361465  0.24371381  1
  O  O214  1  0.49604628  0.63731909  0.74937738  1
  O  O215  1  0.98744816  0.12070135  0.24453745  1
  O  O216  1  0.99574676  0.13338538  0.74535104  1
  O  O217  1  0.99062401  0.62941706  0.24179184  1
  O  O218  1  0.98716577  0.61397208  0.74022737  1
  O  O219  1  0.37038163  0.25609521  0.00522464  1
  O  O220  1  0.36855429  0.25480666  0.50432438  1
  O  O221  1  0.36986060  0.75706680  0.00454679  1
  O  O222  1  0.36482045  0.74359890  0.50945842  1
  O  O223  1  0.86732640  0.24320721  0.01157525  1
  O  O224  1  0.87902984  0.26072686  0.51160083  1
  O  O225  1  0.86689830  0.75804457  -0.00921477  1
  O  O226  1  0.86465465  0.75391023  0.48793516  1
  O  O227  1  0.13074788  0.24789590  0.49512160  1
  O  O228  1  0.13501167  0.24178646  0.99847033  1
  O  O229  1  0.13857713  0.73516765  0.49691623  1
  O  O230  1  0.13623998  0.75599745  0.99114404  1
  O  O231  1  0.61965925  0.23512749  0.48857190  1
  O  O232  1  0.63163619  0.24229625  0.99277293  1
  O  O233  1  0.62991334  0.74631993  0.49382968  1
  O  O234  1  0.63177478  0.74419569  0.99150612  1
  O  O235  1  0.48841467  0.24274704  0.12529344  1
  O  O236  1  0.49120533  0.25618004  0.63581670  1
  O  O237  1  0.49587735  0.74246403  0.12913097  1
  O  O238  1  0.49346855  0.75196118  0.63224110  1
  O  O239  1  0.99083711  0.23867330  0.12390391  1
  O  O240  1  0.99361767  0.25086186  0.63454322  1
  O  O241  1  0.99808097  0.73977269  0.12688800  1
  O  O242  1  0.98510372  0.77224785  0.60612472  1
  O  O243  1  0.01187223  0.25524664  0.37837115  1
  O  O244  1  0.00165701  0.25138670  0.86086235  1
  O  O245  1  -0.00605973  0.75964440  0.36446572  1
  O  O246  1  0.01446424  0.76451373  0.88416880  1
  O  O247  1  0.50680394  0.26009483  0.37373509  1
  O  O248  1  0.50693492  0.25649156  0.87286831  1
  O  O249  1  0.51047617  0.75981675  0.37391331  1
  O  O250  1  0.50490162  0.75852764  0.86837419  1
  O  O251  1  0.24271892  0.13281353  0.49679171  1
  O  O252  1  0.24053825  0.13294616  1.00340474  1
  O  O253  1  0.24193461  0.63560483  0.49948172  1
  O  O254  1  0.25741316  0.63792109  0.99301304  1
  O  O255  1  0.73583717  0.11585115  0.49081564  1
  O  O256  1  0.74376555  0.13503719  0.99772727  1
  O  O257  1  0.74411692  0.63728755  0.49395665  1
  O  O258  1  0.74193539  0.63614147  1.00455134  1
  O  O259  1  0.26293705  0.36735375  -0.00273866  1
  O  O260  1  0.25588758  0.36788054  0.49980267  1
  O  O261  1  0.26154447  0.86348947  0.00068626  1
  O  O262  1  0.24047704  0.86086743  0.51266457  1
  O  O263  1  0.74857094  0.36011824  0.01267900  1
  O  O264  1  0.76566201  0.37225751  0.49441424  1
  O  O265  1  0.75818311  0.87154349  0.00467364  1
  O  O266  1  0.74774184  0.87377118  0.51131739  1
  O  O267  1  0.13094755  0.49262143  0.24445602  1
  O  O268  1  0.12807791  0.49666371  0.74264581  1
  O  O269  1  0.12671419  1.00031789  0.23773892  1
  O  O270  1  0.13120890  0.99140374  0.74555421  1
  O  O271  1  0.62716522  0.50103838  0.24504186  1
  O  O272  1  0.62602655  0.49744164  0.73209238  1
  O  O273  1  0.63870124  0.99623310  0.25485185  1
  O  O274  1  0.63543182  1.00518826  0.75783820  1
  O  O275  1  0.37624381  0.00820753  0.26207267  1
  O  O276  1  0.36774759  0.00171018  0.75819941  1
  O  O277  1  0.36563971  0.50906036  0.25132407  1
  O  O278  1  0.37147692  0.50543006  0.75365041  1
  O  O279  1  0.86600314  0.00668283  0.25694076  1
  O  O280  1  0.86595947  0.00333842  0.76247030  1
  O  O281  1  0.87961484  0.50816190  0.25688684  1
  O  O282  1  0.85807772  0.48894308  0.75132001  1
  O  O283  1  0.11837915  0.36898616  0.36941689  1
  O  O284  1  0.12529568  0.37215337  0.85992831  1
  O  O285  1  0.10913418  0.88158505  0.37247188  1
  O  O286  1  0.11915682  0.87338169  0.86980778  1
  O  O287  1  0.61821380  0.36727447  0.37854330  1
  O  O288  1  0.61320011  0.36684597  0.88721261  1
  O  O289  1  0.61743146  0.87206406  0.36913685  1
  O  O290  1  0.61343641  0.86579667  0.88270035  1
  O  O291  1  0.38488743  0.12966590  0.13019150  1
  O  O292  1  0.37145573  0.13797401  0.62488900  1
  O  O293  1  0.38257236  0.63217652  0.13314445  1
  O  O294  1  0.37654973  0.63583286  0.63316975  1
  O  O295  1  0.88250987  0.12887564  0.13086232  1
  O  O296  1  0.87422448  0.13982202  0.62357577  1
  O  O297  1  0.88322625  0.62515095  0.12975201  1
  O  O298  1  0.84450130  0.64082744  0.64235561  1
  O  O299  1  0.26538653  0.24480185  0.11366751  1
  O  O300  1  0.25508343  0.25290112  0.61302574  1
  O  O301  1  0.25547732  0.75003276  0.11669363  1
  O  O302  1  0.25692765  0.75526379  0.62014777  1
  O  O303  1  0.75928122  0.25381627  0.12003101  1
  O  O304  1  0.76211973  0.25466798  0.63103973  1
  O  O305  1  0.75482044  0.76004375  0.11124813  1
  O  O306  1  0.74397233  0.76675202  0.61131840  1
  O  O307  1  0.24047633  0.24924256  0.38565068  1
  O  O308  1  0.25126651  0.25056589  0.88692649  1
  O  O309  1  0.25943656  0.75605971  0.39003246  1
  O  O310  1  0.24214421  0.74794516  0.88032817  1
  O  O311  1  0.74485750  0.23678622  0.37311508  1
  O  O312  1  0.74539148  0.24864848  0.88219033  1
  O  O313  1  0.73824250  0.75767719  0.38229513  1
  O  O314  1  0.73990768  0.76109972  0.88448808  1
  O  O315  1  0.01103996  0.12875145  0.00891789  1
  O  O316  1  0.00509035  0.11707123  0.50006878  1
  O  O317  1  -0.00206573  0.61101762  0.01167441  1
  O  O318  1  0.01606927  0.62503757  0.49758964  1
  O  O319  1  0.50769465  0.12663999  0.01372689  1
  O  O320  1  0.51192316  0.11495759  0.49803280  1
  O  O321  1  0.50639677  0.62624563  0.00887485  1
  O  O322  1  0.51135617  0.62421939  0.50573066  1
  O  O323  1  0.49022546  0.37585800  0.49276921  1
  O  O324  1  0.48875886  0.37520067  0.99178986  1
  O  O325  1  0.50745934  0.89136754  0.49207319  1
  O  O326  1  0.48925032  0.87015303  0.99191484  1
  O  O327  1  0.99354309  0.37794060  0.48745804  1
  O  O328  1  1.00619498  0.38165992  1.00238085  1
  O  O329  1  0.99543218  0.87909280  0.49297757  1
  O  O330  1  0.98643870  0.87473494  0.99437850  1
  O  O331  1  0.49675193  0.48934065  0.37984207  1
  O  O332  1  0.49637513  0.49353686  0.87493261  1
  O  O333  1  0.49637022  0.99647798  0.38062061  1
  O  O334  1  0.49193528  0.98889291  0.86987909  1
  O  O335  1  0.98765699  0.49202096  0.37867366  1
  O  O336  1  1.00158784  0.49387902  0.89025952  1
  O  O337  1  0.99195784  0.99500433  0.38089847  1
  O  O338  1  0.99267133  0.99028053  0.87231547  1
  O  O339  1  0.00557364  0.01222501  0.12775196  1
  O  O340  1  0.00337467  -0.00016261  0.61640499  1
  O  O341  1  0.00923544  0.50195084  0.11975655  1
  O  O342  1  0.01539410  0.49363257  0.61889649  1
  O  O343  1  0.49791857  0.01499033  0.12898941  1
  O  O344  1  0.49208009  -0.00275573  0.61215029  1
  O  O345  1  0.49800174  0.51517928  0.12450436  1
  O  O346  1  0.51225002  0.50097705  0.62375322  1
  O  O347  1  0.23992433  0.38468622  0.25345585  1
  O  O348  1  0.24443864  0.38319845  0.74822935  1
  O  O349  1  0.24643138  0.87752081  0.24596305  1
  O  O350  1  0.24458867  0.88259658  0.73964764  1
  O  O351  1  0.74831066  0.36782392  0.23654241  1
  O  O352  1  0.73533983  0.39160487  0.76451829  1
  O  O353  1  0.74808436  0.88149867  0.24089119  1
  O  O354  1  0.74896699  0.88337830  0.73490732  1
  O  O355  1  0.26403246  0.12267474  0.25092096  1
  O  O356  1  0.24974962  0.11018102  0.74447121  1
  O  O357  1  0.25976990  0.61859009  0.24731988  1
  O  O358  1  0.25697576  0.62086773  0.75798154  1
  O  O359  1  0.75708597  0.11816818  0.25560952  1
  O  O360  1  0.75178003  0.11906242  0.75858982  1
  O  O361  1  0.76467703  0.63578382  0.24997086  1
  O  O362  1  0.74102273  0.59400525  0.76340547  1
  O  O363  1  0.37663777  0.12046499  0.36698358  1
  O  O364  1  0.38036516  0.11088478  0.87893358  1
  O  O365  1  0.38438438  0.62591213  0.36257483  1
  O  O366  1  0.37054370  0.62046960  0.87012535  1
  O  O367  1  0.86925260  0.11889419  0.36947933  1
  O  O368  1  0.86869072  0.11903633  0.87605674  1
  O  O369  1  0.87276800  0.61470339  0.36571158  1
  O  O370  1  0.88044003  0.59488273  0.87818198  1
  O  O371  1  0.12058224  0.38026983  0.13843121  1
  O  O372  1  0.12812940  0.38400122  0.63423422  1
  O  O373  1  0.12318949  0.88556638  0.12409006  1
  O  O374  1  0.13209841  0.87970541  0.63311867  1
  O  O375  1  0.63922346  0.37186382  0.12647941  1
  O  O376  1  0.62204234  0.38091054  0.61696415  1
  O  O377  1  0.63800490  0.87141862  0.12758389  1
  O  O378  1  0.63192623  0.88044302  0.62445546  1
  O  O379  1  0.13418865  0.25695083  0.25855639  1
  O  O380  1  0.11957262  0.25716057  0.74738125  1
  O  O381  1  0.11072266  0.74951859  0.24480791  1
  O  O382  1  0.13105368  0.76323591  0.75895051  1
  O  O383  1  0.62308875  0.25137103  0.26396891  1
  O  O384  1  0.61821105  0.24767643  0.76615681  1
  O  O385  1  0.62197737  0.75628077  0.25692001  1
  O  O386  1  0.62011657  0.74311333  0.76249329  1
  O  O387  1  0.37453489  0.24429780  0.24360885  1
  O  O388  1  0.37904671  0.24842028  0.74190126  1
  O  O389  1  0.38134752  0.74525672  0.24430017  1
  O  O390  1  0.38222508  0.74633413  0.74583685  1
  O  O391  1  0.87088463  0.23803675  0.24080333  1
  O  O392  1  0.88002434  0.25407100  0.73895291  1
  O  O393  1  0.88578148  0.74241751  0.24542945  1
  O  O394  1  0.88086087  0.73285129  0.78157942  1
  O  O395  1  0.37383031  0.49246382  0.50117215  1
  O  O396  1  0.37584120  0.49394577  0.99592770  1
  O  O397  1  0.38846389  1.00915150  0.48897744  1
  O  O398  1  0.36809453  0.98939090  0.99374550  1
  O  O399  1  0.87527583  0.49019779  0.49661730  1
  O  O400  1  0.88485463  0.49276733  0.99872493  1
  O  O401  1  0.88537938  1.00539393  0.49220446  1
  O  O402  1  0.86714126  0.99261126  0.98563005  1
  O  O403  1  0.13060516  0.00783831  0.01047334  1
  O  O404  1  0.11367522  0.00209572  0.50303207  1
  O  O405  1  0.12188193  0.49304514  0.01107215  1
  O  O406  1  0.12860787  0.51404633  0.50930849  1
  O  O407  1  0.63354474  0.01517290  -0.00221460  1
  O  O408  1  0.61280022  0.01286465  0.49789217  1
  O  O409  1  0.62208577  0.51041508  0.00923491  1
  O  O410  1  0.62628448  0.50687788  0.51197554  1
  O  O411  1  0.38099493  0.36777204  0.11718096  1
  O  O412  1  0.37287703  0.36689570  0.61447111  1
  O  O413  1  0.37659949  0.86906427  0.11761300  1
  O  O414  1  0.36734539  0.86238411  0.62956442  1
  O  O415  1  0.86711277  0.36298664  0.13240511  1
  O  O416  1  0.87960828  0.36836239  0.61155813  1
  O  O417  1  0.86749507  0.87468987  0.11524293  1
  O  O418  1  0.86380271  0.88242394  0.62364478  1
  O  O419  1  0.12557277  0.13247740  0.37829655  1
  O  O420  1  0.12114752  0.12369552  0.88685420  1
  O  O421  1  0.12290624  0.61700317  0.38280710  1
  O  O422  1  0.13131786  0.63634041  0.86973676  1
  O  O423  1  0.63200968  0.13050533  0.37883087  1
  O  O424  1  0.62985934  0.13348764  0.88585569  1
  O  O425  1  0.62544977  0.63479399  0.38396504  1
  O  O426  1  0.61732574  0.63352314  0.88834966  1
