# generated using pymatgen
data_V85Zn86O256
_symmetry_space_group_name_H-M   'P 1'
_cell_length_a   16.90915270
_cell_length_b   16.90982600
_cell_length_c   16.90998666
_cell_angle_alpha   90.04168819
_cell_angle_beta   89.97313335
_cell_angle_gamma   90.00231240
_symmetry_Int_Tables_number   1
_chemical_formula_structural   V85Zn86O256
_chemical_formula_sum   'V85 Zn86 O256'
_cell_volume   4835.08470346
_cell_formula_units_Z   1
loop_
 _symmetry_equiv_pos_site_id
 _symmetry_equiv_pos_as_xyz
  1  'x, y, z'
loop_
 _atom_site_type_symbol
 _atom_site_label
 _atom_site_symmetry_multiplicity
 _atom_site_fract_x
 _atom_site_fract_y
 _atom_site_fract_z
 _atom_site_occupancy
  V  V0  1  0.75147440  0.50027010  0.74852073  1
  V  V1  1  0.63089688  0.12890028  0.00141754  1
  V  V2  1  0.86685170  0.37885419  0.00281925  1
  V  V3  1  0.75209842  0.62615165  0.87471412  1
  V  V4  1  0.74862876  0.86752578  0.62423199  1
  V  V5  1  0.62439078  0.49865837  0.62196179  1
  V  V6  1  0.62222765  0.12074889  0.49409613  1
  V  V7  1  -0.00371171  0.49999376  0.50533265  1
  V  V8  1  0.24940223  0.12511134  0.87566670  1
  V  V9  1  0.37213336  -0.00214510  0.87541744  1
  V  V10  1  -0.00191089  0.37283597  0.37894584  1
  V  V11  1  0.26169028  0.50090582  0.24899524  1
  V  V12  1  0.50014820  0.62393843  0.13552419  1
  V  V13  1  -0.00746437  -0.00797103  0.00046173  1
  V  V14  1  -0.00159769  0.23206456  0.74393751  1
  V  V15  1  0.49733413  0.86814086  0.87324796  1
  V  V16  1  0.11926146  0.13143792  0.49815107  1
  V  V17  1  0.62880348  -0.00109157  0.13193321  1
  V  V18  1  0.87879348  0.62520961  0.74056461  1
  V  V19  1  0.49721136  0.38206943  0.37308456  1
  V  V20  1  0.12535668  0.12624287  0.00246754  1
  V  V21  1  0.87428159  0.49813983  0.37468457  1
  V  V22  1  0.49234100  0.50265170  0.49624198  1
  V  V23  1  0.25104031  0.87380009  0.12909819  1
  V  V24  1  0.75951762  0.37620929  0.61744857  1
  V  V25  1  0.49955900  0.62646437  0.62866542  1
  V  V26  1  0.63111243  0.63008087  0.49949924  1
  V  V27  1  0.37943372  0.75073247  0.63108492  1
  V  V28  1  0.39019196  0.00549666  0.37798071  1
  V  V29  1  0.87412121  -0.00013050  0.37197261  1
  V  V30  1  0.86838633  0.25540333  0.12568276  1
  V  V31  1  0.38575224  0.87905915  0.49500833  1
  V  V32  1  0.49541911  0.75845890  0.25591627  1
  V  V33  1  0.24263769  0.00141485  0.74533215  1
  V  V34  1  0.24652236  0.87856020  0.62340388  1
  V  V35  1  0.26333222  0.62028167  0.37349794  1
  V  V36  1  0.12348056  0.87416874  0.75345337  1
  V  V37  1  0.11941520  0.37417072  0.74562263  1
  V  V38  1  0.62113460  0.87453755  0.75135072  1
  V  V39  1  0.24475471  0.61944971  0.88044969  1
  V  V40  1  0.00070620  0.74671480  0.74355976  1
  V  V41  1  0.75568044  0.75845159  -0.00219447  1
  V  V42  1  0.00407114  0.24902715  0.25253274  1
  V  V43  1  0.37033812  0.26787529  0.11789269  1
  V  V44  1  0.68070215  0.18984671  0.83167677  1
  V  V45  1  0.25589243  0.49730719  0.75158781  1
  V  V46  1  0.87823109  0.23429051  0.62500416  1
  V  V47  1  0.75902722  0.25230964  0.49366120  1
  V  V48  1  0.86817864  0.12155301  0.24781161  1
  V  V49  1  -0.00746242  0.74765361  0.25369014  1
  V  V50  1  0.49253944  0.12534269  0.12556205  1
  V  V51  1  0.49625160  0.12280747  0.61764672  1
  V  V52  1  0.00004754  0.50614242  -0.00104125  1
  V  V53  1  0.49948685  0.50210712  -0.00325916  1
  V  V54  1  0.49863796  0.24795477  0.75394201  1
  V  V55  1  0.49712877  0.37774643  0.87576252  1
  V  V56  1  0.24880029  0.24596428  0.47744991  1
  V  V57  1  0.75607975  0.63023692  0.37243020  1
  V  V58  1  0.12048550  0.62457903  0.50660857  1
  V  V59  1  0.00429320  0.00174255  0.51569659  1
  V  V60  1  0.12743219  0.50031189  0.12525690  1
  V  V61  1  0.12234071  0.24970737  0.87521038  1
  V  V62  1  0.62803837  0.75797839  0.37580948  1
  V  V63  1  0.63100486  0.37602406  0.23974857  1
  V  V64  1  0.12447628  0.74811357  0.37400422  1
  V  V65  1  0.24320451  0.74364150  0.00276169  1
  V  V66  1  0.37339250  0.87229678  0.00170902  1
  V  V67  1  0.75523939  0.50223069  0.24217987  1
  V  V68  1  0.37892361  0.62583492  0.75906496  1
  V  V69  1  0.62424279  0.25318770  0.37330870  1
  V  V70  1  0.86510928  0.00455266  0.86509785  1
  V  V71  1  0.12697311  0.00181368  0.12791229  1
  V  V72  1  0.87651264  0.75025680  0.12202586  1
  V  V73  1  0.00167201  0.62458234  0.12958471  1
  V  V74  1  0.62801692  0.37343858  0.75220014  1
  V  V75  1  0.25053110  0.75019743  0.49962616  1
  V  V76  1  0.37278688  0.12315448  0.74705741  1
  V  V77  1  0.50020197  -0.00169530  0.00165369  1
  V  V78  1  0.24728350  0.00627065  0.26502672  1
  V  V79  1  0.12713837  0.37622775  0.25263375  1
  V  V80  1  0.62068722  -0.00269058  0.62038290  1
  V  V81  1  0.75541210  0.87868757  0.13150095  1
  V  V82  1  0.62095096  0.74975253  0.87297096  1
  V  V83  1  0.24915084  0.37031481  0.62040994  1
  V  V84  1  0.87247159  0.87139908  0.50059411  1
  Zn  Zn85  1  0.74497926  0.25589414  -0.00024942  1
  Zn  Zn86  1  0.37065816  0.13239576  0.25473721  1
  Zn  Zn87  1  0.62661050  0.62651290  0.00295318  1
  Zn  Zn88  1  0.37137082  0.37862536  0.49452694  1
  Zn  Zn89  1  0.37224716  0.74482967  0.13249855  1
  Zn  Zn90  1  0.33373193  0.43061563  0.94235061  1
  Zn  Zn91  1  0.49830806  0.25304748  0.24728299  1
  Zn  Zn92  1  0.24813207  0.26708163  0.00428409  1
  Zn  Zn93  1  0.12441510  0.87418615  0.25396391  1
  Zn  Zn94  1  0.62663660  0.88054758  0.25571959  1
  Zn  Zn95  1  0.37442502  0.25137452  0.61940105  1
  Zn  Zn96  1  0.11986288  0.74506462  0.88009715  1
  Zn  Zn97  1  0.74689424  0.11946687  0.36878497  1
  Zn  Zn98  1  -0.00279837  0.37481222  0.87610212  1
  Zn  Zn99  1  0.00124893  0.87709539  0.37705028  1
  Zn  Zn100  1  0.12150306  0.50349490  0.62630985  1
  Zn  Zn101  1  0.00013719  0.12587675  0.12734827  1
  Zn  Zn102  1  0.63188603  0.49971925  0.12094841  1
  Zn  Zn103  1  0.87433510  0.74734489  0.62035963  1
  Zn  Zn104  1  0.74729365  0.01250804  0.75032674  1
  Zn  Zn105  1  -0.01000628  0.86925916  0.87855526  1
  Zn  Zn106  1  0.87690711  0.49988500  0.87383793  1
  Zn  Zn107  1  0.19085189  0.19048404  0.18985218  1
  Zn  Zn108  1  0.18116791  0.18496401  0.67978366  1
  Zn  Zn109  1  0.18479239  0.68339017  0.19083708  1
  Zn  Zn110  1  0.19066723  0.68882418  0.68911105  1
  Zn  Zn111  1  0.68706361  0.18805234  0.18516088  1
  Zn  Zn112  1  0.68653972  0.18922937  0.66757262  1
  Zn  Zn113  1  0.68632798  0.68854670  0.19034295  1
  Zn  Zn114  1  0.68605862  0.68877630  0.68992756  1
  Zn  Zn115  1  0.31706715  0.31917618  0.30411652  1
  Zn  Zn116  1  0.30986741  0.30766467  0.80778042  1
  Zn  Zn117  1  0.31269052  0.81516479  0.31507162  1
  Zn  Zn118  1  0.30858763  0.80853121  0.81431045  1
  Zn  Zn119  1  0.81435128  0.31500543  0.31039029  1
  Zn  Zn120  1  0.82213831  0.31541973  0.80894908  1
  Zn  Zn121  1  0.81321575  0.81350068  0.31246647  1
  Zn  Zn122  1  0.81397298  0.81870891  0.81188065  1
  Zn  Zn123  1  0.18447629  0.43878342  0.43456612  1
  Zn  Zn124  1  0.17178800  0.44041128  0.93563378  1
  Zn  Zn125  1  0.18430188  0.93881205  0.44120022  1
  Zn  Zn126  1  0.18520279  0.93549884  0.93861987  1
  Zn  Zn127  1  0.68591381  0.43991217  0.43439331  1
  Zn  Zn128  1  0.68437440  0.43850506  0.93588835  1
  Zn  Zn129  1  0.69124497  0.93897671  0.43832233  1
  Zn  Zn130  1  0.68974869  0.93918014  0.94155511  1
  Zn  Zn131  1  0.30911509  0.06292429  0.06292485  1
  Zn  Zn132  1  0.30591669  0.06476984  0.55728124  1
  Zn  Zn133  1  0.31643366  0.56399224  0.06905489  1
  Zn  Zn134  1  0.31002210  0.56245289  0.56538299  1
  Zn  Zn135  1  0.81283239  0.06500356  0.06328379  1
  Zn  Zn136  1  0.80732093  0.05688310  0.55724760  1
  Zn  Zn137  1  0.81708677  0.57048431  0.06217526  1
  Zn  Zn138  1  0.81288260  0.56181664  0.55762042  1
  Zn  Zn139  1  0.44342902  0.44000881  0.18663151  1
  Zn  Zn140  1  0.43594345  0.43665368  0.68481559  1
  Zn  Zn141  1  0.43603892  0.93886900  0.19137994  1
  Zn  Zn142  1  0.43692738  0.93721202  0.68585248  1
  Zn  Zn143  1  0.93670951  0.43733902  0.18971282  1
  Zn  Zn144  1  0.93637449  0.43357446  0.68608339  1
  Zn  Zn145  1  0.93959512  0.93408043  0.18916109  1
  Zn  Zn146  1  0.93387684  0.93770276  0.69208966  1
  Zn  Zn147  1  0.05988615  0.06530859  0.31989290  1
  Zn  Zn148  1  0.06046106  0.05782012  0.81676381  1
  Zn  Zn149  1  0.06412210  0.56363652  0.31462710  1
  Zn  Zn150  1  0.06312312  0.56255233  0.81097432  1
  Zn  Zn151  1  0.55936120  0.06534183  0.30862231  1
  Zn  Zn152  1  0.55504296  0.05399301  0.80826446  1
  Zn  Zn153  1  0.56861874  0.56421333  0.31204500  1
  Zn  Zn154  1  0.56351899  0.56129839  0.81304518  1
  Zn  Zn155  1  0.43621371  0.19166417  0.43617914  1
  Zn  Zn156  1  0.43913384  0.18895342  0.93909146  1
  Zn  Zn157  1  0.44127952  0.69170955  0.43983295  1
  Zn  Zn158  1  0.43468656  0.68548690  0.94401280  1
  Zn  Zn159  1  0.93977936  0.18446334  0.43480896  1
  Zn  Zn160  1  0.93811090  0.18571017  0.93994230  1
  Zn  Zn161  1  0.93732454  0.68588742  0.43915392  1
  Zn  Zn162  1  0.93718832  0.68692336  0.93531206  1
  Zn  Zn163  1  0.05755958  0.31792687  0.06607321  1
  Zn  Zn164  1  0.06200500  0.30951212  0.56016363  1
  Zn  Zn165  1  0.06491412  0.81318359  0.06654363  1
  Zn  Zn166  1  0.06222127  0.81499557  0.56475161  1
  Zn  Zn167  1  0.55904883  0.31092124  0.05885929  1
  Zn  Zn168  1  0.56384386  0.31192625  0.56115616  1
  Zn  Zn169  1  0.56506113  0.81047779  0.06452044  1
  Zn  Zn170  1  0.56147438  0.80998297  0.56197056  1
  O  O171  1  0.12517431  0.11849932  0.11964424  1
  O  O172  1  0.13804701  0.11769719  0.60009424  1
  O  O173  1  0.11205480  0.61613914  0.12893761  1
  O  O174  1  0.13424270  0.62394438  0.61115336  1
  O  O175  1  0.61532850  0.12007544  0.11958276  1
  O  O176  1  0.61648455  0.11710229  0.61417043  1
  O  O177  1  0.61487356  0.62587191  0.12304832  1
  O  O178  1  0.62098366  0.62239175  0.61862176  1
  O  O179  1  0.39247161  0.37318739  0.37474061  1
  O  O180  1  0.39056702  0.37303736  0.86091526  1
  O  O181  1  0.37297812  0.88205414  0.38922303  1
  O  O182  1  0.37780049  0.87698135  0.88014968  1
  O  O183  1  0.88545267  0.38388568  0.37225825  1
  O  O184  1  0.87957578  0.37916169  0.88449848  1
  O  O185  1  0.87627887  0.88099562  0.38288055  1
  O  O186  1  0.87554436  0.89344280  0.87424217  1
  O  O187  1  0.25516003  -0.00628157  0.36708236  1
  O  O188  1  0.25371792  0.00480226  0.86839490  1
  O  O189  1  0.24827051  0.51242795  0.36669069  1
  O  O190  1  0.25285364  0.50299200  0.86840782  1
  O  O191  1  0.76678173  0.00263218  0.37968309  1
  O  O192  1  0.75954577  0.00042161  0.87371427  1
  O  O193  1  0.75693032  0.50711055  0.37001008  1
  O  O194  1  0.74966353  0.51019207  0.86775799  1
  O  O195  1  0.24128589  0.51214489  0.14002163  1
  O  O196  1  0.24642013  0.48828722  0.63070331  1
  O  O197  1  0.24133620  0.99351338  0.13164156  1
  O  O198  1  0.25734860  0.99060604  0.63364157  1
  O  O199  1  0.75314184  0.50978943  0.13795829  1
  O  O200  1  0.74463211  0.49242631  0.62600825  1
  O  O201  1  0.74257645  0.99043528  0.11722081  1
  O  O202  1  0.73531466  0.99463040  0.62775496  1
  O  O203  1  0.00597938  0.36988722  0.25813932  1
  O  O204  1  0.01074599  0.37005960  0.74949099  1
  O  O205  1  0.00536054  0.86411071  0.25446329  1
  O  O206  1  0.00844595  0.86996185  0.75207926  1
  O  O207  1  0.51089210  0.37628089  0.25682886  1
  O  O208  1  0.50884971  0.36661670  0.74902108  1
  O  O209  1  0.50541251  0.86173828  0.24532975  1
  O  O210  1  0.51167629  0.87890981  0.75545456  1
  O  O211  1  0.49566365  0.13093062  0.23941448  1
  O  O212  1  0.49512330  0.12973732  0.74033356  1
  O  O213  1  0.50587187  0.63334595  0.24120195  1
  O  O214  1  0.48996696  0.61755468  0.74328075  1
  O  O215  1  0.99445573  0.13379919  0.25024714  1
  O  O216  1  1.01000198  0.13296818  0.74753573  1
  O  O217  1  1.00324444  0.63397194  0.24335942  1
  O  O218  1  0.99039121  0.63096316  0.75241708  1
  O  O219  1  0.37208476  0.24637792  0.01282066  1
  O  O220  1  0.36055757  0.25413250  0.49881505  1
  O  O221  1  0.36401802  0.75722442  0.00618479  1
  O  O222  1  0.37077742  0.76176019  0.50527306  1
  O  O223  1  0.87701988  0.25906870  0.00784257  1
  O  O224  1  0.86400865  0.24556089  0.50160674  1
  O  O225  1  0.86773443  0.74807265  0.00710617  1
  O  O226  1  0.88326802  0.76603266  0.50238239  1
  O  O227  1  0.13398864  0.24168889  0.49709330  1
  O  O228  1  0.12206362  0.24467600  0.99385293  1
  O  O229  1  0.12954468  0.74438206  0.49570538  1
  O  O230  1  0.13852226  0.75266819  1.00084338  1
  O  O231  1  0.63209974  0.24153298  0.49260832  1
  O  O232  1  0.62617726  0.23953405  0.99946032  1
  O  O233  1  0.61796978  0.74060205  0.49112979  1
  O  O234  1  0.63330136  0.75022852  0.98783602  1
  O  O235  1  0.48831039  0.24234664  0.12284661  1
  O  O236  1  0.50141244  0.24202757  0.63481651  1
  O  O237  1  0.50129629  0.74234898  0.13722318  1
  O  O238  1  0.48702758  0.74431942  0.62290725  1
  O  O239  1  0.99149933  0.25008444  0.13672685  1
  O  O240  1  0.99036683  0.25204859  0.63004610  1
  O  O241  1  0.99679805  0.74542388  0.13090089  1
  O  O242  1  0.99710434  0.75402855  0.63872980  1
  O  O243  1  -0.00549412  0.25829245  0.36292406  1
  O  O244  1  0.00927684  0.24780535  0.86728311  1
  O  O245  1  0.00680781  0.74892741  0.36934794  1
  O  O246  1  0.00168779  0.75155393  0.86490950  1
  O  O247  1  0.51148768  0.25807833  0.37427703  1
  O  O248  1  0.49749858  0.25474839  0.86091407  1
  O  O249  1  0.50901694  0.74405881  0.36248712  1
  O  O250  1  0.50784907  0.75625081  0.88220849  1
  O  O251  1  0.24668363  0.14169730  0.49530912  1
  O  O252  1  0.23745078  0.12526964  0.99457750  1
  O  O253  1  0.24530470  0.62839129  0.49054731  1
  O  O254  1  0.25846618  0.63104769  0.99326333  1
  O  O255  1  0.73915170  0.13362931  0.49573347  1
  O  O256  1  0.73493447  0.12589152  1.00260147  1
  O  O257  1  0.73801731  0.62136392  0.49226355  1
  O  O258  1  0.74922756  0.63564661  0.99066645  1
  O  O259  1  0.24836972  0.37934698  -0.00922092  1
  O  O260  1  0.24651140  0.36605896  0.50242370  1
  O  O261  1  0.25403621  0.86909151  0.00876460  1
  O  O262  1  0.25510622  0.87053558  0.50819704  1
  O  O263  1  0.76187739  0.37729950  -0.00335617  1
  O  O264  1  0.74114996  0.36597592  0.50650326  1
  O  O265  1  0.74621248  0.86355682  0.00996753  1
  O  O266  1  0.75994190  0.88168229  0.51142753  1
  O  O267  1  0.13138026  0.49651247  0.24487504  1
  O  O268  1  0.13397634  0.49160389  0.74794309  1
  O  O269  1  0.13166740  0.99991143  0.24641080  1
  O  O270  1  0.13575345  0.99264425  0.75431564  1
  O  O271  1  0.63612666  0.49256534  0.24822663  1
  O  O272  1  0.63082882  0.49223610  0.74166092  1
  O  O273  1  0.62321544  1.00073943  0.23693280  1
  O  O274  1  0.62593482  0.99258121  0.74082815  1
  O  O275  1  0.36670713  -0.00219662  0.26517823  1
  O  O276  1  0.36512345  0.00332287  0.75498651  1
  O  O277  1  0.36083683  0.49718454  0.24507744  1
  O  O278  1  0.36285524  0.50778722  0.74332105  1
  O  O279  1  0.88402902  0.00960505  0.25708641  1
  O  O280  1  0.86856753  0.00580702  0.75961438  1
  O  O281  1  0.86871939  0.49833647  0.26247111  1
  O  O282  1  0.86982095  0.50629075  0.74983761  1
  O  O283  1  0.11446923  0.38255232  0.36098748  1
  O  O284  1  0.11892633  0.36531664  0.86411196  1
  O  O285  1  0.12539751  0.85989715  0.37793912  1
  O  O286  1  0.12766797  0.87039852  0.86227051  1
  O  O287  1  0.61868811  0.36904497  0.36761309  1
  O  O288  1  0.61648018  0.37817978  0.85938894  1
  O  O289  1  0.63166194  0.86314693  0.37665899  1
  O  O290  1  0.62019965  0.87090389  0.86924221  1
  O  O291  1  0.38588086  0.12111784  0.12526456  1
  O  O292  1  0.38159633  0.12453330  0.62670619  1
  O  O293  1  0.39471627  0.62853054  0.12559112  1
  O  O294  1  0.37693367  0.63309289  0.63332635  1
  O  O295  1  0.87985862  0.13191855  0.13102428  1
  O  O296  1  0.86307727  0.13549582  0.62201763  1
  O  O297  1  0.88629065  0.63953770  0.12582053  1
  O  O298  1  0.86572674  0.62784189  0.63603120  1
  O  O299  1  0.26566673  0.24767102  0.12238366  1
  O  O300  1  0.24941505  0.26195481  0.62192417  1
  O  O301  1  0.25045254  0.75505092  0.12375460  1
  O  O302  1  0.26104134  0.75632597  0.61971769  1
  O  O303  1  0.76365277  0.24817119  0.12236519  1
  O  O304  1  0.75654955  0.25809157  0.61343489  1
  O  O305  1  0.75794538  0.75282906  0.11836950  1
  O  O306  1  0.74846992  0.76350262  0.62744961  1
  O  O307  1  0.25203721  0.25594352  0.37936090  1
  O  O308  1  0.23715856  0.24310985  0.87390058  1
  O  O309  1  0.24482663  0.74072640  0.37850486  1
  O  O310  1  0.24783418  0.73981288  0.88553528  1
  O  O311  1  0.74059057  0.25058657  0.37869895  1
  O  O312  1  0.75095410  0.25051398  0.87688632  1
  O  O313  1  0.74311770  0.74123593  0.36985384  1
  O  O314  1  0.74595497  0.74698237  0.88009689  1
  O  O315  1  0.01213742  0.11424770  0.00337664  1
  O  O316  1  0.00861774  0.11713939  0.50036396  1
  O  O317  1  -0.00726323  0.61412215  0.00878767  1
  O  O318  1  0.00874781  0.61499398  0.49615555  1
  O  O319  1  0.50701071  0.11783111  0.00559055  1
  O  O320  1  0.50605823  0.13311942  0.51005875  1
  O  O321  1  0.50498051  0.62053024  0.00910396  1
  O  O322  1  0.50755210  0.61982065  0.50629621  1
  O  O323  1  0.50273367  0.38471906  0.49329917  1
  O  O324  1  0.50507947  0.38341251  0.98655365  1
  O  O325  1  0.48402478  0.87677508  0.50738085  1
  O  O326  1  0.49342370  0.87855881  0.99691435  1
  O  O327  1  1.00813935  0.38156133  0.48595055  1
  O  O328  1  0.99099108  0.38873817  1.00032452  1
  O  O329  1  0.99473810  0.88653164  0.50166422  1
  O  O330  1  1.00968058  0.88846110  0.99843698  1
  O  O331  1  0.50894097  0.49490165  0.38358444  1
  O  O332  1  0.50342893  0.49185005  0.88214994  1
  O  O333  1  0.48870158  0.99656721  0.37130950  1
  O  O334  1  0.49169297  0.98949494  0.88093006  1
  O  O335  1  0.99255094  0.49525463  0.38022117  1
  O  O336  1  0.99963164  0.50063043  0.88486629  1
  O  O337  1  0.98885265  0.99784487  0.38533098  1
  O  O338  1  0.99509397  0.99502329  0.88790018  1
  O  O339  1  0.01218469  -0.00160751  0.11834918  1
  O  O340  1  -0.00677752  -0.00008620  0.61406806  1
  O  O341  1  0.00318292  0.50878190  0.12312057  1
  O  O342  1  -0.00020444  0.49255318  0.60973157  1
  O  O343  1  0.50547438  0.00524373  0.12126778  1
  O  O344  1  0.51027637  0.00834249  0.62789036  1
  O  O345  1  0.50639342  0.51119648  0.12149250  1
  O  O346  1  0.50665486  0.50469811  0.61804609  1
  O  O347  1  0.24211666  0.39216051  0.25593507  1
  O  O348  1  0.24124897  0.37917052  0.74331034  1
  O  O349  1  0.24793544  0.88413706  0.24477204  1
  O  O350  1  0.24557988  0.88112313  0.74416210  1
  O  O351  1  0.74247518  0.38715191  0.25565823  1
  O  O352  1  0.74520246  0.37956045  0.74314365  1
  O  O353  1  0.74681519  0.87044579  0.23578343  1
  O  O354  1  0.73625879  0.87878285  0.74319018  1
  O  O355  1  0.25340473  0.10989630  0.24555981  1
  O  O356  1  0.25141205  0.11781819  0.75246325  1
  O  O357  1  0.24766302  0.61640094  0.26420140  1
  O  O358  1  0.25643977  0.61572356  0.75609542  1
  O  O359  1  0.76338834  0.12828277  0.24936575  1
  O  O360  1  0.73030369  0.13282326  0.75909410  1
  O  O361  1  0.74455166  0.61628124  0.26177273  1
  O  O362  1  0.75474465  0.62020769  0.75548874  1
  O  O363  1  0.38019428  0.11082729  0.37493391  1
  O  O364  1  0.36968261  0.11962647  0.86883469  1
  O  O365  1  0.36159067  0.62961874  0.38156416  1
  O  O366  1  0.36742944  0.63057348  0.86384945  1
  O  O367  1  0.87354478  0.11861942  0.36597867  1
  O  O368  1  0.87956857  0.10336404  0.88689362  1
  O  O369  1  0.86260259  0.61970362  0.38046441  1
  O  O370  1  0.86341040  0.62489363  0.86454334  1
  O  O371  1  0.11740391  0.39091921  0.13716117  1
  O  O372  1  0.13029854  0.37598587  0.63078914  1
  O  O373  1  0.13657386  0.88280591  0.12853478  1
  O  O374  1  0.13887805  0.86923278  0.63597864  1
  O  O375  1  0.62123245  0.37478776  0.13634249  1
  O  O376  1  0.63374303  0.37528118  0.63470010  1
  O  O377  1  0.63327974  0.88366232  0.12543653  1
  O  O378  1  0.62626740  0.87979385  0.62921074  1
  O  O379  1  0.11752093  0.26161127  0.24309548  1
  O  O380  1  0.12020568  0.25531910  0.75406136  1
  O  O381  1  0.11738830  0.74953835  0.25931287  1
  O  O382  1  0.11935574  0.75536641  0.75199943  1
  O  O383  1  0.62544168  0.25722905  0.25679720  1
  O  O384  1  0.62328155  0.25125290  0.75487445  1
  O  O385  1  0.61629519  0.75316422  0.25931234  1
  O  O386  1  0.62722357  0.75764756  0.76380987  1
  O  O387  1  0.37722513  0.25006741  0.23496885  1
  O  O388  1  0.38185457  0.24058972  0.74396307  1
  O  O389  1  0.39011681  0.75482403  0.25235804  1
  O  O390  1  0.36922371  0.74070232  0.74171343  1
  O  O391  1  0.88123600  0.24448192  0.24385941  1
  O  O392  1  0.88684101  0.25088122  0.73924590  1
  O  O393  1  0.88659556  0.75251380  0.24397673  1
  O  O394  1  0.88115089  0.74335131  0.74835514  1
  O  O395  1  0.38827702  0.50103651  0.50392999  1
  O  O396  1  0.39212369  0.50564365  1.00364481  1
  O  O397  1  0.36932966  0.99142968  0.48822318  1
  O  O398  1  0.37777583  0.99270712  0.99510320  1
  O  O399  1  0.88237216  0.50263731  0.48769837  1
  O  O400  1  0.88028319  0.49547367  1.00014085  1
  O  O401  1  0.88395800  0.99338150  0.49556531  1
  O  O402  1  0.89124806  1.00020298  1.00544065  1
  O  O403  1  0.12098140  0.00634164  0.00818941  1
  O  O404  1  0.10905511  0.00140878  0.50138340  1
  O  O405  1  0.11265842  0.50079748  0.01231795  1
  O  O406  1  0.11649396  0.50839037  0.49920822  1
  O  O407  1  0.61831210  0.00566891  0.00916719  1
  O  O408  1  0.62602357  0.01199907  0.50327284  1
  O  O409  1  0.61657812  0.50370425  0.00251897  1
  O  O410  1  0.61759944  0.50893673  0.50461758  1
  O  O411  1  0.38050645  0.36655147  0.12227322  1
  O  O412  1  0.36533029  0.37270819  0.61915469  1
  O  O413  1  0.36322507  0.87569715  0.12245093  1
  O  O414  1  0.36744576  0.87037952  0.61889742  1
  O  O415  1  0.87950334  0.36770389  0.11719639  1
  O  O416  1  0.86220567  0.36682364  0.62591951  1
  O  O417  1  0.87002414  0.86318771  0.12762264  1
  O  O418  1  0.86416795  0.87600207  0.62077745  1
  O  O419  1  0.12972892  0.11338051  0.39643934  1
  O  O420  1  0.12833217  0.13013786  0.88257443  1
  O  O421  1  0.13240342  0.63396074  0.38472523  1
  O  O422  1  0.14075554  0.62471479  0.87150335  1
  O  O423  1  0.62458911  0.13225929  0.37815702  1
  O  O424  1  0.61667148  0.12296313  0.88226774  1
  O  O425  1  0.63373181  0.63335994  0.38250155  1
  O  O426  1  0.63572234  0.63334668  0.87259644  1
