# generated using pymatgen
data_V85Zn86O256
_symmetry_space_group_name_H-M   'P 1'
_cell_length_a   16.96423399
_cell_length_b   16.95965774
_cell_length_c   16.95573071
_cell_angle_alpha   89.97291088
_cell_angle_beta   90.11033470
_cell_angle_gamma   89.99561533
_symmetry_Int_Tables_number   1
_chemical_formula_structural   V85Zn86O256
_chemical_formula_sum   'V85 Zn86 O256'
_cell_volume   4878.28302218
_cell_formula_units_Z   1
loop_
 _symmetry_equiv_pos_site_id
 _symmetry_equiv_pos_as_xyz
  1  'x, y, z'
loop_
 _atom_site_type_symbol
 _atom_site_label
 _atom_site_symmetry_multiplicity
 _atom_site_fract_x
 _atom_site_fract_y
 _atom_site_fract_z
 _atom_site_occupancy
  V  V0  1  0.50222335  0.49998474  0.49643468  1
  V  V1  1  0.38118629  0.87977230  -0.00214588  1
  V  V2  1  0.12271340  0.50260542  0.62479688  1
  V  V3  1  0.11873384  0.87622626  0.75042147  1
  V  V4  1  0.24839912  0.62672736  0.37450761  1
  V  V5  1  0.61585764  0.37276487  0.23993308  1
  V  V6  1  0.50342473  0.10703296  0.12264952  1
  V  V7  1  0.74900416  0.25124414  0.00103918  1
  V  V8  1  0.62595960  0.87811125  0.23666697  1
  V  V9  1  0.24674434  0.50010088  0.24362612  1
  V  V10  1  0.25271738  0.37450519  0.62407990  1
  V  V11  1  0.50217367  0.62451052  0.62581251  1
  V  V12  1  0.37436448  0.62889078  0.74816970  1
  V  V13  1  0.61218324  0.11960424  0.50194771  1
  V  V14  1  0.25683467  0.01334637  0.74733896  1
  V  V15  1  0.75392683  0.87545958  0.62002288  1
  V  V16  1  0.03540361  0.93343214  0.93203921  1
  V  V17  1  0.50855969  0.49711499  0.00195744  1
  V  V18  1  0.87398553  0.12453517  0.24804555  1
  V  V19  1  0.37547292  0.37738647  0.50012451  1
  V  V20  1  0.25059028  0.74964963  -0.00192947  1
  V  V21  1  0.75342636  0.61307214  0.37737638  1
  V  V22  1  0.50020182  0.36178163  0.37192960  1
  V  V23  1  0.37318337  0.50548142  0.88167163  1
  V  V24  1  -0.00474343  0.49943485  -0.00188100  1
  V  V25  1  0.87936484  0.00068318  0.88078131  1
  V  V26  1  0.75912376  0.61935104  0.88257356  1
  V  V27  1  0.12708068  0.23909182  0.87527612  1
  V  V28  1  0.12018027  0.00131164  0.62179398  1
  V  V29  1  0.37556545  0.62498599  0.24844445  1
  V  V30  1  0.63011494  0.75283644  0.37501596  1
  V  V31  1  0.38433705  0.12534391  0.25200135  1
  V  V32  1  0.25223093  0.25243038  0.50022032  1
  V  V33  1  0.24651132  0.62984297  0.87374389  1
  V  V34  1  -0.00657845  0.37820641  0.87367193  1
  V  V35  1  0.12417293  0.25356994  0.37144737  1
  V  V36  1  -0.01112399  0.38033697  0.37244739  1
  V  V37  1  0.86273376  0.75315829  0.12356471  1
  V  V38  1  0.24853951  0.50129196  0.74976434  1
  V  V39  1  0.37875480  0.01366696  0.87199386  1
  V  V40  1  0.12302157  0.12900365  0.49579365  1
  V  V41  1  0.37706186  0.75061306  0.12350755  1
  V  V42  1  0.25463621  0.87268122  0.62072294  1
  V  V43  1  0.87444130  0.61469771  0.25412907  1
  V  V44  1  0.00295004  0.61946901  0.12861689  1
  V  V45  1  0.12249653  0.38134292  0.24432582  1
  V  V46  1  -0.00144691  0.75310110  0.25547379  1
  V  V47  1  0.75907418  0.36932486  0.62461052  1
  V  V48  1  0.24798831  0.00044642  0.24380402  1
  V  V49  1  0.87089798  0.11406330  0.74214225  1
  V  V50  1  0.24587134  0.23157639  -0.00245872  1
  V  V51  1  0.38349843  0.24802161  0.12479812  1
  V  V52  1  0.75021703  0.12156911  0.86864842  1
  V  V53  1  0.49817519  0.87616124  0.38820551  1
  V  V54  1  0.12157442  0.87757789  0.25256051  1
  V  V55  1  0.75663548  0.24290141  0.50365627  1
  V  V56  1  0.62816134  0.62612972  0.49980696  1
  V  V57  1  0.62552945  0.74219348  0.88166752  1
  V  V58  1  -0.01049052  0.50303449  0.49815003  1
  V  V59  1  0.61496377  0.00071466  0.62596788  1
  V  V60  1  0.12413612  0.37398855  0.75064487  1
  V  V61  1  -0.00823363  0.25083335  0.74526774  1
  V  V62  1  0.24442643  0.37595606  0.11858490  1
  V  V63  1  0.62476467  0.11048363  0.00473493  1
  V  V64  1  0.74869641  0.12138048  0.37503456  1
  V  V65  1  -0.00131040  0.25095915  0.24735290  1
  V  V66  1  0.50092675  0.74987452  0.25088719  1
  V  V67  1  0.63657283  0.87883768  0.75322527  1
  V  V68  1  0.12391498  0.62691187  0.50004488  1
  V  V69  1  -0.00682073  0.13032844  0.61767131  1
  V  V70  1  0.62061557  0.25097488  0.87301785  1
  V  V71  1  0.48122581  0.36327189  0.85471748  1
  V  V72  1  0.49953280  0.87685072  0.87385721  1
  V  V73  1  0.74564790  -0.00406175  0.23526384  1
  V  V74  1  0.74790165  0.38262289  0.12316940  1
  V  V75  1  0.76664246  0.50268801  0.75042396  1
  V  V76  1  0.63125075  0.50134799  0.62921493  1
  V  V77  1  0.37687127  -0.00425527  0.38263287  1
  V  V78  1  0.25095173  0.12677206  0.36837339  1
  V  V79  1  0.37657174  0.49963977  0.37179848  1
  V  V80  1  0.87812591  -0.01416470  0.37540476  1
  V  V81  1  0.00518737  0.12045056  0.11395929  1
  V  V82  1  0.12540222  0.62004108  0.00472217  1
  V  V83  1  0.10754070  0.75162459  0.87489401  1
  V  V84  1  -0.00681394  0.64057978  0.63291937  1
  Zn  Zn85  1  0.00452923  -0.00275982  0.48827731  1
  Zn  Zn86  1  0.89983002  0.86334332  0.51703066  1
  Zn  Zn87  1  0.87119533  0.37846449  -0.00375443  1
  Zn  Zn88  1  0.12060240  0.75705362  0.37795033  1
  Zn  Zn89  1  0.74503469  0.49758085  0.24924037  1
  Zn  Zn90  1  0.62931068  0.37233904  0.74824960  1
  Zn  Zn91  1  0.24821898  0.87593359  0.12279969  1
  Zn  Zn92  1  0.43940943  0.08027598  0.68133510  1
  Zn  Zn93  1  0.37948481  0.75280642  0.61614566  1
  Zn  Zn94  1  0.37235053  0.37549471  0.00251776  1
  Zn  Zn95  1  0.87565518  0.65910982  0.75252570  1
  Zn  Zn96  1  0.62135044  0.24456547  0.37103335  1
  Zn  Zn97  1  0.87459895  0.25127675  0.12223170  1
  Zn  Zn98  1  0.63172525  0.62409084  0.00922055  1
  Zn  Zn99  1  0.25580956  0.75648483  0.49381109  1
  Zn  Zn100  1  0.50566496  0.61539861  0.12744780  1
  Zn  Zn101  1  0.11925582  -0.00303902  0.10746839  1
  Zn  Zn102  1  0.50315237  0.74711736  0.75114335  1
  Zn  Zn103  1  0.49753823  0.23550008  0.72518981  1
  Zn  Zn104  1  0.87221248  0.37323194  0.49645180  1
  Zn  Zn105  1  0.75818444  0.74908195  0.50636371  1
  Zn  Zn106  1  0.86884419  0.88492291  0.01753803  1
  Zn  Zn107  1  0.18568218  0.18791782  0.18266173  1
  Zn  Zn108  1  0.18572783  0.19044580  0.68454173  1
  Zn  Zn109  1  0.18668432  0.69149104  0.18733923  1
  Zn  Zn110  1  0.18216196  0.69251461  0.68921189  1
  Zn  Zn111  1  0.68459283  0.19167902  0.18616033  1
  Zn  Zn112  1  0.68146754  0.18642608  0.68675700  1
  Zn  Zn113  1  0.68504084  0.68280267  0.18914706  1
  Zn  Zn114  1  0.69175412  0.69197312  0.69600494  1
  Zn  Zn115  1  0.31399287  0.31104432  0.30872407  1
  Zn  Zn116  1  0.31146241  0.31088481  0.81563798  1
  Zn  Zn117  1  0.31079962  0.81463663  0.31157688  1
  Zn  Zn118  1  0.30886263  0.81503858  0.80847766  1
  Zn  Zn119  1  0.80618142  0.30874976  0.30896929  1
  Zn  Zn120  1  0.81185235  0.30891673  0.81019385  1
  Zn  Zn121  1  0.80838652  0.80751393  0.30643668  1
  Zn  Zn122  1  0.81581792  0.81347372  0.86107152  1
  Zn  Zn123  1  0.18220809  0.44156413  0.43412577  1
  Zn  Zn124  1  0.18145664  0.43747435  0.93584798  1
  Zn  Zn125  1  0.18762569  0.93957539  0.43497492  1
  Zn  Zn126  1  0.20458100  0.93746122  0.93106190  1
  Zn  Zn127  1  0.68426965  0.43264153  0.43806989  1
  Zn  Zn128  1  0.68613788  0.43539711  0.93093025  1
  Zn  Zn129  1  0.68662047  0.94002007  0.43627893  1
  Zn  Zn130  1  0.69520356  0.93535374  0.93575352  1
  Zn  Zn131  1  0.31674494  0.05877959  0.06317609  1
  Zn  Zn132  1  0.30433075  0.06148478  0.55698316  1
  Zn  Zn133  1  0.31250022  0.56387739  0.06485653  1
  Zn  Zn134  1  0.31308048  0.56494391  0.56081583  1
  Zn  Zn135  1  0.81441049  0.06659461  0.06024044  1
  Zn  Zn136  1  0.80842666  0.05074344  0.56238585  1
  Zn  Zn137  1  0.81679614  0.56235427  0.06574715  1
  Zn  Zn138  1  0.81566806  0.56779502  0.56624746  1
  Zn  Zn139  1  0.43462003  0.43384146  0.18572515  1
  Zn  Zn140  1  0.43596584  0.43752449  0.68699089  1
  Zn  Zn141  1  0.43695378  0.93361381  0.19303435  1
  Zn  Zn142  1  0.43923115  0.92295466  0.69064519  1
  Zn  Zn143  1  0.93442895  0.43783215  0.18118548  1
  Zn  Zn144  1  0.93883664  0.43884176  0.68231387  1
  Zn  Zn145  1  0.93797431  0.93799484  0.18952695  1
  Zn  Zn146  1  0.91134984  0.86348872  0.73061388  1
  Zn  Zn147  1  0.06078780  0.06281957  0.30643819  1
  Zn  Zn148  1  0.06383448  0.06640619  0.80109611  1
  Zn  Zn149  1  0.06154506  0.56196739  0.31385597  1
  Zn  Zn150  1  0.05892261  0.56410206  0.81292470  1
  Zn  Zn151  1  0.56073403  0.05856880  0.31361574  1
  Zn  Zn152  1  0.56589319  0.05858052  0.81715286  1
  Zn  Zn153  1  0.56546759  0.55900479  0.30933645  1
  Zn  Zn154  1  0.56297096  0.55663899  0.81388160  1
  Zn  Zn155  1  0.43649470  0.19774973  0.54876205  1
  Zn  Zn156  1  0.43964487  0.18653233  0.94460713  1
  Zn  Zn157  1  0.43845111  0.69023052  0.43770724  1
  Zn  Zn158  1  0.44202909  0.68724507  0.93922470  1
  Zn  Zn159  1  0.93442658  0.18693826  0.43175702  1
  Zn  Zn160  1  0.93588948  0.18973024  0.93266749  1
  Zn  Zn161  1  0.93430610  0.69029582  0.43837321  1
  Zn  Zn162  1  0.93259894  0.68512357  0.94375290  1
  Zn  Zn163  1  0.06272538  0.30850931  0.06030528  1
  Zn  Zn164  1  0.06214619  0.31517037  0.56050348  1
  Zn  Zn165  1  0.06195917  0.80621947  0.07162528  1
  Zn  Zn166  1  0.06940336  0.81491788  0.56132559  1
  Zn  Zn167  1  0.56077092  0.31301983  0.05297711  1
  Zn  Zn168  1  0.57488345  0.31412824  0.55750864  1
  Zn  Zn169  1  0.56078114  0.80942685  0.06101532  1
  Zn  Zn170  1  0.56749568  0.80924933  0.56469515  1
  O  O171  1  0.10967884  0.12112232  0.12687014  1
  O  O172  1  0.11998553  0.12259633  0.61502803  1
  O  O173  1  0.11684757  0.63095384  0.11595986  1
  O  O174  1  0.11840759  0.62148500  0.61922604  1
  O  O175  1  0.61880815  0.12836430  0.11303485  1
  O  O176  1  0.62739978  0.11592569  0.61192176  1
  O  O177  1  0.61789807  0.62813335  0.12150504  1
  O  O178  1  0.62127964  0.62116340  0.62189355  1
  O  O179  1  0.38032166  0.38140664  0.37642837  1
  O  O180  1  0.37098553  0.39179910  0.88296486  1
  O  O181  1  0.38407512  0.88401349  0.36683400  1
  O  O182  1  0.38226763  0.87756653  0.87840527  1
  O  O183  1  0.88591454  0.37103542  0.37200672  1
  O  O184  1  0.88952843  0.36817186  0.87526249  1
  O  O185  1  0.87039427  0.88658442  0.36634169  1
  O  O186  1  0.90895836  0.90329025  0.86167546  1
  O  O187  1  0.25453668  0.00465417  0.36088244  1
  O  O188  1  0.26310600  -0.00282259  0.85480661  1
  O  O189  1  0.25376605  0.50875084  0.36599977  1
  O  O190  1  0.25358732  0.50854251  0.87014242  1
  O  O191  1  0.75863780  0.00807298  0.36866266  1
  O  O192  1  0.76182207  0.01586252  0.87420674  1
  O  O193  1  0.74470489  0.51010728  0.37637501  1
  O  O194  1  0.74318962  0.50984886  0.86239568  1
  O  O195  1  0.25415470  0.49033180  0.13283083  1
  O  O196  1  0.24237888  0.49610625  0.62984422  1
  O  O197  1  0.24506422  1.00097438  0.13338908  1
  O  O198  1  0.24320179  0.99303309  0.63055294  1
  O  O199  1  0.75169885  0.48625098  0.12336428  1
  O  O200  1  0.74728615  0.49601226  0.62999917  1
  O  O201  1  0.75548367  1.00339547  0.13641950  1
  O  O202  1  0.73221438  0.98579101  0.62324222  1
  O  O203  1  0.00470955  0.37339423  0.25297556  1
  O  O204  1  0.00308446  0.36926567  0.75258202  1
  O  O205  1  0.00801145  0.86526318  0.24644333  1
  O  O206  1  0.02072299  0.88959492  0.73728516  1
  O  O207  1  0.50793854  0.37621346  0.25450297  1
  O  O208  1  0.51477116  0.40444143  0.76207090  1
  O  O209  1  0.50789622  0.86720642  0.25789950  1
  O  O210  1  0.50948757  0.86689579  0.75897420  1
  O  O211  1  0.49132170  0.12158915  0.24189488  1
  O  O212  1  0.50343845  0.12800081  0.75719087  1
  O  O213  1  0.49295625  0.63115306  0.25105020  1
  O  O214  1  0.49221881  0.62216318  0.74326343  1
  O  O215  1  0.99075247  0.13272745  0.24418880  1
  O  O216  1  0.99277221  0.13292923  0.73650610  1
  O  O217  1  0.99423875  0.62608138  0.24463301  1
  O  O218  1  0.99756763  0.62415809  0.73673862  1
  O  O219  1  0.36029455  0.25105685  0.00512095  1
  O  O220  1  0.35772646  0.26278001  0.49075378  1
  O  O221  1  0.37228496  0.75370698  0.00673061  1
  O  O222  1  0.36651719  0.73817805  0.50501648  1
  O  O223  1  0.85941746  0.25079503  -0.00323276  1
  O  O224  1  0.86108566  0.24943520  0.49452696  1
  O  O225  1  0.87727510  0.74584735  0.02173121  1
  O  O226  1  0.86987456  0.75776017  0.49587572  1
  O  O227  1  0.13241527  0.24974822  0.49140487  1
  O  O228  1  0.13823936  0.25198400  0.99158724  1
  O  O229  1  0.13147995  0.73705866  0.49723262  1
  O  O230  1  0.12912059  0.74175208  0.99445389  1
  O  O231  1  0.63759482  0.23589532  0.49410119  1
  O  O232  1  0.63567880  0.24295240  0.99378653  1
  O  O233  1  0.62918006  0.74178667  0.49164381  1
  O  O234  1  0.62051303  0.74825545  0.98571549  1
  O  O235  1  0.48543879  0.24511324  0.11338704  1
  O  O236  1  0.49468752  0.26651769  0.61712156  1
  O  O237  1  0.48752081  0.74955506  0.13076644  1
  O  O238  1  0.50119487  0.73544042  0.62787011  1
  O  O239  1  0.99793281  0.24286233  0.13191912  1
  O  O240  1  1.00557160  0.24030949  0.62999948  1
  O  O241  1  0.99416939  0.73630042  0.13711731  1
  O  O242  1  1.00883068  0.73823869  0.62574955  1
  O  O243  1  0.00527731  0.25799698  0.36729302  1
  O  O244  1  0.00773674  0.25573507  0.86617358  1
  O  O245  1  0.00357537  0.73912262  0.35916466  1
  O  O246  1  0.00903231  0.74267551  0.87998014  1
  O  O247  1  0.49833028  0.26341237  0.37844872  1
  O  O248  1  0.51436293  0.25823715  0.89471669  1
  O  O249  1  0.51045700  0.75297402  0.36917942  1
  O  O250  1  0.50542033  0.75789286  0.87287921  1
  O  O251  1  0.24218402  0.13702598  0.48884980  1
  O  O252  1  0.24804315  0.13360572  1.00409157  1
  O  O253  1  0.24021450  0.61974128  0.48989101  1
  O  O254  1  0.24219317  0.62933433  0.99587314  1
  O  O255  1  0.74708274  0.12570567  0.49195689  1
  O  O256  1  0.74177778  0.13207432  0.99434808  1
  O  O257  1  0.74549693  0.62638650  0.49473803  1
  O  O258  1  0.74925036  0.61139033  0.98608947  1
  O  O259  1  0.24661677  0.37657427  0.01140366  1
  O  O260  1  0.25067262  0.37357096  0.50498485  1
  O  O261  1  0.26312998  0.86585004  0.00029782  1
  O  O262  1  0.24153130  0.87530883  0.51593181  1
  O  O263  1  0.74820624  0.36928097  0.00358522  1
  O  O264  1  0.75051435  0.36384471  0.50461211  1
  O  O265  1  0.77720867  0.86404129  -0.04569833  1
  O  O266  1  0.74352519  0.87436672  0.51430506  1
  O  O267  1  0.12987744  0.48821058  0.25325544  1
  O  O268  1  0.13006521  0.49486009  0.74575945  1
  O  O269  1  0.13175587  0.99429053  0.24734277  1
  O  O270  1  0.13788964  0.99888557  0.74159811  1
  O  O271  1  0.62638653  0.47967047  0.25225140  1
  O  O272  1  0.63688467  0.50527386  0.73651518  1
  O  O273  1  0.63274222  0.98953605  0.25387181  1
  O  O274  1  0.62329421  0.98573047  0.74546915  1
  O  O275  1  0.36583332  0.00768933  0.25120151  1
  O  O276  1  0.36984042  0.00122552  0.75030772  1
  O  O277  1  0.36829262  0.50426106  0.25329850  1
  O  O278  1  0.36815946  0.51088428  0.75929684  1
  O  O279  1  0.86698417  0.00584563  0.25663882  1
  O  O280  1  0.87881791  0.01497465  0.75845210  1
  O  O281  1  0.87236882  0.51140722  0.24625695  1
  O  O282  1  0.86677321  0.49958320  0.74693627  1
  O  O283  1  0.11613614  0.37114903  0.36584555  1
  O  O284  1  0.11605525  0.36787585  0.86715590  1
  O  O285  1  0.13294392  0.87316159  0.35921021  1
  O  O286  1  0.11421718  0.87349005  0.87204952  1
  O  O287  1  0.61470725  0.37128117  0.36735262  1
  O  O288  1  0.61724616  0.36350529  0.87105591  1
  O  O289  1  0.61910076  0.86776379  0.37101688  1
  O  O290  1  0.61960985  0.87103245  0.86728694  1
  O  O291  1  0.38484942  0.12825880  0.12805862  1
  O  O292  1  0.37115629  0.13023294  0.61113890  1
  O  O293  1  0.37866301  0.63298644  0.13147959  1
  O  O294  1  0.38464806  0.61985444  0.63360963  1
  O  O295  1  0.88086803  0.12765160  0.13573527  1
  O  O296  1  0.88354510  0.11567713  0.62682417  1
  O  O297  1  0.88198317  0.63073845  0.13449502  1
  O  O298  1  0.88891268  0.63043741  0.62964464  1
  O  O299  1  0.25304036  0.25435794  0.11216855  1
  O  O300  1  0.24214898  0.26349183  0.61371931  1
  O  O301  1  0.26189812  0.75004769  0.11840263  1
  O  O302  1  0.24690328  0.76529880  0.62661603  1
  O  O303  1  0.75024985  0.25896246  0.11556074  1
  O  O304  1  0.74344983  0.25780924  0.61640634  1
  O  O305  1  0.76460469  0.74570949  0.13363654  1
  O  O306  1  0.74018249  0.76967373  0.62591597  1
  O  O307  1  0.24250804  0.24893701  0.37847608  1
  O  O308  1  0.24365953  0.25439732  0.88897021  1
  O  O309  1  0.24740836  0.73643638  0.37172154  1
  O  O310  1  0.24417162  0.74622108  0.88089272  1
  O  O311  1  0.74817736  0.23424101  0.37892124  1
  O  O312  1  0.74013693  0.24276099  0.87897581  1
  O  O313  1  0.73769392  0.74120104  0.37255100  1
  O  O314  1  0.73799263  0.72511664  0.87176378  1
  O  O315  1  -0.00639896  0.13558820  0.01668762  1
  O  O316  1  0.00423127  0.12490965  0.50204953  1
  O  O317  1  0.00594648  0.61870463  0.00760075  1
  O  O318  1  0.00571685  0.62043255  0.50767220  1
  O  O319  1  0.51665340  0.12321542  0.00651508  1
  O  O320  1  0.51492385  0.12970464  0.49253382  1
  O  O321  1  0.49959056  0.60729253  -0.00187540  1
  O  O322  1  0.50783652  0.61870318  0.50662048  1
  O  O323  1  0.49698491  0.38332004  0.48996878  1
  O  O324  1  0.49266630  0.38446699  0.98746017  1
  O  O325  1  0.50370780  0.86696176  0.48742725  1
  O  O326  1  0.48814224  0.86958514  0.99179989  1
  O  O327  1  0.99792207  0.38322588  0.49065993  1
  O  O328  1  1.00226437  0.38208062  0.99192615  1
  O  O329  1  1.00882206  0.88532345  0.50248863  1
  O  O330  1  0.99173534  0.87136234  1.00251646  1
  O  O331  1  0.49400383  0.49590909  0.37975858  1
  O  O332  1  0.48836528  0.49382070  0.88277154  1
  O  O333  1  0.48785070  0.98963031  0.37040580  1
  O  O334  1  0.49272321  0.98468365  0.87192056  1
  O  O335  1  1.00459441  0.49138384  0.38480992  1
  O  O336  1  1.00632476  0.49026045  0.88328169  1
  O  O337  1  0.98156592  1.00662603  0.36987187  1
  O  O338  1  0.99700534  1.02086974  0.88284393  1
  O  O339  1  -0.00104860  0.01559515  0.12792965  1
  O  O340  1  0.01664210  0.01596808  0.62136868  1
  O  O341  1  -0.00043605  0.51181956  0.11846700  1
  O  O342  1  0.00661848  0.50697315  0.61649406  1
  O  O343  1  0.49514650  0.00812090  0.12594298  1
  O  O344  1  0.50959995  -0.00590297  0.63071759  1
  O  O345  1  0.48968981  0.49528478  0.10568903  1
  O  O346  1  0.50900560  0.50844168  0.61952264  1
  O  O347  1  0.24159125  0.37856057  0.24040760  1
  O  O348  1  0.24602604  0.37843067  0.74186966  1
  O  O349  1  0.24492990  0.88434653  0.24471189  1
  O  O350  1  0.24244698  0.88533129  0.74016793  1
  O  O351  1  0.74053415  0.37594722  0.24093812  1
  O  O352  1  0.75034753  0.38132214  0.74286542  1
  O  O353  1  0.73688065  0.88330648  0.25439890  1
  O  O354  1  0.73659453  0.87611163  0.74551496  1
  O  O355  1  0.25457729  0.11929350  0.25037622  1
  O  O356  1  0.24958437  0.11253006  0.74042675  1
  O  O357  1  0.25250283  0.61919532  0.25453065  1
  O  O358  1  0.25496569  0.62172221  0.75261222  1
  O  O359  1  0.75402437  0.11979126  0.25446587  1
  O  O360  1  0.75876621  0.13459428  0.75707953  1
  O  O361  1  0.75674821  0.61962555  0.25922730  1
  O  O362  1  0.75844622  0.61771015  0.75514471  1
  O  O363  1  0.36640740  0.11455473  0.36151698  1
  O  O364  1  0.38058280  0.11270631  0.88158745  1
  O  O365  1  0.36722597  0.61908885  0.36752914  1
  O  O366  1  0.36857756  0.62271530  0.86858899  1
  O  O367  1  0.86738273  0.11847164  0.36294031  1
  O  O368  1  0.86850026  0.12258001  0.86634719  1
  O  O369  1  0.86463143  0.62741895  0.36675156  1
  O  O370  1  0.86256858  0.62524427  0.87354758  1
  O  O371  1  0.13109559  0.36989558  0.13346818  1
  O  O372  1  0.13209241  0.38275909  0.62930501  1
  O  O373  1  0.12784583  0.87730173  0.13543928  1
  O  O374  1  0.13576832  0.88481535  0.63139245  1
  O  O375  1  0.62740383  0.36816839  0.13341896  1
  O  O376  1  0.63952959  0.38634637  0.62430115  1
  O  O377  1  0.61913131  0.87003879  0.13746174  1
  O  O378  1  0.62606376  0.87908644  0.63734730  1
  O  O379  1  0.12005322  0.26051278  0.25276392  1
  O  O380  1  0.11672459  0.25657755  0.75377950  1
  O  O381  1  0.11678397  0.75816781  0.25011071  1
  O  O382  1  0.13051975  0.76337170  0.76410990  1
  O  O383  1  0.62787405  0.26566763  0.25461738  1
  O  O384  1  0.61790922  0.25275443  0.75883588  1
  O  O385  1  0.62062336  0.75739809  0.25762236  1
  O  O386  1  0.62385601  0.75971898  0.76249482  1
  O  O387  1  0.36629102  0.23630646  0.23731888  1
  O  O388  1  0.41858872  0.29541495  0.78632230  1
  O  O389  1  0.37872361  0.74601158  0.24243976  1
  O  O390  1  0.37484834  0.73736095  0.74578229  1
  O  O391  1  0.87946520  0.24074056  0.24870952  1
  O  O392  1  0.88827441  0.24156622  0.75242150  1
  O  O393  1  0.88138384  0.73933834  0.24453227  1
  O  O394  1  0.87037960  0.77001114  0.77370418  1
  O  O395  1  0.38010102  0.49574600  0.49210067  1
  O  O396  1  0.37650707  0.50304453  0.99004777  1
  O  O397  1  0.36291401  0.99960109  0.48052424  1
  O  O398  1  0.36619997  0.98904659  0.98655336  1
  O  O399  1  0.88683038  0.49937418  0.50329559  1
  O  O400  1  0.89094228  0.49875905  1.00175001  1
  O  O401  1  0.87426190  0.99364827  0.48321468  1
  O  O402  1  0.87546969  1.00223531  0.98906377  1
  O  O403  1  0.11587092  -0.02140984  -0.01049597  1
  O  O404  1  0.12931350  0.01255012  0.50456910  1
  O  O405  1  0.11751704  0.51464425  -0.00452400  1
  O  O406  1  0.11675422  0.51034278  0.50448776  1
  O  O407  1  0.63430100  0.01201991  -0.00343000  1
  O  O408  1  0.62489840  0.01209855  0.50615181  1
  O  O409  1  0.61005692  0.49674158  -0.00591043  1
  O  O410  1  0.62319914  0.50588163  0.51056340  1
  O  O411  1  0.36385658  0.36390353  0.12474087  1
  O  O412  1  0.36034346  0.38615881  0.61749081  1
  O  O413  1  0.37444052  0.86856804  0.11627265  1
  O  O414  1  0.35936221  0.87181695  0.62885473  1
  O  O415  1  0.86474750  0.37035839  0.11940427  1
  O  O416  1  0.86315809  0.37708884  0.61995417  1
  O  O417  1  0.87613016  0.85920955  0.13163616  1
  O  O418  1  0.85733981  0.88708977  0.62902244  1
  O  O419  1  0.12959909  0.13268614  0.37523747  1
  O  O420  1  0.12462484  0.14041795  0.86540211  1
  O  O421  1  0.13252942  0.62405800  0.38268000  1
  O  O422  1  0.12882545  0.63370436  0.88015536  1
  O  O423  1  0.63165278  0.12100919  0.38343700  1
  O  O424  1  0.63275430  0.12889215  0.88539484  1
  O  O425  1  0.63118789  0.63095851  0.37913765  1
  O  O426  1  0.62912383  0.62834521  0.87777656  1
