# generated using pymatgen
data_V85Zn86O256
_symmetry_space_group_name_H-M   'P 1'
_cell_length_a   16.96342815
_cell_length_b   16.96079898
_cell_length_c   16.95717913
_cell_angle_alpha   89.95493724
_cell_angle_beta   89.94347749
_cell_angle_gamma   89.95984976
_symmetry_Int_Tables_number   1
_chemical_formula_structural   V85Zn86O256
_chemical_formula_sum   'V85 Zn86 O256'
_cell_volume   4878.80079956
_cell_formula_units_Z   1
loop_
 _symmetry_equiv_pos_site_id
 _symmetry_equiv_pos_as_xyz
  1  'x, y, z'
loop_
 _atom_site_type_symbol
 _atom_site_label
 _atom_site_symmetry_multiplicity
 _atom_site_fract_x
 _atom_site_fract_y
 _atom_site_fract_z
 _atom_site_occupancy
  V  V0  1  0.49606576  0.37205146  0.87358404  1
  V  V1  1  0.62633936  0.63216172  -0.00125545  1
  V  V2  1  0.62919969  0.13111801  -0.00063398  1
  V  V3  1  0.25335028  -0.00114036  0.74404637  1
  V  V4  1  0.74792810  0.88065643  0.62535977  1
  V  V5  1  -0.00046227  0.37402673  0.37468955  1
  V  V6  1  0.75096419  0.75125593  0.50033031  1
  V  V7  1  0.62212453  0.85754726  0.75070884  1
  V  V8  1  0.12491943  0.37664413  0.75217296  1
  V  V9  1  0.12743994  0.74733559  0.87657707  1
  V  V10  1  0.62113067  0.62457748  0.50193611  1
  V  V11  1  -0.01697510  0.24423555  0.24599366  1
  V  V12  1  0.00420277  0.50115043  0.49836932  1
  V  V13  1  0.49957638  0.25371414  0.25834191  1
  V  V14  1  0.37613499  0.87618499  -0.00104645  1
  V  V15  1  0.62917469  0.25244952  0.87561010  1
  V  V16  1  0.24820019  0.87497516  0.12524693  1
  V  V17  1  0.49972307  0.87508664  0.37712758  1
  V  V18  1  0.11802865  0.50305667  0.11419978  1
  V  V19  1  0.50048770  0.12485519  0.62702094  1
  V  V20  1  0.00278703  0.75087144  0.74608401  1
  V  V21  1  0.62999916  0.24704292  0.37697121  1
  V  V22  1  0.50046468  0.12533230  0.12681639  1
  V  V23  1  0.37381830  0.25603627  0.62402357  1
  V  V24  1  0.62439606  0.75055340  0.37648360  1
  V  V25  1  0.37913219  0.74095379  0.63316028  1
  V  V26  1  0.87720406  0.62297772  0.74607266  1
  V  V27  1  0.50067745  0.62520790  0.12647029  1
  V  V28  1  0.13087119  0.87512519  0.74049117  1
  V  V29  1  0.25030176  0.50094943  0.74603340  1
  V  V30  1  0.12368912  0.37071142  0.25104924  1
  V  V31  1  0.00182696  0.63423090  0.11510376  1
  V  V32  1  0.49955654  0.75166914  0.25137942  1
  V  V33  1  0.12294046  0.00870013  0.62179968  1
  V  V34  1  0.37345849  0.75096577  0.12786837  1
  V  V35  1  0.75172968  0.62851743  0.87442875  1
  V  V36  1  0.73821044  0.00275805  0.74871944  1
  V  V37  1  0.37375349  0.62676689  0.25341735  1
  V  V38  1  0.89007847  0.49859277  0.88641121  1
  V  V39  1  0.62503647  0.37635428  0.25557250  1
  V  V40  1  0.24028887  0.12382985  0.38233391  1
  V  V41  1  0.00056812  0.00571317  0.48689807  1
  V  V42  1  0.23756429  0.62953443  0.38009200  1
  V  V43  1  0.62997170  0.12069239  0.50248078  1
  V  V44  1  0.87633369  0.37168931  0.50430455  1
  V  V45  1  0.87390202  -0.00144284  0.87075268  1
  V  V46  1  0.11975267  0.00072174  0.12190125  1
  V  V47  1  0.50417928  0.86314094  0.87255628  1
  V  V48  1  0.75623024  0.24468910  0.50191525  1
  V  V49  1  0.37408813  0.00171491  0.37900923  1
  V  V50  1  0.12199730  0.87286105  0.26211443  1
  V  V51  1  0.50381165  -0.00144040  0.50717839  1
  V  V52  1  0.37495106  0.25263444  0.12554264  1
  V  V53  1  -0.00443718  0.25373113  0.74235685  1
  V  V54  1  0.13183953  0.49763466  0.61784880  1
  V  V55  1  0.75587400  0.87861327  0.12407601  1
  V  V56  1  0.12110752  0.25075250  0.87311611  1
  V  V57  1  0.24616556  0.74498872  0.00013589  1
  V  V58  1  0.00728420  0.62608292  0.61558492  1
  V  V59  1  0.62760819  0.50070070  0.12302995  1
  V  V60  1  0.37260017  0.38253805  -0.00244925  1
  V  V61  1  0.25105632  0.25024021  -0.00400949  1
  V  V62  1  0.75366963  0.36969953  0.63111287  1
  V  V63  1  0.62798766  0.88105398  0.24802352  1
  V  V64  1  0.00872257  0.75369634  0.26427493  1
  V  V65  1  0.38197112  0.49528603  0.37656028  1
  V  V66  1  0.87676980  0.64185975  0.24548349  1
  V  V67  1  0.00041101  0.87565104  0.87317146  1
  V  V68  1  0.80689491  0.05578895  0.31278319  1
  V  V69  1  0.87597615  0.50227127  0.37334026  1
  V  V70  1  0.75122304  0.62715097  0.37465380  1
  V  V71  1  0.62940270  0.49697683  0.62445052  1
  V  V72  1  0.42251475  0.55917926  0.81333209  1
  V  V73  1  0.24939813  -0.00021140  0.25095247  1
  V  V74  1  0.50177050  -0.00029101  -0.00288024  1
  V  V75  1  0.75412938  0.50232012  0.24768051  1
  V  V76  1  0.88124529  0.87762977  0.49177714  1
  V  V77  1  0.87570618  0.12715097  0.74209278  1
  V  V78  1  0.37181812  0.87074544  0.50835162  1
  V  V79  1  0.24325944  0.25418287  0.50451445  1
  V  V80  1  0.24688283  0.61455040  0.87489714  1
  V  V81  1  0.75494450  0.36194353  0.11569856  1
  V  V82  1  0.24005417  0.74995126  0.50373959  1
  V  V83  1  0.75902457  0.74975740  0.00263091  1
  V  V84  1  0.24597642  0.50075579  0.25211782  1
  Zn  Zn85  1  0.37495899  0.12615178  0.25370764  1
  Zn  Zn86  1  0.50051116  0.62406022  0.63615855  1
  Zn  Zn87  1  0.49620955  0.50326889  -0.00117993  1
  Zn  Zn88  1  0.00164417  0.00317122  -0.00492148  1
  Zn  Zn89  1  0.12615847  0.12364546  -0.00108549  1
  Zn  Zn90  1  0.50589524  0.49140670  0.49702177  1
  Zn  Zn91  1  0.49776266  0.24853574  0.75024396  1
  Zn  Zn92  1  -0.01499211  0.13901180  0.11475015  1
  Zn  Zn93  1  0.37559384  0.00127550  0.87101569  1
  Zn  Zn94  1  -0.00272898  0.12902372  0.61652380  1
  Zn  Zn95  1  0.25264041  0.12297771  0.87322633  1
  Zn  Zn96  1  0.62638172  0.37188477  0.75048923  1
  Zn  Zn97  1  0.75255640  0.12873571  0.87653344  1
  Zn  Zn98  1  0.12075220  0.24492475  0.37773784  1
  Zn  Zn99  1  0.38194634  0.36957917  0.49509098  1
  Zn  Zn100  1  0.75784641  0.49485095  0.75359032  1
  Zn  Zn101  1  0.37362459  0.12594856  0.75029428  1
  Zn  Zn102  1  -0.10209214  0.35843221  1.01123219  1
  Zn  Zn103  1  0.25103205  0.37723697  0.12673097  1
  Zn  Zn104  1  0.62606483  0.00320649  0.13012357  1
  Zn  Zn105  1  0.87910986  0.87241867  0.00176330  1
  Zn  Zn106  1  0.87668650  0.75167773  0.62525066  1
  Zn  Zn107  1  0.18758778  0.18309037  0.18842642  1
  Zn  Zn108  1  0.18766387  0.18554132  0.68639962  1
  Zn  Zn109  1  0.18397576  0.68625013  0.18854466  1
  Zn  Zn110  1  0.19156947  0.68407616  0.68572646  1
  Zn  Zn111  1  0.69176835  0.18467152  0.19057168  1
  Zn  Zn112  1  0.68555604  0.18945979  0.68750061  1
  Zn  Zn113  1  0.68955649  0.69443270  0.18585990  1
  Zn  Zn114  1  0.69191680  0.68590989  0.68484913  1
  Zn  Zn115  1  0.30892417  0.31137741  0.31425791  1
  Zn  Zn116  1  0.31112118  0.31551364  0.81058225  1
  Zn  Zn117  1  0.30883369  0.81409328  0.31781358  1
  Zn  Zn118  1  0.31194784  0.81548475  0.81370705  1
  Zn  Zn119  1  0.80896884  0.31410996  0.31427364  1
  Zn  Zn120  1  0.83637144  0.29542249  0.85220486  1
  Zn  Zn121  1  0.84646139  0.85759237  0.28352267  1
  Zn  Zn122  1  0.81179893  0.80979562  0.81126190  1
  Zn  Zn123  1  0.19028050  0.43448387  0.43607965  1
  Zn  Zn124  1  0.06578718  0.43954032  0.93511356  1
  Zn  Zn125  1  0.18722909  0.93645058  0.44358755  1
  Zn  Zn126  1  0.18922751  0.93578972  0.93311891  1
  Zn  Zn127  1  0.69066989  0.43545540  0.43751416  1
  Zn  Zn128  1  0.68966780  0.44228045  0.93694596  1
  Zn  Zn129  1  0.68758016  0.93623827  0.43802202  1
  Zn  Zn130  1  0.68577752  0.93703716  0.93576001  1
  Zn  Zn131  1  0.31352544  0.06380199  0.06328119  1
  Zn  Zn132  1  0.31078661  0.06528430  0.56547144  1
  Zn  Zn133  1  0.30776617  0.56381328  0.06417560  1
  Zn  Zn134  1  0.31315372  0.56523613  0.56000365  1
  Zn  Zn135  1  0.81090911  0.06214297  0.05671599  1
  Zn  Zn136  1  0.81468878  0.05877357  0.55976271  1
  Zn  Zn137  1  0.81709815  0.56211813  0.06349661  1
  Zn  Zn138  1  0.81451020  0.56105564  0.56245933  1
  Zn  Zn139  1  0.43900154  0.43716063  0.18987272  1
  Zn  Zn140  1  0.44446595  0.43133537  0.67782848  1
  Zn  Zn141  1  0.43776862  0.93936082  0.18851571  1
  Zn  Zn142  1  0.43965208  0.93281913  0.68695402  1
  Zn  Zn143  1  0.93833271  0.43907334  0.18472012  1
  Zn  Zn144  1  0.94103015  0.43758681  0.68717912  1
  Zn  Zn145  1  0.91393659  0.98452283  0.17094279  1
  Zn  Zn146  1  0.93633874  0.94001247  0.68334857  1
  Zn  Zn147  1  0.06109283  0.06219251  0.30746849  1
  Zn  Zn148  1  0.06453659  0.06633477  0.81006724  1
  Zn  Zn149  1  0.05990929  0.56324118  0.30834852  1
  Zn  Zn150  1  0.06605552  0.56850098  0.80481425  1
  Zn  Zn151  1  0.56496731  0.06497830  0.31704116  1
  Zn  Zn152  1  0.56108051  0.06072779  0.81499961  1
  Zn  Zn153  1  0.56393421  0.56366512  0.31096815  1
  Zn  Zn154  1  0.58398345  0.55889267  0.81269416  1
  Zn  Zn155  1  0.43738378  0.18644825  0.44014566  1
  Zn  Zn156  1  0.43705185  0.18696578  0.93611237  1
  Zn  Zn157  1  0.43432024  0.68473091  0.44002154  1
  Zn  Zn158  1  0.43782455  0.69175962  0.94430644  1
  Zn  Zn159  1  0.93287363  0.18383689  0.42733220  1
  Zn  Zn160  1  0.94181130  0.18461749  0.93476725  1
  Zn  Zn161  1  0.93554671  0.69092566  0.43748076  1
  Zn  Zn162  1  0.93766019  0.68839347  0.93399569  1
  Zn  Zn163  1  0.06926428  0.31151426  0.06755946  1
  Zn  Zn164  1  0.06608892  0.31558852  0.56651239  1
  Zn  Zn165  1  0.06275102  0.81447423  0.06436561  1
  Zn  Zn166  1  0.06122076  0.81704395  0.56131550  1
  Zn  Zn167  1  0.56190812  0.31501665  0.06253500  1
  Zn  Zn168  1  0.56153828  0.31275102  0.55914428  1
  Zn  Zn169  1  0.56520638  0.81168552  0.06217578  1
  Zn  Zn170  1  0.56071213  0.81147328  0.56944250  1
  O  O171  1  0.12291449  0.11262908  0.12395076  1
  O  O172  1  0.12037368  0.11189958  0.62647768  1
  O  O173  1  0.11425055  0.61383517  0.13113452  1
  O  O174  1  0.11609878  0.61373175  0.62939896  1
  O  O175  1  0.61454740  0.12676096  0.11894014  1
  O  O176  1  0.61553311  0.13072536  0.61153432  1
  O  O177  1  0.62170293  0.61939656  0.12170045  1
  O  O178  1  0.62487925  0.61740895  0.61906022  1
  O  O179  1  0.37011029  0.39300516  0.36977419  1
  O  O180  1  0.38270588  0.36965221  0.88604711  1
  O  O181  1  0.37968739  0.88375734  0.38431825  1
  O  O182  1  0.38383671  0.87661539  0.88209402  1
  O  O183  1  0.87880590  0.38181613  0.38375128  1
  O  O184  1  0.87919266  0.40251356  0.86101138  1
  O  O185  1  0.86804443  0.86509335  0.39510989  1
  O  O186  1  0.88486180  0.87888520  0.86979139  1
  O  O187  1  0.25643226  0.00557708  0.37537379  1
  O  O188  1  0.25296070  -0.00033534  0.86183909  1
  O  O189  1  0.25595322  0.50957052  0.36825662  1
  O  O190  1  0.24912582  0.51471933  0.86895082  1
  O  O191  1  0.74822607  0.01002212  0.38104247  1
  O  O192  1  0.75643034  0.00002205  0.86534934  1
  O  O193  1  0.75526699  0.50761494  0.36817274  1
  O  O194  1  0.76162125  0.51281291  0.87464081  1
  O  O195  1  0.23965181  0.50540857  0.13917730  1
  O  O196  1  0.24257161  0.50809988  0.63083997  1
  O  O197  1  0.24486421  0.99427425  0.13065716  1
  O  O198  1  0.23927772  1.00022036  0.62985279  1
  O  O199  1  0.73970746  0.50170659  0.13008246  1
  O  O200  1  0.74323389  0.49180092  0.62323229  1
  O  O201  1  0.73974091  0.98127366  0.11237570  1
  O  O202  1  0.75279642  0.98733593  0.63176867  1
  O  O203  1  0.00550196  0.36838749  0.25401129  1
  O  O204  1  0.00985345  0.36656518  0.74453248  1
  O  O205  1  0.00696505  0.85742294  0.24839042  1
  O  O206  1  0.00594906  0.86946278  0.75632748  1
  O  O207  1  0.51216844  0.36523221  0.24438929  1
  O  O208  1  0.50024648  0.37721219  0.76428799  1
  O  O209  1  0.50520854  0.86935258  0.25679283  1
  O  O210  1  0.51475885  0.87755427  0.75574885  1
  O  O211  1  0.49999315  0.13229704  0.24294706  1
  O  O212  1  0.50044293  0.12047827  0.73580796  1
  O  O213  1  0.49522156  0.63257098  0.24550780  1
  O  O214  1  0.49163849  0.61259279  0.76016653  1
  O  O215  1  1.00391719  0.14298615  0.25015655  1
  O  O216  1  0.99216779  0.13214750  0.74569376  1
  O  O217  1  0.99480598  0.63583401  0.24480930  1
  O  O218  1  0.99531031  0.63191436  0.73762740  1
  O  O219  1  0.37484061  0.25776158  0.00899379  1
  O  O220  1  0.36658580  0.24872850  0.50562283  1
  O  O221  1  0.36757722  0.75684832  0.00935774  1
  O  O222  1  0.36851411  0.75517663  0.50540643  1
  O  O223  1  0.86836273  0.26406590  -0.04118005  1
  O  O224  1  0.86606557  0.25744626  0.49178620  1
  O  O225  1  0.86374552  0.75274149  -0.00388351  1
  O  O226  1  0.86698550  0.75761686  0.50459789  1
  O  O227  1  0.13862777  0.25404877  0.49854829  1
  O  O228  1  0.13552057  0.25065318  0.99178521  1
  O  O229  1  0.14111248  0.75657360  0.50546589  1
  O  O230  1  0.13524948  0.75749380  0.98936377  1
  O  O231  1  0.63298361  0.24397318  0.49293219  1
  O  O232  1  0.61538594  0.24123925  0.99178679  1
  O  O233  1  0.63009311  0.74387058  0.49904634  1
  O  O234  1  0.63427731  0.73697509  1.00497239  1
  O  O235  1  0.49220286  0.24557375  0.13335850  1
  O  O236  1  0.49274039  0.24123919  0.62530352  1
  O  O237  1  0.49409374  0.74521366  0.13067548  1
  O  O238  1  0.48581587  0.74322233  0.62318236  1
  O  O239  1  1.00268570  0.25191642  0.14112841  1
  O  O240  1  1.00680635  0.24625950  0.63673970  1
  O  O241  1  1.00839337  0.73744874  0.13435488  1
  O  O242  1  1.00106762  0.74273903  0.62818828  1
  O  O243  1  0.00188142  0.25605859  0.36424800  1
  O  O244  1  0.01675968  0.24499283  0.85972664  1
  O  O245  1  0.00436555  0.74370279  0.36344236  1
  O  O246  1  0.00892405  0.75401334  0.86690117  1
  O  O247  1  0.50719980  0.24475893  0.36376593  1
  O  O248  1  0.50690536  0.25880441  0.87347328  1
  O  O249  1  0.50385143  0.75469840  0.37222480  1
  O  O250  1  0.49913062  0.76366125  0.88129826  1
  O  O251  1  0.25421477  0.13603201  0.49129076  1
  O  O252  1  0.25293432  0.13897578  1.00003941  1
  O  O253  1  0.25159272  0.63497746  0.48787274  1
  O  O254  1  0.25600840  0.63772062  0.99247943  1
  O  O255  1  0.74344451  0.13341893  0.50875549  1
  O  O256  1  0.73306849  0.11936240  0.99645099  1
  O  O257  1  0.74241447  0.63239500  0.49851684  1
  O  O258  1  0.74712715  0.63104773  0.99680130  1
  O  O259  1  0.26127408  0.35955168  0.00785447  1
  O  O260  1  0.25799716  0.35720212  0.49125245  1
  O  O261  1  0.25630539  0.86537417  0.00401957  1
  O  O262  1  0.25951155  0.85970687  0.49331206  1
  O  O263  1  0.74392909  0.37907867  0.01645711  1
  O  O264  1  0.75859015  0.36757520  0.50616419  1
  O  O265  1  0.74713474  0.86532742  0.00582866  1
  O  O266  1  0.75407257  0.87001419  0.50840454  1
  O  O267  1  0.13083576  0.49114638  0.24844147  1
  O  O268  1  0.13207398  0.49532331  0.74244686  1
  O  O269  1  0.12961196  0.99218830  0.24192181  1
  O  O270  1  0.13068849  0.99330090  0.74217569  1
  O  O271  1  0.63138388  0.49430421  0.24487121  1
  O  O272  1  0.63744737  0.49200320  0.74025266  1
  O  O273  1  0.61614612  0.98444700  0.25192715  1
  O  O274  1  0.63645903  0.99503658  0.75276472  1
  O  O275  1  0.36901506  -0.00102043  0.26185078  1
  O  O276  1  0.36451225  -0.00289732  0.74504276  1
  O  O277  1  0.36682514  0.50539424  0.25649936  1
  O  O278  1  0.37132305  0.49873800  0.74637185  1
  O  O279  1  0.86498913  -0.02532706  0.27165083  1
  O  O280  1  0.86586696  0.00279948  0.75535689  1
  O  O281  1  0.87189318  0.51080049  0.25534880  1
  O  O282  1  0.87855852  0.51383778  0.75102590  1
  O  O283  1  0.11694526  0.37404687  0.36741156  1
  O  O284  1  0.12337269  0.36960770  0.86047876  1
  O  O285  1  0.13258383  0.87931225  0.36078684  1
  O  O286  1  0.11949287  0.86604306  0.86429616  1
  O  O287  1  0.63104206  0.36927906  0.36202825  1
  O  O288  1  0.61731371  0.37146646  0.87645212  1
  O  O289  1  0.62033835  0.86824614  0.36978684  1
  O  O290  1  0.61993461  0.87625362  0.86037872  1
  O  O291  1  0.38688849  0.13241006  0.12754591  1
  O  O292  1  0.38481186  0.13412166  0.62420188  1
  O  O293  1  0.37919874  0.63041145  0.13315054  1
  O  O294  1  0.38116490  0.63550717  0.62122387  1
  O  O295  1  0.88561088  0.08860138  0.13247587  1
  O  O296  1  0.87541151  0.11905958  0.63832802  1
  O  O297  1  0.89061054  0.61942155  0.13469641  1
  O  O298  1  0.88279591  0.62668979  0.63069619  1
  O  O299  1  0.26387744  0.24809666  0.12296543  1
  O  O300  1  0.25626391  0.24294321  0.61105674  1
  O  O301  1  0.25231994  0.75287395  0.11847901  1
  O  O302  1  0.26006742  0.74032063  0.60956517  1
  O  O303  1  0.74646641  0.26351491  0.12780621  1
  O  O304  1  0.74637153  0.25793762  0.61280273  1
  O  O305  1  0.74743791  0.76228357  0.11365970  1
  O  O306  1  0.75027054  0.75833269  0.61456503  1
  O  O307  1  0.24978955  0.23987905  0.38401253  1
  O  O308  1  0.24205669  0.25104332  0.88110832  1
  O  O309  1  0.25417901  0.73687070  0.38515181  1
  O  O310  1  0.24550011  0.74398761  0.88107215  1
  O  O311  1  0.73796147  0.25460819  0.38437876  1
  O  O312  1  0.73167339  0.24754053  0.86631440  1
  O  O313  1  0.74176674  0.74465686  0.39037052  1
  O  O314  1  0.75621960  0.73616226  0.88228379  1
  O  O315  1  0.00646190  0.12089231  0.00099569  1
  O  O316  1  -0.00925140  0.11032053  0.49820305  1
  O  O317  1  -0.00218582  0.63443313  0.01601217  1
  O  O318  1  -0.00601086  0.62100959  0.50957265  1
  O  O319  1  0.50482760  0.11794555  0.00746793  1
  O  O320  1  0.50572338  0.11724066  0.50794820  1
  O  O321  1  0.50774427  0.62377813  0.00717757  1
  O  O322  1  0.51491565  0.62103573  0.49766625  1
  O  O323  1  0.49609618  0.37869610  0.49856296  1
  O  O324  1  0.49489303  0.38157624  0.98985129  1
  O  O325  1  0.49590751  0.88072036  0.49614003  1
  O  O326  1  0.49875039  0.88141340  0.99493655  1
  O  O327  1  0.99320916  0.37755198  0.49558379  1
  O  O328  1  1.00669660  0.38213198  1.00941424  1
  O  O329  1  0.98663372  0.88060902  0.50217158  1
  O  O330  1  1.00003609  0.87294456  0.98400575  1
  O  O331  1  0.48475053  0.50652084  0.37167479  1
  O  O332  1  0.49056234  0.50115625  0.87190476  1
  O  O333  1  0.49228729  0.99638247  0.38566007  1
  O  O334  1  0.49775925  0.99024484  0.88333047  1
  O  O335  1  0.99540629  0.49580201  0.37939593  1
  O  O336  1  0.99583107  0.51161623  0.87589859  1
  O  O337  1  1.00730184  0.99997145  0.38816761  1
  O  O338  1  0.99434777  0.99070124  0.86990708  1
  O  O339  1  0.01672153  -0.01617717  0.11790716  1
  O  O340  1  0.00682422  0.00227571  0.61641025  1
  O  O341  1  0.01272366  0.51198118  0.13176722  1
  O  O342  1  0.00853290  0.50702512  0.61719204  1
  O  O343  1  0.50185795  0.00903869  0.11958489  1
  O  O344  1  0.49412153  0.00542369  0.61274211  1
  O  O345  1  0.51263567  0.50607538  0.12777541  1
  O  O346  1  0.51650200  0.50346406  0.62356666  1
  O  O347  1  0.24305415  0.38456640  0.24993137  1
  O  O348  1  0.24357987  0.39270315  0.75568745  1
  O  O349  1  0.24523100  0.87963975  0.24496401  1
  O  O350  1  0.24005752  0.88397400  0.75277740  1
  O  O351  1  0.74420682  0.38287681  0.24063383  1
  O  O352  1  0.75694497  0.37262246  0.73400893  1
  O  O353  1  0.74135021  0.86467265  0.23255520  1
  O  O354  1  0.74084630  0.87791413  0.74466798  1
  O  O355  1  0.25451592  0.11711339  0.26007763  1
  O  O356  1  0.25158805  0.11166125  0.74832761  1
  O  O357  1  0.25359918  0.62147568  0.26028515  1
  O  O358  1  0.24911299  0.61300250  0.75773021  1
  O  O359  1  0.74546414  0.10511894  0.24725216  1
  O  O360  1  0.75430911  0.11715980  0.74939543  1
  O  O361  1  0.75962131  0.62578417  0.25205369  1
  O  O362  1  0.75968237  0.62421092  0.75658048  1
  O  O363  1  0.37110225  0.11200323  0.37675390  1
  O  O364  1  0.37357670  0.12084939  0.86962313  1
  O  O365  1  0.36688314  0.61637459  0.36950253  1
  O  O366  1  0.37070574  0.62420228  0.87523704  1
  O  O367  1  0.86701518  0.12026839  0.36174549  1
  O  O368  1  0.87303531  0.11320868  0.86186886  1
  O  O369  1  0.86889863  0.62337693  0.36665100  1
  O  O370  1  0.87373498  0.61708918  0.86701314  1
  O  O371  1  0.12971099  0.38869590  0.13517361  1
  O  O372  1  0.12552794  0.38822567  0.63568364  1
  O  O373  1  0.13475097  0.87846402  0.13251199  1
  O  O374  1  0.11889721  0.88303194  0.63716863  1
  O  O375  1  0.63172610  0.38287670  0.13285093  1
  O  O376  1  0.63535198  0.38099005  0.62420683  1
  O  O377  1  0.62892687  0.87549163  0.13410951  1
  O  O378  1  0.63186128  0.87147943  0.63905523  1
  O  O379  1  0.12853105  0.26345878  0.25124608  1
  O  O380  1  0.12512871  0.25876729  0.75314492  1
  O  O381  1  0.11747854  0.75655147  0.25032944  1
  O  O382  1  0.12488852  0.75758112  0.75323549  1
  O  O383  1  0.62136605  0.25536260  0.25779664  1
  O  O384  1  0.61737080  0.25337216  0.75756124  1
  O  O385  1  0.61872111  0.75822841  0.25628691  1
  O  O386  1  0.62847922  0.75887526  0.74979201  1
  O  O387  1  0.38292982  0.25053593  0.24544435  1
  O  O388  1  0.37575219  0.24781210  0.73995441  1
  O  O389  1  0.37873352  0.74725166  0.24736206  1
  O  O390  1  0.36487401  0.75592996  0.73060004  1
  O  O391  1  0.88465665  0.25506059  0.25147194  1
  O  O392  1  0.88598290  0.24166409  0.75947735  1
  O  O393  1  0.88717861  0.74674777  0.25329230  1
  O  O394  1  0.88179838  0.73885159  0.74800302  1
  O  O395  1  0.37432025  0.50056962  0.48476425  1
  O  O396  1  0.37515981  0.48643695  1.01061244  1
  O  O397  1  0.37875424  0.99122775  0.49642702  1
  O  O398  1  0.38649097  0.99404998  1.00243007  1
  O  O399  1  0.88153965  0.49347036  0.49228436  1
  O  O400  1  0.87674827  0.49885889  0.98744830  1
  O  O401  1  0.88651688  0.98717853  0.50258491  1
  O  O402  1  0.87500144  0.99314555  0.98046694  1
  O  O403  1  0.12889839  -0.00053762  0.00746480  1
  O  O404  1  0.10972449  -0.01043875  0.50880803  1
  O  O405  1  0.13237102  0.50066489  0.01683516  1
  O  O406  1  0.12010507  0.49237050  0.50738650  1
  O  O407  1  0.61230802  0.00652005  -0.00045510  1
  O  O408  1  0.61503034  0.00747894  0.49632931  1
  O  O409  1  0.62317931  0.51157047  0.00845870  1
  O  O410  1  0.62930477  0.50795946  0.50516699  1
  O  O411  1  0.37565949  0.36775709  0.12088913  1
  O  O412  1  0.37666707  0.36023779  0.62146486  1
  O  O413  1  0.36873953  0.87024015  0.12112828  1
  O  O414  1  0.38081226  0.86431714  0.61231918  1
  O  O415  1  0.85941807  0.38295837  0.12209302  1
  O  O416  1  0.87036416  0.38174802  0.61085376  1
  O  O417  1  0.86023179  0.88318857  0.12260969  1
  O  O418  1  0.86493947  0.87162299  0.61791186  1
  O  O419  1  0.13711856  0.12432625  0.37143928  1
  O  O420  1  0.13198532  0.13517650  0.87538969  1
  O  O421  1  0.13965958  0.61963355  0.37183244  1
  O  O422  1  0.13252333  0.63937037  0.86974163  1
  O  O423  1  0.61994039  0.13574277  0.38931854  1
  O  O424  1  0.62043371  0.13403088  0.88335239  1
  O  O425  1  0.63176806  0.62937814  0.38135330  1
  O  O426  1  0.63817426  0.62167134  0.88656917  1
