# generated using pymatgen
data_V85Zn86O256
_symmetry_space_group_name_H-M   'P 1'
_cell_length_a   16.92713713
_cell_length_b   16.92483799
_cell_length_c   16.92668642
_cell_angle_alpha   89.93663293
_cell_angle_beta   89.98227743
_cell_angle_gamma   89.94646717
_symmetry_Int_Tables_number   1
_chemical_formula_structural   V85Zn86O256
_chemical_formula_sum   'V85 Zn86 O256'
_cell_volume   4849.30505724
_cell_formula_units_Z   1
loop_
 _symmetry_equiv_pos_site_id
 _symmetry_equiv_pos_as_xyz
  1  'x, y, z'
loop_
 _atom_site_type_symbol
 _atom_site_label
 _atom_site_symmetry_multiplicity
 _atom_site_fract_x
 _atom_site_fract_y
 _atom_site_fract_z
 _atom_site_occupancy
  V  V0  1  0.00628372  0.74802163  0.75099543  1
  V  V1  1  0.74629268  0.75819280  0.50527465  1
  V  V2  1  0.88027179  0.11826284  0.24285614  1
  V  V3  1  0.12752538  0.87887898  0.74875229  1
  V  V4  1  0.87117214  0.13738762  0.74951658  1
  V  V5  1  0.37289049  0.12220739  0.26424290  1
  V  V6  1  0.74540710  0.87247756  0.11986283  1
  V  V7  1  0.24451579  0.75051399  0.49040674  1
  V  V8  1  0.24266250  0.87826540  0.62152558  1
  V  V9  1  0.24884764  0.88998027  0.12545364  1
  V  V10  1  0.37458947  0.24257791  0.63114148  1
  V  V11  1  0.50069302  0.12376109  0.11878660  1
  V  V12  1  0.49587962  0.50531936  0.00950672  1
  V  V13  1  0.49388155  0.74513359  0.75216886  1
  V  V14  1  0.37364075  0.37407494  -0.00015195  1
  V  V15  1  0.11660840  0.24267810  0.87147269  1
  V  V16  1  0.12449265  0.49979107  0.62655148  1
  V  V17  1  0.25358800  0.00799553  0.74326625  1
  V  V18  1  0.49887079  0.74623033  0.24492729  1
  V  V19  1  0.37368787  0.37544942  0.50118545  1
  V  V20  1  0.12813186  0.87506308  0.25766512  1
  V  V21  1  0.49307285  0.87812743  0.37160569  1
  V  V22  1  0.24067724  0.37752831  0.12323645  1
  V  V23  1  -0.00150223  0.37021517  0.37597125  1
  V  V24  1  0.62600077  0.12348095  0.50635494  1
  V  V25  1  -0.00718528  0.00241573  0.50431832  1
  V  V26  1  0.49782731  -0.00080721  0.49872046  1
  V  V27  1  0.23705105  0.75474233  -0.00375060  1
  V  V28  1  0.25120189  0.24326174  -0.00299160  1
  V  V29  1  0.24960788  0.24601903  0.49547471  1
  V  V30  1  0.00790063  0.74818281  0.25676902  1
  V  V31  1  0.12227507  0.62850841  0.49228905  1
  V  V32  1  0.74896371  0.61644307  0.87481606  1
  V  V33  1  0.62488243  0.39094747  0.74593519  1
  V  V34  1  0.75276944  0.37440662  0.11141762  1
  V  V35  1  0.62367373  0.87737988  0.25058335  1
  V  V36  1  0.49665034  0.61991406  0.62912791  1
  V  V37  1  0.11070954  0.11279638  0.00965471  1
  V  V38  1  0.90701930  0.88738543  0.02145390  1
  V  V39  1  0.24875395  0.37464308  0.62804111  1
  V  V40  1  -0.00009358  0.49888811  0.50157155  1
  V  V41  1  0.49890811  0.24817114  0.25274560  1
  V  V42  1  0.75904440  0.11826976  0.37619254  1
  V  V43  1  0.37526849  0.62288245  0.24702978  1
  V  V44  1  0.87501418  0.62576037  0.24851351  1
  V  V45  1  0.74765586  0.49343456  0.25386122  1
  V  V46  1  0.37098156  0.51107426  0.86892602  1
  V  V47  1  -0.00154905  0.62522137  0.62478458  1
  V  V48  1  0.12232723  0.61139561  -0.00169091  1
  V  V49  1  0.50184593  0.87685478  0.87546374  1
  V  V50  1  0.87374464  0.49786638  0.37916872  1
  V  V51  1  0.62391307  0.62370153  0.50637413  1
  V  V52  1  0.87602120  0.36959533  0.51219821  1
  V  V53  1  0.50009287  0.37545392  0.87525217  1
  V  V54  1  0.75346151  0.24872652  0.51270624  1
  V  V55  1  0.37376976  0.24850492  0.12493326  1
  V  V56  1  0.37273403  0.87866175  0.49679994  1
  V  V57  1  0.74666036  0.38927049  0.63035992  1
  V  V58  1  0.62807096  0.24921959  0.37646133  1
  V  V59  1  0.37709789  0.00989066  0.86814563  1
  V  V60  1  0.37751397  0.88186111  -0.00221750  1
  V  V61  1  0.50330440  0.24372203  0.75157925  1
  V  V62  1  -0.00691218  0.87955908  0.37739640  1
  V  V63  1  -0.00646245  0.37135895  0.87934144  1
  V  V64  1  0.37507986  0.74766298  0.12136156  1
  V  V65  1  0.87934773  -0.00209212  0.87609975  1
  V  V66  1  0.87067100  0.62108477  0.75115454  1
  V  V67  1  0.87107735  0.76071906  0.62597676  1
  V  V68  1  0.11881998  0.37169721  0.75155603  1
  V  V69  1  0.50202478  0.50011855  0.50159024  1
  V  V70  1  0.00542956  0.87418201  0.87179486  1
  V  V71  1  0.75659470  -0.01350168  0.74035595  1
  V  V72  1  0.49911193  0.37546135  0.37651328  1
  V  V73  1  0.87505455  0.49678391  0.88231486  1
  V  V74  1  0.12524542  0.11839276  0.50210336  1
  V  V75  1  -0.00208039  0.24703907  0.24070055  1
  V  V76  1  0.37052433  0.74509134  0.62676131  1
  V  V77  1  0.62813273  0.74897418  0.87637319  1
  V  V78  1  0.62348914  0.00447739  0.11783718  1
  V  V79  1  0.12663108  0.24444181  0.37203846  1
  V  V80  1  0.62285937  0.62575453  0.00934342  1
  V  V81  1  0.74788295  0.62547819  0.37823592  1
  V  V82  1  0.24081680  0.50127781  0.24585520  1
  V  V83  1  0.00167620  0.13669342  0.63312570  1
  V  V84  1  0.24916421  0.00713798  0.26786885  1
  Zn  Zn85  1  0.11926433  0.37688224  0.24497155  1
  Zn  Zn86  1  0.63300897  -0.01741351  0.61907749  1
  Zn  Zn87  1  0.62211157  0.74927225  0.37585299  1
  Zn  Zn88  1  0.37137179  0.50184738  0.37434863  1
  Zn  Zn89  1  0.63166485  0.86709857  0.74306028  1
  Zn  Zn90  1  0.76115295  0.75008585  -0.00003013  1
  Zn  Zn91  1  -0.00272456  0.48935791  0.01319165  1
  Zn  Zn92  1  0.87672834  0.25110886  0.11255825  1
  Zn  Zn93  1  0.25174060  0.12568560  0.87052714  1
  Zn  Zn94  1  0.24432809  0.64090829  0.86274335  1
  Zn  Zn95  1  0.01069574  0.62030464  0.12921667  1
  Zn  Zn96  1  0.24517718  0.62671540  0.36950086  1
  Zn  Zn97  1  0.73559302  0.11648371  0.88131230  1
  Zn  Zn98  1  0.62035162  0.50257123  0.13101797  1
  Zn  Zn99  1  0.75603256  -0.00447908  0.25377919  1
  Zn  Zn100  1  0.74667366  0.23564811  -0.00416649  1
  Zn  Zn101  1  0.62444115  0.37635905  0.25171223  1
  Zn  Zn102  1  0.55229244  0.05892300  -0.04562120  1
  Zn  Zn103  1  0.25136957  0.50854758  0.74787812  1
  Zn  Zn104  1  0.87626284  0.74961021  0.12842016  1
  Zn  Zn105  1  0.86633577  0.88445205  0.49796131  1
  Zn  Zn106  1  0.49622283  0.11945691  0.62560790  1
  Zn  Zn107  1  0.18578587  0.18316215  0.18471029  1
  Zn  Zn108  1  0.18442406  0.18831129  0.68552184  1
  Zn  Zn109  1  0.18782679  0.69272669  0.18186923  1
  Zn  Zn110  1  0.18660842  0.68745460  0.68382181  1
  Zn  Zn111  1  0.69047568  0.18734377  0.18708004  1
  Zn  Zn112  1  0.68871313  0.18855572  0.69417281  1
  Zn  Zn113  1  0.68878158  0.68825357  0.18941629  1
  Zn  Zn114  1  0.68628081  0.68551270  0.68848173  1
  Zn  Zn115  1  0.31109878  0.31361072  0.31141238  1
  Zn  Zn116  1  0.31229536  0.31366428  0.81287067  1
  Zn  Zn117  1  0.31273639  0.81374140  0.31066871  1
  Zn  Zn118  1  0.31308167  0.81659932  0.81126816  1
  Zn  Zn119  1  0.81599777  0.30656475  0.31595401  1
  Zn  Zn120  1  0.80102749  0.30984211  0.82464773  1
  Zn  Zn121  1  0.81193560  0.81088808  0.31471608  1
  Zn  Zn122  1  0.81956344  0.80921004  0.81926085  1
  Zn  Zn123  1  0.18663338  0.43601313  0.43387300  1
  Zn  Zn124  1  0.18766335  0.43354383  0.93401912  1
  Zn  Zn125  1  0.18131651  0.93750118  0.43625504  1
  Zn  Zn126  1  0.18812698  0.93874217  0.93148603  1
  Zn  Zn127  1  0.68589205  0.43668911  0.44230969  1
  Zn  Zn128  1  0.68091137  0.43646016  0.93752215  1
  Zn  Zn129  1  0.68237808  0.93782162  0.43450140  1
  Zn  Zn130  1  0.69449707  0.93736944  0.93447159  1
  Zn  Zn131  1  0.31810328  0.06562928  0.06068153  1
  Zn  Zn132  1  0.31149382  0.06206581  0.55809241  1
  Zn  Zn133  1  0.30675351  0.56548265  0.06034663  1
  Zn  Zn134  1  0.31078185  0.56294681  0.56111081  1
  Zn  Zn135  1  0.81045817  0.06146573  0.06238423  1
  Zn  Zn136  1  0.81828268  0.06594590  0.56678478  1
  Zn  Zn137  1  0.81106882  0.56061519  0.06468990  1
  Zn  Zn138  1  0.81322793  0.56588276  0.56447357  1
  Zn  Zn139  1  0.43203401  0.43482745  0.18880302  1
  Zn  Zn140  1  0.43611232  0.43506847  0.68839243  1
  Zn  Zn141  1  0.43415919  0.94227647  0.18659844  1
  Zn  Zn142  1  0.43776953  0.93216077  0.68495589  1
  Zn  Zn143  1  0.93558933  0.43789784  0.18669738  1
  Zn  Zn144  1  0.93631130  0.43619684  0.69375878  1
  Zn  Zn145  1  0.93905956  0.93700766  0.19055530  1
  Zn  Zn146  1  0.94210665  0.94260288  0.68453400  1
  Zn  Zn147  1  0.06302398  0.06082835  0.31434715  1
  Zn  Zn148  1  0.06489900  0.05965126  0.81137535  1
  Zn  Zn149  1  0.06063065  0.55907324  0.31269769  1
  Zn  Zn150  1  0.06442170  0.56174696  0.81809258  1
  Zn  Zn151  1  0.56289983  0.06285074  0.31359962  1
  Zn  Zn152  1  0.56394739  0.05635720  0.79247494  1
  Zn  Zn153  1  0.56013996  0.56474968  0.31567412  1
  Zn  Zn154  1  0.55821908  0.56401896  0.81784429  1
  Zn  Zn155  1  0.43796228  0.18829865  0.44139087  1
  Zn  Zn156  1  0.61361252  0.23072425  0.89287253  1
  Zn  Zn157  1  0.43405279  0.68929290  0.43359598  1
  Zn  Zn158  1  0.43669969  0.68897106  0.94086048  1
  Zn  Zn159  1  0.93747191  0.18617575  0.43753233  1
  Zn  Zn160  1  0.93210540  0.18574376  0.93959468  1
  Zn  Zn161  1  0.93505287  0.69226261  0.43572215  1
  Zn  Zn162  1  0.94020752  0.69323057  0.94107993  1
  Zn  Zn163  1  0.06412654  0.30500480  0.05664624  1
  Zn  Zn164  1  0.06390374  0.30916260  0.56306692  1
  Zn  Zn165  1  0.05986809  0.82560104  0.07680025  1
  Zn  Zn166  1  0.06030042  0.81294324  0.56174984  1
  Zn  Zn167  1  0.56479764  0.31532390  0.06772345  1
  Zn  Zn168  1  0.56430640  0.31308663  0.56733395  1
  Zn  Zn169  1  0.56146127  0.81367088  0.06084397  1
  Zn  Zn170  1  0.55984544  0.81014968  0.56414981  1
  O  O171  1  0.12295610  0.12713272  0.10940996  1
  O  O172  1  0.11179392  0.12985253  0.61744274  1
  O  O173  1  0.12853734  0.63241226  0.10435841  1
  O  O174  1  0.11680682  0.61922940  0.61369045  1
  O  O175  1  0.61638951  0.11399062  0.13667389  1
  O  O176  1  0.62571598  0.12504884  0.61273099  1
  O  O177  1  0.62904085  0.62385534  0.11322040  1
  O  O178  1  0.61299800  0.62936782  0.61464829  1
  O  O179  1  0.38289193  0.37417060  0.38302183  1
  O  O180  1  0.38456321  0.38197865  0.87953516  1
  O  O181  1  0.38509872  0.87164088  0.38085919  1
  O  O182  1  0.38379645  0.87997392  0.88087018  1
  O  O183  1  0.87922112  0.37787677  0.38848028  1
  O  O184  1  0.88122605  0.38450680  0.86260849  1
  O  O185  1  0.88803205  0.87323618  0.37648630  1
  O  O186  1  0.88623741  0.88138467  0.88214835  1
  O  O187  1  0.25165054  -0.00048029  0.36651080  1
  O  O188  1  0.26015482  -0.00227388  0.86108293  1
  O  O189  1  0.25231072  0.50081577  0.36368779  1
  O  O190  1  0.26512831  0.49719257  0.87584856  1
  O  O191  1  0.74264815  0.01413747  0.37283021  1
  O  O192  1  0.76234048  -0.00140399  0.86249800  1
  O  O193  1  0.75334286  0.50623284  0.37486533  1
  O  O194  1  0.75482056  0.50987738  0.87814185  1
  O  O195  1  0.25535933  0.48949383  0.13154317  1
  O  O196  1  0.24385458  0.49064066  0.62308711  1
  O  O197  1  0.25806221  0.99149410  0.12976094  1
  O  O198  1  0.25911804  0.98857203  0.62949572  1
  O  O199  1  0.74895947  0.49166518  0.13703297  1
  O  O200  1  0.75142104  0.48885644  0.62203837  1
  O  O201  1  0.73980679  0.99062485  0.13265024  1
  O  O202  1  0.75548225  0.99834524  0.63646593  1
  O  O203  1  -0.00167361  0.36586656  0.25919420  1
  O  O204  1  0.01154202  0.37669103  0.75901075  1
  O  O205  1  0.00889985  0.87147088  0.25906484  1
  O  O206  1  0.00777705  0.86956015  0.75078347  1
  O  O207  1  0.50003046  0.36822264  0.25887852  1
  O  O208  1  0.50794374  0.37109593  0.75332209  1
  O  O209  1  0.50187615  0.87142729  0.25551900  1
  O  O210  1  0.50071153  0.86221639  0.75955365  1
  O  O211  1  0.49179782  0.13053180  0.24874151  1
  O  O212  1  0.50063749  0.13943218  0.74275128  1
  O  O213  1  0.49089615  0.63466566  0.25182680  1
  O  O214  1  0.50181241  0.63483727  0.74341779  1
  O  O215  1  0.98820487  0.13037725  0.25638781  1
  O  O216  1  0.99389855  0.12021846  0.73833366  1
  O  O217  1  0.99283465  0.63122869  0.25433616  1
  O  O218  1  0.99752821  0.63146823  0.74476093  1
  O  O219  1  0.36509730  0.25895432  0.00932398  1
  O  O220  1  0.36708182  0.25578238  0.50627120  1
  O  O221  1  0.36973780  0.75997640  0.00661987  1
  O  O222  1  0.36836412  0.75962155  0.50418069  1
  O  O223  1  0.86297636  0.24686381  0.00002902  1
  O  O224  1  0.86554424  0.25827253  0.49759448  1
  O  O225  1  0.88043243  0.76891156  0.00833365  1
  O  O226  1  0.86436758  0.74993395  0.50914381  1
  O  O227  1  0.13153123  0.24277394  0.49391427  1
  O  O228  1  0.13254738  0.23871881  0.98950660  1
  O  O229  1  0.13238182  0.74098080  0.50552571  1
  O  O230  1  0.13786573  0.75833778  1.00537395  1
  O  O231  1  0.63002700  0.24451055  0.49395617  1
  O  O232  1  0.63428404  0.26788474  0.99748304  1
  O  O233  1  0.62947002  0.74110855  0.49806324  1
  O  O234  1  0.62189263  0.74298177  0.98909052  1
  O  O235  1  0.49467775  0.24746847  0.13574023  1
  O  O236  1  0.49101404  0.25114347  0.63296651  1
  O  O237  1  0.49029112  0.75818395  0.13609945  1
  O  O238  1  0.49032386  0.74023512  0.63124954  1
  O  O239  1  0.99743053  0.25661906  0.13747823  1
  O  O240  1  0.99777040  0.23576102  0.62215800  1
  O  O241  1  0.99752212  0.74691345  0.14372047  1
  O  O242  1  0.99105137  0.74458238  0.63062187  1
  O  O243  1  0.00581105  0.25458505  0.36934544  1
  O  O244  1  0.01022167  0.25439997  0.87563471  1
  O  O245  1  -0.00184311  0.75898341  0.36556087  1
  O  O246  1  -0.00775027  0.75343785  0.85466659  1
  O  O247  1  0.50818831  0.25513716  0.37420340  1
  O  O248  1  0.50119346  0.26037499  0.85905072  1
  O  O249  1  0.49850040  0.75776657  0.36201354  1
  O  O250  1  0.50431317  0.75277633  0.86810342  1
  O  O251  1  0.24110844  0.13721951  0.50583283  1
  O  O252  1  0.25010215  0.13591814  0.99814118  1
  O  O253  1  0.24125610  0.63331187  0.49771802  1
  O  O254  1  0.24059504  0.63976186  0.99697809  1
  O  O255  1  0.74687849  0.13111647  0.49659063  1
  O  O256  1  0.74268988  0.11780498  0.99657144  1
  O  O257  1  0.74061465  0.63021868  0.49830919  1
  O  O258  1  0.74268321  0.62808099  0.99364323  1
  O  O259  1  0.25206137  0.36564497  0.00515643  1
  O  O260  1  0.25114633  0.36535904  0.50671017  1
  O  O261  1  0.25510291  0.87084143  0.00638873  1
  O  O262  1  0.25351791  0.87128233  0.50279393  1
  O  O263  1  0.75300769  0.38625640  0.01194092  1
  O  O264  1  0.75562891  0.36893441  0.50892571  1
  O  O265  1  0.74925388  0.87202449  0.01247583  1
  O  O266  1  0.74841328  0.86217141  0.49154983  1
  O  O267  1  0.13627322  0.49774045  0.25158031  1
  O  O268  1  0.12464295  0.49190942  0.74299443  1
  O  O269  1  0.13987155  0.99544057  0.25439871  1
  O  O270  1  0.13601048  0.98804936  0.74843618  1
  O  O271  1  0.63301879  0.50211120  0.25219037  1
  O  O272  1  0.61683379  0.49002327  0.74959226  1
  O  O273  1  0.62311180  0.98716108  0.24536226  1
  O  O274  1  0.64378867  0.99406700  0.74175747  1
  O  O275  1  0.36140314  0.00852822  0.24925137  1
  O  O276  1  0.36703611  -0.00924395  0.75561609  1
  O  O277  1  0.36662623  0.50935955  0.24920187  1
  O  O278  1  0.37531819  0.49686253  0.76579169  1
  O  O279  1  0.87727104  0.01230007  0.24985096  1
  O  O280  1  0.86875472  0.00170947  0.75415931  1
  O  O281  1  0.86684682  0.50649811  0.26113904  1
  O  O282  1  0.88160784  0.51562550  0.76008148  1
  O  O283  1  0.11610384  0.36295327  0.37422593  1
  O  O284  1  0.11858903  0.36722977  0.86805679  1
  O  O285  1  0.11631328  0.87578108  0.36535115  1
  O  O286  1  0.12066125  0.87630161  0.86042610  1
  O  O287  1  0.61760814  0.36627503  0.37786564  1
  O  O288  1  0.61021696  0.38281861  0.86362535  1
  O  O289  1  0.61221437  0.87172619  0.36755115  1
  O  O290  1  0.61961387  0.86629790  0.87223447  1
  O  O291  1  0.38174369  0.13185988  0.13422691  1
  O  O292  1  0.37567020  0.13931074  0.61785979  1
  O  O293  1  0.36869630  0.63832214  0.13182160  1
  O  O294  1  0.38037005  0.63763241  0.61705935  1
  O  O295  1  0.87165400  0.12647401  0.14016721  1
  O  O296  1  0.88542324  0.12519953  0.64015776  1
  O  O297  1  0.87115875  0.62600774  0.14096988  1
  O  O298  1  0.88074762  0.63082355  0.63302091  1
  O  O299  1  0.25478781  0.25450062  0.11891146  1
  O  O300  1  0.25564974  0.25695016  0.62016572  1
  O  O301  1  0.25930600  0.76253048  0.11568443  1
  O  O302  1  0.25555209  0.75697945  0.61331437  1
  O  O303  1  0.74863689  0.26678332  0.12879017  1
  O  O304  1  0.74365263  0.25825076  0.61531916  1
  O  O305  1  0.75052398  0.75811057  0.12312250  1
  O  O306  1  0.75842565  0.74183057  0.61627683  1
  O  O307  1  0.24084211  0.25603265  0.38463763  1
  O  O308  1  0.24338782  0.24918219  0.88180773  1
  O  O309  1  0.25269642  0.75045190  0.38675121  1
  O  O310  1  0.25639910  0.75635688  0.89216049  1
  O  O311  1  0.74291616  0.24223296  0.38576852  1
  O  O312  1  0.73153402  0.23644252  0.87054733  1
  O  O313  1  0.74714886  0.74105458  0.38402583  1
  O  O314  1  0.74328441  0.74124575  0.87868836  1
  O  O315  1  0.01158882  0.12186440  -0.00532978  1
  O  O316  1  0.00412559  0.12116312  0.50848403  1
  O  O317  1  0.01491825  0.62763771  0.00054961  1
  O  O318  1  0.00367557  0.62168110  0.50363915  1
  O  O319  1  0.49393821  0.13106481  0.01924389  1
  O  O320  1  0.50727097  0.11639644  0.50100819  1
  O  O321  1  0.50798866  0.61709322  -0.00370429  1
  O  O322  1  0.50340826  0.62025175  0.50446952  1
  O  O323  1  0.49653192  0.38267595  0.49855981  1
  O  O324  1  0.49401639  0.38286110  0.99173771  1
  O  O325  1  0.49149744  0.87755251  0.49212568  1
  O  O326  1  0.49184608  0.86868139  0.98548405  1
  O  O327  1  0.99230108  0.37634606  0.49829877  1
  O  O328  1  1.00529873  0.37353980  0.98453992  1
  O  O329  1  0.99955725  0.88397750  0.49467395  1
  O  O330  1  1.00782539  0.84940707  0.97297706  1
  O  O331  1  0.49566136  0.49379505  0.38375360  1
  O  O332  1  0.48750794  0.49625885  0.88359865  1
  O  O333  1  0.50421671  0.99183268  0.38759738  1
  O  O334  1  0.49596639  0.99146155  0.86912516  1
  O  O335  1  0.99478454  0.48994820  0.38195956  1
  O  O336  1  0.99200837  0.49023999  0.87887062  1
  O  O337  1  1.00656983  0.99181625  0.38895383  1
  O  O338  1  0.99074534  0.98755434  0.86574892  1
  O  O339  1  -0.01498903  -0.07529611  0.08802617  1
  O  O340  1  0.00021574  0.01093108  0.61229167  1
  O  O341  1  -0.00387727  0.50619901  0.12503776  1
  O  O342  1  0.00335675  0.50445716  0.61997314  1
  O  O343  1  0.50769905  0.01053834  0.13038499  1
  O  O344  1  0.50088780  -0.00132182  0.61238058  1
  O  O345  1  0.49778948  0.49418058  0.11338407  1
  O  O346  1  0.48960509  0.51343604  0.61971178  1
  O  O347  1  0.24860250  0.38300647  0.24084439  1
  O  O348  1  0.23993788  0.37903007  0.74345548  1
  O  O349  1  0.24836758  0.88639647  0.24719250  1
  O  O350  1  0.24416410  0.87818697  0.73957533  1
  O  O351  1  0.74927833  0.38753041  0.26189648  1
  O  O352  1  0.73265441  0.37206623  0.74515562  1
  O  O353  1  0.73910869  0.87373421  0.24658057  1
  O  O354  1  0.75579659  0.88377328  0.75480140  1
  O  O355  1  0.25507366  0.11362943  0.24860440  1
  O  O356  1  0.24687173  0.11151772  0.74574454  1
  O  O357  1  0.25465141  0.61939112  0.24739613  1
  O  O358  1  0.24501928  0.62260666  0.75141795  1
  O  O359  1  0.76257572  0.12477469  0.25883912  1
  O  O360  1  0.76213104  0.11434398  0.74892217  1
  O  O361  1  0.75466546  0.61710971  0.25838975  1
  O  O362  1  0.75913952  0.62944010  0.75996994  1
  O  O363  1  0.37676710  0.13118163  0.36385018  1
  O  O364  1  0.37347478  0.10839506  0.87621376  1
  O  O365  1  0.36990893  0.62591625  0.36013202  1
  O  O366  1  0.37078679  0.61330125  0.88096648  1
  O  O367  1  0.86619141  0.13023974  0.36613399  1
  O  O368  1  0.88239953  0.11269640  0.85983104  1
  O  O369  1  0.86857947  0.61914405  0.36909376  1
  O  O370  1  0.86806877  0.62300304  0.87036620  1
  O  O371  1  0.13716801  0.36656308  0.12485216  1
  O  O372  1  0.12838456  0.37724121  0.63196310  1
  O  O373  1  0.13955072  0.87375207  0.14362038  1
  O  O374  1  0.13726453  0.87412705  0.62569955  1
  O  O375  1  0.63820822  0.38262423  0.13417092  1
  O  O376  1  0.63011591  0.37811674  0.63624725  1
  O  O377  1  0.62736397  0.87933710  0.13236497  1
  O  O378  1  0.62543699  0.86899154  0.62931768  1
  O  O379  1  0.11766694  0.24782206  0.25708634  1
  O  O380  1  0.13071281  0.25841562  0.75944023  1
  O  O381  1  0.12035943  0.75810336  0.25171971  1
  O  O382  1  0.11578073  0.76315851  0.73775868  1
  O  O383  1  0.62167509  0.24878529  0.26488442  1
  O  O384  1  0.60946148  0.25955526  0.74399893  1
  O  O385  1  0.61542410  0.75896595  0.24977841  1
  O  O386  1  0.61775940  0.74595973  0.76308013  1
  O  O387  1  0.37698815  0.24323514  0.24428028  1
  O  O388  1  0.38803210  0.25984098  0.74156490  1
  O  O389  1  0.37848958  0.74504201  0.24120688  1
  O  O390  1  0.38151720  0.75442253  0.73967584  1
  O  O391  1  0.88301933  0.23903713  0.24927075  1
  O  O392  1  0.86843226  0.23518761  0.75689064  1
  O  O393  1  0.88142149  0.74003546  0.25336335  1
  O  O394  1  0.88037032  0.74109337  0.74247148  1
  O  O395  1  0.38363159  0.49486051  0.49812149  1
  O  O396  1  0.37806580  0.49580483  0.99372708  1
  O  O397  1  0.38034765  0.98694609  0.50142186  1
  O  O398  1  0.37092398  0.98754381  0.99083258  1
  O  O399  1  0.88060672  0.49336091  0.49746017  1
  O  O400  1  0.87763391  0.50816017  0.98595879  1
  O  O401  1  0.88400812  1.00058525  0.50025576  1
  O  O402  1  0.87164773  0.98741703  0.99125602  1
  O  O403  1  0.13334760  0.01492247  -0.00540136  1
  O  O404  1  0.12158742  0.01470398  0.49787602  1
  O  O405  1  0.12569995  0.50909407  -0.00187960  1
  O  O406  1  0.11874520  0.50413613  0.50585932  1
  O  O407  1  0.62230492  -0.01157895  0.01375328  1
  O  O408  1  0.61842064  0.00684053  0.50236247  1
  O  O409  1  0.61346338  0.50886909  0.00132387  1
  O  O410  1  0.61052784  0.50657136  0.49947582  1
  O  O411  1  0.36527015  0.36659954  0.12076001  1
  O  O412  1  0.36772274  0.36804290  0.61957322  1
  O  O413  1  0.37039357  0.87031557  0.11710934  1
  O  O414  1  0.36804485  0.86353376  0.61549277  1
  O  O415  1  0.85521566  0.37255110  0.13591086  1
  O  O416  1  0.86838304  0.37790770  0.61866910  1
  O  O417  1  0.85689180  0.87373509  0.12870860  1
  O  O418  1  0.87977799  0.86317960  0.62229893  1
  O  O419  1  0.11900261  0.13746489  0.38497968  1
  O  O420  1  0.12950275  0.13101847  0.87673588  1
  O  O421  1  0.12447066  0.61982406  0.38855204  1
  O  O422  1  0.12833206  0.62666004  0.89081460  1
  O  O423  1  0.63055495  0.13169025  0.38637824  1
  O  O424  1  0.61444597  0.11429349  0.87592308  1
  O  O425  1  0.62818287  0.62683186  0.38837928  1
  O  O426  1  0.63162273  0.62921119  0.88287199  1
