# generated using pymatgen
data_V85Zn86O256
_symmetry_space_group_name_H-M   'P 1'
_cell_length_a   16.92978472
_cell_length_b   16.93714484
_cell_length_c   16.92816376
_cell_angle_alpha   89.95616657
_cell_angle_beta   89.96302593
_cell_angle_gamma   89.99997989
_symmetry_Int_Tables_number   1
_chemical_formula_structural   V85Zn86O256
_chemical_formula_sum   'V85 Zn86 O256'
_cell_volume   4854.01675674
_cell_formula_units_Z   1
loop_
 _symmetry_equiv_pos_site_id
 _symmetry_equiv_pos_as_xyz
  1  'x, y, z'
loop_
 _atom_site_type_symbol
 _atom_site_label
 _atom_site_symmetry_multiplicity
 _atom_site_fract_x
 _atom_site_fract_y
 _atom_site_fract_z
 _atom_site_occupancy
  V  V0  1  0.37286133  0.36233444  0.00445166  1
  V  V1  1  0.24411031  0.50538463  0.23887813  1
  V  V2  1  0.62368527  0.24941101  0.87578769  1
  V  V3  1  0.62671150  0.25099169  0.36312929  1
  V  V4  1  0.50347577  0.11323881  0.62408796  1
  V  V5  1  -0.00554423  0.38130082  0.87247782  1
  V  V6  1  0.38237472  0.62448121  0.24851761  1
  V  V7  1  0.12350521  0.25076583  0.37207804  1
  V  V8  1  0.88517221  0.63524255  0.74693235  1
  V  V9  1  0.62547291  0.87944813  0.74038879  1
  V  V10  1  0.62696794  0.74215234  0.87572130  1
  V  V11  1  0.74542446  0.25051582  0.49954779  1
  V  V12  1  0.12967951  0.12043601  0.49280202  1
  V  V13  1  0.87390917  0.37545122  0.49706847  1
  V  V14  1  0.87583085  0.50750298  0.37062579  1
  V  V15  1  0.75626333  0.12002543  0.37365922  1
  V  V16  1  0.62742371  0.63117166  0.49479480  1
  V  V17  1  0.75116067  -0.00889709  0.25217526  1
  V  V18  1  0.37345019  0.37666764  0.50501311  1
  V  V19  1  0.37322658  0.25184693  0.62729521  1
  V  V20  1  0.25043165  0.49379118  0.74564846  1
  V  V21  1  0.50089194  0.87434286  0.87533202  1
  V  V22  1  0.24486374  0.62302276  0.37911384  1
  V  V23  1  0.76403750  0.74832762  -0.00793977  1
  V  V24  1  0.49598761  0.62985322  0.62175547  1
  V  V25  1  0.86898930  0.24562348  0.12524630  1
  V  V26  1  0.63007136  0.50166023  0.62471371  1
  V  V27  1  0.12154327  0.61927394  0.00470272  1
  V  V28  1  0.37428135  0.49949522  0.87867142  1
  V  V29  1  0.25417767  -0.00268673  0.25235782  1
  V  V30  1  0.24795745  0.36497501  0.12069411  1
  V  V31  1  0.76602806  0.74946241  0.50486277  1
  V  V32  1  0.88201942  0.90124431  0.50290833  1
  V  V33  1  0.12740052  0.00227288  0.62176595  1
  V  V34  1  0.38128726  0.87363714  0.50714736  1
  V  V35  1  0.87328873  -0.01001084  0.87686999  1
  V  V36  1  0.24968536  0.00484024  0.75306491  1
  V  V37  1  0.49784946  0.37440285  0.87695139  1
  V  V38  1  -0.00544087  0.88505145  0.37069928  1
  V  V39  1  0.37657982  -0.00376172  0.37786622  1
  V  V40  1  0.48929087  0.12888379  0.13380179  1
  V  V41  1  0.87833228  0.75244794  0.14603511  1
  V  V42  1  0.05347992  0.17111872  0.06438728  1
  V  V43  1  0.00171580  0.12340038  0.61853037  1
  V  V44  1  -0.00708513  0.62207247  0.14056993  1
  V  V45  1  0.37491974  0.87279783  -0.00001834  1
  V  V46  1  0.50679139  0.87767559  0.37244316  1
  V  V47  1  0.00027439  0.25188718  0.74984893  1
  V  V48  1  0.51074971  0.75214220  0.24792372  1
  V  V49  1  0.49980102  0.25015617  0.74830933  1
  V  V50  1  0.50204535  0.00102348  0.00171502  1
  V  V51  1  0.88174647  0.11990049  0.24900772  1
  V  V52  1  0.74805479  0.12135908  0.87571127  1
  V  V53  1  0.06958898  0.67160799  0.55885190  1
  V  V54  1  0.11998204  -0.00333230  0.12175184  1
  V  V55  1  0.12639352  0.49019652  0.61976523  1
  V  V56  1  0.62450440  -0.00737086  0.13156282  1
  V  V57  1  0.25105885  0.24930398  0.50299623  1
  V  V58  1  0.12470481  0.87496573  0.75226380  1
  V  V59  1  0.50182111  0.49985614  0.49874933  1
  V  V60  1  0.00259259  0.49759491  0.50235360  1
  V  V61  1  -0.00579794  0.50667654  -0.00071576  1
  V  V62  1  0.49485167  0.75004670  0.74752340  1
  V  V63  1  0.25883953  0.74574900  0.50605869  1
  V  V64  1  0.12787106  0.37196484  0.75199010  1
  V  V65  1  0.62572095  0.37767002  0.75062057  1
  V  V66  1  0.87595457  0.12397682  0.75013240  1
  V  V67  1  0.24431765  0.13006771  0.89085832  1
  V  V68  1  0.73804001  0.37477337  0.13220544  1
  V  V69  1  0.38117069  0.74484297  0.12409000  1
  V  V70  1  0.37474628  0.62636213  0.74826080  1
  V  V71  1  0.75583403  0.51001005  0.76679539  1
  V  V72  1  0.30946300  0.16487883  0.32360890  1
  V  V73  1  0.12220488  0.86425101  0.25189773  1
  V  V74  1  0.24922070  0.87260037  0.12526077  1
  V  V75  1  0.24736173  0.62359246  0.87645643  1
  V  V76  1  0.74740701  0.25035000  -0.00038412  1
  V  V77  1  0.12002039  0.74872378  0.87638568  1
  V  V78  1  0.62527732  0.11137274  0.50352717  1
  V  V79  1  0.75198173  0.50375845  0.25003928  1
  V  V80  1  -0.00479693  -0.01219290  0.00308643  1
  V  V81  1  0.87451922  0.25076489  0.62383766  1
  V  V82  1  0.86858994  0.38367976  -0.00160390  1
  V  V83  1  0.61580451  0.50784922  0.13249086  1
  V  V84  1  0.50448103  0.37493576  0.36978356  1
  Zn  Zn85  1  0.62217228  0.12443943  0.00223820  1
  Zn  Zn86  1  0.12387834  0.24745674  0.88899916  1
  Zn  Zn87  1  0.75453863  0.63161488  0.36875826  1
  Zn  Zn88  1  0.25429133  0.86984257  0.62735494  1
  Zn  Zn89  1  0.75655712  0.87845681  0.62391704  1
  Zn  Zn90  1  0.63107700  0.75825650  0.37194875  1
  Zn  Zn91  1  -0.00023820  0.37422643  0.36860808  1
  Zn  Zn92  1  -0.00562266  0.87012567  0.87454284  1
  Zn  Zn93  1  0.75019246  0.37628745  0.62766283  1
  Zn  Zn94  1  0.24824491  0.74845330  0.00061922  1
  Zn  Zn95  1  0.37235000  0.00232670  0.87697908  1
  Zn  Zn96  1  0.49680838  0.50430359  0.00913183  1
  Zn  Zn97  1  0.62237385  0.62618735  0.00245319  1
  Zn  Zn98  1  0.00055068  0.24944093  0.24894078  1
  Zn  Zn99  1  0.74483645  0.00127099  0.74536397  1
  Zn  Zn100  1  0.12113639  0.74776592  0.37515993  1
  Zn  Zn101  1  0.12092475  0.37919893  0.24535758  1
  Zn  Zn102  1  0.37313266  0.12558914  0.75218065  1
  Zn  Zn103  1  0.75366075  0.87404597  0.12112702  1
  Zn  Zn104  1  0.00088674  0.74953366  0.73563899  1
  Zn  Zn105  1  0.48545084  0.24713382  0.25016912  1
  Zn  Zn106  1  0.37533269  0.50222051  0.37575008  1
  Zn  Zn107  1  0.18997518  0.19028136  0.18656587  1
  Zn  Zn108  1  0.18949953  0.18802168  0.68801502  1
  Zn  Zn109  1  0.18797934  0.68452499  0.18257123  1
  Zn  Zn110  1  0.19293645  0.68844279  0.69202317  1
  Zn  Zn111  1  0.68514139  0.17691293  0.18613965  1
  Zn  Zn112  1  0.68641312  0.18633393  0.68821453  1
  Zn  Zn113  1  0.69430848  0.68644045  0.18434686  1
  Zn  Zn114  1  0.68840531  0.68961721  0.68449070  1
  Zn  Zn115  1  0.31030035  0.33067691  0.31642278  1
  Zn  Zn116  1  0.30941199  0.30846567  0.81730868  1
  Zn  Zn117  1  0.31324018  0.80926852  0.31583302  1
  Zn  Zn118  1  0.30987020  0.81222740  0.81451898  1
  Zn  Zn119  1  0.81302766  0.31351921  0.31078452  1
  Zn  Zn120  1  0.81029716  0.31562726  0.81201750  1
  Zn  Zn121  1  0.81509961  0.81605606  0.31954434  1
  Zn  Zn122  1  0.81073919  0.80616833  0.80843816  1
  Zn  Zn123  1  0.19039298  0.43599648  0.43494292  1
  Zn  Zn124  1  0.18470546  0.43737153  0.93868805  1
  Zn  Zn125  1  0.19279182  0.93491747  0.43532462  1
  Zn  Zn126  1  0.18546759  0.93946855  0.93918389  1
  Zn  Zn127  1  0.68773864  0.43773331  0.43485913  1
  Zn  Zn128  1  0.68219501  0.43934001  0.94315753  1
  Zn  Zn129  1  0.69411324  0.93613324  0.43868403  1
  Zn  Zn130  1  0.68721536  0.92879888  0.93756830  1
  Zn  Zn131  1  0.31348393  0.05910182  0.06494328  1
  Zn  Zn132  1  0.31460396  0.06236656  0.56124848  1
  Zn  Zn133  1  0.31442746  0.56388485  0.06178556  1
  Zn  Zn134  1  0.31172140  0.56117475  0.56429294  1
  Zn  Zn135  1  0.81288175  0.05988949  0.06235902  1
  Zn  Zn136  1  0.80589082  0.06299134  0.56835609  1
  Zn  Zn137  1  0.80877406  0.56837171  0.06327346  1
  Zn  Zn138  1  0.81412328  0.56512661  0.56372264  1
  Zn  Zn139  1  0.43179322  0.43487051  0.19064810  1
  Zn  Zn140  1  0.43971723  0.43926035  0.68674381  1
  Zn  Zn141  1  0.43807790  0.93624737  0.18888625  1
  Zn  Zn142  1  0.43532899  0.93671963  0.68967717  1
  Zn  Zn143  1  0.93494047  0.43615788  0.18596367  1
  Zn  Zn144  1  0.93476350  0.44405453  0.68380483  1
  Zn  Zn145  1  0.93765321  0.93620379  0.18774592  1
  Zn  Zn146  1  0.93933184  0.94070311  0.68749330  1
  Zn  Zn147  1  0.06576930  0.06075614  0.30908675  1
  Zn  Zn148  1  0.06230303  0.06337521  0.81623063  1
  Zn  Zn149  1  0.06522564  0.56013830  0.31778355  1
  Zn  Zn150  1  0.05850837  0.56201878  0.81107151  1
  Zn  Zn151  1  0.56459256  0.06226120  0.31390020  1
  Zn  Zn152  1  0.55958411  0.06165679  0.81301627  1
  Zn  Zn153  1  0.56552663  0.56142270  0.31026848  1
  Zn  Zn154  1  0.56107072  0.56180880  0.81350923  1
  Zn  Zn155  1  0.44704754  0.19054827  0.44547841  1
  Zn  Zn156  1  0.43454305  0.18273145  0.93753297  1
  Zn  Zn157  1  0.43721883  0.69020206  0.43185346  1
  Zn  Zn158  1  0.44248868  0.68442989  0.93907440  1
  Zn  Zn159  1  0.93861515  0.18448003  0.43668439  1
  Zn  Zn160  1  0.92977002  0.19266254  0.93064617  1
  Zn  Zn161  1  0.93900464  0.69489379  0.42249935  1
  Zn  Zn162  1  0.93134242  0.67982881  0.92408303  1
  Zn  Zn163  1  0.05947823  0.33500521  0.06714718  1
  Zn  Zn164  1  0.06282667  0.31276901  0.56076100  1
  Zn  Zn165  1  0.05701806  0.80682269  0.06418971  1
  Zn  Zn166  1  0.06258030  0.83498887  0.55680458  1
  Zn  Zn167  1  0.55815174  0.31131627  0.06451100  1
  Zn  Zn168  1  0.56248175  0.31107360  0.56148476  1
  Zn  Zn169  1  0.56545504  0.81127937  0.06197444  1
  Zn  Zn170  1  0.56195009  0.81072589  0.55923564  1
  O  O171  1  0.11968726  0.11868370  0.12585690  1
  O  O172  1  0.12120690  0.12261333  0.61563359  1
  O  O173  1  0.10809050  0.63249204  0.11452550  1
  O  O174  1  0.12716810  0.61439649  0.62348598  1
  O  O175  1  0.61585780  0.11160631  0.12041333  1
  O  O176  1  0.61254384  0.13029351  0.61948688  1
  O  O177  1  0.62476242  0.61036906  0.12929137  1
  O  O178  1  0.61926911  0.62032838  0.61390908  1
  O  O179  1  0.38317132  0.37907362  0.39002666  1
  O  O180  1  0.37528143  0.38018391  0.88524271  1
  O  O181  1  0.38206120  0.87967589  0.38308240  1
  O  O182  1  0.37862615  0.87450139  0.88721139  1
  O  O183  1  0.87473679  0.38124991  0.38602467  1
  O  O184  1  0.88158328  0.36856852  0.88715464  1
  O  O185  1  0.88708791  0.87792926  0.38546297  1
  O  O186  1  0.87437412  0.88669692  0.86557375  1
  O  O187  1  0.26226649  -0.00088350  0.36627359  1
  O  O188  1  0.24833352  0.00939112  0.87002418  1
  O  O189  1  0.25412388  0.50600485  0.36584132  1
  O  O190  1  0.25425378  0.50312109  0.86626377  1
  O  O191  1  0.74675459  0.01033717  0.36644219  1
  O  O192  1  0.75477031  0.00561500  0.87425587  1
  O  O193  1  0.75808010  0.49990754  0.36816666  1
  O  O194  1  0.74115158  0.49997922  0.86468451  1
  O  O195  1  0.25292845  0.49868448  0.13632541  1
  O  O196  1  0.24301977  0.50093558  0.63752163  1
  O  O197  1  0.24298340  0.99247920  0.13084407  1
  O  O198  1  0.24170650  1.00268018  0.63434664  1
  O  O199  1  0.74385674  0.49306198  0.13189007  1
  O  O200  1  0.73716932  0.49825271  0.62544495  1
  O  O201  1  0.74251439  0.99710652  0.13071667  1
  O  O202  1  0.75060828  0.99280605  0.63231608  1
  O  O203  1  0.00348315  0.37000707  0.24871847  1
  O  O204  1  0.00365952  0.37469628  0.75656465  1
  O  O205  1  0.00817151  0.87942034  0.26017632  1
  O  O206  1  0.01334063  0.87235694  0.74917354  1
  O  O207  1  0.48690812  0.36714100  0.26571239  1
  O  O208  1  0.50577785  0.37003278  0.75528418  1
  O  O209  1  0.49399925  0.86418630  0.25955057  1
  O  O210  1  0.50468972  0.86801875  0.75336742  1
  O  O211  1  0.50072481  0.12501894  0.23815389  1
  O  O212  1  0.49860558  0.13158842  0.74122703  1
  O  O213  1  0.48837333  0.63239283  0.25733258  1
  O  O214  1  0.49554177  0.63103240  0.74232477  1
  O  O215  1  0.98624708  0.12619263  0.25454644  1
  O  O216  1  0.99799648  0.13178555  0.74112026  1
  O  O217  1  1.00343045  0.61752687  0.23863731  1
  O  O218  1  0.99229827  0.62894853  0.74764752  1
  O  O219  1  0.37651201  0.26388730  -0.00321143  1
  O  O220  1  0.37065663  0.25563358  0.50694116  1
  O  O221  1  0.37439719  0.75492783  0.00632640  1
  O  O222  1  0.37058335  0.76169161  0.49595593  1
  O  O223  1  0.86679509  0.25739635  0.00631192  1
  O  O224  1  0.86515718  0.25556691  0.50156203  1
  O  O225  1  0.86554273  0.74489914  -0.00445276  1
  O  O226  1  0.86637352  0.74624074  0.49965331  1
  O  O227  1  0.13437433  0.24611408  0.49462614  1
  O  O228  1  0.10725243  0.23999096  1.01081513  1
  O  O229  1  0.12850504  0.74146462  0.50554719  1
  O  O230  1  0.12449909  0.74026572  0.99304990  1
  O  O231  1  0.63629242  0.24464749  0.49579736  1
  O  O232  1  0.62964708  0.24929956  0.99343914  1
  O  O233  1  0.63256772  0.74410344  0.49573164  1
  O  O234  1  0.62857783  0.74876372  0.98987820  1
  O  O235  1  0.50246158  0.23472639  0.12969146  1
  O  O236  1  0.49096495  0.24489827  0.62914216  1
  O  O237  1  0.48888228  0.75685362  0.13229857  1
  O  O238  1  0.50351963  0.73723471  0.63088887  1
  O  O239  1  0.99404637  0.24247219  0.11872922  1
  O  O240  1  0.99480850  0.24465159  0.62945080  1
  O  O241  1  0.98642263  0.73674411  0.12292296  1
  O  O242  1  1.01667687  0.73970224  0.61356567  1
  O  O243  1  0.01049566  0.25262810  0.37597114  1
  O  O244  1  0.00251012  0.26019522  0.86859980  1
  O  O245  1  0.00829521  0.77117286  0.38040418  1
  O  O246  1  0.01111497  0.75069576  0.87287759  1
  O  O247  1  0.51023759  0.25505467  0.37430210  1
  O  O248  1  0.50335825  0.25352853  0.86935747  1
  O  O249  1  0.50359322  0.75885777  0.36532138  1
  O  O250  1  0.50523103  0.75573473  0.86632746  1
  O  O251  1  0.24300819  0.13771033  0.50473153  1
  O  O252  1  0.25034564  0.11886538  0.98996114  1
  O  O253  1  0.25933314  0.63084460  0.49088813  1
  O  O254  1  0.23889665  0.62374819  0.99541182  1
  O  O255  1  0.74660242  0.13282153  0.49338068  1
  O  O256  1  0.74838304  0.12953737  0.98897029  1
  O  O257  1  0.74506440  0.63550429  0.49991663  1
  O  O258  1  0.74196171  0.64272356  1.00590631  1
  O  O259  1  0.25748788  0.38065592  0.01156358  1
  O  O260  1  0.25976847  0.36136672  0.49548993  1
  O  O261  1  0.25779019  0.87370127  0.00577272  1
  O  O262  1  0.26122993  0.86469272  0.50088986  1
  O  O263  1  0.75435532  0.37068715  0.00676830  1
  O  O264  1  0.75578531  0.36738774  0.50186269  1
  O  O265  1  0.74609184  0.85515592  0.00406526  1
  O  O266  1  0.76896334  0.86869958  0.49654294  1
  O  O267  1  0.14091962  0.49935577  0.25397499  1
  O  O268  1  0.12963937  0.49041162  0.74467397  1
  O  O269  1  0.13433711  0.99326823  0.23981033  1
  O  O270  1  0.13336746  0.99467423  0.74659754  1
  O  O271  1  0.63254534  0.49678654  0.24035548  1
  O  O272  1  0.63163431  0.49774198  0.74295946  1
  O  O273  1  0.63706913  1.00710767  0.24239905  1
  O  O274  1  0.62277148  0.98225622  0.75786457  1
  O  O275  1  0.36177261  -0.00595198  0.25575478  1
  O  O276  1  0.36109416  -0.00126378  0.75334688  1
  O  O277  1  0.36586681  0.50907711  0.25174946  1
  O  O278  1  0.36710697  0.50019749  0.75816043  1
  O  O279  1  0.86592062  0.00993437  0.24075562  1
  O  O280  1  0.87608181  0.00893533  0.75873177  1
  O  O281  1  0.86746599  0.49350683  0.26037179  1
  O  O282  1  0.85705494  0.49417345  0.75086542  1
  O  O283  1  0.12813346  0.36124867  0.37154443  1
  O  O284  1  0.11616867  0.37002036  0.87041361  1
  O  O285  1  0.12134792  0.87382435  0.36696602  1
  O  O286  1  0.12454489  0.86710568  0.86839168  1
  O  O287  1  0.61627452  0.36433380  0.38137899  1
  O  O288  1  0.61703574  0.37072956  0.87182561  1
  O  O289  1  0.61082773  0.87846577  0.38248689  1
  O  O290  1  0.61782995  0.86404881  0.86554682  1
  O  O291  1  0.39030280  0.11900662  0.12480561  1
  O  O292  1  0.38656032  0.13258292  0.62513986  1
  O  O293  1  0.37212526  0.63416628  0.13330424  1
  O  O294  1  0.38559499  0.61655812  0.63429579  1
  O  O295  1  0.86668433  0.13777254  0.13170690  1
  O  O296  1  0.88421388  0.13049795  0.62847302  1
  O  O297  1  0.88582969  0.63421664  0.12470424  1
  O  O298  1  0.87369526  0.61008680  0.64708417  1
  O  O299  1  0.25249122  0.26596948  0.12793762  1
  O  O300  1  0.26444632  0.24755343  0.61938337  1
  O  O301  1  0.26178750  0.75533365  0.12319443  1
  O  O302  1  0.24843495  0.74829863  0.61176036  1
  O  O303  1  0.75182012  0.25512317  0.12158944  1
  O  O304  1  0.75567190  0.25067303  0.61708693  1
  O  O305  1  0.76600823  0.75032330  0.12026829  1
  O  O306  1  0.74481527  0.75883594  0.60864051  1
  O  O307  1  0.24794119  0.24239710  0.37945212  1
  O  O308  1  0.24354515  0.23615135  0.87724827  1
  O  O309  1  0.24606498  0.74330778  0.38736868  1
  O  O310  1  0.23812224  0.74218106  0.87656463  1
  O  O311  1  0.74481150  0.24463593  0.38079996  1
  O  O312  1  0.74442996  0.24278623  0.87937984  1
  O  O313  1  0.74861733  0.74974951  0.38673511  1
  O  O314  1  0.74330718  0.75214075  0.88446159  1
  O  O315  1  -0.00419185  0.11869021  -0.00138067  1
  O  O316  1  0.01000857  0.13055726  0.51199416  1
  O  O317  1  0.00043568  0.61589228  -0.00274627  1
  O  O318  1  0.00544971  0.62025881  0.49602290  1
  O  O319  1  0.49956547  0.11584932  0.00802698  1
  O  O320  1  0.51081591  0.12664771  0.51455657  1
  O  O321  1  0.50762129  0.61579725  -0.00522101  1
  O  O322  1  0.50503410  0.62252790  0.50440847  1
  O  O323  1  0.49481592  0.37886439  0.49239577  1
  O  O324  1  0.48709644  0.37960354  0.99746708  1
  O  O325  1  0.48743865  0.86976284  0.49243201  1
  O  O326  1  0.49323918  0.88002857  0.99637550  1
  O  O327  1  0.99160414  0.38139240  0.49699004  1
  O  O328  1  0.99012488  0.38798918  0.99516466  1
  O  O329  1  0.98888770  0.88477184  0.49013355  1
  O  O330  1  1.00208681  0.88431412  0.99619543  1
  O  O331  1  0.50036396  0.49236444  0.38069081  1
  O  O332  1  0.48878428  0.49034152  0.87086619  1
  O  O333  1  0.48623842  0.99316375  0.36577940  1
  O  O334  1  0.49567840  0.99420607  0.88415420  1
  O  O335  1  0.99518308  0.49662860  0.38494414  1
  O  O336  1  1.00071380  0.48851296  0.88114640  1
  O  O337  1  1.01028256  0.98511556  0.37443640  1
  O  O338  1  0.99175061  0.99856656  0.88320069  1
  O  O339  1  0.00634715  -0.00074747  0.11716490  1
  O  O340  1  0.01731273  0.01043736  0.63123015  1
  O  O341  1  -0.00785109  0.51324313  0.11555745  1
  O  O342  1  0.00866647  0.49775578  0.61139933  1
  O  O343  1  0.50491251  0.00522739  0.12118245  1
  O  O344  1  0.49629982  0.01483616  0.63080301  1
  O  O345  1  0.51322998  0.49107273  0.13145411  1
  O  O346  1  0.51091290  0.50981526  0.62160939  1
  O  O347  1  0.25279780  0.38888030  0.23744472  1
  O  O348  1  0.24033362  0.38175071  0.75745105  1
  O  O349  1  0.24410858  0.87933107  0.24593057  1
  O  O350  1  0.24089539  0.88138053  0.74931260  1
  O  O351  1  0.75430237  0.38420858  0.24028879  1
  O  O352  1  0.74100275  0.38449363  0.74876293  1
  O  O353  1  0.75550145  0.88776912  0.25055343  1
  O  O354  1  0.73412211  0.87043194  0.74782838  1
  O  O355  1  0.24802002  0.11497934  0.25180865  1
  O  O356  1  0.25086356  0.11773229  0.75609146  1
  O  O357  1  0.25631318  0.61765039  0.25281984  1
  O  O358  1  0.25547781  0.61607039  0.75650037  1
  O  O359  1  0.75896049  0.11860439  0.25725698  1
  O  O360  1  0.75366013  0.12496579  0.76134182  1
  O  O361  1  0.74845622  0.61010655  0.25198228  1
  O  O362  1  0.75055639  0.61309538  0.74594418  1
  O  O363  1  0.37756186  0.11559224  0.38775485  1
  O  O364  1  0.36096799  0.12283124  0.87271375  1
  O  O365  1  0.36494403  0.62561402  0.36496091  1
  O  O366  1  0.36937311  0.61615013  0.86908651  1
  O  O367  1  0.86393508  0.13131806  0.36633021  1
  O  O368  1  0.86582937  0.11852929  0.86914181  1
  O  O369  1  0.87432531  0.61152289  0.37936368  1
  O  O370  1  0.87229146  0.61902249  0.84928032  1
  O  O371  1  0.14203355  0.38006104  0.12668562  1
  O  O372  1  0.12211287  0.38376888  0.63359256  1
  O  O373  1  0.12687909  0.87890272  0.13111499  1
  O  O374  1  0.13136147  0.88606194  0.63159715  1
  O  O375  1  0.63467663  0.37915680  0.12217919  1
  O  O376  1  0.62327279  0.38425854  0.63100421  1
  O  O377  1  0.62520680  0.88839062  0.12412420  1
  O  O378  1  0.61863195  0.87215501  0.63884893  1
  O  O379  1  0.12284373  0.24917188  0.25868954  1
  O  O380  1  0.11974136  0.26242637  0.74553587  1
  O  O381  1  0.13132332  0.76175452  0.24829784  1
  O  O382  1  0.12478559  0.75745883  0.75616003  1
  O  O383  1  0.62619636  0.24379896  0.26164401  1
  O  O384  1  0.62076340  0.25757048  0.75578826  1
  O  O385  1  0.61450926  0.74328570  0.24924422  1
  O  O386  1  0.61451677  0.75617560  0.75316060  1
  O  O387  1  0.36545994  0.23777343  0.27103495  1
  O  O388  1  0.37963427  0.25099135  0.74259865  1
  O  O389  1  0.38104189  0.74307289  0.24304256  1
  O  O390  1  0.38688218  0.74646527  0.75499669  1
  O  O391  1  0.87665464  0.24458696  0.24027319  1
  O  O392  1  0.87950042  0.24572635  0.74439971  1
  O  O393  1  0.87280564  0.74733060  0.24487230  1
  O  O394  1  0.88088704  0.74240464  0.74420695  1
  O  O395  1  0.38252954  0.49225842  0.50156631  1
  O  O396  1  0.37322662  0.49466867  0.98834620  1
  O  O397  1  0.36840611  0.98482737  0.49201507  1
  O  O398  1  0.38565187  0.98986632  1.00170332  1
  O  O399  1  0.88146070  0.49285800  0.49601321  1
  O  O400  1  0.87574959  0.49151619  1.00421003  1
  O  O401  1  0.87411233  0.99907263  0.49735327  1
  O  O402  1  0.88264188  1.00271131  0.99078450  1
  O  O403  1  0.11654416  -0.00307269  0.01359432  1
  O  O404  1  0.13699223  0.00912409  0.50832238  1
  O  O405  1  0.11314708  0.51096401  -0.00410246  1
  O  O406  1  0.11944521  0.49201705  0.50781001  1
  O  O407  1  0.61306644  -0.00270685  0.00367458  1
  O  O408  1  0.63140211  0.01240001  0.49839148  1
  O  O409  1  0.62421451  0.50016509  0.01931529  1
  O  O410  1  0.62096798  0.50656756  0.50648249  1
  O  O411  1  0.36516729  0.38097062  0.11217931  1
  O  O412  1  0.38276479  0.36823293  0.61379055  1
  O  O413  1  0.37140710  0.86884877  0.11524589  1
  O  O414  1  0.37426855  0.87801875  0.61147151  1
  O  O415  1  0.86676890  0.36414936  0.11626309  1
  O  O416  1  0.87365987  0.37010833  0.61296258  1
  O  O417  1  0.87779358  0.85644867  0.12850443  1
  O  O418  1  0.88198805  0.88106045  0.60706754  1
  O  O419  1  0.12092954  0.13242903  0.38632418  1
  O  O420  1  0.13770684  0.12839838  0.87362130  1
  O  O421  1  0.13949854  0.62833509  0.37193386  1
  O  O422  1  0.12701720  0.63005148  0.88067430  1
  O  O423  1  0.63238237  0.13216128  0.38392884  1
  O  O424  1  0.63132630  0.12940282  0.87661824  1
  O  O425  1  0.62766314  0.62396052  0.38742112  1
  O  O426  1  0.62228751  0.63942628  0.86955847  1
