# generated using pymatgen
data_V85Zn86O256
_symmetry_space_group_name_H-M   'P 1'
_cell_length_a   16.95167098
_cell_length_b   16.94870162
_cell_length_c   16.94053125
_cell_angle_alpha   90.08568734
_cell_angle_beta   90.03317970
_cell_angle_gamma   89.95837403
_symmetry_Int_Tables_number   1
_chemical_formula_structural   V85Zn86O256
_chemical_formula_sum   'V85 Zn86 O256'
_cell_volume   4867.15639198
_cell_formula_units_Z   1
loop_
 _symmetry_equiv_pos_site_id
 _symmetry_equiv_pos_as_xyz
  1  'x, y, z'
loop_
 _atom_site_type_symbol
 _atom_site_label
 _atom_site_symmetry_multiplicity
 _atom_site_fract_x
 _atom_site_fract_y
 _atom_site_fract_z
 _atom_site_occupancy
  V  V0  1  0.86707720  0.49911088  0.87512132  1
  V  V1  1  0.86834149  0.61715085  0.74448542  1
  V  V2  1  0.38534133  0.62570285  0.74300400  1
  V  V3  1  0.87716208  0.37604066  0.49938809  1
  V  V4  1  -0.00098237  0.24880533  0.75598559  1
  V  V5  1  0.12422555  0.13231806  0.49573769  1
  V  V6  1  0.50517814  0.25283805  0.74947050  1
  V  V7  1  0.74940752  0.75091242  0.49696236  1
  V  V8  1  0.62768780  0.24516703  0.37097464  1
  V  V9  1  0.13006973  0.37257409  0.25605874  1
  V  V10  1  0.12068617  0.61353737  -0.00146810  1
  V  V11  1  0.00387584  0.75524920  0.25653185  1
  V  V12  1  0.87209430  0.12638765  0.25474509  1
  V  V13  1  0.21512468  0.52888238  0.72977421  1
  V  V14  1  0.25136929  -0.00098604  0.25652488  1
  V  V15  1  0.75059885  0.37442717  0.62460618  1
  V  V16  1  0.23675652  0.38191661  0.11163160  1
  V  V17  1  0.74123381  -0.00329551  0.24986716  1
  V  V18  1  0.61844044  0.76438978  0.37493840  1
  V  V19  1  0.62505515  0.50248042  0.12565829  1
  V  V20  1  0.63340570  0.37750499  0.75159275  1
  V  V21  1  0.87561412  0.62550998  0.24559938  1
  V  V22  1  0.11817117  0.87947349  0.75014317  1
  V  V23  1  0.00018946  0.12301969  0.62442242  1
  V  V24  1  0.62820822  0.25263211  0.88580476  1
  V  V25  1  0.87339317  -0.00073061  0.87519874  1
  V  V26  1  0.75190498  0.24438812  0.49297915  1
  V  V27  1  0.49831283  0.62816798  0.13121365  1
  V  V28  1  0.75082733  0.50033634  0.24680515  1
  V  V29  1  0.49615008  0.50247805  0.00033167  1
  V  V30  1  0.88063007  0.74519737  0.62105448  1
  V  V31  1  0.00124664  0.12591691  0.12531774  1
  V  V32  1  0.00493401  0.36850063  0.37680582  1
  V  V33  1  0.75005040  0.13016020  0.88185077  1
  V  V34  1  0.87344569  0.12398926  0.75079880  1
  V  V35  1  0.12255962  0.75270432  0.87683463  1
  V  V36  1  0.28189474  -0.02960259  0.73443506  1
  V  V37  1  0.48978269  0.23715301  0.24209189  1
  V  V38  1  0.38210696  -0.00593528  0.38473970  1
  V  V39  1  0.25070897  0.12611699  0.87139721  1
  V  V40  1  0.00275948  0.38631824  0.88060718  1
  V  V41  1  0.14379877  0.74322636  0.39173026  1
  V  V42  1  0.01371577  0.51043776  0.51205545  1
  V  V43  1  0.62583009  0.62381593  0.49626678  1
  V  V44  1  0.37534077  0.25090935  0.61886867  1
  V  V45  1  0.37356905  0.12897503  0.75010391  1
  V  V46  1  0.88054315  0.87257412  0.49302989  1
  V  V47  1  0.87049199  0.24939668  0.12165374  1
  V  V48  1  0.00544221  -0.00565902  0.49179777  1
  V  V49  1  0.12992620  0.12637552  -0.00053687  1
  V  V50  1  0.62316277  0.11768950  0.00988947  1
  V  V51  1  0.87839305  0.49924640  0.37609500  1
  V  V52  1  0.74172665  -0.00215402  0.74867947  1
  V  V53  1  0.63089983  0.49925480  0.62554984  1
  V  V54  1  0.62533673  0.37399630  0.24766859  1
  V  V55  1  0.37181953  0.36842163  0.00026480  1
  V  V56  1  0.62928878  0.75166526  0.87528378  1
  V  V57  1  0.12900017  0.36718288  0.75146481  1
  V  V58  1  0.50088501  0.49863396  0.49629683  1
  V  V59  1  0.87437475  0.24941637  0.62531366  1
  V  V60  1  0.50844912  0.75471675  0.74439605  1
  V  V61  1  0.62484796  0.11947373  0.49704189  1
  V  V62  1  -0.00379065  0.74558092  0.74714081  1
  V  V63  1  0.25350371  0.62989880  0.87439249  1
  V  V64  1  0.87176731  0.87421322  0.00106027  1
  V  V65  1  0.24542478  0.87334787  0.12615597  1
  V  V66  1  0.24741856  0.37488892  0.62748953  1
  V  V67  1  0.25221478  0.13092860  0.37299369  1
  V  V68  1  0.87432704  0.00145656  0.37366177  1
  V  V69  1  0.74962618  0.74520907  0.00446614  1
  V  V70  1  0.26143816  0.74515972  0.52790061  1
  V  V71  1  0.00512679  0.61381093  0.12182106  1
  V  V72  1  0.50328515  0.87908811  0.87935953  1
  V  V73  1  0.74744122  0.62577019  0.36959401  1
  V  V74  1  0.37410637  0.50130555  0.86858295  1
  V  V75  1  0.49725729  0.37201494  0.37154868  1
  V  V76  1  0.50285162  0.12059198  0.62064035  1
  V  V77  1  0.36432139  0.50397415  0.37129079  1
  V  V78  1  0.37427890  0.75026207  0.12609572  1
  V  V79  1  0.74658371  0.87492402  0.62572791  1
  V  V80  1  0.87463223  0.37623511  0.00221884  1
  V  V81  1  0.24846692  0.75317398  -0.00273767  1
  V  V82  1  0.12653641  -0.00480423  0.62633186  1
  V  V83  1  0.49530127  0.76477786  0.26068832  1
  V  V84  1  0.12297817  -0.00506385  0.12448085  1
  Zn  Zn85  1  0.74399654  0.88582265  0.12599225  1
  Zn  Zn86  1  0.37522798  0.87849684  -0.00133286  1
  Zn  Zn87  1  0.50237126  0.62621792  0.62233533  1
  Zn  Zn88  1  0.74641893  0.61917608  0.86953178  1
  Zn  Zn89  1  0.37122546  0.37491929  0.49834943  1
  Zn  Zn90  1  0.62634387  0.62130593  -0.00334375  1
  Zn  Zn91  1  0.24247577  0.25539483  0.49508132  1
  Zn  Zn92  1  0.74745345  0.37074815  0.11982767  1
  Zn  Zn93  1  0.62221668  -0.00589222  0.61967416  1
  Zn  Zn94  1  0.11739763  0.87740412  0.26623839  1
  Zn  Zn95  1  0.38024681  0.00326248  0.87943722  1
  Zn  Zn96  1  -0.00510279  0.87326195  0.87740250  1
  Zn  Zn97  1  0.88001714  0.75089254  0.12329515  1
  Zn  Zn98  1  0.12966843  0.24877726  0.88418026  1
  Zn  Zn99  1  0.49253113  0.01635987  0.02636203  1
  Zn  Zn100  1  -0.00104850  -0.00240233  -0.00037776  1
  Zn  Zn101  1  0.00912764  0.24650850  0.25376935  1
  Zn  Zn102  1  0.37593314  0.86916891  0.49944500  1
  Zn  Zn103  1  0.37007720  0.24043615  0.12029552  1
  Zn  Zn104  1  0.36295681  0.62963327  0.25787702  1
  Zn  Zn105  1  0.23372280  0.50989543  0.24364589  1
  Zn  Zn106  1  0.50045780  0.37742323  0.87520922  1
  Zn  Zn107  1  0.21278103  0.18116613  0.17426688  1
  Zn  Zn108  1  0.18843789  0.18543571  0.68497348  1
  Zn  Zn109  1  0.18256334  0.68631632  0.18881612  1
  Zn  Zn110  1  0.18554800  0.69450985  0.68885952  1
  Zn  Zn111  1  0.69159436  0.18520546  0.19165779  1
  Zn  Zn112  1  0.68834200  0.18707047  0.68771807  1
  Zn  Zn113  1  0.66272532  0.72202147  0.16655498  1
  Zn  Zn114  1  0.68884678  0.68790258  0.68567430  1
  Zn  Zn115  1  0.30951380  0.31625178  0.30950983  1
  Zn  Zn116  1  0.31328947  0.30949831  0.81382851  1
  Zn  Zn117  1  0.30889220  0.81511907  0.31591297  1
  Zn  Zn118  1  0.32206183  0.81511206  0.79772020  1
  Zn  Zn119  1  0.81468472  0.31201534  0.30894530  1
  Zn  Zn120  1  0.81271965  0.31337289  0.81576030  1
  Zn  Zn121  1  0.81356879  0.81274714  0.31177306  1
  Zn  Zn122  1  0.81060324  0.81272157  0.81022452  1
  Zn  Zn123  1  0.18457456  0.43764438  0.43955957  1
  Zn  Zn124  1  0.19195703  0.44030434  0.92473881  1
  Zn  Zn125  1  0.19294255  0.92597870  0.44136944  1
  Zn  Zn126  1  0.19156394  0.94248251  0.93120494  1
  Zn  Zn127  1  0.68912250  0.43374935  0.43447960  1
  Zn  Zn128  1  0.69029116  0.43644165  0.94147597  1
  Zn  Zn129  1  0.69408659  0.93973179  0.43411243  1
  Zn  Zn130  1  0.68643513  0.93616591  0.93758320  1
  Zn  Zn131  1  0.31312255  0.06156613  0.06159876  1
  Zn  Zn132  1  0.30979543  0.06389388  0.56109507  1
  Zn  Zn133  1  0.30915946  0.56352203  0.06301265  1
  Zn  Zn134  1  0.31314995  0.56220679  0.55973841  1
  Zn  Zn135  1  0.80943599  0.06384514  0.06472388  1
  Zn  Zn136  1  0.81261390  0.06165380  0.56005056  1
  Zn  Zn137  1  0.81469303  0.56191380  0.05884203  1
  Zn  Zn138  1  0.81359644  0.56267814  0.55972752  1
  Zn  Zn139  1  0.43342168  0.43518072  0.18671166  1
  Zn  Zn140  1  0.44118532  0.43651031  0.68463901  1
  Zn  Zn141  1  0.42881283  0.94203677  0.19408772  1
  Zn  Zn142  1  0.45122922  0.91721435  0.66298742  1
  Zn  Zn143  1  0.94400344  0.43593156  0.18920615  1
  Zn  Zn144  1  0.93950427  0.43661525  0.68907500  1
  Zn  Zn145  1  0.93337124  0.93635763  0.18526200  1
  Zn  Zn146  1  0.93513713  0.93547780  0.68361762  1
  Zn  Zn147  1  0.06500987  0.06317938  0.31211722  1
  Zn  Zn148  1  0.05995733  0.06233620  0.81497061  1
  Zn  Zn149  1  0.06363811  0.56205455  0.31628393  1
  Zn  Zn150  1  0.06106132  0.56808762  0.79935110  1
  Zn  Zn151  1  0.55931045  0.06369131  0.31283466  1
  Zn  Zn152  1  0.56370588  0.06573252  0.81242275  1
  Zn  Zn153  1  0.55960603  0.56577457  0.31079002  1
  Zn  Zn154  1  0.56473885  0.56159132  0.81253430  1
  Zn  Zn155  1  0.43665984  0.18318468  0.43429572  1
  Zn  Zn156  1  0.44199836  0.18881658  0.93573830  1
  Zn  Zn157  1  0.43285753  0.68588006  0.44160474  1
  Zn  Zn158  1  0.43982721  0.69099369  0.93821819  1
  Zn  Zn159  1  0.93979430  0.18579058  0.43685124  1
  Zn  Zn160  1  0.93959320  0.18837530  0.94197469  1
  Zn  Zn161  1  0.94167187  0.68286428  0.43516102  1
  Zn  Zn162  1  0.93654885  0.68335710  0.93544362  1
  Zn  Zn163  1  0.06254350  0.31155252  0.06462971  1
  Zn  Zn164  1  0.06081258  0.31727973  0.56663034  1
  Zn  Zn165  1  0.05664741  0.80754029  0.06445544  1
  Zn  Zn166  1  0.06618472  0.81130040  0.55973601  1
  Zn  Zn167  1  0.55758889  0.31359524  0.06431126  1
  Zn  Zn168  1  0.56374994  0.31042891  0.55952845  1
  Zn  Zn169  1  0.55218278  0.86467577  0.09074948  1
  Zn  Zn170  1  0.55887480  0.81482202  0.55601296  1
  O  O171  1  0.12292493  0.11312523  0.11968644  1
  O  O172  1  0.11906969  0.11358100  0.62034998  1
  O  O173  1  0.11310411  0.62851449  0.11348703  1
  O  O174  1  0.13674087  0.59438056  0.69543216  1
  O  O175  1  0.63353077  0.13373646  0.10722871  1
  O  O176  1  0.61907648  0.12905268  0.61491037  1
  O  O177  1  0.61250753  0.62374982  0.12116257  1
  O  O178  1  0.62817889  0.61435677  0.61636568  1
  O  O179  1  0.38251291  0.38277548  0.37697431  1
  O  O180  1  0.37400549  0.38383314  0.88002351  1
  O  O181  1  0.37246721  0.88907150  0.37814050  1
  O  O182  1  0.39143615  0.87555813  0.87430076  1
  O  O183  1  0.88279079  0.38098403  0.37794093  1
  O  O184  1  0.88263273  0.37957292  0.88013098  1
  O  O185  1  0.87404114  0.88088185  0.38677395  1
  O  O186  1  0.87303816  0.88406940  0.87994409  1
  O  O187  1  0.25073320  0.00487985  0.37141977  1
  O  O188  1  0.25822863  0.00472487  0.85219028  1
  O  O189  1  0.26317709  0.49481829  0.37687683  1
  O  O190  1  0.25658186  0.51124993  0.85410281  1
  O  O191  1  0.76657669  0.00053946  0.36767974  1
  O  O192  1  0.75694021  0.00558918  0.86776059  1
  O  O193  1  0.75778105  0.50310088  0.36810492  1
  O  O194  1  0.76268329  0.49653718  0.87317020  1
  O  O195  1  0.25556473  0.48645172  0.12688737  1
  O  O196  1  0.25916217  0.49025792  0.63896875  1
  O  O197  1  0.24200415  0.98683151  0.13241235  1
  O  O198  1  0.24137417  1.00611465  0.63829210  1
  O  O199  1  0.74319142  0.49964028  0.12986998  1
  O  O200  1  0.73823907  0.49122612  0.61574818  1
  O  O201  1  0.75216484  1.00247239  0.14323799  1
  O  O202  1  0.75223390  0.99349721  0.63196090  1
  O  O203  1  0.00919531  0.37149669  0.25939572  1
  O  O204  1  0.00578313  0.36481450  0.75682224  1
  O  O205  1  -0.00249561  0.85932180  0.24382985  1
  O  O206  1  0.00187534  0.86542853  0.75138855  1
  O  O207  1  0.50630398  0.37199025  0.25931995  1
  O  O208  1  0.51126473  0.36555799  0.74880649  1
  O  O209  1  0.49550475  0.86243804  0.25588512  1
  O  O210  1  0.50512209  0.85914689  0.75795623  1
  O  O211  1  0.49992907  0.13855316  0.24849594  1
  O  O212  1  0.49807061  0.13968363  0.74592002  1
  O  O213  1  0.49063573  0.62668660  0.23854001  1
  O  O214  1  0.50022098  0.63271626  0.74898222  1
  O  O215  1  0.99419594  0.12554439  0.24281455  1
  O  O216  1  0.99367609  0.13130415  0.74621179  1
  O  O217  1  0.99490499  0.63011579  0.24137223  1
  O  O218  1  0.98494091  0.63910674  0.75010740  1
  O  O219  1  0.38167835  0.26521473  -0.00227072  1
  O  O220  1  0.37611632  0.25154267  0.51072556  1
  O  O221  1  0.36703221  0.75248484  0.00851146  1
  O  O222  1  0.36706715  0.74874713  0.50776916  1
  O  O223  1  0.87934044  0.25737599  0.01102317  1
  O  O224  1  0.86958102  0.25417206  0.50327426  1
  O  O225  1  0.86719407  0.75761597  -0.00627147  1
  O  O226  1  0.87335771  0.75487848  0.50302385  1
  O  O227  1  0.12248501  0.23550393  0.51069285  1
  O  O228  1  0.12130503  0.23113114  1.00298771  1
  O  O229  1  0.13983618  0.74862533  0.49938974  1
  O  O230  1  0.12784606  0.74603680  0.99091804  1
  O  O231  1  0.63356376  0.24487070  0.49094075  1
  O  O232  1  0.61978191  0.24771371  0.98892033  1
  O  O233  1  0.62622912  0.74329727  0.49342701  1
  O  O234  1  0.63492712  0.74334506  0.98327464  1
  O  O235  1  0.49235759  0.25396941  0.13803919  1
  O  O236  1  0.49558062  0.24522266  0.63063736  1
  O  O237  1  0.48911816  0.74731893  0.13804480  1
  O  O238  1  0.51656405  0.74340447  0.64207262  1
  O  O239  1  0.99416814  0.23732168  0.12704157  1
  O  O240  1  0.99396395  0.24578154  0.63636210  1
  O  O241  1  0.99716495  0.73906456  0.13670047  1
  O  O242  1  0.98874847  0.75471440  0.63002411  1
  O  O243  1  -0.00297679  0.26392831  0.37601582  1
  O  O244  1  -0.00022833  0.25383439  0.86481248  1
  O  O245  1  -0.00649283  0.74855584  0.35781793  1
  O  O246  1  0.00540868  0.75053577  0.86641542  1
  O  O247  1  0.50486744  0.25561238  0.36680002  1
  O  O248  1  0.50949362  0.25562311  0.86568059  1
  O  O249  1  0.50166305  0.74561971  0.36785693  1
  O  O250  1  0.51234217  0.75497529  0.86963386  1
  O  O251  1  0.24037810  0.12772089  0.49155181  1
  O  O252  1  0.24016894  0.10964987  0.98202607  1
  O  O253  1  0.25018840  0.64298585  0.51488373  1
  O  O254  1  0.24210385  0.63256593  0.99346255  1
  O  O255  1  0.74525522  0.13842025  0.50364567  1
  O  O256  1  0.74184018  0.12228301  0.98825987  1
  O  O257  1  0.74607130  0.63232551  0.49082322  1
  O  O258  1  0.75057144  0.63011067  0.98936838  1
  O  O259  1  0.25476667  0.38302617  0.00371189  1
  O  O260  1  0.25008551  0.37287643  0.51139118  1
  O  O261  1  0.25004049  0.87129757  0.00660839  1
  O  O262  1  0.25805602  0.85516033  0.50250620  1
  O  O263  1  0.76728423  0.37581708  0.00218011  1
  O  O264  1  0.75604814  0.36366792  0.50326624  1
  O  O265  1  0.75841377  0.86688203  -0.00172175  1
  O  O266  1  0.76063340  0.86945777  0.50363084  1
  O  O267  1  0.11940885  0.48273468  0.25477949  1
  O  O268  1  0.12558761  0.47391510  0.77063032  1
  O  O269  1  0.13013048  0.99432988  0.24305119  1
  O  O270  1  0.11416778  0.99255030  0.74135243  1
  O  O271  1  0.62834475  0.49557340  0.24433581  1
  O  O272  1  0.61978143  0.48925564  0.73869362  1
  O  O273  1  0.64327143  1.00638600  0.26290526  1
  O  O274  1  0.63941256  1.00696032  0.74591910  1
  O  O275  1  0.35743622  -0.00202584  0.26205077  1
  O  O276  1  0.38360674  0.02298654  0.75297499  1
  O  O277  1  0.37683895  0.49800543  0.26611552  1
  O  O278  1  0.38993802  0.50608353  0.76211335  1
  O  O279  1  0.87518952  0.00664062  0.25825362  1
  O  O280  1  0.86883003  0.00592387  0.75584068  1
  O  O281  1  0.87471502  0.50810810  0.25573032  1
  O  O282  1  0.87927935  0.50790641  0.75601415  1
  O  O283  1  0.12063376  0.37176394  0.36671955  1
  O  O284  1  0.11800323  0.36509688  0.87412498  1
  O  O285  1  0.12572322  0.85205176  0.37960026  1
  O  O286  1  0.11576166  0.86709137  0.87379478  1
  O  O287  1  0.61799525  0.36442963  0.36911082  1
  O  O288  1  0.62632120  0.37003587  0.86826290  1
  O  O289  1  0.62435673  0.86358123  0.38515495  1
  O  O290  1  0.61790021  0.86275171  0.87637762  1
  O  O291  1  0.31883590  0.14086115  0.13621141  1
  O  O292  1  0.38163878  0.13332769  0.62921096  1
  O  O293  1  0.37842729  0.63855697  0.12288040  1
  O  O294  1  0.38383829  0.61225670  0.63989665  1
  O  O295  1  0.88373947  0.12995220  0.12960776  1
  O  O296  1  0.88103767  0.12996458  0.62904326  1
  O  O297  1  0.88683836  0.62252420  0.13116716  1
  O  O298  1  0.86907980  0.63508237  0.62961949  1
  O  O299  1  0.25177123  0.28019015  0.12661930  1
  O  O300  1  0.25971781  0.25607237  0.62342127  1
  O  O301  1  0.25074249  0.75946227  0.12074046  1
  O  O302  1  0.25372666  0.75624100  0.62799138  1
  O  O303  1  0.76639225  0.25182058  0.13292027  1
  O  O304  1  0.75596840  0.25456455  0.61762726  1
  O  O305  1  0.76380263  0.73006921  0.10727620  1
  O  O306  1  0.75882758  0.75610916  0.61745762  1
  O  O307  1  0.25540950  0.23613439  0.37662725  1
  O  O308  1  0.24746033  0.23239943  0.86870738  1
  O  O309  1  0.24477214  0.74170807  0.37790520  1
  O  O310  1  0.24292004  0.74830977  0.87579641  1
  O  O311  1  0.74108231  0.25529839  0.38105145  1
  O  O312  1  0.74151471  0.24085069  0.87014934  1
  O  O313  1  0.74062285  0.74621165  0.37782515  1
  O  O314  1  0.74100354  0.75041949  0.87760050  1
  O  O315  1  0.00605827  0.11891000  0.00891472  1
  O  O316  1  0.00688052  0.11640407  0.50456882  1
  O  O317  1  0.00565020  0.63002076  0.01238366  1
  O  O318  1  -0.00598504  0.60939980  0.50196855  1
  O  O319  1  0.51596913  0.12572883  -0.00321889  1
  O  O320  1  0.51130690  0.13290476  0.50869136  1
  O  O321  1  0.49695258  0.61589740  0.01004421  1
  O  O322  1  0.50715474  0.61454559  0.50133142  1
  O  O323  1  0.50122459  0.37880600  0.48690871  1
  O  O324  1  0.49074471  0.38821961  1.00006827  1
  O  O325  1  0.47241320  0.88314240  0.55637947  1
  O  O326  1  0.49888458  0.86721873  0.98350420  1
  O  O327  1  0.99541173  0.37962251  0.49440164  1
  O  O328  1  0.99196438  0.36808606  0.98943451  1
  O  O329  1  0.99299217  0.88310819  0.50552401  1
  O  O330  1  0.98474975  0.87565609  1.00004535  1
  O  O331  1  0.49860123  0.49139884  0.38269971  1
  O  O332  1  0.49439442  0.49906249  0.88450902  1
  O  O333  1  0.48013867  1.00832628  0.37235942  1
  O  O334  1  0.50566158  0.98432798  0.86925456  1
  O  O335  1  0.99364952  0.49037420  0.38441243  1
  O  O336  1  0.99272167  0.48831902  0.86631997  1
  O  O337  1  0.99453950  1.00149232  0.38579725  1
  O  O338  1  0.98388278  0.99935619  0.87632500  1
  O  O339  1  0.00629065  0.00831458  0.12554935  1
  O  O340  1  0.00431322  0.00471515  0.61460653  1
  O  O341  1  0.00039288  0.51485346  0.12762880  1
  O  O342  1  -0.00236289  0.49227868  0.61034473  1
  O  O343  1  0.50980969  -0.03497602  0.12354820  1
  O  O344  1  0.50720703  0.01931661  0.63895693  1
  O  O345  1  0.50130632  0.50843425  0.12023607  1
  O  O346  1  0.51233220  0.49473890  0.61040120  1
  O  O347  1  0.23949944  0.38329119  0.24528440  1
  O  O348  1  0.24203479  0.37059378  0.74477393  1
  O  O349  1  0.24186807  0.87996849  0.24314163  1
  O  O350  1  0.22268357  0.87663612  0.76666912  1
  O  O351  1  0.74291541  0.38223354  0.24776703  1
  O  O352  1  0.73958757  0.36933667  0.74356658  1
  O  O353  1  0.75662430  0.89222338  0.25152613  1
  O  O354  1  0.75783033  0.88554831  0.73849790  1
  O  O355  1  0.23285141  0.11463204  0.27011494  1
  O  O356  1  0.26135522  0.12439759  0.75145294  1
  O  O357  1  0.25180397  0.62000726  0.24262348  1
  O  O358  1  0.26819793  0.62913465  0.75653350  1
  O  O359  1  0.76557209  0.11670498  0.24983315  1
  O  O360  1  0.75590857  0.11946157  0.75836165  1
  O  O361  1  0.76055985  0.61853744  0.25356835  1
  O  O362  1  0.76362255  0.62945516  0.75137782  1
  O  O363  1  0.35776471  0.11488781  0.38094745  1
  O  O364  1  0.36999609  0.12786503  0.86772412  1
  O  O365  1  0.38122236  0.60671242  0.37551519  1
  O  O366  1  0.37433784  0.61883446  0.86974717  1
  O  O367  1  0.88274795  0.11549941  0.36653549  1
  O  O368  1  0.86774039  0.12021756  0.87365447  1
  O  O369  1  0.86995614  0.61746447  0.36644379  1
  O  O370  1  0.87510519  0.61393691  0.86570467  1
  O  O371  1  0.13203858  0.38113037  0.12713622  1
  O  O372  1  0.13755893  0.36961387  0.63621348  1
  O  O373  1  0.12654739  0.88419788  0.12201495  1
  O  O374  1  0.11922394  0.88731190  0.63350028  1
  O  O375  1  0.62572212  0.38117587  0.13081422  1
  O  O376  1  0.63061170  0.37810868  0.63051160  1
  O  O377  1  0.64811537  0.82801999  0.12432939  1
  O  O378  1  0.64281931  0.87635335  0.61477907  1
  O  O379  1  0.12584368  0.26853355  0.23835739  1
  O  O380  1  0.11663344  0.25329107  0.75156118  1
  O  O381  1  0.11176596  0.75344396  0.25405925  1
  O  O382  1  0.11308989  0.75837121  0.75622629  1
  O  O383  1  0.61795199  0.25314952  0.25483533  1
  O  O384  1  0.62070077  0.25598739  0.75687982  1
  O  O385  1  0.60322877  0.74045258  0.26370382  1
  O  O386  1  0.61948628  0.74364885  0.76194035  1
  O  O387  1  0.38900478  0.25551580  0.25248426  1
  O  O388  1  0.38493393  0.24690174  0.74083729  1
  O  O389  1  0.38135051  0.74925114  0.24762749  1
  O  O390  1  0.39825268  0.73745054  0.75707649  1
  O  O391  1  0.88129312  0.24150146  0.24473710  1
  O  O392  1  0.88093492  0.24439630  0.74695870  1
  O  O393  1  0.88023055  0.73789738  0.24909408  1
  O  O394  1  0.87907456  0.74598726  0.74041412  1
  O  O395  1  0.38424912  0.49638458  0.49163807  1
  O  O396  1  0.37845670  0.49730154  0.98735135  1
  O  O397  1  0.36776569  0.99863583  0.48829602  1
  O  O398  1  0.38102094  0.99797507  0.99738520  1
  O  O399  1  0.87555765  0.49168904  0.49169899  1
  O  O400  1  0.87785951  0.49144782  0.98856324  1
  O  O401  1  0.88255829  0.99393794  0.49331519  1
  O  O402  1  0.87092650  0.99331927  0.99206961  1
  O  O403  1  0.12197703  0.00543855  0.00632181  1
  O  O404  1  0.12065744  0.00168548  0.50709634  1
  O  O405  1  0.12776519  0.51532374  -0.01580011  1
  O  O406  1  0.11324657  0.50082462  0.50021352  1
  O  O407  1  0.62458965  0.01442576  -0.00317768  1
  O  O408  1  0.63538068  0.01596800  0.49904346  1
  O  O409  1  0.61500996  0.49984147  0.00633277  1
  O  O410  1  0.62005536  0.50219554  0.50197978  1
  O  O411  1  0.36760369  0.37701169  0.11217519  1
  O  O412  1  0.36787510  0.36726437  0.62551531  1
  O  O413  1  0.36227725  0.86362593  0.12645496  1
  O  O414  1  0.34641764  0.89202163  0.70195015  1
  O  O415  1  0.88051241  0.36745682  0.11851577  1
  O  O416  1  0.87003341  0.36821653  0.62081519  1
  O  O417  1  0.86652732  0.87165951  0.11542116  1
  O  O418  1  0.86753923  0.86792585  0.61350611  1
  O  O419  1  0.13329778  0.11933903  0.38779801  1
  O  O420  1  0.13149343  0.12286870  0.88084625  1
  O  O421  1  0.11258193  0.64786903  0.37483915  1
  O  O422  1  0.12771915  0.63796901  0.87633076  1
  O  O423  1  0.61992246  0.13815071  0.38141339  1
  O  O424  1  0.63260641  0.13408719  0.88020476  1
  O  O425  1  0.62994025  0.62846650  0.38060457  1
  O  O426  1  0.62687395  0.63397564  0.87591985  1
