# generated using pymatgen
data_V85Zn86O256
_symmetry_space_group_name_H-M   'P 1'
_cell_length_a   16.92359155
_cell_length_b   16.91900262
_cell_length_c   16.92263628
_cell_angle_alpha   89.95111018
_cell_angle_beta   89.99944452
_cell_angle_gamma   90.02688831
_symmetry_Int_Tables_number   1
_chemical_formula_structural   V85Zn86O256
_chemical_formula_sum   'V85 Zn86 O256'
_cell_volume   4845.46104990
_cell_formula_units_Z   1
loop_
 _symmetry_equiv_pos_site_id
 _symmetry_equiv_pos_as_xyz
  1  'x, y, z'
loop_
 _atom_site_type_symbol
 _atom_site_label
 _atom_site_symmetry_multiplicity
 _atom_site_fract_x
 _atom_site_fract_y
 _atom_site_fract_z
 _atom_site_occupancy
  V  V0  1  0.87084891  0.25306353  0.61878593  1
  V  V1  1  0.87638116  0.12404897  0.74958921  1
  V  V2  1  0.87502087  0.74787151  0.62804100  1
  V  V3  1  0.62780316  0.62674250  0.00549599  1
  V  V4  1  0.11813720  0.24260964  0.37716677  1
  V  V5  1  -0.00353538  0.74623694  0.75617603  1
  V  V6  1  0.12401926  0.24610917  0.87701131  1
  V  V7  1  0.74580879  0.37562532  0.13038790  1
  V  V8  1  0.00144735  0.00792697  0.49662339  1
  V  V9  1  0.11795253  0.87612931  0.75539611  1
  V  V10  1  0.24923152  0.00000734  0.75106973  1
  V  V11  1  0.37215938  -0.00145215  0.36730955  1
  V  V12  1  0.62443702  -0.01427328  0.62600314  1
  V  V13  1  0.74967939  0.11807729  0.36701610  1
  V  V14  1  -0.00176579  0.25014002  0.75132866  1
  V  V15  1  0.87467400  0.11691204  0.24296822  1
  V  V16  1  0.44115616  0.68078746  0.08306959  1
  V  V17  1  0.11382162  0.36888184  0.25212769  1
  V  V18  1  -0.00088181  0.62236416  0.62709837  1
  V  V19  1  0.24683740  0.37149532  0.12540371  1
  V  V20  1  0.00084974  0.61850984  0.12012349  1
  V  V21  1  0.37912522  -0.01314206  0.87901599  1
  V  V22  1  0.24735707  0.24480670  0.50184656  1
  V  V23  1  0.50152775  0.50575644  0.51616665  1
  V  V24  1  0.37361173  0.24845070  0.12575694  1
  V  V25  1  0.37572492  0.74644150  0.62438127  1
  V  V26  1  0.23936307  0.62685682  0.37315870  1
  V  V27  1  0.62650343  0.25618534  0.37093647  1
  V  V28  1  0.24423641  0.49639035  0.25047151  1
  V  V29  1  0.01307646  0.74726491  0.25269354  1
  V  V30  1  0.01485972  0.12631509  0.12055178  1
  V  V31  1  0.49989510  -0.00202352  0.49845495  1
  V  V32  1  0.74646474  -0.00780976  0.75078822  1
  V  V33  1  0.01597921  -0.00145122  -0.00057005  1
  V  V34  1  0.25075555  0.50060907  0.74776602  1
  V  V35  1  0.63586471  0.73667692  0.37131363  1
  V  V36  1  0.37713682  0.12689082  0.75183081  1
  V  V37  1  0.87218171  0.49617429  0.38367005  1
  V  V38  1  0.12228311  0.75395110  0.88219954  1
  V  V39  1  0.49879336  0.12478373  0.12593533  1
  V  V40  1  0.49869050  -0.01210554  -0.00175136  1
  V  V41  1  0.62041495  0.50019507  0.13208459  1
  V  V42  1  0.75712282  0.88036069  0.12897180  1
  V  V43  1  0.37837704  0.87304406  0.49727947  1
  V  V44  1  0.38807291  0.62408083  0.74629397  1
  V  V45  1  0.50126245  0.25946136  0.25007276  1
  V  V46  1  0.51601489  0.24702419  0.75234799  1
  V  V47  1  0.50417683  0.77132642  0.75290483  1
  V  V48  1  0.50264009  0.12513170  0.62477202  1
  V  V49  1  0.24567740  0.24606900  0.00160396  1
  V  V50  1  0.49967444  0.49997316  0.00375973  1
  V  V51  1  0.12371355  0.00656638  0.62056780  1
  V  V52  1  0.24739881  0.62659035  0.87532606  1
  V  V53  1  -0.00125673  0.38074578  0.88146006  1
  V  V54  1  0.50683244  0.36813510  0.87670567  1
  V  V55  1  0.37521437  0.62552237  0.24934645  1
  V  V56  1  0.74956583  0.38870968  0.62196394  1
  V  V57  1  0.00936426  0.87117428  0.37387323  1
  V  V58  1  0.62902613  0.87963027  0.25242019  1
  V  V59  1  0.74724622  0.13266884  0.87296152  1
  V  V60  1  0.24483332  0.11894874  0.37219580  1
  V  V61  1  0.24742359  0.87606626  0.62371970  1
  V  V62  1  0.62769889  0.12635308  0.49945165  1
  V  V63  1  0.87701991  0.24951561  0.12832366  1
  V  V64  1  0.63107044  0.39473268  0.74925157  1
  V  V65  1  0.63147940  0.00475378  0.12930570  1
  V  V66  1  0.24110553  0.74953747  0.49602898  1
  V  V67  1  0.87156039  0.50543655  0.86265346  1
  V  V68  1  0.62370699  0.13272395  -0.00487124  1
  V  V69  1  0.87632089  0.87463795  0.49891691  1
  V  V70  1  0.12489162  0.37610316  0.74951855  1
  V  V71  1  0.13229124  0.88992384  0.23902483  1
  V  V72  1  0.74789887  0.50259177  0.25647314  1
  V  V73  1  0.37608105  0.49506407  0.37649153  1
  V  V74  1  0.74877414  0.62359891  0.86388402  1
  V  V75  1  0.62473117  0.76792078  0.87375809  1
  V  V76  1  0.87915404  -0.00634909  0.87806440  1
  V  V77  1  0.87499625  0.38505584  0.00301717  1
  V  V78  1  0.49573894  0.74903606  0.25024494  1
  V  V79  1  0.37773132  0.49715381  0.87456084  1
  V  V80  1  0.87340053  0.62741211  0.25705956  1
  V  V81  1  -0.00616626  0.37019007  0.38550381  1
  V  V82  1  0.26697659  0.87824388  0.11901717  1
  V  V83  1  0.75443592  0.75202404  0.00133467  1
  V  V84  1  0.24847329  0.12210645  0.88196451  1
  Zn  Zn85  1  0.11694924  0.49164039  0.11473096  1
  Zn  Zn86  1  0.00246079  0.12914817  0.62116333  1
  Zn  Zn87  1  0.50271814  0.87286730  0.37528265  1
  Zn  Zn88  1  0.37724269  0.24977583  0.62372757  1
  Zn  Zn89  1  0.37105181  0.12119514  0.24874211  1
  Zn  Zn90  1  0.37571240  0.37245271  -0.00119760  1
  Zn  Zn91  1  0.75150460  0.25516791  0.49800374  1
  Zn  Zn92  1  0.74825911  0.25420894  -0.00319123  1
  Zn  Zn93  1  0.50435587  0.37747615  0.37811331  1
  Zn  Zn94  1  0.75597882  0.74172508  0.48985886  1
  Zn  Zn95  1  0.25075912  0.37323896  0.62370852  1
  Zn  Zn96  1  0.88416895  0.87600029  0.00074886  1
  Zn  Zn97  1  0.75084172  0.87204742  0.62464385  1
  Zn  Zn98  1  0.12203390  0.62255341  0.49846577  1
  Zn  Zn99  1  0.12074850  0.61846791  -0.00278569  1
  Zn  Zn100  1  0.63414853  0.61249173  0.51605804  1
  Zn  Zn101  1  0.12407936  0.50071096  0.62230077  1
  Zn  Zn102  1  0.00063819  0.49807709  0.50237877  1
  Zn  Zn103  1  0.26436645  0.74973253  0.00708042  1
  Zn  Zn104  1  0.87860466  0.75158565  0.12747982  1
  Zn  Zn105  1  0.87304006  -0.00309002  0.36852984  1
  Zn  Zn106  1  0.37629716  0.37254762  0.50414613  1
  Zn  Zn107  1  0.18686440  0.18602175  0.19443465  1
  Zn  Zn108  1  0.18761126  0.18618807  0.69037719  1
  Zn  Zn109  1  0.18763683  0.69056772  0.18299786  1
  Zn  Zn110  1  0.18562019  0.68739931  0.68906171  1
  Zn  Zn111  1  0.68900439  0.19000316  0.18821980  1
  Zn  Zn112  1  0.69095176  0.18379714  0.68416967  1
  Zn  Zn113  1  0.69002480  0.68789263  0.18799118  1
  Zn  Zn114  1  0.68310467  0.68735922  0.68484488  1
  Zn  Zn115  1  0.31004515  0.30920079  0.31378918  1
  Zn  Zn116  1  0.31550620  0.31071392  0.81248545  1
  Zn  Zn117  1  0.30869926  0.81168312  0.30900089  1
  Zn  Zn118  1  0.30776372  0.81062507  0.81117358  1
  Zn  Zn119  1  0.81253629  0.30925307  0.30921020  1
  Zn  Zn120  1  0.81171480  0.31504247  0.80955278  1
  Zn  Zn121  1  0.81823272  0.81459772  0.30941950  1
  Zn  Zn122  1  0.81303234  0.81190959  0.81365136  1
  Zn  Zn123  1  0.18459847  0.43384633  0.43951474  1
  Zn  Zn124  1  0.18687282  0.43670642  0.93746241  1
  Zn  Zn125  1  0.18558682  0.93579923  0.43540014  1
  Zn  Zn126  1  0.19345071  0.93317116  0.94272907  1
  Zn  Zn127  1  0.68521782  0.43940554  0.44099656  1
  Zn  Zn128  1  0.68823534  0.43887673  0.93852861  1
  Zn  Zn129  1  0.69056078  0.93542150  0.43967755  1
  Zn  Zn130  1  0.69274800  0.94560603  0.94415227  1
  Zn  Zn131  1  0.31085689  0.05568839  0.06397312  1
  Zn  Zn132  1  0.31225277  0.06434558  0.55924040  1
  Zn  Zn133  1  0.30136381  0.55348194  0.05745571  1
  Zn  Zn134  1  0.31366978  0.56266101  0.56113517  1
  Zn  Zn135  1  0.81372807  0.06368896  0.05820716  1
  Zn  Zn136  1  0.81189291  0.06174226  0.56198324  1
  Zn  Zn137  1  0.81298818  0.56384140  0.06577516  1
  Zn  Zn138  1  0.81416121  0.56884875  0.56263433  1
  Zn  Zn139  1  0.43383206  0.43750028  0.18724442  1
  Zn  Zn140  1  0.43736040  0.43135912  0.68776377  1
  Zn  Zn141  1  0.44214380  0.93688959  0.18679261  1
  Zn  Zn142  1  0.43355949  0.93997151  0.68418670  1
  Zn  Zn143  1  0.93374139  0.43793284  0.19347662  1
  Zn  Zn144  1  0.93481775  0.43674196  0.68753375  1
  Zn  Zn145  1  0.94558798  0.94008777  0.18387321  1
  Zn  Zn146  1  0.93868418  0.93712628  0.68666379  1
  Zn  Zn147  1  0.05719304  0.06457784  0.30819460  1
  Zn  Zn148  1  0.06202295  0.06194275  0.81510842  1
  Zn  Zn149  1  0.05845870  0.55725489  0.31129514  1
  Zn  Zn150  1  0.05973087  0.56261990  0.81378745  1
  Zn  Zn151  1  0.56001154  0.06470062  0.31223043  1
  Zn  Zn152  1  0.56368027  0.05599246  0.81350156  1
  Zn  Zn153  1  0.55784902  0.56312842  0.31194741  1
  Zn  Zn154  1  0.56456574  0.56641704  0.81750908  1
  Zn  Zn155  1  0.43589413  0.18647845  0.43591705  1
  Zn  Zn156  1  0.43530027  0.18493473  0.93851238  1
  Zn  Zn157  1  0.43670638  0.68411444  0.43388181  1
  Zn  Zn158  1  0.44065450  0.68826665  0.91901665  1
  Zn  Zn159  1  0.93405140  0.18577681  0.43449695  1
  Zn  Zn160  1  0.93480470  0.18804962  0.94255601  1
  Zn  Zn161  1  0.93926461  0.68644637  0.43777972  1
  Zn  Zn162  1  0.93557520  0.68611007  0.93649979  1
  Zn  Zn163  1  0.06131520  0.30891214  0.06132662  1
  Zn  Zn164  1  0.06461777  0.31025812  0.56297711  1
  Zn  Zn165  1  0.06321123  0.81136990  0.06535969  1
  Zn  Zn166  1  0.05954822  0.81520241  0.56582917  1
  Zn  Zn167  1  0.56432014  0.31369467  0.06449342  1
  Zn  Zn168  1  0.56378231  0.31716214  0.56312157  1
  Zn  Zn169  1  0.57188889  0.81657581  0.06385034  1
  Zn  Zn170  1  0.57349725  0.78316446  0.57120344  1
  O  O171  1  0.11352735  0.13157724  0.12566427  1
  O  O172  1  0.12266674  0.11067034  0.63196866  1
  O  O173  1  0.11124989  0.62217190  0.12625645  1
  O  O174  1  0.11325763  0.62516544  0.62554798  1
  O  O175  1  0.62019515  0.12015791  0.12014257  1
  O  O176  1  0.62145507  0.11622949  0.61590494  1
  O  O177  1  0.63069984  0.61811882  0.11360621  1
  O  O178  1  0.60984629  0.67807874  0.60449814  1
  O  O179  1  0.37265793  0.38641696  0.37462335  1
  O  O180  1  0.38727052  0.38079137  0.87245537  1
  O  O181  1  0.37484673  0.87993141  0.38108828  1
  O  O182  1  0.36801692  0.88804399  0.87027416  1
  O  O183  1  0.88349757  0.38001107  0.36732112  1
  O  O184  1  0.87833106  0.38407594  0.88108739  1
  O  O185  1  0.88587245  0.87751064  0.38039418  1
  O  O186  1  0.87200537  0.89008265  0.87700208  1
  O  O187  1  0.25815066  0.00774702  0.38360753  1
  O  O188  1  0.25609234  0.00648284  0.87150059  1
  O  O189  1  0.25397878  0.50449749  0.36771217  1
  O  O190  1  0.25631555  0.50487031  0.86489516  1
  O  O191  1  0.75233641  0.01386215  0.37922210  1
  O  O192  1  0.75775329  0.00982001  0.86903987  1
  O  O193  1  0.75426406  0.49007450  0.36324024  1
  O  O194  1  0.76104244  0.50894322  0.88126896  1
  O  O195  1  0.24525118  0.48946984  0.13483133  1
  O  O196  1  0.24916169  0.50049230  0.63845721  1
  O  O197  1  0.25059306  0.98076702  0.12252471  1
  O  O198  1  0.24353652  0.99659408  0.62884914  1
  O  O199  1  0.74284511  0.49508857  0.13340588  1
  O  O200  1  0.75754754  0.48738746  0.62584007  1
  O  O201  1  0.74116430  0.99438116  0.11874990  1
  O  O202  1  0.74198616  0.99786713  0.63192599  1
  O  O203  1  0.00994821  0.37676855  0.25730828  1
  O  O204  1  0.00562357  0.37154177  0.76055739  1
  O  O205  1  0.00871219  0.86909787  0.25417096  1
  O  O206  1  0.01266847  0.86895508  0.74716241  1
  O  O207  1  0.49696486  0.36256816  0.25115875  1
  O  O208  1  0.51356437  0.36762654  0.75466947  1
  O  O209  1  0.51030286  0.86580206  0.24985601  1
  O  O210  1  0.49535463  0.86971808  0.75212377  1
  O  O211  1  0.49807871  0.13135957  0.23701265  1
  O  O212  1  0.49577767  0.12949240  0.74810277  1
  O  O213  1  0.48477125  0.63036176  0.24797877  1
  O  O214  1  0.48999098  0.63404727  0.75800351  1
  O  O215  1  0.99157300  0.12187345  0.23074767  1
  O  O216  1  0.99133240  0.13040112  0.74912978  1
  O  O217  1  0.99555004  0.63113221  0.24535645  1
  O  O218  1  1.00432201  0.63653440  0.74358814  1
  O  O219  1  0.36476862  0.25014673  0.00668597  1
  O  O220  1  0.36295449  0.24950854  0.49988877  1
  O  O221  1  0.38666392  0.73404943  0.01045522  1
  O  O222  1  0.37054072  0.75397452  0.50693094  1
  O  O223  1  0.87054069  0.26195236  0.00889088  1
  O  O224  1  0.87291732  0.24287741  0.51502841  1
  O  O225  1  0.86492787  0.75410090  0.00010648  1
  O  O226  1  0.87713545  0.75746121  0.50823710  1
  O  O227  1  0.13552626  0.25024725  0.49164496  1
  O  O228  1  0.13762964  0.25266587  0.99280223  1
  O  O229  1  0.13868023  0.75184001  0.50612469  1
  O  O230  1  0.12170242  0.74539946  0.98834129  1
  O  O231  1  0.62423569  0.24084018  0.49269754  1
  O  O232  1  0.62685470  0.23700900  1.00395888  1
  O  O233  1  0.62943223  0.76925666  0.47000327  1
  O  O234  1  0.63461969  0.74566525  0.99574317  1
  O  O235  1  0.49558199  0.24453637  0.13029713  1
  O  O236  1  0.50166825  0.24274981  0.63432738  1
  O  O237  1  0.50799305  0.74744575  0.13449748  1
  O  O238  1  0.48139027  0.76289829  0.63952009  1
  O  O239  1  0.99096026  0.23633879  0.11641386  1
  O  O240  1  0.99237885  0.25012192  0.63267611  1
  O  O241  1  0.99887405  0.73944129  0.13426047  1
  O  O242  1  0.99373074  0.74563681  0.63369206  1
  O  O243  1  0.00811998  0.25403409  0.37950070  1
  O  O244  1  0.00220747  0.25622613  0.87086549  1
  O  O245  1  -0.00300006  0.75898729  0.36618873  1
  O  O246  1  0.00719785  0.74532620  0.86800199  1
  O  O247  1  0.50661016  0.24926102  0.36635927  1
  O  O248  1  0.49589018  0.26032880  0.86883360  1
  O  O249  1  0.50815597  0.75068732  0.36304323  1
  O  O250  1  0.50913494  0.75620761  0.86311578  1
  O  O251  1  0.25151239  0.13582369  0.49013022  1
  O  O252  1  0.25506884  0.13069255  0.99110024  1
  O  O253  1  0.24889659  0.63221716  0.49104031  1
  O  O254  1  0.25048802  0.62826755  0.98582048  1
  O  O255  1  0.73897155  0.12635586  0.49440213  1
  O  O256  1  0.74177952  0.12622969  0.99027561  1
  O  O257  1  0.74555689  0.62965034  0.50036637  1
  O  O258  1  0.74480929  0.63408920  0.99676468  1
  O  O259  1  0.25260785  0.36434260  0.00537798  1
  O  O260  1  0.25132174  0.35960331  0.50064953  1
  O  O261  1  0.25512476  0.86815021  0.01171890  1
  O  O262  1  0.25905207  0.86760223  0.50176703  1
  O  O263  1  0.75614230  0.37549191  0.01035700  1
  O  O264  1  0.74275288  0.37313365  0.51766420  1
  O  O265  1  0.75168525  0.86948849  0.01223987  1
  O  O266  1  0.76509482  0.87020603  0.50031291  1
  O  O267  1  0.13377396  0.48959038  0.25070236  1
  O  O268  1  0.13345785  0.49251602  0.75199688  1
  O  O269  1  0.12224818  0.98798589  0.25037794  1
  O  O270  1  0.12896892  0.99308951  0.74622615  1
  O  O271  1  0.63087395  0.50848689  0.24009445  1
  O  O272  1  0.62132831  0.49322047  0.74850100  1
  O  O273  1  0.61872788  0.99517737  0.23796148  1
  O  O274  1  0.63394551  1.00430699  0.73874195  1
  O  O275  1  0.38216840  -0.00028917  0.26400259  1
  O  O276  1  0.37144816  0.00991886  0.75604797  1
  O  O277  1  0.36356256  0.50437526  0.25474107  1
  O  O278  1  0.37126007  0.50654684  0.75345592  1
  O  O279  1  0.87865623  0.01204590  0.24753636  1
  O  O280  1  0.87181650  0.00703263  0.75529221  1
  O  O281  1  0.86588242  0.50674654  0.25817297  1
  O  O282  1  0.87107219  0.49701674  0.76452930  1
  O  O283  1  0.11562742  0.36597965  0.36995385  1
  O  O284  1  0.11711652  0.36969429  0.86705911  1
  O  O285  1  0.11515139  0.87676786  0.36500161  1
  O  O286  1  0.13282272  0.86646649  0.86693499  1
  O  O287  1  0.62596177  0.35980413  0.37813186  1
  O  O288  1  0.61955881  0.37982245  0.86290534  1
  O  O289  1  0.62675574  0.88026479  0.35921841  1
  O  O290  1  0.63442009  0.86667276  0.88288126  1
  O  O291  1  0.38251225  0.12913629  0.12561779  1
  O  O292  1  0.38362592  0.12379331  0.63360966  1
  O  O293  1  0.37094134  0.61726096  0.13137878  1
  O  O294  1  0.36821321  0.63505057  0.63465574  1
  O  O295  1  0.87440409  0.13294510  0.12756881  1
  O  O296  1  0.87382404  0.13047813  0.63681456  1
  O  O297  1  0.88466762  0.62520879  0.13608864  1
  O  O298  1  0.88846134  0.63397496  0.62528595  1
  O  O299  1  0.25247093  0.25041937  0.11933454  1
  O  O300  1  0.24838518  0.24488517  0.61221215  1
  O  O301  1  0.24472036  0.76563165  0.12201593  1
  O  O302  1  0.25842892  0.75532007  0.62103684  1
  O  O303  1  0.75588080  0.25982109  0.12276632  1
  O  O304  1  0.75671707  0.25650163  0.62475454  1
  O  O305  1  0.75232247  0.75840094  0.11735586  1
  O  O306  1  0.76822902  0.75361771  0.63329765  1
  O  O307  1  0.24227341  0.24202987  0.38403747  1
  O  O308  1  0.24794443  0.24288381  0.88254926  1
  O  O309  1  0.25698325  0.73923625  0.38426805  1
  O  O310  1  0.24327594  0.74174386  0.87791911  1
  O  O311  1  0.74365550  0.24041554  0.37624182  1
  O  O312  1  0.75562580  0.23674460  0.87470261  1
  O  O313  1  0.73922338  0.75024398  0.36515604  1
  O  O314  1  0.74489553  0.74532890  0.88171639  1
  O  O315  1  -0.00305527  0.11731694  0.01122180  1
  O  O316  1  -0.00475551  0.11172438  0.50098502  1
  O  O317  1  -0.00398308  0.62819804  0.01735184  1
  O  O318  1  0.00343750  0.62414651  0.51017885  1
  O  O319  1  0.50599867  0.12233881  0.00986930  1
  O  O320  1  0.51018576  0.12001754  0.50267850  1
  O  O321  1  0.50451717  0.62505630  0.00666366  1
  O  O322  1  0.49667789  0.60785468  0.49442716  1
  O  O323  1  0.49643260  0.38628442  0.49876486  1
  O  O324  1  0.50076536  0.37781618  0.99094328  1
  O  O325  1  0.48697671  0.87479346  0.49891393  1
  O  O326  1  0.50551621  0.88855304  1.00654571  1
  O  O327  1  1.00138109  0.37470069  0.48948204  1
  O  O328  1  0.99310341  0.37072005  0.98786948  1
  O  O329  1  0.99422944  0.88007433  0.49220024  1
  O  O330  1  1.00178301  0.89253827  1.00714006  1
  O  O331  1  0.48853871  0.49581541  0.37253446  1
  O  O332  1  0.49766032  0.49249936  0.88241743  1
  O  O333  1  0.49277994  0.99764004  0.38232550  1
  O  O334  1  0.49180769  1.00378312  0.88536160  1
  O  O335  1  0.99002232  0.48839039  0.37495949  1
  O  O336  1  0.98557674  0.49362617  0.87273405  1
  O  O337  1  0.99778897  0.99331459  0.38166321  1
  O  O338  1  0.99197101  1.00895998  0.88873971  1
  O  O339  1  -0.00076956  0.01397984  0.11062165  1
  O  O340  1  0.00741047  0.00109812  0.61681725  1
  O  O341  1  -0.00023160  0.51415123  0.13530407  1
  O  O342  1  -0.00075183  0.50793475  0.62626248  1
  O  O343  1  0.50707875  0.00852139  0.11938908  1
  O  O344  1  0.50660921  0.00460909  0.61942984  1
  O  O345  1  0.50944120  0.49312306  0.11939298  1
  O  O346  1  0.49396344  0.50185621  0.61535509  1
  O  O347  1  0.24114995  0.37989395  0.24710773  1
  O  O348  1  0.24226157  0.38181875  0.75284382  1
  O  O349  1  0.23770240  0.87208114  0.24281784  1
  O  O350  1  0.24100200  0.88137889  0.74366843  1
  O  O351  1  0.75490136  0.38382843  0.23714355  1
  O  O352  1  0.73582456  0.37451897  0.74633899  1
  O  O353  1  0.74519979  0.87278769  0.23755658  1
  O  O354  1  0.75486640  0.88886753  0.74833726  1
  O  O355  1  0.25361257  0.12735472  0.26616598  1
  O  O356  1  0.25940265  0.11961369  0.75647916  1
  O  O357  1  0.25499127  0.61859838  0.25349167  1
  O  O358  1  0.25650076  0.61980696  0.75880825  1
  O  O359  1  0.75859954  0.12747457  0.25588494  1
  O  O360  1  0.75664740  0.11558794  0.75511566  1
  O  O361  1  0.76043231  0.61530804  0.24469531  1
  O  O362  1  0.74058436  0.63088898  0.76447393  1
  O  O363  1  0.36686473  0.11446755  0.37521706  1
  O  O364  1  0.36695045  0.11918355  0.86820301  1
  O  O365  1  0.36541875  0.61389929  0.36620560  1
  O  O366  1  0.36754451  0.61782892  0.86501211  1
  O  O367  1  0.86767783  0.12510866  0.36234666  1
  O  O368  1  0.86913742  0.11934061  0.86576912  1
  O  O369  1  0.88195556  0.61483007  0.36357407  1
  O  O370  1  0.86656146  0.61254088  0.87957925  1
  O  O371  1  0.12774357  0.37063351  0.13455841  1
  O  O372  1  0.12695115  0.37518164  0.63926483  1
  O  O373  1  0.12512546  0.87639283  0.13731371  1
  O  O374  1  0.12953035  0.88329504  0.63323124  1
  O  O375  1  0.63426961  0.38667356  0.12064108  1
  O  O376  1  0.63634282  0.37212776  0.63981381  1
  O  O377  1  0.63399873  0.88434659  0.13453728  1
  O  O378  1  0.62654093  0.88296611  0.61599244  1
  O  O379  1  0.12978548  0.25865428  0.26427524  1
  O  O380  1  0.12022957  0.25699510  0.75636274  1
  O  O381  1  0.11539338  0.75603177  0.25035053  1
  O  O382  1  0.11894563  0.75751112  0.75902130  1
  O  O383  1  0.61469871  0.24321069  0.25870530  1
  O  O384  1  0.61736662  0.24689375  0.75101505  1
  O  O385  1  0.61999452  0.75566828  0.25662302  1
  O  O386  1  0.61064660  0.75453604  0.75789913  1
  O  O387  1  0.38177053  0.24602162  0.24390784  1
  O  O388  1  0.38306702  0.23703206  0.75066731  1
  O  O389  1  0.38366602  0.74044293  0.25269927  1
  O  O390  1  0.38220116  0.74479520  0.74725009  1
  O  O391  1  0.87277692  0.24155928  0.23455306  1
  O  O392  1  0.87879819  0.24274015  0.74411458  1
  O  O393  1  0.88527935  0.74156968  0.24923584  1
  O  O394  1  0.88908008  0.75867566  0.74575468  1
  O  O395  1  0.38131823  0.49759085  0.49244262  1
  O  O396  1  0.38129067  0.49632660  0.99356789  1
  O  O397  1  0.38017033  0.99139698  0.49399945  1
  O  O398  1  0.38697992  1.00594478  0.99041537  1
  O  O399  1  0.87589967  0.50210696  0.48625515  1
  O  O400  1  0.87207888  0.48847873  0.99727505  1
  O  O401  1  0.88306366  0.99200181  0.49946780  1
  O  O402  1  0.88140509  0.99992010  0.99049463  1
  O  O403  1  0.11444950  0.00332880  -0.01014920  1
  O  O404  1  0.11532643  -0.00864349  0.50978755  1
  O  O405  1  0.12864863  0.50440916  0.00219630  1
  O  O406  1  0.12177675  0.50223212  0.50417887  1
  O  O407  1  0.61873518  0.01092547  0.00982097  1
  O  O408  1  0.61950615  0.00464759  0.50514406  1
  O  O409  1  0.61957365  0.50917500  0.00693064  1
  O  O410  1  0.60750789  0.50016785  0.49841630  1
  O  O411  1  0.36520226  0.36613153  0.12443840  1
  O  O412  1  0.36855376  0.36711585  0.62556951  1
  O  O413  1  0.36636883  0.87271598  0.13224367  1
  O  O414  1  0.36551139  0.87182207  0.61669560  1
  O  O415  1  0.87176750  0.37035975  0.12024227  1
  O  O416  1  0.85922634  0.36589442  0.63616251  1
  O  O417  1  0.87008878  0.87414984  0.12416594  1
  O  O418  1  0.87887426  0.86816029  0.61542855  1
  O  O419  1  0.12891200  0.13200024  0.37022544  1
  O  O420  1  0.14007458  0.13151362  0.86614471  1
  O  O421  1  0.13624819  0.62049706  0.37266481  1
  O  O422  1  0.13262514  0.63275559  0.87299263  1
  O  O423  1  0.63036000  0.13076597  0.38022161  1
  O  O424  1  0.63369119  0.11807540  0.88380446  1
  O  O425  1  0.62312869  0.63627531  0.37475114  1
  O  O426  1  0.63056627  0.63262654  0.88844981  1
