# generated using pymatgen
data_V85Zn86O256
_symmetry_space_group_name_H-M   'P 1'
_cell_length_a   16.94152536
_cell_length_b   16.93059081
_cell_length_c   16.93810080
_cell_angle_alpha   89.99738266
_cell_angle_beta   90.00634987
_cell_angle_gamma   89.93849290
_symmetry_Int_Tables_number   1
_chemical_formula_structural   V85Zn86O256
_chemical_formula_sum   'V85 Zn86 O256'
_cell_volume   4858.35318605
_cell_formula_units_Z   1
loop_
 _symmetry_equiv_pos_site_id
 _symmetry_equiv_pos_as_xyz
  1  'x, y, z'
loop_
 _atom_site_type_symbol
 _atom_site_label
 _atom_site_symmetry_multiplicity
 _atom_site_fract_x
 _atom_site_fract_y
 _atom_site_fract_z
 _atom_site_occupancy
  V  V0  1  0.87209193  0.37139408  0.51241570  1
  V  V1  1  -0.00160437  0.50059165  0.49995382  1
  V  V2  1  0.87700350  0.62578823  0.75148755  1
  V  V3  1  0.24779748  0.62365174  0.36806873  1
  V  V4  1  0.49812919  0.00009524  0.49857233  1
  V  V5  1  0.13083635  0.12043176  0.00417348  1
  V  V6  1  0.87710837  0.50018008  0.87587391  1
  V  V7  1  0.13262094  -0.00140026  0.62374596  1
  V  V8  1  0.36578223  0.75629444  0.12502547  1
  V  V9  1  -0.00350663  0.37535187  0.37251324  1
  V  V10  1  0.23955596  0.63072555  0.87652798  1
  V  V11  1  0.13342679  0.87339386  0.74755677  1
  V  V12  1  0.12438139  0.75038951  0.37356625  1
  V  V13  1  0.62464641  0.49521321  0.13362289  1
  V  V14  1  0.24550425  -0.00503447  0.23705805  1
  V  V15  1  0.37007870  0.87071708  0.51503367  1
  V  V16  1  0.51078459  0.25388651  0.74777922  1
  V  V17  1  0.36935584  0.36057992  0.00365203  1
  V  V18  1  0.00125141  0.62522474  0.62550177  1
  V  V19  1  0.50045115  0.00366272  -0.00048263  1
  V  V20  1  0.25015439  0.35743742  0.12915769  1
  V  V21  1  0.74762336  0.75265770  -0.00083964  1
  V  V22  1  0.87630336  0.24679774  0.12106934  1
  V  V23  1  0.12439245  0.25109307  0.37611768  1
  V  V24  1  0.25159497  0.13695117  0.87499203  1
  V  V25  1  0.62423820  0.61648429  0.49822922  1
  V  V26  1  0.37262072  0.49578146  0.37795698  1
  V  V27  1  0.64033335  0.24982828  0.87837640  1
  V  V28  1  0.62594190  0.00069800  0.12362074  1
  V  V29  1  0.36911077  -0.00469965  0.37579592  1
  V  V30  1  0.75317513  -0.00096476  0.25319529  1
  V  V31  1  0.87723745  0.00566071  0.87496091  1
  V  V32  1  0.87483158  0.88012389  0.49723807  1
  V  V33  1  0.87932109  0.12041083  0.25342845  1
  V  V34  1  0.87693024  0.12838400  0.74456962  1
  V  V35  1  0.37388034  0.00189546  0.87124512  1
  V  V36  1  0.00732624  0.75106756  0.75568366  1
  V  V37  1  0.25074330  0.75219665  0.51256004  1
  V  V38  1  0.48576720  0.74552355  0.74131239  1
  V  V39  1  0.87247160  0.37027863  0.00181979  1
  V  V40  1  0.75447996  0.12063776  0.37545696  1
  V  V41  1  0.00671659  0.37288835  0.87719622  1
  V  V42  1  0.62354004  0.74884125  0.86670922  1
  V  V43  1  0.00347211  0.24977169  0.74326112  1
  V  V44  1  0.37583470  0.13051237  0.74474599  1
  V  V45  1  0.62354772  0.87463075  0.25002635  1
  V  V46  1  0.37441035  0.50980295  0.87842942  1
  V  V47  1  0.75022425  0.01075907  0.75290373  1
  V  V48  1  0.87660739  0.75048874  0.62373633  1
  V  V49  1  0.48960924  0.62096233  0.61925755  1
  V  V50  1  0.86533089  0.50427234  0.37623028  1
  V  V51  1  0.64050607  0.12759627  -0.00477144  1
  V  V52  1  0.62130275  0.12604815  0.49775245  1
  V  V53  1  0.00805486  0.87772207  0.87803520  1
  V  V54  1  0.00320613  0.11035342  0.11772388  1
  V  V55  1  0.49862881  0.62771003  0.12524071  1
  V  V56  1  0.36533787  0.87817417  0.00311573  1
  V  V57  1  0.75093634  0.87342593  0.12467447  1
  V  V58  1  0.49850584  0.12766936  0.62044085  1
  V  V59  1  0.63016199  0.25682276  0.36277704  1
  V  V60  1  0.75021272  0.37165967  0.13324596  1
  V  V61  1  0.87930534  0.87937130  -0.00221040  1
  V  V62  1  0.86762604  0.62348173  0.24568775  1
  V  V63  1  0.12984269  0.49263524  0.62559384  1
  V  V64  1  -0.00339837  0.87783583  0.37310099  1
  V  V65  1  0.50023354  0.87369533  0.87312620  1
  V  V66  1  0.13432931  0.50645234  0.13040220  1
  V  V67  1  0.49904681  0.87191633  0.37526226  1
  V  V68  1  0.49827969  0.49781271  0.00432722  1
  V  V69  1  0.75307030  0.25014760  0.51357086  1
  V  V70  1  0.12341860  0.62597148  0.49867922  1
  V  V71  1  0.24688307  0.12069758  0.37777577  1
  V  V72  1  0.75084035  0.87228839  0.62735987  1
  V  V73  1  0.37057160  0.62110498  0.24759059  1
  V  V74  1  0.74675149  0.74658565  0.49411059  1
  V  V75  1  0.12459375  0.87848808  0.23895884  1
  V  V76  1  0.74965666  0.62207528  0.87671736  1
  V  V77  1  0.50695846  0.38306828  0.36949716  1
  V  V78  1  0.25677068  0.49734288  0.74815062  1
  V  V79  1  -0.00096587  0.00215853  0.49895779  1
  V  V80  1  0.25838421  0.26278632  0.50320035  1
  V  V81  1  -0.00132889  0.74347525  0.24316377  1
  V  V82  1  0.62645816  0.00105951  0.62375519  1
  V  V83  1  0.50664798  0.37256535  0.87725329  1
  V  V84  1  0.00237805  0.50642503  0.00862585  1
  Zn  Zn85  1  0.49774370  0.75420507  0.24751905  1
  Zn  Zn86  1  0.62764775  0.74473287  0.37149629  1
  Zn  Zn87  1  0.12883949  0.25084877  0.87860024  1
  Zn  Zn88  1  0.87872390  0.74262860  0.11833614  1
  Zn  Zn89  1  0.23888816  0.75811972  -0.00218067  1
  Zn  Zn90  1  0.37514172  0.12969550  0.24228250  1
  Zn  Zn91  1  0.62381751  0.62595546  0.00226909  1
  Zn  Zn92  1  0.49352032  0.25291091  0.24242105  1
  Zn  Zn93  1  0.12377174  0.12718009  0.50330577  1
  Zn  Zn94  1  0.37297095  0.27182246  0.62400257  1
  Zn  Zn95  1  0.49614922  0.13595064  0.12416709  1
  Zn  Zn96  1  0.62564180  0.87406159  0.74803104  1
  Zn  Zn97  1  0.74142335  0.47403763  0.74787954  1
  Zn  Zn98  1  0.62368961  0.47979511  0.62826805  1
  Zn  Zn99  1  0.12946830  0.37821749  0.25137729  1
  Zn  Zn100  1  0.11800048  0.63402176  0.00330197  1
  Zn  Zn101  1  0.74156849  0.50017088  0.25712377  1
  Zn  Zn102  1  0.43511761  0.43776531  0.54145993  1
  Zn  Zn103  1  0.00284158  0.24842242  0.24783185  1
  Zn  Zn104  1  0.25371163  -0.00148329  0.74361044  1
  Zn  Zn105  1  0.13297099  0.37093372  0.74724059  1
  Zn  Zn106  1  -0.00023784  0.12839258  0.62278620  1
  Zn  Zn107  1  0.18450879  0.18270798  0.19191469  1
  Zn  Zn108  1  0.18718588  0.18752448  0.68559948  1
  Zn  Zn109  1  0.18578646  0.69081131  0.18538614  1
  Zn  Zn110  1  0.18795289  0.67982347  0.69275082  1
  Zn  Zn111  1  0.69029058  0.18525126  0.18119033  1
  Zn  Zn112  1  0.68967207  0.30759728  0.68608246  1
  Zn  Zn113  1  0.68663952  0.68648312  0.18776226  1
  Zn  Zn114  1  0.68339136  0.61934869  0.69068091  1
  Zn  Zn115  1  0.31025870  0.31342979  0.31088950  1
  Zn  Zn116  1  0.32012835  0.31782301  0.81243735  1
  Zn  Zn117  1  0.31038219  0.81164458  0.31381324  1
  Zn  Zn118  1  0.31230235  0.81258845  0.81422561  1
  Zn  Zn119  1  0.81565035  0.30918459  0.31324804  1
  Zn  Zn120  1  0.82172726  0.30576046  0.81991830  1
  Zn  Zn121  1  0.81486918  0.81144249  0.31241278  1
  Zn  Zn122  1  0.81578916  0.81352202  0.81220615  1
  Zn  Zn123  1  0.18816962  0.44013958  0.43439020  1
  Zn  Zn124  1  0.18972616  0.44022255  0.94326963  1
  Zn  Zn125  1  0.18415018  0.93297202  0.43830638  1
  Zn  Zn126  1  0.18579880  0.94649711  0.93501137  1
  Zn  Zn127  1  0.68770672  0.43257885  0.44387093  1
  Zn  Zn128  1  0.68851424  0.43703286  0.94427078  1
  Zn  Zn129  1  0.68715949  0.93664034  0.43620055  1
  Zn  Zn130  1  0.68864694  0.93786165  0.93370676  1
  Zn  Zn131  1  0.31135982  0.06785204  0.06080419  1
  Zn  Zn132  1  0.31187739  0.06527999  0.55954755  1
  Zn  Zn133  1  0.30947477  0.56165562  0.06091907  1
  Zn  Zn134  1  0.30668567  0.56930774  0.56181774  1
  Zn  Zn135  1  0.81604103  0.05910215  0.06390985  1
  Zn  Zn136  1  0.81256949  0.06337382  0.56446717  1
  Zn  Zn137  1  0.81174086  0.55975105  0.06391613  1
  Zn  Zn138  1  0.80945810  0.56120853  0.56191408  1
  Zn  Zn139  1  0.43221573  0.43459950  0.18981191  1
  Zn  Zn140  1  0.44234777  0.44223862  0.70163836  1
  Zn  Zn141  1  0.43438009  0.94789626  0.18498314  1
  Zn  Zn142  1  0.44101806  0.93719144  0.68882741  1
  Zn  Zn143  1  0.93960322  0.43930191  0.18836741  1
  Zn  Zn144  1  0.93944986  0.43746922  0.69218675  1
  Zn  Zn145  1  0.93569375  0.93480589  0.18703292  1
  Zn  Zn146  1  0.94193898  0.93885601  0.68751927  1
  Zn  Zn147  1  0.06216763  0.06168038  0.31349931  1
  Zn  Zn148  1  0.06461117  0.06116999  0.81352310  1
  Zn  Zn149  1  0.05788762  0.56129016  0.30871990  1
  Zn  Zn150  1  0.06473884  0.55781806  0.81205244  1
  Zn  Zn151  1  0.56137397  0.06401644  0.31112885  1
  Zn  Zn152  1  0.56493332  0.06672835  0.81179793  1
  Zn  Zn153  1  0.55734144  0.56562531  0.31335177  1
  Zn  Zn154  1  0.55782988  0.56510973  0.81354312  1
  Zn  Zn155  1  0.42430125  0.20291597  0.40703589  1
  Zn  Zn156  1  0.44380140  0.18624375  0.93557574  1
  Zn  Zn157  1  0.43489709  0.68793639  0.43880341  1
  Zn  Zn158  1  0.43503693  0.69038844  0.94029928  1
  Zn  Zn159  1  0.93577105  0.18852719  0.43830659  1
  Zn  Zn160  1  0.94249925  0.18711374  0.93685647  1
  Zn  Zn161  1  0.93494341  0.68822793  0.43265951  1
  Zn  Zn162  1  0.93997087  0.69076903  0.93782072  1
  Zn  Zn163  1  0.06431086  0.30815001  0.06104787  1
  Zn  Zn164  1  0.06335036  0.31306478  0.55875552  1
  Zn  Zn165  1  0.06263331  0.81388335  0.06158095  1
  Zn  Zn166  1  0.06443148  0.81367303  0.56478037  1
  Zn  Zn167  1  0.56497958  0.31089807  0.06523827  1
  Zn  Zn168  1  0.55886840  0.30696567  0.55228134  1
  Zn  Zn169  1  0.55929734  0.81393779  0.06034154  1
  Zn  Zn170  1  0.56373534  0.80913980  0.56277064  1
  O  O171  1  0.11323886  0.12729229  0.11822758  1
  O  O172  1  0.11988779  0.11487567  0.62330429  1
  O  O173  1  0.12993975  0.61060057  0.12445733  1
  O  O174  1  0.11790554  0.61606411  0.61969466  1
  O  O175  1  0.62549108  0.11792155  0.11129101  1
  O  O176  1  0.61772595  0.11858670  0.60670125  1
  O  O177  1  0.61497411  0.61956663  0.12262685  1
  O  O178  1  0.60921900  0.63543903  0.60749864  1
  O  O179  1  0.37631298  0.39302309  0.37057442  1
  O  O180  1  0.38241483  0.38408938  0.88928026  1
  O  O181  1  0.37952451  0.88153606  0.38111324  1
  O  O182  1  0.38052613  0.88424246  0.87881858  1
  O  O183  1  0.88133239  0.38107976  0.38127338  1
  O  O184  1  0.88581375  0.38164337  0.88419984  1
  O  O185  1  0.88753493  0.87181536  0.38178147  1
  O  O186  1  0.88346360  0.88181101  0.87995343  1
  O  O187  1  0.25291344  0.00360455  0.37453868  1
  O  O188  1  0.26439270  0.00999341  0.87109341  1
  O  O189  1  0.25906679  0.51012823  0.37415633  1
  O  O190  1  0.25763622  0.50689381  0.87333085  1
  O  O191  1  0.74618752  0.01225694  0.37004631  1
  O  O192  1  0.76191735  -0.01089951  0.86203748  1
  O  O193  1  0.76157659  0.49270314  0.37467787  1
  O  O194  1  0.75749729  0.50764347  0.87734972  1
  O  O195  1  0.23690183  0.49130307  0.11985440  1
  O  O196  1  0.24189322  0.51061327  0.63527566  1
  O  O197  1  0.24816693  1.00067652  0.13913783  1
  O  O198  1  0.23743449  1.00331065  0.62345499  1
  O  O199  1  0.74060064  0.49359271  0.12758893  1
  O  O200  1  0.74024164  0.52342703  0.64001791  1
  O  O201  1  0.74507109  0.99317458  0.13122994  1
  O  O202  1  0.74498013  0.99326597  0.63096034  1
  O  O203  1  -0.00104529  0.37203748  0.26315090  1
  O  O204  1  0.00291474  0.36861801  0.76034313  1
  O  O205  1  0.00220369  0.87091128  0.25793513  1
  O  O206  1  0.00833912  0.86802155  0.75616678  1
  O  O207  1  0.49411605  0.37234616  0.26354022  1
  O  O208  1  0.50035012  0.36812402  0.76827195  1
  O  O209  1  0.50532235  0.87817511  0.25700670  1
  O  O210  1  0.50346709  0.86288596  0.75395162  1
  O  O211  1  0.49817441  0.12716392  0.24597758  1
  O  O212  1  0.49507963  0.13376115  0.74412568  1
  O  O213  1  0.49097530  0.62937740  0.23854287  1
  O  O214  1  0.50144063  0.63720039  0.73576248  1
  O  O215  1  0.99496003  0.12387983  0.24103324  1
  O  O216  1  0.99573313  0.13267744  0.75006882  1
  O  O217  1  0.98704875  0.63411168  0.25425061  1
  O  O218  1  0.99689477  0.63202986  0.74862564  1
  O  O219  1  0.38006036  0.26281077  -0.00505539  1
  O  O220  1  0.36157069  0.24672968  0.49624413  1
  O  O221  1  0.37229437  0.76225003  0.00613483  1
  O  O222  1  0.36272684  0.75913245  0.49484025  1
  O  O223  1  0.88140950  0.25822688  0.00676094  1
  O  O224  1  0.86463061  0.25764399  0.49721098  1
  O  O225  1  0.86642473  0.75983155  -0.00155534  1
  O  O226  1  0.87149550  0.75995898  0.50326353  1
  O  O227  1  0.13273711  0.24905524  0.49068869  1
  O  O228  1  0.11565478  0.23008064  0.99361908  1
  O  O229  1  0.12773103  0.74523135  0.49340979  1
  O  O230  1  0.12691319  0.74685995  1.00334154  1
  O  O231  1  0.63564585  0.24069320  0.48832311  1
  O  O232  1  0.62276990  0.23423199  0.99368548  1
  O  O233  1  0.63351695  0.74652845  0.49540174  1
  O  O234  1  0.63103169  0.75019382  0.99051656  1
  O  O235  1  0.49976981  0.25091201  0.12905651  1
  O  O236  1  0.49600118  0.24271843  0.63134154  1
  O  O237  1  0.48987835  0.74239846  0.12298232  1
  O  O238  1  0.49974057  0.74706053  0.63678397  1
  O  O239  1  0.99005037  0.24294161  0.12822914  1
  O  O240  1  1.00620959  0.25172092  0.63836781  1
  O  O241  1  0.99516386  0.75616200  0.13970506  1
  O  O242  1  0.99562272  0.74481760  0.63186235  1
  O  O243  1  0.00691175  0.25752426  0.37564607  1
  O  O244  1  0.00152823  0.25895559  0.86612337  1
  O  O245  1  0.00455828  0.75695571  0.36570659  1
  O  O246  1  -0.00473858  0.76082728  0.86442349  1
  O  O247  1  0.52242928  0.25702914  0.37427404  1
  O  O248  1  0.50789805  0.25707637  0.86912348  1
  O  O249  1  0.49740349  0.76358797  0.37236458  1
  O  O250  1  0.50509120  0.75096169  0.86760588  1
  O  O251  1  0.24629389  0.12919690  0.48766658  1
  O  O252  1  0.24108790  0.12322790  0.99148332  1
  O  O253  1  0.24175295  0.63276677  0.48715651  1
  O  O254  1  0.24822410  0.62427035  0.98632343  1
  O  O255  1  0.74593624  0.12758595  0.49185482  1
  O  O256  1  0.73895684  0.11761376  0.99973430  1
  O  O257  1  0.73570785  0.63465854  0.50239646  1
  O  O258  1  0.75123004  0.63265243  0.99148483  1
  O  O259  1  0.26269488  0.37401617  0.00696662  1
  O  O260  1  0.24907061  0.36149168  0.49340699  1
  O  O261  1  0.26206279  0.87921328  -0.00892760  1
  O  O262  1  0.25731737  0.86450063  0.49638972  1
  O  O263  1  0.76711236  0.38235743  0.01157921  1
  O  O264  1  0.75870895  0.36160843  0.49941632  1
  O  O265  1  0.75519087  0.86828334  0.00288734  1
  O  O266  1  0.75771376  0.87421954  0.50753727  1
  O  O267  1  0.11881043  0.49614522  0.23464349  1
  O  O268  1  0.13258251  0.49651428  0.74124508  1
  O  O269  1  0.13712562  0.99255354  0.25744221  1
  O  O270  1  0.12650504  0.99197634  0.74086283  1
  O  O271  1  0.62328278  0.50619166  0.23810217  1
  O  O272  1  0.63290880  0.52101616  0.74383534  1
  O  O273  1  0.63269712  0.99316875  0.24493653  1
  O  O274  1  0.63351516  0.99945422  0.74471719  1
  O  O275  1  0.35844742  -0.00729803  0.26016795  1
  O  O276  1  0.37704887  0.00842586  0.75557640  1
  O  O277  1  0.37544185  0.51504277  0.25732887  1
  O  O278  1  0.36916880  0.50210077  0.76624154  1
  O  O279  1  0.86840657  0.01121319  0.24542280  1
  O  O280  1  0.87101273  0.00295143  0.75611688  1
  O  O281  1  0.87541683  0.51032583  0.25698697  1
  O  O282  1  0.87721621  0.50598142  0.76488890  1
  O  O283  1  0.11674770  0.37027071  0.37359627  1
  O  O284  1  0.11527544  0.37602735  0.87936425  1
  O  O285  1  0.11229501  0.86849884  0.36941108  1
  O  O286  1  0.11512858  0.88305056  0.86642515  1
  O  O287  1  0.62451117  0.36590521  0.37290485  1
  O  O288  1  0.61644302  0.36481002  0.89043252  1
  O  O289  1  0.61550237  0.87483525  0.36832215  1
  O  O290  1  0.61795495  0.86744066  0.87239006  1
  O  O291  1  0.38490329  0.10486717  0.13181445  1
  O  O292  1  0.38014933  0.12336627  0.63495551  1
  O  O293  1  0.37801939  0.63060614  0.13006563  1
  O  O294  1  0.38997871  0.62726323  0.61620525  1
  O  O295  1  0.88455099  0.12852836  0.12793979  1
  O  O296  1  0.88128316  0.11644751  0.63988134  1
  O  O297  1  0.87294704  0.62365426  0.13944458  1
  O  O298  1  0.88258931  0.63090760  0.63032324  1
  O  O299  1  0.24763130  0.25802091  0.12797457  1
  O  O300  1  0.25318334  0.24540757  0.60789929  1
  O  O301  1  0.26251907  0.74836424  0.12141858  1
  O  O302  1  0.24320775  0.73940997  0.61153532  1
  O  O303  1  0.76502729  0.25575658  0.12696219  1
  O  O304  1  0.74655812  0.23650036  0.61103561  1
  O  O305  1  0.74977395  0.75283732  0.11193586  1
  O  O306  1  0.75908743  0.76090773  0.61238742  1
  O  O307  1  0.24205793  0.24212635  0.38257933  1
  O  O308  1  0.25440206  0.23993815  0.87049555  1
  O  O309  1  0.24094733  0.74324478  0.37983553  1
  O  O310  1  0.25563211  0.73343132  0.87515110  1
  O  O311  1  0.74362586  0.24098279  0.37926084  1
  O  O312  1  0.73941087  0.25130925  0.88012189  1
  O  O313  1  0.75009995  0.75837110  0.39005851  1
  O  O314  1  0.74410682  0.74832513  0.88396961  1
  O  O315  1  0.00378568  0.12278256  0.01293390  1
  O  O316  1  -0.00056704  0.11590551  0.50108660  1
  O  O317  1  -0.00207814  0.61088476  -0.00345620  1
  O  O318  1  0.00419822  0.62105090  0.50309800  1
  O  O319  1  0.50751735  0.11183864  -0.00214773  1
  O  O320  1  0.50637113  0.11991676  0.49745743  1
  O  O321  1  0.49698101  0.61785382  0.01152909  1
  O  O322  1  0.50731311  0.63401667  0.51062127  1
  O  O323  1  0.49977913  0.37088216  0.47724142  1
  O  O324  1  0.49095911  0.38145832  0.99671966  1
  O  O325  1  0.49318971  0.87863875  0.49370464  1
  O  O326  1  0.49417444  0.88572485  0.99133973  1
  O  O327  1  0.99343305  0.37950960  0.49024454  1
  O  O328  1  0.99270183  0.38230240  0.99531711  1
  O  O329  1  0.99305354  0.87843592  0.49345234  1
  O  O330  1  0.99026110  0.87154957  0.99038307  1
  O  O331  1  0.48680725  0.49623434  0.37143848  1
  O  O332  1  0.49539025  0.49553643  0.88420655  1
  O  O333  1  0.49146097  0.98984008  0.37896777  1
  O  O334  1  0.49179914  0.99714863  0.87753045  1
  O  O335  1  0.99208258  0.49314446  0.38127092  1
  O  O336  1  0.99444026  0.49281433  0.88185567  1
  O  O337  1  1.00471543  0.99161896  0.38803036  1
  O  O338  1  0.99035325  0.98835282  0.86773985  1
  O  O339  1  -0.00365979  0.01202489  0.12622553  1
  O  O340  1  0.00847423  -0.00194413  0.61222772  1
  O  O341  1  0.01399480  0.49006443  0.11653073  1
  O  O342  1  0.00601778  0.50643415  0.61986295  1
  O  O343  1  0.51191170  -0.00486668  0.11272704  1
  O  O344  1  0.50711718  0.00584433  0.61923011  1
  O  O345  1  0.50284021  0.50418759  0.12143623  1
  O  O346  1  0.50140120  0.51299551  0.62396390  1
  O  O347  1  0.25033482  0.37352748  0.23417160  1
  O  O348  1  0.24978003  0.39120973  0.75823363  1
  O  O349  1  0.23926266  0.88553127  0.25583122  1
  O  O350  1  0.23747038  0.87657675  0.75597494  1
  O  O351  1  0.76003014  0.37881082  0.23691463  1
  O  O352  1  0.75826416  0.36536850  0.75171670  1
  O  O353  1  0.74598677  0.87873792  0.24589120  1
  O  O354  1  0.75164606  0.87846343  0.73715970  1
  O  O355  1  0.24921614  0.11246830  0.26111634  1
  O  O356  1  0.26048621  0.12400127  0.75519332  1
  O  O357  1  0.25477664  0.63226150  0.26030609  1
  O  O358  1  0.24698244  0.61311226  0.76587942  1
  O  O359  1  0.75776851  0.11928479  0.25560066  1
  O  O360  1  0.76155796  0.11142789  0.75047393  1
  O  O361  1  0.76222948  0.62349797  0.25079699  1
  O  O362  1  0.76255159  0.64044399  0.76998096  1
  O  O363  1  0.36536017  0.10400977  0.38021218  1
  O  O364  1  0.37359373  0.12076509  0.86548458  1
  O  O365  1  0.36784907  0.62215324  0.36635148  1
  O  O366  1  0.36911361  0.61377817  0.88395297  1
  O  O367  1  0.86703178  0.12852779  0.36566779  1
  O  O368  1  0.88289177  0.11094957  0.86871105  1
  O  O369  1  0.87684272  0.61466844  0.36516407  1
  O  O370  1  0.87039677  0.61760331  0.87463944  1
  O  O371  1  0.13851827  0.37786382  0.12263423  1
  O  O372  1  0.12197599  0.38932185  0.62331392  1
  O  O373  1  0.11688635  0.87841826  0.13997824  1
  O  O374  1  0.12029744  0.88388338  0.63570885  1
  O  O375  1  0.63816634  0.38327953  0.11729003  1
  O  O376  1  0.62004700  0.36774732  0.62179629  1
  O  O377  1  0.63096015  0.87935648  0.12932480  1
  O  O378  1  0.63471918  0.88079339  0.62479167  1
  O  O379  1  0.12388586  0.25247177  0.26385900  1
  O  O380  1  0.12055332  0.25298799  0.75580021  1
  O  O381  1  0.11674788  0.75626918  0.25364825  1
  O  O382  1  0.11516884  0.75629003  0.74407748  1
  O  O383  1  0.63306608  0.24527517  0.26221824  1
  O  O384  1  0.61487148  0.24579104  0.76084232  1
  O  O385  1  0.62234103  0.75940397  0.25167006  1
  O  O386  1  0.61967287  0.74833126  0.76303391  1
  O  O387  1  0.38611928  0.23429008  0.29375447  1
  O  O388  1  0.38665998  0.24482662  0.74831274  1
  O  O389  1  0.37528445  0.74311649  0.24265696  1
  O  O390  1  0.38789973  0.75124848  0.75297442  1
  O  O391  1  0.87740713  0.23562257  0.24298863  1
  O  O392  1  0.88738451  0.23627966  0.75696168  1
  O  O393  1  0.87917780  0.73822517  0.24963131  1
  O  O394  1  0.88632286  0.74692128  0.74443208  1
  O  O395  1  0.37197491  0.51307599  0.48241294  1
  O  O396  1  0.38510866  0.49341664  0.99869471  1
  O  O397  1  0.37837721  0.99105265  0.49479265  1
  O  O398  1  0.38270298  0.99605713  0.99106527  1
  O  O399  1  0.87842769  0.49635135  0.49309868  1
  O  O400  1  0.88222869  0.49465516  0.99337320  1
  O  O401  1  0.88135060  0.98750246  0.50472028  1
  O  O402  1  0.86869764  0.98770330  0.99066872  1
  O  O403  1  0.12108767  0.01903236  -0.00530582  1
  O  O404  1  0.11713934  -0.00119116  0.50673242  1
  O  O405  1  0.11744354  0.50250979  0.01126639  1
  O  O406  1  0.12041182  0.50660506  0.50491008  1
  O  O407  1  0.62026221  0.00727035  -0.00007078  1
  O  O408  1  0.61867707  0.00580246  0.50133617  1
  O  O409  1  0.61215047  0.50209870  0.00972661  1
  O  O410  1  0.63011125  0.51346314  0.50364254  1
  O  O411  1  0.36186021  0.37890976  0.11436341  1
  O  O412  1  0.38454406  0.38404469  0.62494404  1
  O  O413  1  0.38153164  0.86908175  0.11449270  1
  O  O414  1  0.37728495  0.87863216  0.61409533  1
  O  O415  1  0.87396376  0.36718565  0.12020267  1
  O  O416  1  0.88094605  0.38253177  0.61107165  1
  O  O417  1  0.86809580  0.87229653  0.11543089  1
  O  O418  1  0.87108448  0.87121304  0.61798290  1
  O  O419  1  0.13023633  0.13240901  0.37759470  1
  O  O420  1  0.13695257  0.12497524  0.87974097  1
  O  O421  1  0.13021617  0.62780433  0.37636479  1
  O  O422  1  0.13661939  0.61920903  0.87872696  1
  O  O423  1  0.63291739  0.13130558  0.38161029  1
  O  O424  1  0.62324954  0.13243376  0.88687034  1
  O  O425  1  0.61379780  0.62862473  0.39139814  1
  O  O426  1  0.63262589  0.63164770  0.88136843  1
