# generated using pymatgen
data_V85Zn86O256
_symmetry_space_group_name_H-M   'P 1'
_cell_length_a   16.95165550
_cell_length_b   16.93985473
_cell_length_c   16.93553891
_cell_angle_alpha   90.06710345
_cell_angle_beta   90.00882137
_cell_angle_gamma   90.06801577
_symmetry_Int_Tables_number   1
_chemical_formula_structural   V85Zn86O256
_chemical_formula_sum   'V85 Zn86 O256'
_cell_volume   4863.17851059
_cell_formula_units_Z   1
loop_
 _symmetry_equiv_pos_site_id
 _symmetry_equiv_pos_as_xyz
  1  'x, y, z'
loop_
 _atom_site_type_symbol
 _atom_site_label
 _atom_site_symmetry_multiplicity
 _atom_site_fract_x
 _atom_site_fract_y
 _atom_site_fract_z
 _atom_site_occupancy
  V  V0  1  0.62231114  0.24924294  0.37369451  1
  V  V1  1  0.75484561  0.50523450  0.74808251  1
  V  V2  1  0.24962299  0.75729500  0.50516118  1
  V  V3  1  0.36848991  0.74860343  0.12124088  1
  V  V4  1  0.62939649  0.63847176  0.00140485  1
  V  V5  1  0.00135069  0.37704860  0.87730861  1
  V  V6  1  0.87073425  0.00151538  0.87727691  1
  V  V7  1  0.37719498  0.00291902  0.38141290  1
  V  V8  1  0.25082777  0.62864665  0.37674325  1
  V  V9  1  0.87061548  0.12416612  0.75524934  1
  V  V10  1  0.74834027  0.37391791  0.12067474  1
  V  V11  1  -0.00192915  0.62988348  0.14269932  1
  V  V12  1  0.12825921  0.75097978  0.88283635  1
  V  V13  1  0.00042234  0.87441514  0.87548555  1
  V  V14  1  0.50229677  0.87281603  0.38500308  1
  V  V15  1  0.13004164  0.12453735  0.00435215  1
  V  V16  1  0.24470005  0.87824723  0.12899528  1
  V  V17  1  0.88755897  0.88024719  0.49810738  1
  V  V18  1  0.50407830  0.75034511  0.75309323  1
  V  V19  1  0.74889431  0.12096608  0.37463128  1
  V  V20  1  -0.00270173  0.74484195  0.75121867  1
  V  V21  1  0.37303812  0.12959075  0.74271985  1
  V  V22  1  0.12229884  0.00107683  0.61126480  1
  V  V23  1  0.88768743  -0.00117137  0.37973774  1
  V  V24  1  0.25302103  0.49856844  0.24863672  1
  V  V25  1  0.12590715  0.49983994  0.12517404  1
  V  V26  1  0.00137949  0.25035675  0.24932214  1
  V  V27  1  0.61552007  0.50915450  0.62470349  1
  V  V28  1  0.61839895  0.00307182  0.61817856  1
  V  V29  1  0.62810066  0.87658106  0.74739855  1
  V  V30  1  0.11206620  0.75259960  0.37017558  1
  V  V31  1  0.50481928  0.75176038  0.25052305  1
  V  V32  1  0.76267623  0.50490781  0.25557376  1
  V  V33  1  0.37342474  0.75984469  0.62894416  1
  V  V34  1  0.75182499  0.25059940  0.50097916  1
  V  V35  1  0.80115522  0.41567838  0.57964780  1
  V  V36  1  0.87152779  0.75170258  0.62827998  1
  V  V37  1  0.25096797  0.50274202  0.74887490  1
  V  V38  1  0.87502681  0.12299216  0.25072604  1
  V  V39  1  0.00008947  0.24767924  0.75044512  1
  V  V40  1  0.49778899  0.25218849  0.74205853  1
  V  V41  1  0.12674464  0.37272353  0.25197095  1
  V  V42  1  -0.00862729  0.37419846  0.38824250  1
  V  V43  1  0.87467105  0.24951658  0.12295767  1
  V  V44  1  -0.00146855  0.62096584  0.62590104  1
  V  V45  1  -0.00013457  0.50495356  0.00226768  1
  V  V46  1  0.24721682  -0.00291955  0.74351785  1
  V  V47  1  0.50531627  0.37400619  0.87772114  1
  V  V48  1  0.37136932  0.37385293  -0.00135711  1
  V  V49  1  0.12673577  0.24290939  0.38058326  1
  V  V50  1  0.49870629  0.23854286  0.24315056  1
  V  V51  1  0.00255834  0.12179713  0.61200392  1
  V  V52  1  0.38078036  0.62609906  0.74482864  1
  V  V53  1  0.00442170  -0.00222684  0.00192873  1
  V  V54  1  0.37640216  0.37055762  0.50184226  1
  V  V55  1  0.12820337  0.37459462  0.75089957  1
  V  V56  1  0.74918885  0.23297961  -0.00494585  1
  V  V57  1  0.25327354  0.62923191  0.88137328  1
  V  V58  1  0.63034963  0.37689088  0.74298521  1
  V  V59  1  0.62184114  0.37582021  0.24587743  1
  V  V60  1  0.25477280  0.36984589  0.62583112  1
  V  V61  1  0.62621020  0.88025316  0.25282612  1
  V  V62  1  0.63224246  0.23739525  0.87294693  1
  V  V63  1  0.24890719  0.12896030  0.87538947  1
  V  V64  1  0.87635969  0.50662849  0.87246955  1
  V  V65  1  0.61618804  0.63330786  0.49043780  1
  V  V66  1  0.86779971  0.74374230  0.13467727  1
  V  V67  1  0.74826504  0.87713127  0.11919233  1
  V  V68  1  0.37677904  0.62650631  0.25008696  1
  V  V69  1  0.74502641  0.75565673  0.48810890  1
  V  V70  1  0.12500325  0.61873937  0.50064215  1
  V  V71  1  0.75441986  0.63155899  0.87791770  1
  V  V72  1  0.62589130  0.50191471  0.12517135  1
  V  V73  1  0.24978787  0.24202746  0.50331313  1
  V  V74  1  0.00472480  0.11962585  0.12604563  1
  V  V75  1  0.52587116  0.89581419  0.89872055  1
  V  V76  1  0.87050121  0.24713446  0.62496946  1
  V  V77  1  0.36050046  0.86717442  -0.00530356  1
  V  V78  1  0.37269512  0.24049689  0.11512475  1
  V  V79  1  0.37620965  0.49920058  0.37611140  1
  V  V80  1  0.37279751  -0.00250211  0.87825681  1
  V  V81  1  0.12593179  0.87446461  0.74229375  1
  V  V82  1  0.50401111  0.50214926  -0.00139371  1
  V  V83  1  0.12718023  0.25036140  0.88083693  1
  V  V84  1  0.11165984  0.87865902  0.25008493  1
  Zn  Zn85  1  0.75005516  0.87947606  0.62269736  1
  Zn  Zn86  1  0.55343535  0.04899637  0.05855270  1
  Zn  Zn87  1  0.87382668  0.37519136  -0.00148281  1
  Zn  Zn88  1  0.24733170  0.00081882  0.25000186  1
  Zn  Zn89  1  0.24789994  0.12126605  0.37411998  1
  Zn  Zn90  1  0.63065178  0.74893058  0.87462180  1
  Zn  Zn91  1  0.74677596  0.00520299  0.75235502  1
  Zn  Zn92  1  0.76263885  0.62171693  0.37409262  1
  Zn  Zn93  1  0.87521636  0.86499931  0.00054736  1
  Zn  Zn94  1  0.37540477  0.88000272  0.50776189  1
  Zn  Zn95  1  0.61753638  0.12116487  0.49670542  1
  Zn  Zn96  1  -0.05609639  0.52746396  0.45693198  1
  Zn  Zn97  1  0.49255318  0.12457057  0.61788047  1
  Zn  Zn98  1  0.12227721  0.49731608  0.62081699  1
  Zn  Zn99  1  0.49843288  0.37503055  0.37464328  1
  Zn  Zn100  1  0.74843360  -0.00102444  0.24798885  1
  Zn  Zn101  1  0.50064569  0.63100196  0.12205169  1
  Zn  Zn102  1  0.37282087  0.12028986  0.24568598  1
  Zn  Zn103  1  0.24927643  0.37113957  0.11829511  1
  Zn  Zn104  1  0.49462326  0.50471449  0.50385074  1
  Zn  Zn105  1  0.37895267  0.50225528  0.87375735  1
  Zn  Zn106  1  0.13018562  0.63004427  0.00605266  1
  Zn  Zn107  1  0.19297864  0.18690437  0.18806660  1
  Zn  Zn108  1  0.18537238  0.18568838  0.68587098  1
  Zn  Zn109  1  0.18735465  0.68987259  0.19017958  1
  Zn  Zn110  1  0.18776607  0.68845937  0.68868599  1
  Zn  Zn111  1  0.68514645  0.17987850  0.18476691  1
  Zn  Zn112  1  0.68771852  0.18654868  0.68700354  1
  Zn  Zn113  1  0.68671273  0.68820160  0.19131705  1
  Zn  Zn114  1  0.69030335  0.68632130  0.68536224  1
  Zn  Zn115  1  0.31335650  0.30872406  0.31137974  1
  Zn  Zn116  1  0.31481916  0.31188475  0.81490637  1
  Zn  Zn117  1  0.31223708  0.81496027  0.31373075  1
  Zn  Zn118  1  0.30880217  0.81252658  0.80916561  1
  Zn  Zn119  1  0.81094660  0.31321819  0.31008244  1
  Zn  Zn120  1  0.81260426  0.31728896  0.81170812  1
  Zn  Zn121  1  0.81816587  0.81316772  0.31065461  1
  Zn  Zn122  1  0.81385028  0.81626828  0.81141849  1
  Zn  Zn123  1  0.18877735  0.43328109  0.43615318  1
  Zn  Zn124  1  0.18904043  0.44302830  0.93629244  1
  Zn  Zn125  1  0.18941470  0.93335081  0.43222284  1
  Zn  Zn126  1  0.18668979  0.93874630  0.93596946  1
  Zn  Zn127  1  0.68030924  0.44199512  0.43350556  1
  Zn  Zn128  1  0.68746319  0.43718208  0.93629099  1
  Zn  Zn129  1  0.68700723  0.93632003  0.43711045  1
  Zn  Zn130  1  0.69337154  0.93840265  0.94053939  1
  Zn  Zn131  1  0.31254593  0.05722850  0.06117114  1
  Zn  Zn132  1  0.31113780  0.05850580  0.56175875  1
  Zn  Zn133  1  0.31557142  0.56003547  0.06254167  1
  Zn  Zn134  1  0.31219654  0.56549230  0.56503551  1
  Zn  Zn135  1  0.81515077  0.05821171  0.06380105  1
  Zn  Zn136  1  0.80618157  0.06173658  0.56405750  1
  Zn  Zn137  1  0.81400958  0.56383460  0.06377332  1
  Zn  Zn138  1  0.81691038  0.58475911  0.54591176  1
  Zn  Zn139  1  0.44020861  0.43370602  0.18280262  1
  Zn  Zn140  1  0.43731580  0.43630635  0.68836484  1
  Zn  Zn141  1  0.43196676  0.93753499  0.19333538  1
  Zn  Zn142  1  0.44185176  0.93694855  0.69621664  1
  Zn  Zn143  1  0.93950041  0.43535392  0.18820398  1
  Zn  Zn144  1  0.94192785  0.43968797  0.69431539  1
  Zn  Zn145  1  0.93231089  0.93677627  0.18814211  1
  Zn  Zn146  1  0.93985175  0.93810127  0.68666130  1
  Zn  Zn147  1  0.06414382  0.06124463  0.31343805  1
  Zn  Zn148  1  0.05872857  0.06208358  0.80905519  1
  Zn  Zn149  1  0.06607833  0.55812009  0.31564703  1
  Zn  Zn150  1  0.06612584  0.56534246  0.81249357  1
  Zn  Zn151  1  0.55938810  0.05802457  0.31231870  1
  Zn  Zn152  1  0.55947400  0.06377343  0.80851032  1
  Zn  Zn153  1  0.56142130  0.56212419  0.31172459  1
  Zn  Zn154  1  0.56538398  0.56530504  0.81356870  1
  Zn  Zn155  1  0.43850815  0.18792983  0.43763613  1
  Zn  Zn156  1  0.43854227  0.18547863  0.93082183  1
  Zn  Zn157  1  0.43702502  0.69153019  0.43916444  1
  Zn  Zn158  1  0.44060200  0.69462166  0.93605733  1
  Zn  Zn159  1  0.93433791  0.19194654  0.43677916  1
  Zn  Zn160  1  0.93814071  0.18710720  0.93917223  1
  Zn  Zn161  1  0.93430139  0.69541029  0.44166938  1
  Zn  Zn162  1  0.93790813  0.68781533  0.94515810  1
  Zn  Zn163  1  0.06277572  0.31239326  0.06235696  1
  Zn  Zn164  1  0.06491088  0.30934712  0.56452696  1
  Zn  Zn165  1  0.05895919  0.81027965  0.06736426  1
  Zn  Zn166  1  0.06410712  0.80945392  0.56240945  1
  Zn  Zn167  1  0.56275608  0.21029397  0.05698476  1
  Zn  Zn168  1  0.56506583  0.31576014  0.56041028  1
  Zn  Zn169  1  0.54925588  0.87492662  0.07199888  1
  Zn  Zn170  1  0.56027002  0.80956690  0.56858980  1
  O  O171  1  0.11807052  0.13258668  0.11499105  1
  O  O172  1  0.11430151  0.11496829  0.62938857  1
  O  O173  1  0.11564278  0.62057870  0.12674193  1
  O  O174  1  0.11799967  0.62623073  0.61680796  1
  O  O175  1  0.62201879  0.12856662  0.11183034  1
  O  O176  1  0.62352233  0.11188594  0.62762072  1
  O  O177  1  0.62420301  0.61981619  0.11810406  1
  O  O178  1  0.62696747  0.61306338  0.61818380  1
  O  O179  1  0.37329046  0.38353404  0.38177393  1
  O  O180  1  0.38580188  0.37612808  0.88016744  1
  O  O181  1  0.38436027  0.88310364  0.37805621  1
  O  O182  1  0.36622066  0.88269757  0.87993889  1
  O  O183  1  0.89253510  0.36690978  0.37135948  1
  O  O184  1  0.88348332  0.38808302  0.87560303  1
  O  O185  1  0.87141942  0.88408388  0.38843045  1
  O  O186  1  0.88324707  0.88104455  0.87911894  1
  O  O187  1  0.26305693  -0.00012816  0.37536823  1
  O  O188  1  0.25116448  0.01084833  0.86489021  1
  O  O189  1  0.25953576  0.50522917  0.37020420  1
  O  O190  1  0.25427581  0.50689822  0.86286729  1
  O  O191  1  0.75397994  0.01270060  0.37664064  1
  O  O192  1  0.76618243  -0.00334322  0.87518810  1
  O  O193  1  0.74817813  0.49630177  0.35895828  1
  O  O194  1  0.75875515  0.50669084  0.86872599  1
  O  O195  1  0.24456572  0.49647734  0.13098987  1
  O  O196  1  0.24824502  0.49488381  0.63647947  1
  O  O197  1  0.25245436  0.98295277  0.12635163  1
  O  O198  1  0.24000686  1.00624090  0.63713819  1
  O  O199  1  0.74615572  0.49388065  0.13355074  1
  O  O200  1  0.74383121  0.49727186  0.62956893  1
  O  O201  1  0.75714430  0.98232011  0.12856497  1
  O  O202  1  0.73684606  0.99858849  0.63076069  1
  O  O203  1  0.01153229  0.36921187  0.25404663  1
  O  O204  1  0.00888947  0.36878523  0.75786192  1
  O  O205  1  0.01275352  0.87695596  0.24526331  1
  O  O206  1  0.00672522  0.86618249  0.75553186  1
  O  O207  1  0.51085354  0.36820270  0.24936798  1
  O  O208  1  0.50621063  0.37227562  0.75794247  1
  O  O209  1  0.50662008  0.86766552  0.25948323  1
  O  O210  1  0.51447233  0.87190475  0.76283219  1
  O  O211  1  0.49837945  0.13535153  0.25113356  1
  O  O212  1  0.48973120  0.13495518  0.74763875  1
  O  O213  1  0.49421606  0.63313716  0.24934544  1
  O  O214  1  0.49207493  0.63537261  0.75840909  1
  O  O215  1  0.99831744  0.12971234  0.24207362  1
  O  O216  1  0.99073815  0.13192538  0.74296921  1
  O  O217  1  1.00059306  0.61559925  0.24058502  1
  O  O218  1  1.00631769  0.63845639  0.74486631  1
  O  O219  1  0.38047071  0.25730010  0.00814464  1
  O  O220  1  0.36629287  0.26465155  0.49267446  1
  O  O221  1  0.36879567  0.75220247  0.00870347  1
  O  O222  1  0.36800670  0.75005785  0.51263104  1
  O  O223  1  0.86849353  0.25359519  0.00397126  1
  O  O224  1  0.86108013  0.24996061  0.50794823  1
  O  O225  1  0.88747733  0.75200898  0.02352966  1
  O  O226  1  0.86628402  0.76502341  0.50707780  1
  O  O227  1  0.13664717  0.25640647  0.49167835  1
  O  O228  1  0.12091618  0.24233566  0.98818010  1
  O  O229  1  0.13078710  0.74248717  0.49227520  1
  O  O230  1  0.11884125  0.74953665  0.98661363  1
  O  O231  1  0.63438096  0.25498301  0.48691780  1
  O  O232  1  0.63909172  0.25820105  0.98368036  1
  O  O233  1  0.62776468  0.74068809  0.50414482  1
  O  O234  1  0.62167351  0.73756132  0.99775975  1
  O  O235  1  0.48531670  0.25498900  0.13213696  1
  O  O236  1  0.50767428  0.25428783  0.63953261  1
  O  O237  1  0.48327786  0.75321968  0.13654289  1
  O  O238  1  0.49066165  0.75488678  0.64272315  1
  O  O239  1  0.99507022  0.24100490  0.12802207  1
  O  O240  1  0.99261362  0.24522035  0.63130918  1
  O  O241  1  0.99814585  0.73331865  0.12962683  1
  O  O242  1  0.99609898  0.74236478  0.63208784  1
  O  O243  1  0.00725882  0.25699955  0.37009030  1
  O  O244  1  0.00719078  0.25592011  0.87124886  1
  O  O245  1  0.01360644  0.74637428  0.37910028  1
  O  O246  1  0.00472814  0.75311150  0.86851651  1
  O  O247  1  0.50812739  0.25365630  0.36459255  1
  O  O248  1  0.51166820  0.25889891  0.86362804  1
  O  O249  1  0.49047300  0.76392605  0.36583441  1
  O  O250  1  0.50536491  0.76178136  0.86481205  1
  O  O251  1  0.25649779  0.13925647  0.49922975  1
  O  O252  1  0.23750760  0.11755211  0.99202306  1
  O  O253  1  0.24413760  0.63371219  0.49629888  1
  O  O254  1  0.24933677  0.61577842  0.98516024  1
  O  O255  1  0.74362233  0.13421485  0.49225539  1
  O  O256  1  0.75708157  0.13378803  0.99992378  1
  O  O257  1  0.73004086  0.63894284  0.50164732  1
  O  O258  1  0.74135597  0.61640198  0.99088640  1
  O  O259  1  0.26727666  0.38246401  -0.00466169  1
  O  O260  1  0.25573948  0.36956051  0.50902244  1
  O  O261  1  0.25314054  0.87507493  0.00588183  1
  O  O262  1  0.25249761  0.86039436  0.49790008  1
  O  O263  1  0.75177266  0.37636862  0.01233415  1
  O  O264  1  0.74432971  0.37050193  0.50226639  1
  O  O265  1  0.75416377  0.87329936  0.01528984  1
  O  O266  1  0.75259515  0.86761419  0.50247369  1
  O  O267  1  0.13139488  0.49137424  0.24528245  1
  O  O268  1  0.13479991  0.49291615  0.75058243  1
  O  O269  1  0.12716106  0.98261125  0.25865116  1
  O  O270  1  0.12971443  0.99252540  0.74600939  1
  O  O271  1  0.62847118  0.49208374  0.24447415  1
  O  O272  1  0.63031312  0.49913223  0.73911659  1
  O  O273  1  0.62730213  0.98489741  0.25367254  1
  O  O274  1  0.62748902  0.99271846  0.74522757  1
  O  O275  1  0.37083924  0.00015678  0.26404564  1
  O  O276  1  0.36475219  0.00462944  0.75784487  1
  O  O277  1  0.37282668  0.50368673  0.25544654  1
  O  O278  1  0.37016059  0.50857359  0.75094855  1
  O  O279  1  0.87250965  0.00589191  0.26076855  1
  O  O280  1  0.87616037  0.00662538  0.75820274  1
  O  O281  1  0.86082064  0.49494001  0.24717285  1
  O  O282  1  0.86707536  0.49947913  0.75878359  1
  O  O283  1  0.11911948  0.36560007  0.36858446  1
  O  O284  1  0.12326080  0.36805385  0.87258121  1
  O  O285  1  0.12663691  0.86097209  0.36536939  1
  O  O286  1  0.12013590  0.86906058  0.86597836  1
  O  O287  1  0.62397556  0.36722983  0.36386056  1
  O  O288  1  0.62002856  0.37475872  0.86234485  1
  O  O289  1  0.61130690  0.87722752  0.37060070  1
  O  O290  1  0.63077557  0.86781672  0.86530610  1
  O  O291  1  0.37234258  0.13631773  0.12100244  1
  O  O292  1  0.37274962  0.11943597  0.63930542  1
  O  O293  1  0.37624010  0.63090070  0.13104702  1
  O  O294  1  0.37149410  0.63462399  0.63937787  1
  O  O295  1  0.88321817  0.12972344  0.13020308  1
  O  O296  1  0.87988222  0.13290640  0.63016423  1
  O  O297  1  0.88593953  0.63172639  0.12585102  1
  O  O298  1  0.88459789  0.64216287  0.62025980  1
  O  O299  1  0.26801016  0.25454814  0.12678461  1
  O  O300  1  0.24516429  0.25969720  0.61906688  1
  O  O301  1  0.26057200  0.75702887  0.13175701  1
  O  O302  1  0.25847543  0.74618414  0.61842699  1
  O  O303  1  0.75496284  0.25706873  0.11655031  1
  O  O304  1  0.75702706  0.24919607  0.61598265  1
  O  O305  1  0.76192793  0.75386570  0.13071915  1
  O  O306  1  0.75872406  0.75269340  0.61802720  1
  O  O307  1  0.24261518  0.25022130  0.38375625  1
  O  O308  1  0.24275374  0.23758953  0.87120918  1
  O  O309  1  0.24531188  0.74342971  0.38325989  1
  O  O310  1  0.24004571  0.74074547  0.86809458  1
  O  O311  1  0.74465003  0.24191343  0.37886813  1
  O  O312  1  0.74478476  0.25769552  0.88358891  1
  O  O313  1  0.75795297  0.74520111  0.38539877  1
  O  O314  1  0.75559713  0.73504393  0.86977126  1
  O  O315  1  0.00940290  0.11997053  0.00654749  1
  O  O316  1  -0.00429095  0.13339021  0.51307687  1
  O  O317  1  0.00530370  0.61345683  0.00774437  1
  O  O318  1  0.00852349  0.62111003  0.50879521  1
  O  O319  1  0.51165671  0.13076243  -0.00895128  1
  O  O320  1  0.50673877  0.13716214  0.50717837  1
  O  O321  1  0.50787865  0.61803120  -0.00204238  1
  O  O322  1  0.51125142  0.62582430  0.49954227  1
  O  O323  1  0.49035628  0.37915613  0.49792630  1
  O  O324  1  0.49392630  0.38385880  0.98525547  1
  O  O325  1  0.49810339  0.86649448  0.48799076  1
  O  O326  1  0.47453030  0.85590864  0.98589382  1
  O  O327  1  1.00157789  0.36959710  0.48845350  1
  O  O328  1  1.00056201  0.38683665  0.99493286  1
  O  O329  1  0.98608930  0.87070282  0.50179262  1
  O  O330  1  1.00201667  0.88357221  0.99674748  1
  O  O331  1  0.48680947  0.49824195  0.37627232  1
  O  O332  1  0.50163556  0.49381381  0.88038478  1
  O  O333  1  0.48914644  0.98650492  0.37261380  1
  O  O334  1  0.48616202  0.99186261  0.86389765  1
  O  O335  1  1.00607272  0.48133567  0.37579198  1
  O  O336  1  0.99583168  0.49961926  0.88100447  1
  O  O337  1  0.98665852  1.00902501  0.37896250  1
  O  O338  1  0.99419211  0.99365288  0.88115049  1
  O  O339  1  -0.00523281  0.01154931  0.11794614  1
  O  O340  1  0.00913610  0.00990708  0.62856029  1
  O  O341  1  0.00379272  0.50693776  0.11984215  1
  O  O342  1  0.00372965  0.51592147  0.63591323  1
  O  O343  1  0.50511941  -0.03010773  0.11918138  1
  O  O344  1  0.51400336  0.00210240  0.63363483  1
  O  O345  1  0.50760484  0.50276762  0.11560441  1
  O  O346  1  0.51242899  0.50030594  0.62569137  1
  O  O347  1  0.23920954  0.37914153  0.25152430  1
  O  O348  1  0.24978936  0.38098500  0.74493579  1
  O  O349  1  0.24096090  0.87476281  0.24338452  1
  O  O350  1  0.23852390  0.88549466  0.75330224  1
  O  O351  1  0.74275657  0.37975276  0.24089481  1
  O  O352  1  0.74150661  0.39053686  0.75402496  1
  O  O353  1  0.74231281  0.87402489  0.24615772  1
  O  O354  1  0.73884381  0.87560668  0.74633773  1
  O  O355  1  0.25345330  0.11985664  0.25441007  1
  O  O356  1  0.25374462  0.12034215  0.75672654  1
  O  O357  1  0.25615212  0.61830747  0.25680012  1
  O  O358  1  0.25560427  0.61798697  0.75660221  1
  O  O359  1  0.75656414  0.12360574  0.25755226  1
  O  O360  1  0.76679122  0.12626486  0.74690843  1
  O  O361  1  0.74745901  0.61012317  0.25413656  1
  O  O362  1  0.74500173  0.61236958  0.75842357  1
  O  O363  1  0.37673436  0.11208534  0.37335994  1
  O  O364  1  0.36520745  0.11908414  0.86686920  1
  O  O365  1  0.37051470  0.61840719  0.37175973  1
  O  O366  1  0.36879801  0.62763652  0.86518750  1
  O  O367  1  0.86717560  0.12146522  0.37150044  1
  O  O368  1  0.88581422  0.11492493  0.86652349  1
  O  O369  1  0.86677842  0.60695599  0.42629656  1
  O  O370  1  0.87158181  0.61431789  0.88199548  1
  O  O371  1  0.12753453  0.37875004  0.13284670  1
  O  O372  1  0.13441585  0.37746681  0.63194902  1
  O  O373  1  0.13063177  0.86228787  0.14126161  1
  O  O374  1  0.11737117  0.88117740  0.63639268  1
  O  O375  1  0.63489296  0.38213862  0.13411306  1
  O  O376  1  0.62322177  0.38846547  0.63537771  1
  O  O377  1  0.64365890  0.86190957  0.13567435  1
  O  O378  1  0.62356021  0.88506331  0.63117543  1
  O  O379  1  0.12134176  0.25670985  0.25536896  1
  O  O380  1  0.12122294  0.25427829  0.76098851  1
  O  O381  1  0.12624166  0.75488132  0.26516095  1
  O  O382  1  0.11894192  0.75754621  0.75654571  1
  O  O383  1  0.62088946  0.25592723  0.25632720  1
  O  O384  1  0.62398853  0.26105267  0.75255853  1
  O  O385  1  0.61080661  0.75588580  0.24814483  1
  O  O386  1  0.61975513  0.75588228  0.74765354  1
  O  O387  1  0.38345794  0.24900904  0.23941471  1
  O  O388  1  0.38457857  0.24176423  0.75567911  1
  O  O389  1  0.37936464  0.74282001  0.24636830  1
  O  O390  1  0.38066764  0.74579771  0.74666816  1
  O  O391  1  0.88169930  0.24319734  0.24400558  1
  O  O392  1  0.87928616  0.24403257  0.74616075  1
  O  O393  1  0.88115808  0.75260459  0.23537946  1
  O  O394  1  0.88542415  0.75822276  0.74039393  1
  O  O395  1  0.37292448  0.49335193  0.49372160  1
  O  O396  1  0.38893889  0.49430549  0.99827648  1
  O  O397  1  0.37305322  0.99628661  0.48850846  1
  O  O398  1  0.36784863  0.99005740  0.98466975  1
  O  O399  1  0.86821395  0.48113360  0.53184175  1
  O  O400  1  0.88423714  0.49778853  0.99456308  1
  O  O401  1  0.86890141  0.98754023  0.49722345  1
  O  O402  1  0.88839309  0.99909391  0.99342042  1
  O  O403  1  0.11271188  0.00952169  -0.00642917  1
  O  O404  1  0.13174725  -0.00860843  0.51234372  1
  O  O405  1  0.11851418  0.50142000  0.00799790  1
  O  O406  1  0.13422586  0.51383297  0.50010834  1
  O  O407  1  0.58873636  -0.04716385  -0.02116709  1
  O  O408  1  0.62707777  0.00003373  0.51465577  1
  O  O409  1  0.61623876  0.50357168  0.00427408  1
  O  O410  1  0.62198804  0.50970489  0.50982574  1
  O  O411  1  0.37442220  0.36765331  0.11352940  1
  O  O412  1  0.36389287  0.38008569  0.61781321  1
  O  O413  1  0.36319921  0.86631337  0.11601564  1
  O  O414  1  0.37783317  0.86521502  0.62915894  1
  O  O415  1  0.86835598  0.36639797  0.12510680  1
  O  O416  1  0.87251622  0.36113700  0.63906217  1
  O  O417  1  0.86432486  0.86484825  0.12685084  1
  O  O418  1  0.87498352  0.86964594  0.61633071  1
  O  O419  1  0.12488807  0.13892934  0.37246079  1
  O  O420  1  0.12920011  0.13159062  0.87923582  1
  O  O421  1  0.12945454  0.63336642  0.38061492  1
  O  O422  1  0.13431541  0.63419667  0.87592117  1
  O  O423  1  0.63142021  0.13220830  0.37215775  1
  O  O424  1  0.62980933  0.13851503  0.86034009  1
  O  O425  1  0.62741850  0.61911010  0.38947205  1
  O  O426  1  0.63648563  0.62544663  0.88302465  1
