# generated using pymatgen
data_V85Zn86O256
_symmetry_space_group_name_H-M   'P 1'
_cell_length_a   16.93718926
_cell_length_b   16.93319067
_cell_length_c   16.94323930
_cell_angle_alpha   90.06180537
_cell_angle_beta   90.01485267
_cell_angle_gamma   89.95887730
_symmetry_Int_Tables_number   1
_chemical_formula_structural   V85Zn86O256
_chemical_formula_sum   'V85 Zn86 O256'
_cell_volume   4859.32789186
_cell_formula_units_Z   1
loop_
 _symmetry_equiv_pos_site_id
 _symmetry_equiv_pos_as_xyz
  1  'x, y, z'
loop_
 _atom_site_type_symbol
 _atom_site_label
 _atom_site_symmetry_multiplicity
 _atom_site_fract_x
 _atom_site_fract_y
 _atom_site_fract_z
 _atom_site_occupancy
  V  V0  1  0.12300911  -0.00180639  0.12597157  1
  V  V1  1  0.56106834  0.42013852  0.31550185  1
  V  V2  1  0.37808929  0.37639559  0.49133917  1
  V  V3  1  0.62225904  0.62639097  0.01345405  1
  V  V4  1  0.36835690  0.00252566  0.87434231  1
  V  V5  1  0.24709727  0.50510893  0.75886887  1
  V  V6  1  0.62997921  0.25238225  0.37958946  1
  V  V7  1  0.24844641  0.87457403  0.61765907  1
  V  V8  1  0.12597032  0.86691113  0.25523154  1
  V  V9  1  -0.00400494  0.74881036  0.24329460  1
  V  V10  1  0.12676676  0.24349463  0.87711290  1
  V  V11  1  0.11745211  0.00377206  0.62686066  1
  V  V12  1  0.24859722  0.24426894  0.00448080  1
  V  V13  1  0.86220109  0.37189494  -0.00459147  1
  V  V14  1  0.38377132  0.63002863  0.24660776  1
  V  V15  1  0.37355556  0.37757705  0.00408894  1
  V  V16  1  0.62788371  0.74550258  0.87600987  1
  V  V17  1  0.24751914  0.12817467  0.37580649  1
  V  V18  1  0.00222224  0.24362683  0.74458979  1
  V  V19  1  0.43368869  0.19011271  0.08136874  1
  V  V20  1  -0.00271271  0.12924839  0.12817973  1
  V  V21  1  0.12412668  0.37407886  0.75041593  1
  V  V22  1  -0.00752054  0.37542645  0.87468235  1
  V  V23  1  0.74808403  -0.00227273  0.74237594  1
  V  V24  1  0.87565279  0.49454341  0.37043297  1
  V  V25  1  0.24796868  0.00470821  0.75038187  1
  V  V26  1  -0.00034988  0.87299415  0.87515040  1
  V  V27  1  0.37665412  0.13237403  0.74927544  1
  V  V28  1  0.74398992  0.37897715  0.14220853  1
  V  V29  1  0.00156340  0.49236711  0.49353246  1
  V  V30  1  0.49944984  0.86973611  0.37086433  1
  V  V31  1  -0.00856803  0.50097211  -0.00347431  1
  V  V32  1  0.12481825  0.50184346  0.62199484  1
  V  V33  1  0.37901751  0.00239641  0.38010541  1
  V  V34  1  -0.00738119  0.62741170  0.62123250  1
  V  V35  1  0.74638587  -0.00671611  0.25276207  1
  V  V36  1  0.87375646  0.85561518  0.50358442  1
  V  V37  1  0.25241824  0.37609006  0.62461094  1
  V  V38  1  0.86516552  0.62582139  0.24324388  1
  V  V39  1  0.10934591  0.37416223  0.25273599  1
  V  V40  1  0.75261390  0.37162660  0.61805317  1
  V  V41  1  0.87601667  0.87163679  0.01081772  1
  V  V42  1  0.87531265  0.24655208  0.61948342  1
  V  V43  1  0.49644651  0.37547073  0.86975962  1
  V  V44  1  0.24922864  0.64114340  0.37572824  1
  V  V45  1  0.24912638  0.00090087  0.25004728  1
  V  V46  1  0.87743144  -0.00445568  0.38106802  1
  V  V47  1  0.87257408  0.25148725  0.12367971  1
  V  V48  1  0.62655952  0.50148873  0.62751419  1
  V  V49  1  0.75405325  0.49742132  0.75753962  1
  V  V50  1  0.00491478  0.86753717  0.37930880  1
  V  V51  1  0.75337826  0.12840513  0.38365262  1
  V  V52  1  0.50396428  0.49712364  0.50044730  1
  V  V53  1  0.11180330  0.25438483  0.37049083  1
  V  V54  1  0.13431297  0.62847483  -0.00547338  1
  V  V55  1  0.36996538  0.74905160  0.61730199  1
  V  V56  1  0.37734539  0.13057907  0.25064234  1
  V  V57  1  0.36904752  0.62683072  0.75632970  1
  V  V58  1  -0.00425683  0.00208567  0.00066192  1
  V  V59  1  0.87669604  0.62085559  0.75831552  1
  V  V60  1  0.39696747  0.74812217  0.12442096  1
  V  V61  1  0.25010634  0.25212144  0.49996274  1
  V  V62  1  0.49998925  0.50655914  0.00560298  1
  V  V63  1  0.74403490  0.13027288  0.87238274  1
  V  V64  1  0.75600532  0.74875813  0.00660992  1
  V  V65  1  0.75689876  0.62728942  0.38991857  1
  V  V66  1  0.88128574  0.12885553  0.25334236  1
  V  V67  1  0.75044959  0.85962197  0.61989778  1
  V  V68  1  0.87891763  0.12073980  0.74450438  1
  V  V69  1  0.24894643  0.50228128  0.25378034  1
  V  V70  1  0.24844282  0.37375246  0.12648266  1
  V  V71  1  0.61885058  0.36587127  0.74669861  1
  V  V72  1  0.50166514  0.87861675  0.87749390  1
  V  V73  1  0.12008370  0.50153903  0.12436361  1
  V  V74  1  -0.00514831  0.75060532  0.74664331  1
  V  V75  1  0.25132395  0.86295538  0.12638222  1
  V  V76  1  0.12914633  0.63691528  0.49536576  1
  V  V77  1  0.49961733  0.74840129  0.74758535  1
  V  V78  1  0.50385895  0.24757908  0.25638013  1
  V  V79  1  0.11853032  0.12565935  0.50434913  1
  V  V80  1  0.12440272  0.12277645  0.00032179  1
  V  V81  1  0.62415927  0.11997796  0.50496480  1
  V  V82  1  0.63234630  0.75435520  0.37943851  1
  V  V83  1  0.62481756  0.87825716  0.74414843  1
  V  V84  1  0.37370917  0.87135397  -0.00051713  1
  Zn  Zn85  1  -0.00665883  0.63017726  0.12017931  1
  Zn  Zn86  1  0.50479575  -0.00367385  0.50904461  1
  Zn  Zn87  1  0.62522846  0.49956974  0.13877302  1
  Zn  Zn88  1  0.61577885  0.86434594  0.24268954  1
  Zn  Zn89  1  0.75467112  0.62007743  0.87930411  1
  Zn  Zn90  1  0.87034097  -0.00005133  0.87668995  1
  Zn  Zn91  1  0.12475875  0.87149107  0.74835243  1
  Zn  Zn92  1  0.68415613  0.18891199  0.03613820  1
  Zn  Zn93  1  0.38639900  0.25463107  0.62860317  1
  Zn  Zn94  1  0.37909457  0.50227940  0.37208101  1
  Zn  Zn95  1  0.50635162  0.12534457  0.63280988  1
  Zn  Zn96  1  0.37341179  0.86972814  0.49704974  1
  Zn  Zn97  1  0.49849267  0.62475348  0.62356589  1
  Zn  Zn98  1  0.36934396  0.50745608  0.88056565  1
  Zn  Zn99  1  -0.00309742  -0.00100703  0.50628219  1
  Zn  Zn100  1  0.61657593  0.24680959  0.87517157  1
  Zn  Zn101  1  0.62894270  0.63325156  0.50764725  1
  Zn  Zn102  1  0.61794287  0.01047675  0.11392354  1
  Zn  Zn103  1  0.87891669  0.36907969  0.49403050  1
  Zn  Zn104  1  0.50071259  0.01860587  0.00558001  1
  Zn  Zn105  1  0.74946586  0.87093710  0.12870100  1
  Zn  Zn106  1  0.13582222  0.73572280  0.86701364  1
  Zn  Zn107  1  0.18477443  0.18942184  0.18802650  1
  Zn  Zn108  1  0.19220044  0.18659504  0.68717165  1
  Zn  Zn109  1  0.18552660  0.68501479  0.18779338  1
  Zn  Zn110  1  0.18393731  0.68830388  0.68418723  1
  Zn  Zn111  1  0.69415512  0.18624198  0.20189061  1
  Zn  Zn112  1  0.69120144  0.18889665  0.68693745  1
  Zn  Zn113  1  0.68735634  0.69002415  0.19192294  1
  Zn  Zn114  1  0.68871420  0.68498760  0.69060544  1
  Zn  Zn115  1  0.30957333  0.31263841  0.31097793  1
  Zn  Zn116  1  0.30781809  0.31527762  0.81834662  1
  Zn  Zn117  1  0.31852789  0.81335396  0.30814036  1
  Zn  Zn118  1  0.31196698  0.81375391  0.80366361  1
  Zn  Zn119  1  0.81702936  0.30984875  0.31373930  1
  Zn  Zn120  1  0.81253266  0.31106260  0.80514246  1
  Zn  Zn121  1  0.81417627  0.80865601  0.31639977  1
  Zn  Zn122  1  0.81486039  0.81100504  0.81619338  1
  Zn  Zn123  1  0.18648673  0.44072842  0.43464859  1
  Zn  Zn124  1  0.18177095  0.43492541  0.93918421  1
  Zn  Zn125  1  0.18778444  0.93893069  0.43892577  1
  Zn  Zn126  1  0.20728610  0.89312734  0.91706666  1
  Zn  Zn127  1  0.69758365  0.44530207  0.44169920  1
  Zn  Zn128  1  0.68068373  0.43557960  0.93684247  1
  Zn  Zn129  1  0.68931954  0.93555994  0.43932313  1
  Zn  Zn130  1  0.68780788  0.94190832  0.93730592  1
  Zn  Zn131  1  0.30684442  0.05276528  0.05870847  1
  Zn  Zn132  1  0.31010575  0.06353758  0.56501788  1
  Zn  Zn133  1  0.31187288  0.56480033  0.06740803  1
  Zn  Zn134  1  0.31337502  0.56375552  0.56183706  1
  Zn  Zn135  1  0.79954021  0.06501057  0.06962434  1
  Zn  Zn136  1  0.80919583  0.05771607  0.56477866  1
  Zn  Zn137  1  0.80832779  0.55806537  0.06262149  1
  Zn  Zn138  1  0.81678678  0.55833567  0.56521820  1
  Zn  Zn139  1  0.43271794  0.44151056  0.18176067  1
  Zn  Zn140  1  0.43494026  0.44112488  0.68522344  1
  Zn  Zn141  1  0.44448654  0.94606698  0.18534651  1
  Zn  Zn142  1  0.43755749  0.94168701  0.68330624  1
  Zn  Zn143  1  0.93148488  0.44177118  0.18412554  1
  Zn  Zn144  1  0.93763464  0.43753276  0.68514302  1
  Zn  Zn145  1  0.93596750  0.93887323  0.19082746  1
  Zn  Zn146  1  0.93321210  0.93429200  0.68537532  1
  Zn  Zn147  1  0.06193048  0.05754847  0.31595799  1
  Zn  Zn148  1  0.06088302  0.05975454  0.81537590  1
  Zn  Zn149  1  0.06157372  0.56665750  0.31341102  1
  Zn  Zn150  1  0.05994522  0.56019720  0.81325998  1
  Zn  Zn151  1  0.56255447  0.06370319  0.31550859  1
  Zn  Zn152  1  0.56036920  0.05915477  0.81314073  1
  Zn  Zn153  1  0.56578157  0.58598443  0.31505994  1
  Zn  Zn154  1  0.55989297  0.56031771  0.81475414  1
  Zn  Zn155  1  0.44196540  0.19246074  0.43876668  1
  Zn  Zn156  1  0.42764222  0.19412043  0.91428749  1
  Zn  Zn157  1  0.44174160  0.68549663  0.43413498  1
  Zn  Zn158  1  0.43671147  0.69023245  0.93804849  1
  Zn  Zn159  1  0.94001851  0.18580679  0.43833679  1
  Zn  Zn160  1  0.93113407  0.18814250  0.93466971  1
  Zn  Zn161  1  0.94477105  0.68349408  0.43184806  1
  Zn  Zn162  1  0.94081569  0.68871100  0.93588204  1
  Zn  Zn163  1  0.05676861  0.31347696  0.06394724  1
  Zn  Zn164  1  0.06347665  0.31128845  0.56284631  1
  Zn  Zn165  1  0.06393707  0.81134896  0.06245170  1
  Zn  Zn166  1  0.06204791  0.81232414  0.56553151  1
  Zn  Zn167  1  0.56394679  0.32242535  0.06120190  1
  Zn  Zn168  1  0.56093537  0.30784412  0.56206190  1
  Zn  Zn169  1  0.57085382  0.82528029  0.05922593  1
  Zn  Zn170  1  0.56034224  0.81581074  0.55936346  1
  O  O171  1  0.11620481  0.11958414  0.12304429  1
  O  O172  1  0.13168488  0.11800479  0.61569858  1
  O  O173  1  0.12140426  0.61393847  0.11777790  1
  O  O174  1  0.11723966  0.61828562  0.61727438  1
  O  O175  1  0.68143686  0.11227450  0.11646968  1
  O  O176  1  0.63271355  0.13065218  0.60724855  1
  O  O177  1  0.63014960  0.62078344  0.11680209  1
  O  O178  1  0.62302053  0.61655932  0.62556045  1
  O  O179  1  0.36669881  0.37994318  0.38760140  1
  O  O180  1  0.37671182  0.37935986  0.88684244  1
  O  O181  1  0.37975623  0.88394161  0.37568220  1
  O  O182  1  0.38289908  0.87864699  0.88156369  1
  O  O183  1  0.87125604  0.38873072  0.37596669  1
  O  O184  1  0.88211904  0.36563037  0.88059754  1
  O  O185  1  0.88167863  0.87906282  0.38412902  1
  O  O186  1  0.88491655  0.87733217  0.88424407  1
  O  O187  1  0.25347168  0.01208046  0.37017102  1
  O  O188  1  0.26104789  -0.01313928  0.86634280  1
  O  O189  1  0.25027936  0.50596717  0.36137044  1
  O  O190  1  0.24731645  0.49205875  0.86171195  1
  O  O191  1  0.75888851  0.00320311  0.37035847  1
  O  O192  1  0.75219819  0.00595828  0.86065522  1
  O  O193  1  0.76247470  0.51322660  0.37732909  1
  O  O194  1  0.74324228  0.50030403  0.86089823  1
  O  O195  1  0.24098680  0.49622224  0.13481905  1
  O  O196  1  0.24566699  0.49096738  0.63106473  1
  O  O197  1  0.24389950  0.99081238  0.13415505  1
  O  O198  1  0.24019335  0.99538262  0.63060206  1
  O  O199  1  0.74757814  0.48414799  0.12553617  1
  O  O200  1  0.74428344  0.49337589  0.63335073  1
  O  O201  1  0.76913695  0.98791268  0.14970177  1
  O  O202  1  0.75059668  0.98804501  0.63735037  1
  O  O203  1  0.01063066  0.38109456  0.24401850  1
  O  O204  1  0.00509782  0.36869441  0.75637642  1
  O  O205  1  0.00608119  0.86993358  0.25712305  1
  O  O206  1  -0.00496627  0.86588668  0.75568819  1
  O  O207  1  0.49365084  0.36949978  0.25223426  1
  O  O208  1  0.50738328  0.38695355  0.75600470  1
  O  O209  1  0.50010538  0.88344498  0.26532072  1
  O  O210  1  0.50573997  0.86943439  0.75672614  1
  O  O211  1  0.49073929  0.13487334  0.25534326  1
  O  O212  1  0.48087409  0.12248297  0.75522373  1
  O  O213  1  0.48347819  0.62307468  0.24899694  1
  O  O214  1  0.49235870  0.63332336  0.74899621  1
  O  O215  1  0.98829485  0.11565955  0.24688355  1
  O  O216  1  0.99237753  0.13251137  0.75381643  1
  O  O217  1  0.99184780  0.63416648  0.24835865  1
  O  O218  1  0.99483665  0.62756121  0.74298493  1
  O  O219  1  0.36951626  0.25262942  0.00763737  1
  O  O220  1  0.36794493  0.25863798  0.49979844  1
  O  O221  1  0.37771314  0.75763535  0.01300220  1
  O  O222  1  0.38128980  0.74607290  0.51431865  1
  O  O223  1  0.87689813  0.25960378  0.00892921  1
  O  O224  1  0.88545993  0.25025859  0.51467592  1
  O  O225  1  0.86736907  0.75681329  -0.00573783  1
  O  O226  1  0.88075862  0.75678467  0.49542448  1
  O  O227  1  0.13085583  0.24490129  0.49380486  1
  O  O228  1  0.12770311  0.24554680  0.99523950  1
  O  O229  1  0.12173240  0.73617361  0.50323265  1
  O  O230  1  0.11910948  0.73115221  1.00081145  1
  O  O231  1  0.62359776  0.24178833  0.48555915  1
  O  O232  1  0.62435951  0.26375531  0.98767102  1
  O  O233  1  0.62061891  0.74922020  0.48666962  1
  O  O234  1  0.63026595  0.74467013  0.99318366  1
  O  O235  1  0.50078635  0.25270115  0.13486468  1
  O  O236  1  0.49828797  0.23948061  0.62286099  1
  O  O237  1  0.49495242  0.75552445  0.12221088  1
  O  O238  1  0.49443620  0.75094893  0.63558606  1
  O  O239  1  0.98653774  0.24217207  0.12205058  1
  O  O240  1  0.99669894  0.25426969  0.63852102  1
  O  O241  1  1.00252604  0.74997568  0.13854787  1
  O  O242  1  1.00195159  0.73978332  0.63301409  1
  O  O243  1  0.01245221  0.24895879  0.37668816  1
  O  O244  1  0.00486288  0.25681755  0.86598977  1
  O  O245  1  -0.00066211  0.76156952  0.36400054  1
  O  O246  1  0.00612364  0.75797626  0.86786725  1
  O  O247  1  0.50969555  0.25471514  0.36515946  1
  O  O248  1  0.49685710  0.26980550  0.86932116  1
  O  O249  1  0.51036538  0.75811165  0.37628368  1
  O  O250  1  0.50438713  0.75750999  0.86450377  1
  O  O251  1  0.24153776  0.13105096  0.49300976  1
  O  O252  1  0.23908401  0.13225770  1.00707075  1
  O  O253  1  0.24201236  0.61838861  0.48858802  1
  O  O254  1  0.23284884  0.61561439  1.00119396  1
  O  O255  1  0.74433555  0.12049079  0.49006530  1
  O  O256  1  0.76220088  0.12167366  0.97498660  1
  O  O257  1  0.75308497  0.62322309  0.49378989  1
  O  O258  1  0.74348706  0.63029348  0.99740798  1
  O  O259  1  0.25482983  0.37021652  0.00562879  1
  O  O260  1  0.25510787  0.37442867  0.50674833  1
  O  O261  1  0.26682433  0.88606986  0.01502518  1
  O  O262  1  0.25339363  0.87995794  0.51222617  1
  O  O263  1  0.76070658  0.38119634  -0.00048693  1
  O  O264  1  0.75666735  0.37868236  0.51450535  1
  O  O265  1  0.76052444  0.86809776  -0.00110724  1
  O  O266  1  0.75602109  0.87548730  0.51309275  1
  O  O267  1  0.12860176  0.49688145  0.24276546  1
  O  O268  1  0.12970124  0.49573100  0.74301053  1
  O  O269  1  0.12883809  0.98954053  0.24566025  1
  O  O270  1  0.13068102  1.00183689  0.74363777  1
  O  O271  1  0.60966152  0.49275224  0.25782683  1
  O  O272  1  0.63021133  0.49537183  0.74049635  1
  O  O273  1  0.64295719  1.00543043  0.25321433  1
  O  O274  1  0.63005981  0.98445292  0.75491780  1
  O  O275  1  0.36939044  0.01228367  0.26092254  1
  O  O276  1  0.36646221  0.00654573  0.75533517  1
  O  O277  1  0.36538319  0.50941599  0.24781753  1
  O  O278  1  0.36469617  0.50940717  0.75128138  1
  O  O279  1  0.87125667  0.00263374  0.26625323  1
  O  O280  1  0.86831986  0.00607582  0.74960181  1
  O  O281  1  0.88214022  0.51547829  0.25829112  1
  O  O282  1  0.86601097  0.50603233  0.74560417  1
  O  O283  1  0.13033321  0.36676502  0.36487575  1
  O  O284  1  0.11637238  0.36270092  0.87059632  1
  O  O285  1  0.11796387  0.88039196  0.36743621  1
  O  O286  1  0.10418458  0.88862115  0.86772038  1
  O  O287  1  0.63192301  0.37156716  0.37730992  1
  O  O288  1  0.61393958  0.37848888  0.86222988  1
  O  O289  1  0.62026213  0.86730778  0.37471020  1
  O  O290  1  0.61858867  0.86361300  0.86831251  1
  O  O291  1  0.36615635  0.12708125  0.13326211  1
  O  O292  1  0.36750172  0.12932228  0.64050638  1
  O  O293  1  0.37242521  0.64137133  0.12876443  1
  O  O294  1  0.37546235  0.63170238  0.63569285  1
  O  O295  1  0.87540103  0.13224637  0.13412730  1
  O  O296  1  0.86915623  0.13026799  0.63502390  1
  O  O297  1  0.87305792  0.61975009  0.13932610  1
  O  O298  1  0.88822086  0.61941925  0.63403550  1
  O  O299  1  0.24030491  0.25887738  0.11314191  1
  O  O300  1  0.25027722  0.26402720  0.61978063  1
  O  O301  1  0.25002312  0.76157292  0.12790351  1
  O  O302  1  0.25822814  0.76048297  0.63190103  1
  O  O303  1  0.75933067  0.26145821  0.12641892  1
  O  O304  1  0.76310130  0.25930433  0.63146059  1
  O  O305  1  0.74464943  0.75189658  0.11137808  1
  O  O306  1  0.75135913  0.76096260  0.63066168  1
  O  O307  1  0.24395371  0.24003034  0.37896963  1
  O  O308  1  0.23921092  0.25590092  0.89202553  1
  O  O309  1  0.25481857  0.74063380  0.37080443  1
  O  O310  1  0.23506161  0.78706865  0.87832659  1
  O  O311  1  0.74504961  0.23969681  0.37098956  1
  O  O312  1  0.74916255  0.23301815  0.86193689  1
  O  O313  1  0.74177108  0.74530485  0.37988136  1
  O  O314  1  0.74202448  0.74761046  0.88382682  1
  O  O315  1  0.00011815  0.11891383  0.00515388  1
  O  O316  1  0.01469649  0.12007129  0.49665435  1
  O  O317  1  0.00330156  0.61505267  0.00112726  1
  O  O318  1  0.00702659  0.61748064  0.50578230  1
  O  O319  1  0.48172551  0.13990640  0.00317316  1
  O  O320  1  0.51713086  0.12376061  0.49336009  1
  O  O321  1  0.50910768  0.61908978  -0.00551701  1
  O  O322  1  0.50282504  0.60946947  0.49962758  1
  O  O323  1  0.49206617  0.38640832  0.50335268  1
  O  O324  1  0.48928949  0.38350410  0.99317203  1
  O  O325  1  0.49446415  0.87941692  0.48795475  1
  O  O326  1  0.49130176  0.87117952  0.98692067  1
  O  O327  1  1.00091294  0.38836801  0.50452487  1
  O  O328  1  0.99058136  0.37977257  0.99205838  1
  O  O329  1  0.99322522  0.87467885  0.49498452  1
  O  O330  1  0.99528845  0.88053901  0.99549775  1
  O  O331  1  0.50637404  0.49346463  0.37829436  1
  O  O332  1  0.49448978  0.49296840  0.88507301  1
  O  O333  1  0.49189613  0.99590478  0.37876579  1
  O  O334  1  0.48723845  0.99182037  0.87366971  1
  O  O335  1  0.99151903  0.50747987  0.38415797  1
  O  O336  1  1.00441878  0.48390174  0.88106142  1
  O  O337  1  0.99370893  0.98638306  0.37900594  1
  O  O338  1  0.99171331  0.99686289  0.88554858  1
  O  O339  1  0.00128837  0.00723103  0.12069814  1
  O  O340  1  0.01302925  -0.00532492  0.62615508  1
  O  O341  1  0.00560988  0.50159332  0.11517886  1
  O  O342  1  0.00617941  0.50675276  0.61797296  1
  O  O343  1  0.50152245  0.01550222  0.12226375  1
  O  O344  1  0.49672804  0.01151793  0.62131095  1
  O  O345  1  0.50584853  0.49357689  0.11015563  1
  O  O346  1  0.50889047  0.50188654  0.61823125  1
  O  O347  1  0.24498495  0.38357873  0.24337492  1
  O  O348  1  0.24415837  0.38077419  0.74305188  1
  O  O349  1  0.24375433  0.87990222  0.24602355  1
  O  O350  1  0.24876155  0.88896804  0.73564956  1
  O  O351  1  0.75485439  0.37522898  0.24029179  1
  O  O352  1  0.74250430  0.38134839  0.74166936  1
  O  O353  1  0.74970759  0.88469680  0.25754658  1
  O  O354  1  0.74479770  0.87680194  0.74350544  1
  O  O355  1  0.25467643  0.12335394  0.25719779  1
  O  O356  1  0.25574508  0.11180702  0.74919347  1
  O  O357  1  0.25427748  0.61966270  0.25542295  1
  O  O358  1  0.25448144  0.61643923  0.74487194  1
  O  O359  1  0.76480731  0.11326891  0.26571103  1
  O  O360  1  0.75544137  0.11544623  0.75273423  1
  O  O361  1  0.76278916  0.63052477  0.26073242  1
  O  O362  1  0.76004992  0.61675839  0.75140256  1
  O  O363  1  0.36804773  0.12271315  0.37043519  1
  O  O364  1  0.36654836  0.11471945  0.86272803  1
  O  O365  1  0.36826937  0.62385612  0.36537721  1
  O  O366  1  0.37450226  0.62803309  0.86161853  1
  O  O367  1  0.87290991  0.11786584  0.37351124  1
  O  O368  1  0.86708641  0.12448402  0.85901954  1
  O  O369  1  0.87106871  0.61956554  0.36819941  1
  O  O370  1  0.87720844  0.62280112  0.86264869  1
  O  O371  1  0.12716240  0.38541299  0.12869552  1
  O  O372  1  0.13182669  0.38057363  0.63118548  1
  O  O373  1  0.13212061  0.87928904  0.13102226  1
  O  O374  1  0.13113713  0.88323485  0.62672700  1
  O  O375  1  0.64000111  0.37704119  0.12806610  1
  O  O376  1  0.63217942  0.38052789  0.62890162  1
  O  O377  1  0.63153793  0.88628603  0.13108421  1
  O  O378  1  0.63634841  0.86890123  0.63226919  1
  O  O379  1  0.12841881  0.26160500  0.25823013  1
  O  O380  1  0.12128716  0.25151393  0.75695191  1
  O  O381  1  0.11864893  0.76159741  0.24712503  1
  O  O382  1  0.11105663  0.75008315  0.75041838  1
  O  O383  1  0.61712956  0.24485686  0.26334345  1
  O  O384  1  0.62690479  0.26338628  0.74980999  1
  O  O385  1  0.62694094  0.74874106  0.26917695  1
  O  O386  1  0.61853576  0.75620290  0.75580095  1
  O  O387  1  0.38137883  0.23907656  0.25566012  1
  O  O388  1  0.36168563  0.23564457  0.75376040  1
  O  O389  1  0.37373195  0.74528695  0.23297862  1
  O  O390  1  0.38171909  0.74544405  0.74201905  1
  O  O391  1  0.87436065  0.23873539  0.24307057  1
  O  O392  1  0.88461523  0.24233540  0.74067169  1
  O  O393  1  0.88166029  0.73680674  0.25455041  1
  O  O394  1  0.88633101  0.73959412  0.75507517  1
  O  O395  1  0.38446176  0.49482414  0.49666558  1
  O  O396  1  0.37863099  0.49584640  1.00041855  1
  O  O397  1  0.37143808  1.00421434  0.48644175  1
  O  O398  1  0.37913658  0.99329933  0.99067418  1
  O  O399  1  0.88562099  0.49871498  0.49205446  1
  O  O400  1  0.88523055  0.49157086  1.00270762  1
  O  O401  1  0.87581091  0.99459252  0.49148383  1
  O  O402  1  0.88274941  0.99390498  1.00376546  1
  O  O403  1  0.10863344  0.00516949  0.00867932  1
  O  O404  1  0.12471210  0.00876123  0.50843905  1
  O  O405  1  0.11403756  0.50352561  0.00634168  1
  O  O406  1  0.11886557  0.50600422  0.50390309  1
  O  O407  1  0.61295275  -0.00337196  -0.00329407  1
  O  O408  1  0.62622664  0.01608012  0.49262060  1
  O  O409  1  0.61704899  0.51144572  -0.00153370  1
  O  O410  1  0.62151318  0.49979249  0.51295921  1
  O  O411  1  0.36592073  0.37774417  0.11219007  1
  O  O412  1  0.36706456  0.37557935  0.61576079  1
  O  O413  1  0.37285349  0.86602393  0.12150899  1
  O  O414  1  0.36745921  0.86696995  0.62362844  1
  O  O415  1  0.86695264  0.36938377  0.11809238  1
  O  O416  1  0.86892570  0.36582886  0.62583080  1
  O  O417  1  0.87853903  0.87251396  0.11385651  1
  O  O418  1  0.86226115  0.87527310  0.61639712  1
  O  O419  1  0.13135440  0.13045663  0.37899200  1
  O  O420  1  0.11854898  0.13698496  0.88162475  1
  O  O421  1  0.13535598  0.62289328  0.38286781  1
  O  O422  1  0.12167620  0.62090559  0.88897038  1
  O  O423  1  0.63571908  0.13216853  0.38117106  1
  O  O424  1  0.63827121  0.12721758  0.86388343  1
  O  O425  1  0.63833862  0.63566504  0.38317984  1
  O  O426  1  0.62523069  0.63684318  0.87791210  1
