# generated using pymatgen
data_V85Zn86O256
_symmetry_space_group_name_H-M   'P 1'
_cell_length_a   16.93716210
_cell_length_b   16.95723196
_cell_length_c   16.96252235
_cell_angle_alpha   90.05947012
_cell_angle_beta   90.01666180
_cell_angle_gamma   89.87343850
_symmetry_Int_Tables_number   1
_chemical_formula_structural   V85Zn86O256
_chemical_formula_sum   'V85 Zn86 O256'
_cell_volume   4871.74700102
_cell_formula_units_Z   1
loop_
 _symmetry_equiv_pos_site_id
 _symmetry_equiv_pos_as_xyz
  1  'x, y, z'
loop_
 _atom_site_type_symbol
 _atom_site_label
 _atom_site_symmetry_multiplicity
 _atom_site_fract_x
 _atom_site_fract_y
 _atom_site_fract_z
 _atom_site_occupancy
  V  V0  1  0.50202363  0.49975507  0.50830162  1
  V  V1  1  0.12775973  0.25321516  0.37560196  1
  V  V2  1  0.37414854  0.37293296  0.00026572  1
  V  V3  1  0.11112903  0.37695069  0.75281197  1
  V  V4  1  0.11657947  0.75282233  0.87632083  1
  V  V5  1  0.11001670  0.12259322  0.50492441  1
  V  V6  1  0.86456425  0.75169603  0.62144107  1
  V  V7  1  0.62121806  0.62684694  0.49584299  1
  V  V8  1  0.74468560  0.24730002  -0.00865789  1
  V  V9  1  0.00362438  -0.00581035  0.00120229  1
  V  V10  1  0.37511724  0.37534134  0.50186331  1
  V  V11  1  0.38392594  0.24965682  0.63183882  1
  V  V12  1  0.12429090  0.12540871  0.00047333  1
  V  V13  1  0.50839190  0.49578678  0.00106904  1
  V  V14  1  0.24669959  0.00125197  0.75170225  1
  V  V15  1  0.14008437  0.37923947  0.24856976  1
  V  V16  1  0.87045070  0.01002806  0.88249912  1
  V  V17  1  -0.00009795  0.12603872  0.13040054  1
  V  V18  1  0.62653774  0.35384211  0.74864371  1
  V  V19  1  0.00050863  0.49324217  -0.00273334  1
  V  V20  1  0.36698065  0.50044277  0.37477750  1
  V  V21  1  0.37506730  0.74758393  0.12668761  1
  V  V22  1  0.00091326  0.62049864  0.12615059  1
  V  V23  1  0.74586917  0.38164689  0.61242547  1
  V  V24  1  0.37920579  0.12461346  0.75304370  1
  V  V25  1  0.00160246  0.25360779  0.24955075  1
  V  V26  1  0.87114946  0.50118111  0.37771178  1
  V  V27  1  0.25460692  0.12496877  0.37974458  1
  V  V28  1  0.88725480  0.27047339  0.61825733  1
  V  V29  1  0.74742588  0.49952889  0.23640748  1
  V  V30  1  0.74154967  0.75393635  0.49583067  1
  V  V31  1  0.73587729  0.49952506  0.74800386  1
  V  V32  1  0.74491031  0.62500431  0.87514198  1
  V  V33  1  0.50242378  0.63094424  0.63223105  1
  V  V34  1  0.87734419  0.49333504  0.87203570  1
  V  V35  1  -0.00005518  0.63424609  0.62555568  1
  V  V36  1  -0.00226092  0.50335549  0.49817698  1
  V  V37  1  0.62526442  -0.00035200  0.12043908  1
  V  V38  1  0.62485101  0.87110153  0.25280719  1
  V  V39  1  0.74235820  0.62797038  0.37039922  1
  V  V40  1  0.11265564  0.87587739  0.75500457  1
  V  V41  1  0.37478988  0.12399377  0.24883672  1
  V  V42  1  0.36969308  0.25437202  0.12582037  1
  V  V43  1  0.13757152  0.49472192  0.12703127  1
  V  V44  1  0.25524443  0.24635325  0.50459107  1
  V  V45  1  0.62764629  0.37851611  0.23677368  1
  V  V46  1  0.24750483  0.87301740  0.12954903  1
  V  V47  1  0.24565884  0.25481275  0.00227468  1
  V  V48  1  0.86939653  0.37630796  0.00473465  1
  V  V49  1  0.87017120  0.62460990  0.74850172  1
  V  V50  1  0.25015831  0.49925514  0.75047286  1
  V  V51  1  0.01583916  0.75144172  0.25365883  1
  V  V52  1  0.63917801  0.89551593  0.73635871  1
  V  V53  1  0.50631920  0.61872038  0.12622262  1
  V  V54  1  0.62318319  0.62485427  0.00001105  1
  V  V55  1  0.24698907  -0.00637394  0.25336867  1
  V  V56  1  0.87408087  0.87519194  0.48950805  1
  V  V57  1  0.37953856  -0.00412312  0.37676756  1
  V  V58  1  0.86807686  0.12944644  0.25993344  1
  V  V59  1  0.24438905  0.63184244  0.37351283  1
  V  V60  1  0.37050913  0.61830405  0.24933744  1
  V  V61  1  0.50865387  0.12287970  0.62968515  1
  V  V62  1  0.24829581  0.74991951  0.00059505  1
  V  V63  1  0.50004963  0.12421536  0.12063456  1
  V  V64  1  0.12441491  0.50541252  0.62434050  1
  V  V65  1  0.25071569  0.37624976  0.62733398  1
  V  V66  1  0.11469014  0.25302799  0.87513757  1
  V  V67  1  0.37467001  0.87338284  0.50594355  1
  V  V68  1  0.87941041  0.87257073  -0.00757392  1
  V  V69  1  0.50847823  -0.00273171  0.51047926  1
  V  V70  1  0.50433200  0.74723857  0.25659750  1
  V  V71  1  0.74830990  0.00423747  0.25644138  1
  V  V72  1  0.01367784  0.87756851  0.37205990  1
  V  V73  1  0.74608837  0.75141509  -0.00128108  1
  V  V74  1  0.12313120  0.64013608  0.49829085  1
  V  V75  1  0.24852130  0.62411048  0.87586801  1
  V  V76  1  0.50293542  0.37485701  0.37351189  1
  V  V77  1  0.87738741  0.75356439  0.12843602  1
  V  V78  1  0.24748222  0.87298430  0.63053814  1
  V  V79  1  0.37615276  0.49551744  0.87563465  1
  V  V80  1  0.87494833  0.09651205  0.71091994  1
  V  V81  1  0.12639246  -0.00171267  0.13073865  1
  V  V82  1  0.50547276  0.35971113  0.87000549  1
  V  V83  1  -0.00287985  0.37923629  0.37613709  1
  V  V84  1  0.86446085  0.25511827  0.12878409  1
  Zn  Zn85  1  0.24757374  0.12474815  0.87391522  1
  Zn  Zn86  1  0.24386288  0.75658738  0.49728934  1
  Zn  Zn87  1  0.51073383  0.85980466  0.86555222  1
  Zn  Zn88  1  -0.01494551  0.75354469  0.76170139  1
  Zn  Zn89  1  0.12317262  0.62089491  -0.00015779  1
  Zn  Zn90  1  0.75136743  0.87757304  0.12463963  1
  Zn  Zn91  1  0.75527038  0.24210929  0.49372462  1
  Zn  Zn92  1  0.74280440  0.12582657  0.85646942  1
  Zn  Zn93  1  0.87425494  0.62572992  0.25073661  1
  Zn  Zn94  1  0.49736208  -0.00721740  -0.00606974  1
  Zn  Zn95  1  0.37821802  -0.00692789  0.87506613  1
  Zn  Zn96  1  0.64229805  0.24476112  0.37105764  1
  Zn  Zn97  1  0.50393613  0.86678006  0.38163943  1
  Zn  Zn98  1  0.63109940  0.12488215  0.49285708  1
  Zn  Zn99  1  0.37585261  0.75119359  0.63327281  1
  Zn  Zn100  1  0.38193753  0.62617711  0.75362659  1
  Zn  Zn101  1  -0.00631351  0.23925653  0.74931830  1
  Zn  Zn102  1  0.62350427  0.12572357  -0.01071523  1
  Zn  Zn103  1  0.10598173  0.01285410  0.63110101  1
  Zn  Zn104  1  0.87846438  -0.00035564  0.37232421  1
  Zn  Zn105  1  0.37931392  0.87550817  -0.00482870  1
  Zn  Zn106  1  0.50308962  0.25081001  0.24805899  1
  Zn  Zn107  1  0.18949190  0.18698600  0.18923057  1
  Zn  Zn108  1  0.18530663  0.18845981  0.68785016  1
  Zn  Zn109  1  0.18843153  0.68036218  0.18649369  1
  Zn  Zn110  1  0.19472807  0.69470768  0.69111679  1
  Zn  Zn111  1  0.68549186  0.18980822  0.18707044  1
  Zn  Zn112  1  0.70554924  0.18153401  0.66840397  1
  Zn  Zn113  1  0.68691763  0.68714103  0.18396409  1
  Zn  Zn114  1  0.67600676  0.68993729  0.68223751  1
  Zn  Zn115  1  0.31693580  0.31070102  0.31493742  1
  Zn  Zn116  1  0.30758805  0.31004961  0.81546151  1
  Zn  Zn117  1  0.31490525  0.80989398  0.31391092  1
  Zn  Zn118  1  0.31627093  0.81154651  0.81272138  1
  Zn  Zn119  1  0.80959816  0.31772215  0.31577554  1
  Zn  Zn120  1  0.81483781  0.31387543  0.80934800  1
  Zn  Zn121  1  0.81071365  0.81136096  0.31023428  1
  Zn  Zn122  1  0.76622458  0.79928335  0.79308976  1
  Zn  Zn123  1  0.18617222  0.44188841  0.43939824  1
  Zn  Zn124  1  0.18502545  0.43413317  0.93712760  1
  Zn  Zn125  1  0.18746408  0.94054509  0.44144548  1
  Zn  Zn126  1  0.19038718  0.93577164  0.93755895  1
  Zn  Zn127  1  0.68122254  0.44261774  0.42945996  1
  Zn  Zn128  1  0.68809219  0.43212559  0.93386500  1
  Zn  Zn129  1  0.68660894  0.93711034  0.43422009  1
  Zn  Zn130  1  0.68611943  0.93541611  0.93078639  1
  Zn  Zn131  1  0.31251365  0.06345598  0.05985081  1
  Zn  Zn132  1  0.31326151  0.05901517  0.56904425  1
  Zn  Zn133  1  0.31632754  0.56195339  0.05933742  1
  Zn  Zn134  1  0.31294623  0.56663571  0.56132699  1
  Zn  Zn135  1  0.81296794  0.06489743  0.06786737  1
  Zn  Zn136  1  0.82297217  0.06516979  0.55011860  1
  Zn  Zn137  1  0.81565424  0.56553327  0.06116467  1
  Zn  Zn138  1  0.80908289  0.56283984  0.56020797  1
  Zn  Zn139  1  0.43702830  0.43708132  0.18664277  1
  Zn  Zn140  1  0.44237151  0.43665624  0.69072274  1
  Zn  Zn141  1  0.43748642  0.93467630  0.18381245  1
  Zn  Zn142  1  0.44520893  0.93561306  0.69726506  1
  Zn  Zn143  1  0.93799833  0.43814486  0.19080724  1
  Zn  Zn144  1  0.93284183  0.44277233  0.68370448  1
  Zn  Zn145  1  0.93718771  0.93626735  0.19073034  1
  Zn  Zn146  1  0.92932322  0.93218322  0.68425541  1
  Zn  Zn147  1  0.06397560  0.06473590  0.31759111  1
  Zn  Zn148  1  0.05287509  0.06390969  0.81350283  1
  Zn  Zn149  1  0.06539168  0.56315650  0.31021622  1
  Zn  Zn150  1  0.06039494  0.56560781  0.81186984  1
  Zn  Zn151  1  0.56181015  0.05962285  0.30924442  1
  Zn  Zn152  1  0.56688202  0.05412203  0.81634983  1
  Zn  Zn153  1  0.56080412  0.55728159  0.31407474  1
  Zn  Zn154  1  0.56161898  0.56361132  0.81795545  1
  Zn  Zn155  1  0.47217972  0.17212698  0.42180969  1
  Zn  Zn156  1  0.43524568  0.18140029  0.93759159  1
  Zn  Zn157  1  0.43436624  0.68788945  0.43973747  1
  Zn  Zn158  1  0.43418463  0.69052797  0.93533013  1
  Zn  Zn159  1  0.93155466  0.19789681  0.43748224  1
  Zn  Zn160  1  0.93944872  0.18935472  0.94371166  1
  Zn  Zn161  1  0.93466551  0.69013720  0.43360086  1
  Zn  Zn162  1  0.93297430  0.68116002  0.94048332  1
  Zn  Zn163  1  0.05877365  0.31609478  0.06522844  1
  Zn  Zn164  1  0.06882718  0.31825486  0.55768486  1
  Zn  Zn165  1  0.06556149  0.81228413  0.06679999  1
  Zn  Zn166  1  0.04539444  0.84273672  0.57560175  1
  Zn  Zn167  1  0.55982555  0.31028759  0.06198935  1
  Zn  Zn168  1  0.56911642  0.30981216  0.56104186  1
  Zn  Zn169  1  0.56160058  0.81094878  0.06190825  1
  Zn  Zn170  1  0.56532793  0.81418293  0.57413351  1
  O  O171  1  0.12043504  0.11913765  0.12173776  1
  O  O172  1  0.12134619  0.12889843  0.61115198  1
  O  O173  1  0.11480361  0.61558367  0.12356419  1
  O  O174  1  0.11756457  0.62467257  0.62117062  1
  O  O175  1  0.61527362  0.11907722  0.12380342  1
  O  O176  1  0.60912213  0.13387713  0.62853885  1
  O  O177  1  0.61252154  0.62378320  0.11963992  1
  O  O178  1  0.61050294  0.62272823  0.61514092  1
  O  O179  1  0.37623824  0.38549503  0.38110592  1
  O  O180  1  0.38120842  0.37815530  0.87827640  1
  O  O181  1  0.37644268  0.88108555  0.38436343  1
  O  O182  1  0.37963638  0.87355039  0.87715061  1
  O  O183  1  0.88637550  0.38777572  0.36834468  1
  O  O184  1  0.87175826  0.38792137  0.88275288  1
  O  O185  1  0.88242548  0.87303251  0.37498140  1
  O  O186  1  0.87807106  0.88553653  0.89333455  1
  O  O187  1  0.26037810  0.00290008  0.37124693  1
  O  O188  1  0.24792416  0.00247824  0.86224478  1
  O  O189  1  0.26156962  0.51017891  0.38175851  1
  O  O190  1  0.25307974  0.50406765  0.87040732  1
  O  O191  1  0.74999613  0.00075896  0.36024070  1
  O  O192  1  0.76777309  0.00743879  0.89031401  1
  O  O193  1  0.75567255  0.50894107  0.36726970  1
  O  O194  1  0.75637490  0.50479261  0.86831509  1
  O  O195  1  0.23653071  0.50439635  0.11797034  1
  O  O196  1  0.24625187  0.49819419  0.63290819  1
  O  O197  1  0.24810910  0.99243276  0.13489330  1
  O  O198  1  0.24105168  0.99277508  0.63645063  1
  O  O199  1  0.75611595  0.50603110  0.13743421  1
  O  O200  1  0.75447213  0.49167143  0.63500728  1
  O  O201  1  0.74211580  1.00011602  0.13525201  1
  O  O202  1  0.85130263  1.01601202  0.64957845  1
  O  O203  1  0.00881802  0.37181877  0.26013325  1
  O  O204  1  0.01067560  0.38485421  0.74752194  1
  O  O205  1  -0.00019376  0.86097165  0.25778025  1
  O  O206  1  0.00965920  0.86871743  0.75497489  1
  O  O207  1  0.50999576  0.37968471  0.25633411  1
  O  O208  1  0.51660587  0.37484582  0.75452332  1
  O  O209  1  0.50465764  0.86317057  0.24863836  1
  O  O210  1  0.52027456  0.87178127  0.74652130  1
  O  O211  1  0.49062473  0.12522952  0.23680980  1
  O  O212  1  0.48471134  0.12015964  0.74359712  1
  O  O213  1  0.49530027  0.62676884  0.24381100  1
  O  O214  1  0.50097672  0.61536798  0.73551534  1
  O  O215  1  0.99678949  0.13361887  0.24716189  1
  O  O216  1  0.97562941  0.12134842  0.74686070  1
  O  O217  1  0.99926905  0.63458510  0.24348837  1
  O  O218  1  0.98998875  0.62905298  0.74190278  1
  O  O219  1  0.36517122  0.25242062  0.00579635  1
  O  O220  1  0.36451832  0.25759868  0.50978960  1
  O  O221  1  0.35967470  0.74287245  0.00954219  1
  O  O222  1  0.37450818  0.76528170  0.50176347  1
  O  O223  1  0.87106942  0.25896017  0.00923916  1
  O  O224  1  0.87490649  0.26064765  0.51240882  1
  O  O225  1  0.87389647  0.75513191  0.01028073  1
  O  O226  1  0.86293496  0.75191175  0.50097941  1
  O  O227  1  0.13708698  0.24420955  0.49619723  1
  O  O228  1  0.12752997  0.24934469  0.99590533  1
  O  O229  1  0.12064029  0.74038845  0.50495319  1
  O  O230  1  0.13343834  0.74676756  0.99700491  1
  O  O231  1  0.62973546  0.24773423  0.49172787  1
  O  O232  1  0.64254826  0.25413763  1.00475190  1
  O  O233  1  0.62858331  0.73845190  0.50097150  1
  O  O234  1  0.63955715  0.74064220  1.01150677  1
  O  O235  1  0.49021499  0.24169836  0.12552700  1
  O  O236  1  0.48741068  0.24531960  0.62076891  1
  O  O237  1  0.49321814  0.73826311  0.13323388  1
  O  O238  1  0.49646577  0.73397833  0.62193055  1
  O  O239  1  0.99311505  0.24539585  0.13207068  1
  O  O240  1  0.99101586  0.27126110  0.62534914  1
  O  O241  1  0.99728765  0.74313089  0.13343763  1
  O  O242  1  0.99062704  0.74173809  0.62635601  1
  O  O243  1  0.00590080  0.26176040  0.37026932  1
  O  O244  1  0.00997012  0.24792920  0.87425042  1
  O  O245  1  -0.00177488  0.75229883  0.35737910  1
  O  O246  1  0.01233927  0.73845079  0.87874546  1
  O  O247  1  0.48147735  0.27168398  0.36729808  1
  O  O248  1  0.49549980  0.26164975  0.88084627  1
  O  O249  1  0.49389488  0.74776735  0.36031183  1
  O  O250  1  0.50928651  0.74491383  0.88256165  1
  O  O251  1  0.25162829  0.13298517  0.49746850  1
  O  O252  1  0.24054120  0.13655541  1.00013893  1
  O  O253  1  0.24028164  0.62787379  0.49329946  1
  O  O254  1  0.24587146  0.62957968  0.99306261  1
  O  O255  1  0.74021560  0.12968332  0.52637383  1
  O  O256  1  0.75111661  0.14283131  1.00717672  1
  O  O257  1  0.73888470  0.62725046  0.48983614  1
  O  O258  1  0.74562969  0.62856325  0.99409101  1
  O  O259  1  0.25569432  0.36212845  -0.00456191  1
  O  O260  1  0.25381011  0.36962493  0.50712319  1
  O  O261  1  0.25121407  0.86432369  0.00916895  1
  O  O262  1  0.25531960  0.87807092  0.51061665  1
  O  O263  1  0.76121947  0.36614350  -0.00215733  1
  O  O264  1  0.73949033  0.38775763  0.51259084  1
  O  O265  1  0.75781767  0.86536425  0.00313611  1
  O  O266  1  0.75396843  0.85962988  0.48602870  1
  O  O267  1  0.12236485  0.49115388  0.23980413  1
  O  O268  1  0.12978676  0.49540089  0.74525798  1
  O  O269  1  0.14048152  1.00721548  0.24877113  1
  O  O270  1  0.12562721  0.99382897  0.75117236  1
  O  O271  1  0.63276129  0.48894578  0.25296993  1
  O  O272  1  0.63483496  0.49792237  0.75399472  1
  O  O273  1  0.62940360  0.99561989  0.24096036  1
  O  O274  1  0.62360142  0.99709685  0.73634184  1
  O  O275  1  0.36795088  0.00264169  0.25716007  1
  O  O276  1  0.36360356  0.00878726  0.74872374  1
  O  O277  1  0.37949902  0.51047687  0.25845045  1
  O  O278  1  0.36668614  0.50110029  0.75683990  1
  O  O279  1  0.86647999  0.01065387  0.24827547  1
  O  O280  1  0.89390964  -0.00131601  0.78276066  1
  O  O281  1  0.86671316  0.50265811  0.25830476  1
  O  O282  1  0.86682054  0.50541372  0.75760372  1
  O  O283  1  0.12183582  0.37257543  0.36873205  1
  O  O284  1  0.12701010  0.36676445  0.86406968  1
  O  O285  1  0.11298587  0.87601641  0.38064101  1
  O  O286  1  0.13008604  0.86347636  0.86870943  1
  O  O287  1  0.61431282  0.37422180  0.36564664  1
  O  O288  1  0.61962531  0.37351893  0.85953994  1
  O  O289  1  0.61976726  0.87961124  0.35797988  1
  O  O290  1  0.62774475  0.88219973  0.85536088  1
  O  O291  1  0.37893000  0.13342410  0.12907390  1
  O  O292  1  0.37739371  0.13356905  0.63363290  1
  O  O293  1  0.38115701  0.62659877  0.13312408  1
  O  O294  1  0.39118180  0.62328214  0.62233169  1
  O  O295  1  0.88232293  0.13472143  0.13605230  1
  O  O296  1  0.88188808  0.15540379  0.62404906  1
  O  O297  1  0.88818331  0.63221537  0.12535837  1
  O  O298  1  0.88136698  0.63086133  0.62630125  1
  O  O299  1  0.25749622  0.24599635  0.11616254  1
  O  O300  1  0.25434281  0.25669873  0.61988428  1
  O  O301  1  0.25155559  0.75387841  0.12078763  1
  O  O302  1  0.25375420  0.75877786  0.61649234  1
  O  O303  1  0.76173326  0.25072226  0.11958804  1
  O  O304  1  0.76171432  0.27223336  0.62075282  1
  O  O305  1  0.76199873  0.74749973  0.11638242  1
  O  O306  1  0.75608024  0.73319616  0.60536856  1
  O  O307  1  0.24934555  0.24520702  0.38570600  1
  O  O308  1  0.23546554  0.24724158  0.88341793  1
  O  O309  1  0.25397843  0.73679521  0.37901668  1
  O  O310  1  0.24065729  0.74048577  0.88449412  1
  O  O311  1  0.75670428  0.24596609  0.37870607  1
  O  O312  1  0.76125976  0.24715965  0.88915341  1
  O  O313  1  0.75293274  0.73483308  0.37847423  1
  O  O314  1  0.76446499  0.73665164  0.89068644  1
  O  O315  1  0.00619346  0.11963742  0.01381187  1
  O  O316  1  0.01216811  0.13189106  0.49171018  1
  O  O317  1  0.00037377  0.61259717  0.00927173  1
  O  O318  1  0.00486331  0.62361270  0.50466300  1
  O  O319  1  0.50182677  0.12291064  0.01118054  1
  O  O320  1  0.49262763  0.11205486  0.51570649  1
  O  O321  1  0.50191860  0.61466315  0.00823279  1
  O  O322  1  0.50352938  0.61902829  0.50411655  1
  O  O323  1  0.49564124  0.38257538  0.49481024  1
  O  O324  1  0.49666343  0.37973511  0.99226314  1
  O  O325  1  0.49346220  0.88007438  0.50313030  1
  O  O326  1  0.49711097  0.87437882  0.99935174  1
  O  O327  1  1.01047326  0.38707727  0.48395633  1
  O  O328  1  0.98842623  0.38632033  1.00261447  1
  O  O329  1  0.98730410  0.85499296  0.47575952  1
  O  O330  1  0.99383997  0.88359539  1.01199247  1
  O  O331  1  0.48812529  0.49249100  0.38305935  1
  O  O332  1  0.49335199  0.49281769  0.88220523  1
  O  O333  1  0.48755627  0.99495499  0.38108698  1
  O  O334  1  0.49557264  0.99231082  0.87722530  1
  O  O335  1  0.99223001  0.49797788  0.37586541  1
  O  O336  1  0.99059909  0.50773447  0.88524372  1
  O  O337  1  0.99907260  0.98164684  0.36430062  1
  O  O338  1  0.99693842  1.00565735  0.89844669  1
  O  O339  1  0.00705832  0.00563634  0.12489394  1
  O  O340  1  0.01582316  -0.04994873  0.61275781  1
  O  O341  1  0.00375275  0.50623627  0.11963740  1
  O  O342  1  0.00248236  0.51449477  0.61945245  1
  O  O343  1  0.50736604  0.00702540  0.12430306  1
  O  O344  1  0.49030369  0.00954465  0.61763855  1
  O  O345  1  0.49238984  0.50736166  0.11365980  1
  O  O346  1  0.49531051  0.50517351  0.61205473  1
  O  O347  1  0.23938957  0.37185105  0.25571821  1
  O  O348  1  0.24235237  0.38557833  0.74770130  1
  O  O349  1  0.25556032  0.88255444  0.24462824  1
  O  O350  1  0.24231886  0.88382486  0.74627381  1
  O  O351  1  0.73664934  0.38470819  0.25112545  1
  O  O352  1  0.73946617  0.38193452  0.74568202  1
  O  O353  1  0.74218927  0.88145190  0.24626855  1
  O  O354  1  0.74495656  0.89994941  0.74987489  1
  O  O355  1  0.25712662  0.11799701  0.25911754  1
  O  O356  1  0.25364971  0.11712777  0.74854598  1
  O  O357  1  0.25895019  0.62587826  0.25847119  1
  O  O358  1  0.24264295  0.60943981  0.75845389  1
  O  O359  1  0.75844978  0.11957136  0.24432827  1
  O  O360  1  0.78054829  0.13009236  0.74489106  1
  O  O361  1  0.74807967  0.61849812  0.25479092  1
  O  O362  1  0.75150028  0.61732271  0.75647492  1
  O  O363  1  0.37497796  0.11620366  0.36942250  1
  O  O364  1  0.36815977  0.12529432  0.86424965  1
  O  O365  1  0.36893325  0.61863255  0.36926851  1
  O  O366  1  0.36118949  0.61515838  0.87769118  1
  O  O367  1  0.88478950  0.12314214  0.36235849  1
  O  O368  1  0.87424557  0.11322335  0.88983842  1
  O  O369  1  0.86613625  0.61802022  0.37042589  1
  O  O370  1  0.86469673  0.61370422  0.87193907  1
  O  O371  1  0.12111609  0.38326503  0.13566642  1
  O  O372  1  0.13279300  0.38425566  0.63197683  1
  O  O373  1  0.13932887  0.88125151  0.12520482  1
  O  O374  1  0.14001496  0.86149510  0.64130492  1
  O  O375  1  0.61712093  0.37590392  0.13842122  1
  O  O376  1  0.63477824  0.37442191  0.63687470  1
  O  O377  1  0.62585314  0.88332489  0.13516494  1
  O  O378  1  0.63390130  0.87621063  0.63281134  1
  O  O379  1  0.12203099  0.25657009  0.25673472  1
  O  O380  1  0.11717888  0.25771671  0.75599640  1
  O  O381  1  0.11417154  0.74742898  0.24523524  1
  O  O382  1  0.12413400  0.75633679  0.76241127  1
  O  O383  1  0.62297047  0.26382754  0.25133716  1
  O  O384  1  0.63773509  0.25714815  0.74425234  1
  O  O385  1  0.61586007  0.75756324  0.24213267  1
  O  O386  1  0.66115621  0.77170340  0.75228729  1
  O  O387  1  0.37382388  0.24309045  0.24079008  1
  O  O388  1  0.36480819  0.24114445  0.74098591  1
  O  O389  1  0.38054730  0.73723959  0.24502645  1
  O  O390  1  0.34944404  0.73318089  0.74308287  1
  O  O391  1  0.87978029  0.24754642  0.24442734  1
  O  O392  1  0.88170672  0.26793525  0.73126997  1
  O  O393  1  0.87979748  0.74773479  0.23715627  1
  O  O394  1  0.86570415  0.74311564  0.73924772  1
  O  O395  1  0.38014526  0.49465414  0.49350374  1
  O  O396  1  0.38266616  0.49082108  0.99460890  1
  O  O397  1  0.37856868  0.98987704  0.49476658  1
  O  O398  1  0.37428820  0.99641701  0.99673403  1
  O  O399  1  0.88087647  0.50772090  0.48572572  1
  O  O400  1  0.87904762  0.49383682  0.99450448  1
  O  O401  1  0.86800523  0.97954795  0.48930227  1
  O  O402  1  0.88407614  0.99346645  1.00367340  1
  O  O403  1  0.12165189  0.00349368  0.00875453  1
  O  O404  1  0.12935109  0.02165270  0.49849053  1
  O  O405  1  0.11573210  0.49612066  0.00675653  1
  O  O406  1  0.11846027  0.51008587  0.50829307  1
  O  O407  1  0.62935981  -0.00008981  0.01431496  1
  O  O408  1  0.61098407  0.00131323  0.49298656  1
  O  O409  1  0.61404783  0.50249070  -0.00618324  1
  O  O410  1  0.61263183  0.51295038  0.49285202  1
  O  O411  1  0.37979280  0.36165730  0.11904791  1
  O  O412  1  0.37086716  0.36877604  0.62389326  1
  O  O413  1  0.36363058  0.86516963  0.12496576  1
  O  O414  1  0.36452670  0.87700254  0.62218381  1
  O  O415  1  0.88082097  0.36707352  0.11800866  1
  O  O416  1  0.86197476  0.37895179  0.62060767  1
  O  O417  1  0.87393380  0.86695374  0.12001267  1
  O  O418  1  0.87538868  0.85514606  0.60944321  1
  O  O419  1  0.13363637  0.13434393  0.38415764  1
  O  O420  1  0.12265918  0.13249260  0.88322808  1
  O  O421  1  0.13374838  0.61888986  0.38413008  1
  O  O422  1  0.13478473  0.62848040  0.87782521  1
  O  O423  1  0.58482037  0.14072192  0.38243770  1
  O  O424  1  0.63259358  0.12204081  0.87707447  1
  O  O425  1  0.63085455  0.62174485  0.38059507  1
  O  O426  1  0.63824368  0.62027697  0.88265310  1
