# generated using pymatgen
data_V85Zn86O256
_symmetry_space_group_name_H-M   'P 1'
_cell_length_a   16.93462500
_cell_length_b   16.93350293
_cell_length_c   16.93520115
_cell_angle_alpha   89.98703879
_cell_angle_beta   90.09221868
_cell_angle_gamma   90.06141267
_symmetry_Int_Tables_number   1
_chemical_formula_structural   V85Zn86O256
_chemical_formula_sum   'V85 Zn86 O256'
_cell_volume   4856.37179168
_cell_formula_units_Z   1
loop_
 _symmetry_equiv_pos_site_id
 _symmetry_equiv_pos_as_xyz
  1  'x, y, z'
loop_
 _atom_site_type_symbol
 _atom_site_label
 _atom_site_symmetry_multiplicity
 _atom_site_fract_x
 _atom_site_fract_y
 _atom_site_fract_z
 _atom_site_occupancy
  V  V0  1  0.75778328  0.25315777  -0.00393136  1
  V  V1  1  0.62694258  0.12710566  0.00519740  1
  V  V2  1  0.37112365  0.37980504  0.49541831  1
  V  V3  1  0.37779731  0.50030270  0.87332161  1
  V  V4  1  0.00192931  -0.00355921  -0.00020305  1
  V  V5  1  -0.00138187  0.74776095  0.24672841  1
  V  V6  1  0.49981955  -0.00205059  0.49920518  1
  V  V7  1  0.86791155  0.62727168  0.75672624  1
  V  V8  1  0.12778009  0.12395744  0.00145271  1
  V  V9  1  0.50938908  0.50231447  -0.00402159  1
  V  V10  1  0.74901433  0.89501000  0.12801721  1
  V  V11  1  0.86144192  0.74760226  0.12360804  1
  V  V12  1  0.25069183  0.50299085  0.74951399  1
  V  V13  1  0.62711370  0.11980315  0.50007777  1
  V  V14  1  0.13222333  0.37487461  0.25519740  1
  V  V15  1  0.12307232  0.62402137  0.00218899  1
  V  V16  1  0.75191608  0.25064861  0.51450864  1
  V  V17  1  -0.00077508  0.12679717  0.12765010  1
  V  V18  1  0.37762508  -0.00106495  0.87320121  1
  V  V19  1  0.75652528  0.76233090  0.49559025  1
  V  V20  1  0.49884669  0.87438704  0.37147052  1
  V  V21  1  0.37896248  0.37519525  0.00107458  1
  V  V22  1  0.24982238  0.12236321  0.86826268  1
  V  V23  1  0.36907635  0.00351227  0.36374069  1
  V  V24  1  0.49983804  0.24880025  0.25393249  1
  V  V25  1  0.73958957  0.48991423  0.25149893  1
  V  V26  1  0.25200876  0.25029350  0.00313135  1
  V  V27  1  0.86654452  0.49500209  0.88061839  1
  V  V28  1  0.12320073  0.25062290  0.87499042  1
  V  V29  1  0.61701010  0.25097409  0.86941494  1
  V  V30  1  0.36833828  0.87954054  0.50269002  1
  V  V31  1  0.00427372  0.75664322  0.75026078  1
  V  V32  1  0.87015416  0.37161522  0.51651411  1
  V  V33  1  0.69148450  0.68658474  0.93165525  1
  V  V34  1  0.25053258  0.37251660  0.62492364  1
  V  V35  1  0.25232560  0.62684140  0.87577974  1
  V  V36  1  0.12782168  0.87528724  0.25002063  1
  V  V37  1  0.74912223  0.12354749  0.36450773  1
  V  V38  1  0.50074147  0.12131970  0.13192801  1
  V  V39  1  -0.00546869  -0.00401687  0.50046536  1
  V  V40  1  0.62308893  0.37433212  0.73702756  1
  V  V41  1  0.62796364  0.25683039  0.37367557  1
  V  V42  1  0.87262828  0.49431890  0.37568475  1
  V  V43  1  0.37520787  0.24556146  0.13140793  1
  V  V44  1  0.50739091  -0.00062246  0.00429888  1
  V  V45  1  0.25652788  0.74784279  0.00820972  1
  V  V46  1  -0.00333766  0.12892149  0.62873489  1
  V  V47  1  -0.00684611  0.87398743  0.37603628  1
  V  V48  1  0.25728458  0.87509264  0.13398927  1
  V  V49  1  0.12794333  0.75893801  0.87291454  1
  V  V50  1  0.62659715  -0.00863016  0.63764342  1
  V  V51  1  0.75276433  0.37555470  0.11971597  1
  V  V52  1  0.75672954  0.87894825  0.63684892  1
  V  V53  1  -0.00168264  0.36293728  0.37543117  1
  V  V54  1  0.37421890  0.75628677  0.62661628  1
  V  V55  1  0.25306476  0.12553227  0.36492717  1
  V  V56  1  -0.00439411  0.49798600  0.50095010  1
  V  V57  1  0.25572005  0.61285941  0.37257424  1
  V  V58  1  0.12303611  0.62425390  0.50076667  1
  V  V59  1  0.12976473  -0.01153937  0.63063412  1
  V  V60  1  0.87274387  0.62084169  0.24904969  1
  V  V61  1  -0.00000548  0.62582726  0.62857971  1
  V  V62  1  0.12439038  0.12463424  0.49642982  1
  V  V63  1  0.62366255  0.50137585  0.12428007  1
  V  V64  1  0.12477079  0.74879038  0.37448833  1
  V  V65  1  0.62571184  0.62630457  0.49844447  1
  V  V66  1  0.12336356  0.50099579  0.62746757  1
  V  V67  1  0.13337113  0.00063491  0.13101666  1
  V  V68  1  0.00030648  0.49074592  0.00087953  1
  V  V69  1  0.62877068  0.89043606  0.24724681  1
  V  V70  1  0.49940306  0.63678684  0.11822246  1
  V  V71  1  0.51158547  0.75350061  0.75086602  1
  V  V72  1  0.87273317  0.87103405  -0.00008344  1
  V  V73  1  0.49614558  0.50253592  0.49808921  1
  V  V74  1  0.51482167  0.87237173  0.87184125  1
  V  V75  1  0.24759118  0.75419764  0.50339845  1
  V  V76  1  0.87140924  -0.00108339  0.36746241  1
  V  V77  1  0.62420521  0.74964317  0.36643938  1
  V  V78  1  0.86876434  0.00210428  0.86686419  1
  V  V79  1  0.37619486  0.62580827  0.74702787  1
  V  V80  1  0.38165491  0.86938977  0.00526598  1
  V  V81  1  0.24367960  0.24859057  0.49766715  1
  V  V82  1  0.12323245  0.37503050  0.75234927  1
  V  V83  1  0.74775175  0.62342526  0.37424711  1
  V  V84  1  0.49677685  0.37711183  0.36989072  1
  Zn  Zn85  1  0.63274612  0.49727983  0.62016641  1
  Zn  Zn86  1  0.36674214  0.62144217  0.24174895  1
  Zn  Zn87  1  0.49953814  0.12715034  0.63340278  1
  Zn  Zn88  1  0.49435841  0.36933857  0.86404632  1
  Zn  Zn89  1  -0.00630544  0.37169199  0.87858087  1
  Zn  Zn90  1  0.87757585  0.25613139  0.12387104  1
  Zn  Zn91  1  -0.00185728  0.24738096  0.25504451  1
  Zn  Zn92  1  0.85484321  0.13305965  0.73406633  1
  Zn  Zn93  1  0.13439960  0.50308732  0.13318133  1
  Zn  Zn94  1  0.00328364  0.87782469  0.86954112  1
  Zn  Zn95  1  0.24972192  -0.01542413  0.74844062  1
  Zn  Zn96  1  -0.00180220  0.62323407  0.12362839  1
  Zn  Zn97  1  0.25369482  0.38312936  0.13324568  1
  Zn  Zn98  1  0.49061992  0.75399916  0.23998912  1
  Zn  Zn99  1  0.74561076  0.12099041  0.86870185  1
  Zn  Zn100  1  0.87856995  0.75525093  0.62108003  1
  Zn  Zn101  1  0.50117213  0.62561080  0.62336148  1
  Zn  Zn102  1  0.86969306  0.12522438  0.24389329  1
  Zn  Zn103  1  0.38526159  0.13470726  0.75246136  1
  Zn  Zn104  1  0.38103320  0.24721516  0.63004007  1
  Zn  Zn105  1  0.75059606  0.49547219  0.74432021  1
  Zn  Zn106  1  -0.00887312  0.25364507  0.74592771  1
  Zn  Zn107  1  0.18262859  0.19613203  0.19114925  1
  Zn  Zn108  1  0.18704557  0.18539364  0.68586760  1
  Zn  Zn109  1  0.18981075  0.68598272  0.18855445  1
  Zn  Zn110  1  0.18869703  0.80955331  0.68971167  1
  Zn  Zn111  1  0.68383452  0.19298983  0.18605299  1
  Zn  Zn112  1  0.67937748  0.18062989  0.69246439  1
  Zn  Zn113  1  0.68189753  0.68104996  0.18471291  1
  Zn  Zn114  1  0.69060492  0.68943903  0.68233952  1
  Zn  Zn115  1  0.31346683  0.30655363  0.31690202  1
  Zn  Zn116  1  0.31103855  0.31213411  0.81316688  1
  Zn  Zn117  1  0.31640241  0.80370060  0.31488249  1
  Zn  Zn118  1  0.32148031  0.81202651  0.81958804  1
  Zn  Zn119  1  0.81533481  0.30935052  0.31073951  1
  Zn  Zn120  1  0.80745337  0.30946507  0.80780865  1
  Zn  Zn121  1  0.81108696  0.81393583  0.30706602  1
  Zn  Zn122  1  0.81648342  0.81191376  0.81329374  1
  Zn  Zn123  1  0.18061318  0.43520565  0.43655079  1
  Zn  Zn124  1  0.19002139  0.43774847  0.94137110  1
  Zn  Zn125  1  0.18463156  0.94048805  0.43716439  1
  Zn  Zn126  1  0.19269071  0.93581704  0.94277919  1
  Zn  Zn127  1  0.68637266  0.43565445  0.44180214  1
  Zn  Zn128  1  0.68800540  0.43276951  0.93234341  1
  Zn  Zn129  1  0.68798554  0.93747070  0.43328655  1
  Zn  Zn130  1  0.69023562  0.93376584  0.94299909  1
  Zn  Zn131  1  0.31648877  0.06123078  0.06161485  1
  Zn  Zn132  1  0.31176582  0.06459281  0.56405513  1
  Zn  Zn133  1  0.31604013  0.55974618  0.06378122  1
  Zn  Zn134  1  0.31185131  0.56459333  0.56097879  1
  Zn  Zn135  1  0.81622215  0.06539895  0.05465850  1
  Zn  Zn136  1  0.81201670  0.05772914  0.55683725  1
  Zn  Zn137  1  0.80969102  0.56263377  0.05926197  1
  Zn  Zn138  1  0.81072872  0.56459194  0.56587075  1
  Zn  Zn139  1  0.43041676  0.44126755  0.18573586  1
  Zn  Zn140  1  0.44225121  0.43502710  0.68206595  1
  Zn  Zn141  1  0.44035006  0.93757566  0.18815757  1
  Zn  Zn142  1  0.43911929  0.94084950  0.68952815  1
  Zn  Zn143  1  0.93874706  0.43752749  0.18740659  1
  Zn  Zn144  1  0.93622540  0.43989917  0.69426646  1
  Zn  Zn145  1  0.93939694  0.93851082  0.18747279  1
  Zn  Zn146  1  0.93731935  0.93851400  0.68533422  1
  Zn  Zn147  1  0.06494038  0.06204237  0.31238438  1
  Zn  Zn148  1  0.06156078  0.06017659  0.81130998  1
  Zn  Zn149  1  0.06158166  0.55848901  0.31441782  1
  Zn  Zn150  1  0.05944627  0.56572152  0.81739434  1
  Zn  Zn151  1  0.55878627  0.06529447  0.31632358  1
  Zn  Zn152  1  0.56484420  0.06238197  0.81541219  1
  Zn  Zn153  1  0.52636007  0.54376283  0.28986933  1
  Zn  Zn154  1  0.56557403  0.56196920  0.81090781  1
  Zn  Zn155  1  0.43958088  0.19308071  0.45821966  1
  Zn  Zn156  1  0.43777057  0.18466103  0.94004081  1
  Zn  Zn157  1  0.43657800  0.69011399  0.43421613  1
  Zn  Zn158  1  0.44624247  0.68779944  0.93678589  1
  Zn  Zn159  1  0.93095145  0.18356115  0.44268884  1
  Zn  Zn160  1  0.93848250  0.18499662  0.93652847  1
  Zn  Zn161  1  0.93483950  0.68550056  0.43583639  1
  Zn  Zn162  1  0.93626283  0.68647940  0.93658805  1
  Zn  Zn163  1  0.06789460  0.31415805  0.06823063  1
  Zn  Zn164  1  0.06269398  0.31135047  0.56060184  1
  Zn  Zn165  1  0.06376276  0.81037093  0.06416038  1
  Zn  Zn166  1  0.05735513  0.81246917  0.55863458  1
  Zn  Zn167  1  0.56658063  0.31495013  0.06429347  1
  Zn  Zn168  1  0.56047675  0.31032169  0.55816445  1
  Zn  Zn169  1  0.57753006  0.81383192  0.05672830  1
  Zn  Zn170  1  0.56403904  0.81282125  0.56134811  1
  O  O171  1  0.12374117  0.11802337  0.12073866  1
  O  O172  1  0.11655187  0.11485274  0.61470022  1
  O  O173  1  0.12369583  0.62569594  0.11344016  1
  O  O174  1  0.11081458  0.61756881  0.61777252  1
  O  O175  1  0.61551403  0.13153718  0.11382142  1
  O  O176  1  0.62515598  0.10932148  0.61209930  1
  O  O177  1  0.62035252  0.61025381  0.11642217  1
  O  O178  1  0.62220682  0.63179429  0.60753639  1
  O  O179  1  0.38121993  0.37126984  0.38682673  1
  O  O180  1  0.37544487  0.38116787  0.88307729  1
  O  O181  1  0.37756096  0.88147234  0.38482766  1
  O  O182  1  0.38380892  0.88238873  0.89048671  1
  O  O183  1  0.87946936  0.37961273  0.38294562  1
  O  O184  1  0.87695267  0.39133025  0.86910477  1
  O  O185  1  0.88554922  0.88037873  0.36754479  1
  O  O186  1  0.87982101  0.88309426  0.88410568  1
  O  O187  1  0.25659548  0.01270160  0.38139428  1
  O  O188  1  0.25830512  0.00670052  0.87945533  1
  O  O189  1  0.24330228  0.51506488  0.38391853  1
  O  O190  1  0.25757327  0.50659160  0.87067869  1
  O  O191  1  0.75985000  0.00950463  0.38086231  1
  O  O192  1  0.76619861  -0.00331966  0.88240524  1
  O  O193  1  0.75147496  0.50120313  0.36884884  1
  O  O194  1  0.76346387  0.49874335  0.87277877  1
  O  O195  1  0.25013041  0.49711995  0.12567296  1
  O  O196  1  0.24361284  0.49519619  0.63043460  1
  O  O197  1  0.24463991  0.98963490  0.11938728  1
  O  O198  1  0.23245231  1.00116812  0.62339849  1
  O  O199  1  0.74383144  0.49593569  0.13109472  1
  O  O200  1  0.74622517  0.50230648  0.62932711  1
  O  O201  1  0.75614704  0.99320258  0.12537238  1
  O  O202  1  0.74038408  0.98702133  0.61578433  1
  O  O203  1  0.00065169  0.37268645  0.26183868  1
  O  O204  1  0.01304012  0.37391147  0.75304838  1
  O  O205  1  0.00611802  0.86811676  0.25542576  1
  O  O206  1  -0.00285293  0.86139824  0.74888838  1
  O  O207  1  0.49583025  0.36718924  0.26470905  1
  O  O208  1  0.51365288  0.37537501  0.74931945  1
  O  O209  1  0.51008832  0.87104850  0.25213256  1
  O  O210  1  0.49343312  0.86637756  0.76031521  1
  O  O211  1  0.50286005  0.13098982  0.23978750  1
  O  O212  1  0.49941352  0.11838917  0.74682520  1
  O  O213  1  0.51917344  0.63842967  0.22456325  1
  O  O214  1  0.48977211  0.63112469  0.74782551  1
  O  O215  1  1.00343586  0.12615909  0.23999196  1
  O  O216  1  1.00415361  0.12413004  0.73347371  1
  O  O217  1  0.99181470  0.63050214  0.25067234  1
  O  O218  1  0.99645274  0.63365654  0.74352793  1
  O  O219  1  0.37262010  0.25683595  0.00700776  1
  O  O220  1  0.35514254  0.26030438  0.49947239  1
  O  O221  1  0.36889530  0.75792394  -0.00444428  1
  O  O222  1  0.36822445  0.75843962  0.50556747  1
  O  O223  1  0.86169085  0.24463435  0.00000754  1
  O  O224  1  0.85966319  0.25498842  0.50011664  1
  O  O225  1  0.88580026  0.76342940  0.00927052  1
  O  O226  1  0.86017004  0.74540764  0.49999659  1
  O  O227  1  0.13379134  0.24129437  0.50148173  1
  O  O228  1  0.13279294  0.24562905  0.99523446  1
  O  O229  1  0.13069632  0.74557625  0.49662645  1
  O  O230  1  0.13324029  0.74329980  0.99590872  1
  O  O231  1  0.63567653  0.24078330  0.49252223  1
  O  O232  1  0.63050050  0.24455277  0.99345627  1
  O  O233  1  0.63378019  0.74800109  0.48830129  1
  O  O234  1  0.62985281  0.74893366  0.98433993  1
  O  O235  1  0.49631883  0.24598423  0.13462821  1
  O  O236  1  0.48726966  0.23126642  0.58150126  1
  O  O237  1  0.50840992  0.73960978  0.11394347  1
  O  O238  1  0.48815183  0.75127278  0.62780410  1
  O  O239  1  0.99978937  0.23564068  0.11782919  1
  O  O240  1  1.00531758  0.23231271  0.62343532  1
  O  O241  1  0.99152428  0.74962609  0.13439777  1
  O  O242  1  1.00012027  0.74310909  0.63064982  1
  O  O243  1  -0.00695617  0.26002573  0.38095480  1
  O  O244  1  0.01381920  0.25073573  0.87880348  1
  O  O245  1  0.00263162  0.75586645  0.36848846  1
  O  O246  1  0.01020304  0.75103106  0.86784229  1
  O  O247  1  0.50465128  0.25304216  0.37287692  1
  O  O248  1  0.51356345  0.24992991  0.88361499  1
  O  O249  1  0.50973662  0.75764418  0.37475723  1
  O  O250  1  0.49435194  0.76070795  0.86343175  1
  O  O251  1  0.24132221  0.13179893  0.49671789  1
  O  O252  1  0.24609873  0.12968513  0.99222059  1
  O  O253  1  0.24073473  0.63320742  0.49651092  1
  O  O254  1  0.24701902  0.63186638  0.99623777  1
  O  O255  1  0.74480943  0.13224076  0.49209115  1
  O  O256  1  0.74096937  0.13209023  0.99765518  1
  O  O257  1  0.74387162  0.63545615  0.49305244  1
  O  O258  1  0.74801663  0.63146497  0.99711329  1
  O  O259  1  0.26317058  0.36810033  0.00101573  1
  O  O260  1  0.25194476  0.37048639  0.50173622  1
  O  O261  1  0.26119406  0.86713046  0.00974986  1
  O  O262  1  0.25699406  0.86771068  0.49378262  1
  O  O263  1  0.74659390  0.36549036  0.00653736  1
  O  O264  1  0.75527953  0.35944853  0.49811506  1
  O  O265  1  0.75994488  0.87769477  0.01608450  1
  O  O266  1  0.74920604  0.86408552  0.49909355  1
  O  O267  1  0.11561479  0.48214132  0.25012558  1
  O  O268  1  0.12889611  0.49564606  0.74805044  1
  O  O269  1  0.12278055  0.99241189  0.23766964  1
  O  O270  1  0.12482888  0.99973745  0.73409271  1
  O  O271  1  0.62995389  0.50334760  0.24030985  1
  O  O272  1  0.62447248  0.48682290  0.74496618  1
  O  O273  1  0.62137479  0.98949537  0.25688654  1
  O  O274  1  0.62287849  0.99513316  0.73557640  1
  O  O275  1  0.37683581  -0.00412686  0.26463841  1
  O  O276  1  0.37171321  -0.00242611  0.76566995  1
  O  O277  1  0.41457445  0.51944673  0.26096071  1
  O  O278  1  0.37362973  0.50596999  0.75184434  1
  O  O279  1  0.88236204  0.00454940  0.26321537  1
  O  O280  1  0.88272566  0.00142039  0.76554490  1
  O  O281  1  0.86599154  0.50402894  0.25645699  1
  O  O282  1  0.87542110  0.50919789  0.76216162  1
  O  O283  1  0.11150132  0.37674752  0.36747214  1
  O  O284  1  0.12770275  0.36651306  0.86879367  1
  O  O285  1  0.11671145  0.86994043  0.36891566  1
  O  O286  1  0.12364518  0.86243637  0.88601799  1
  O  O287  1  0.61548967  0.36161223  0.38368793  1
  O  O288  1  0.61777200  0.36207920  0.87042603  1
  O  O289  1  0.62115650  0.86928759  0.36610895  1
  O  O290  1  0.61382296  0.88183246  0.87681671  1
  O  O291  1  0.38436416  0.13797077  0.11891537  1
  O  O292  1  0.37774071  0.12290697  0.63117272  1
  O  O293  1  0.39584328  0.62317183  0.12080542  1
  O  O294  1  0.37591304  0.63529008  0.63107895  1
  O  O295  1  0.88665476  0.12297658  0.12469092  1
  O  O296  1  0.89216819  0.11309572  0.62189074  1
  O  O297  1  0.87485838  0.63194108  0.13048305  1
  O  O298  1  0.88813119  0.62820024  0.63070597  1
  O  O299  1  0.25976249  0.25230606  0.12207869  1
  O  O300  1  0.24472369  0.25852439  0.61626016  1
  O  O301  1  0.24716317  0.75705879  0.11455400  1
  O  O302  1  0.25975797  0.75211275  0.61276793  1
  O  O303  1  0.74774357  0.25909359  0.11594357  1
  O  O304  1  0.74237302  0.24191438  0.61197864  1
  O  O305  1  0.76013605  0.75380530  0.13231227  1
  O  O306  1  0.75066844  0.76436612  0.61281583  1
  O  O307  1  0.24983596  0.23457661  0.38235904  1
  O  O308  1  0.24011028  0.24176035  0.88144552  1
  O  O309  1  0.24184375  0.74432748  0.38775125  1
  O  O310  1  0.24617000  0.74479253  0.88686699  1
  O  O311  1  0.74190708  0.24327468  0.37876846  1
  O  O312  1  0.73526027  0.24895166  0.88336456  1
  O  O313  1  0.74578283  0.74807642  0.38063245  1
  O  O314  1  0.75561115  0.74474835  0.87690374  1
  O  O315  1  0.00775945  0.11283730  0.00546571  1
  O  O316  1  0.00589669  0.11755272  0.50583441  1
  O  O317  1  0.01002972  0.61880199  0.00004040  1
  O  O318  1  0.00232808  0.62034606  0.50618269  1
  O  O319  1  0.50558951  0.11805782  0.00950931  1
  O  O320  1  0.51021745  0.10650086  0.49106074  1
  O  O321  1  0.50075626  0.61421376  0.00564245  1
  O  O322  1  0.50661564  0.61937363  0.49612688  1
  O  O323  1  0.49023442  0.38181291  0.49190723  1
  O  O324  1  0.48936864  0.37984607  0.99997779  1
  O  O325  1  0.49457150  0.88257603  0.49257101  1
  O  O326  1  0.49833949  0.88145741  0.99809769  1
  O  O327  1  0.99196557  0.37802501  0.49571604  1
  O  O328  1  1.00724153  0.38690985  0.99950455  1
  O  O329  1  1.00146853  0.88158675  0.48744411  1
  O  O330  1  0.99562324  0.88557848  1.00426032  1
  O  O331  1  0.51154580  0.48757314  0.38950212  1
  O  O332  1  0.49361322  0.49778752  0.88023244  1
  O  O333  1  0.49111632  0.99354696  0.38068799  1
  O  O334  1  0.49426210  0.99357838  0.88394617  1
  O  O335  1  0.99062521  0.49262054  0.38415876  1
  O  O336  1  0.99374048  0.49732706  0.88442143  1
  O  O337  1  0.99694550  0.99211943  0.38079002  1
  O  O338  1  0.99598803  0.99698623  0.88374010  1
  O  O339  1  0.00898249  0.00693072  0.11913723  1
  O  O340  1  0.00883432  0.00309680  0.61746994  1
  O  O341  1  0.00073365  0.50359380  0.11421615  1
  O  O342  1  0.00205187  0.50685968  0.62157388  1
  O  O343  1  0.49502457  0.01059247  0.11772893  1
  O  O344  1  0.51334121  -0.00545079  0.61559445  1
  O  O345  1  0.50809811  0.50397638  0.11408145  1
  O  O346  1  0.50638850  0.50347734  0.60999929  1
  O  O347  1  0.23630420  0.36954875  0.25831687  1
  O  O348  1  0.23907501  0.38326401  0.74695746  1
  O  O349  1  0.24825036  0.86700708  0.23905348  1
  O  O350  1  0.25226702  0.87157126  0.75648719  1
  O  O351  1  0.75036901  0.38586695  0.24647923  1
  O  O352  1  0.72819669  0.37554690  0.75736722  1
  O  O353  1  0.74516513  0.87756276  0.23703028  1
  O  O354  1  0.75353270  0.87180597  0.73516728  1
  O  O355  1  0.24215155  0.12954793  0.26625830  1
  O  O356  1  0.24567523  0.11851683  0.76329270  1
  O  O357  1  0.24740972  0.62600865  0.26716156  1
  O  O358  1  0.26557720  0.61940354  0.75756073  1
  O  O359  1  0.74555158  0.12882917  0.26113367  1
  O  O360  1  0.74558709  0.11801044  0.75487803  1
  O  O361  1  0.75280857  0.61454105  0.25564365  1
  O  O362  1  0.76611652  0.62807753  0.74180594  1
  O  O363  1  0.36085334  0.11792681  0.38339853  1
  O  O364  1  0.36663612  0.11646182  0.87751659  1
  O  O365  1  0.35620631  0.62588458  0.38501353  1
  O  O366  1  0.37347877  0.62004465  0.86803540  1
  O  O367  1  0.86513119  0.11789234  0.37278798  1
  O  O368  1  0.87418552  0.10685363  0.88228488  1
  O  O369  1  0.86715445  0.61548532  0.36995850  1
  O  O370  1  0.88345778  0.61361135  0.86500647  1
  O  O371  1  0.12980917  0.37805090  0.13996620  1
  O  O372  1  0.12869352  0.38053132  0.63253489  1
  O  O373  1  0.13554509  0.88100746  0.12907037  1
  O  O374  1  0.12324945  0.88381119  0.62202125  1
  O  O375  1  0.63639445  0.38800407  0.12254272  1
  O  O376  1  0.62178908  0.37002346  0.63368583  1
  O  O377  1  0.64117927  0.87600991  0.13076346  1
  O  O378  1  0.63608359  0.88548749  0.61777510  1
  O  O379  1  0.11420657  0.26704672  0.24875321  1
  O  O380  1  0.12407207  0.25756177  0.75817809  1
  O  O381  1  0.11824233  0.75459083  0.25436144  1
  O  O382  1  0.11941042  0.74691472  0.76110143  1
  O  O383  1  0.61119563  0.24730103  0.26022293  1
  O  O384  1  0.62337799  0.25641958  0.76192358  1
  O  O385  1  0.62991288  0.75752420  0.26006327  1
  O  O386  1  0.60998803  0.74743851  0.73840895  1
  O  O387  1  0.38687576  0.25211268  0.24375300  1
  O  O388  1  0.36510156  0.24825733  0.74330805  1
  O  O389  1  0.37993722  0.73591046  0.25559218  1
  O  O390  1  0.37955933  0.74312887  0.74126088  1
  O  O391  1  0.87976105  0.24401237  0.24332485  1
  O  O392  1  0.88093808  0.24069776  0.76266408  1
  O  O393  1  0.87910829  0.74259293  0.24337876  1
  O  O394  1  0.88601883  0.74273276  0.74794785  1
  O  O395  1  0.38242158  0.49288292  0.50289605  1
  O  O396  1  0.38460566  0.49206367  0.99348346  1
  O  O397  1  0.38134097  0.99396019  0.49573200  1
  O  O398  1  0.38640884  0.99424369  0.99278274  1
  O  O399  1  0.87629359  0.49170027  0.49511953  1
  O  O400  1  0.88375522  0.50635047  0.98749981  1
  O  O401  1  0.88849562  1.00350249  0.48709655  1
  O  O402  1  0.88498941  0.98925371  0.99574820  1
  O  O403  1  0.12050648  0.00180334  0.01042767  1
  O  O404  1  0.11454427  0.00395836  0.50804939  1
  O  O405  1  0.11832013  0.50880075  -0.00097875  1
  O  O406  1  0.11508305  0.50311909  0.50746678  1
  O  O407  1  0.61457942  0.00873893  -0.00323165  1
  O  O408  1  0.61846541  0.00423837  0.49875588  1
  O  O409  1  0.61350571  0.49040721  0.00157958  1
  O  O410  1  0.62047222  0.51081644  0.49956594  1
  O  O411  1  0.37658253  0.36461197  0.11948861  1
  O  O412  1  0.36752127  0.37501509  0.61255514  1
  O  O413  1  0.37117844  0.87986063  0.11466641  1
  O  O414  1  0.37943747  0.87144375  0.61182761  1
  O  O415  1  0.85873589  0.37693848  0.12824321  1
  O  O416  1  0.88167940  0.37637954  0.61544904  1
  O  O417  1  0.86621248  0.87094718  0.12250551  1
  O  O418  1  0.86196480  0.87673796  0.62221230  1
  O  O419  1  0.13464742  0.11489115  0.38906856  1
  O  O420  1  0.13036589  0.12892470  0.88084474  1
  O  O421  1  0.12801209  0.63076957  0.38210745  1
  O  O422  1  0.13163287  0.63388974  0.88559979  1
  O  O423  1  0.63020530  0.13106908  0.38413779  1
  O  O424  1  0.62368215  0.13391308  0.88758815  1
  O  O425  1  0.63071688  0.63509325  0.38280662  1
  O  O426  1  0.63421604  0.62678546  0.87068982  1
