# generated using pymatgen
data_V85Zn86O256
_symmetry_space_group_name_H-M   'P 1'
_cell_length_a   16.92048250
_cell_length_b   16.91577019
_cell_length_c   16.92563447
_cell_angle_alpha   90.01915427
_cell_angle_beta   89.95634724
_cell_angle_gamma   90.02018181
_symmetry_Int_Tables_number   1
_chemical_formula_structural   V85Zn86O256
_chemical_formula_sum   'V85 Zn86 O256'
_cell_volume   4844.50378920
_cell_formula_units_Z   1
loop_
 _symmetry_equiv_pos_site_id
 _symmetry_equiv_pos_as_xyz
  1  'x, y, z'
loop_
 _atom_site_type_symbol
 _atom_site_label
 _atom_site_symmetry_multiplicity
 _atom_site_fract_x
 _atom_site_fract_y
 _atom_site_fract_z
 _atom_site_occupancy
  V  V0  1  0.11733699  0.25171045  0.36802191  1
  V  V1  1  -0.01429886  -0.00370767  0.00496343  1
  V  V2  1  0.37379827  0.37220328  -0.00187712  1
  V  V3  1  0.75637528  0.50767131  0.24857994  1
  V  V4  1  0.37035847  -0.00896459  0.87433539  1
  V  V5  1  0.00037883  0.37797860  0.87962633  1
  V  V6  1  0.00188628  0.62519733  0.62616225  1
  V  V7  1  0.62688195  -0.00049643  0.12488736  1
  V  V8  1  -0.00136143  -0.00741829  0.50302892  1
  V  V9  1  0.12885798  -0.00969181  0.12640295  1
  V  V10  1  0.37903226  0.23678702  0.62134518  1
  V  V11  1  0.12662790  0.75569366  0.86766686  1
  V  V12  1  0.87707639  0.50102136  0.88066231  1
  V  V13  1  0.37456139  0.62519277  0.24839585  1
  V  V14  1  0.62022714  0.12374124  0.50139030  1
  V  V15  1  0.50060104  0.74979018  0.24919537  1
  V  V16  1  0.86969139  -0.00481125  0.86161688  1
  V  V17  1  0.24191632  0.62515497  0.88125852  1
  V  V18  1  0.37537640  -0.00003609  0.37306874  1
  V  V19  1  0.24934886  0.12370436  0.37083353  1
  V  V20  1  0.24385791  0.49948515  0.24945800  1
  V  V21  1  0.50233610  0.37173455  0.87167351  1
  V  V22  1  0.50477683  -0.00763148  -0.00848029  1
  V  V23  1  0.62331283  0.37550799  0.24843473  1
  V  V24  1  0.00159303  0.87610089  0.87449224  1
  V  V25  1  0.74789225  0.50021014  0.73648419  1
  V  V26  1  0.37307672  0.76093369  0.12559933  1
  V  V27  1  0.75463470  0.75788288  0.50048757  1
  V  V28  1  0.12145637  0.12139721  -0.00041085  1
  V  V29  1  0.87779321  0.24995030  0.14085373  1
  V  V30  1  0.12495448  0.24569233  0.87580106  1
  V  V31  1  0.37527590  0.62572815  0.75169719  1
  V  V32  1  -0.01537037  0.74042717  0.25441272  1
  V  V33  1  0.75848751  0.12776568  0.37350742  1
  V  V34  1  0.61997395  0.00530924  0.63342475  1
  V  V35  1  0.12466378  0.62643675  0.49614046  1
  V  V36  1  -0.00303944  0.12886927  0.13835643  1
  V  V37  1  0.37400971  0.49745554  0.38158453  1
  V  V38  1  0.37834399  0.75187832  0.62658295  1
  V  V39  1  0.37470280  0.87511567  0.50170179  1
  V  V40  1  0.49565983  0.37585053  0.37812321  1
  V  V41  1  0.75004033  0.62620920  0.87521937  1
  V  V42  1  0.24072636  0.75537591  0.00733688  1
  V  V43  1  0.75150096  0.88356903  0.63288731  1
  V  V44  1  0.76831544  0.75362734  0.00347661  1
  V  V45  1  0.86689514  0.25377990  0.62750409  1
  V  V46  1  0.62829951  0.37932770  0.73665134  1
  V  V47  1  0.87330718  0.36467729  -0.00170952  1
  V  V48  1  0.87571836  -0.00878521  0.38136911  1
  V  V49  1  0.62467902  0.62050118  0.50741276  1
  V  V50  1  -0.01048889  0.62787967  0.11425769  1
  V  V51  1  0.62452072  0.63054889  -0.00042065  1
  V  V52  1  0.86409862  0.37800309  0.50305964  1
  V  V53  1  0.25029073  0.24150540  -0.00426116  1
  V  V54  1  0.62615802  0.75008676  0.37791434  1
  V  V55  1  0.74898139  0.36819652  0.11849337  1
  V  V56  1  0.24736805  0.37277738  0.12371204  1
  V  V57  1  0.12250896  0.12095884  0.50333819  1
  V  V58  1  0.23749860  0.88357491  0.63271960  1
  V  V59  1  0.76115090  0.00461416  0.24851871  1
  V  V60  1  0.87710475  0.75846018  0.62284622  1
  V  V61  1  0.76813976  0.87316503  0.12266225  1
  V  V62  1  0.25304129  0.25295458  0.49994635  1
  V  V63  1  0.12508026  0.36878833  0.74697532  1
  V  V64  1  0.63367812  0.12594801  -0.00121396  1
  V  V65  1  0.12919500  0.86223844  0.25574315  1
  V  V66  1  0.37375875  0.49956267  0.87541240  1
  V  V67  1  0.00073162  0.49428783  0.49861091  1
  V  V68  1  0.75971377  0.12824863  0.86377475  1
  V  V69  1  0.50336352  0.75857907  0.75957450  1
  V  V70  1  0.63085939  0.25132390  0.87802168  1
  V  V71  1  0.62323105  0.50032209  0.12328230  1
  V  V72  1  0.62989069  0.87554845  0.24977383  1
  V  V73  1  -0.00761403  0.24504518  0.75036221  1
  V  V74  1  0.12127007  0.51001423  0.10802241  1
  V  V75  1  0.50134244  0.87607541  0.37772383  1
  V  V76  1  0.37564564  0.12624610  0.76231071  1
  V  V77  1  0.24827967  0.62713608  0.37656310  1
  V  V78  1  0.25733795  0.37030568  0.62313989  1
  V  V79  1  0.49983461  0.50088296  -0.00105523  1
  V  V80  1  0.24860319  0.49843226  0.74996919  1
  V  V81  1  0.87652209  0.62571030  0.74913748  1
  V  V82  1  -0.00746165  0.12221069  0.62586725  1
  V  V83  1  0.62542189  0.24803290  0.37361162  1
  V  V84  1  0.24607953  0.75200786  0.49844340  1
  Zn  Zn85  1  0.37807900  0.12482288  0.24631875  1
  Zn  Zn86  1  0.00557737  0.75931168  0.74668837  1
  Zn  Zn87  1  0.74643889  0.25371867  0.50597478  1
  Zn  Zn88  1  0.37495556  0.24384494  0.12606172  1
  Zn  Zn89  1  0.87987746  0.50320613  0.36938336  1
  Zn  Zn90  1  0.49638265  0.24631405  0.24531041  1
  Zn  Zn91  1  0.49831633  0.00468627  0.50386784  1
  Zn  Zn92  1  0.49725338  0.62572697  0.12376441  1
  Zn  Zn93  1  -0.00840074  0.36910668  0.36716172  1
  Zn  Zn94  1  0.11596364  0.37197014  0.24362247  1
  Zn  Zn95  1  0.50581822  0.61990085  0.63203805  1
  Zn  Zn96  1  0.37712736  0.87346247  -0.00050291  1
  Zn  Zn97  1  0.23556463  0.00000356  0.75946749  1
  Zn  Zn98  1  0.25091903  -0.00749679  0.24430627  1
  Zn  Zn99  1  0.50551165  0.24339241  0.74243799  1
  Zn  Zn100  1  0.12742166  0.49674533  0.62467419  1
  Zn  Zn101  1  0.00110081  0.86478189  0.37951098  1
  Zn  Zn102  1  0.49735886  0.12545899  0.12400799  1
  Zn  Zn103  1  0.62325313  0.76100482  0.88138431  1
  Zn  Zn104  1  0.75538709  0.63010194  0.36959459  1
  Zn  Zn105  1  0.50065968  0.49599229  0.50828465  1
  Zn  Zn106  1  0.62699048  0.88561313  0.76031956  1
  Zn  Zn107  1  0.18788006  0.18308577  0.18599526  1
  Zn  Zn108  1  0.16827272  0.15052597  0.70654802  1
  Zn  Zn109  1  0.18471743  0.68682284  0.18666879  1
  Zn  Zn110  1  0.18996451  0.68867860  0.68550455  1
  Zn  Zn111  1  0.68880962  0.18757501  0.18822010  1
  Zn  Zn112  1  0.68592996  0.18598078  0.69033383  1
  Zn  Zn113  1  0.68871530  0.68953761  0.18193082  1
  Zn  Zn114  1  0.68960751  0.69090093  0.68802642  1
  Zn  Zn115  1  0.31024358  0.31158383  0.30966597  1
  Zn  Zn116  1  0.31192588  0.30692741  0.81064290  1
  Zn  Zn117  1  0.30996335  0.81312732  0.31324505  1
  Zn  Zn118  1  0.31090585  0.81469671  0.81203415  1
  Zn  Zn119  1  0.80962893  0.32035313  0.31474759  1
  Zn  Zn120  1  0.80897106  0.31439807  0.81001086  1
  Zn  Zn121  1  0.81430124  0.81332222  0.31121327  1
  Zn  Zn122  1  0.81362303  0.81213866  0.81334381  1
  Zn  Zn123  1  0.18624191  0.43546280  0.43869129  1
  Zn  Zn124  1  0.18713410  0.43290140  0.93583229  1
  Zn  Zn125  1  0.18543222  0.93713337  0.43681328  1
  Zn  Zn126  1  0.18617537  0.93567609  0.94075321  1
  Zn  Zn127  1  0.68710473  0.43846940  0.43476495  1
  Zn  Zn128  1  0.68989204  0.43998825  0.93395486  1
  Zn  Zn129  1  0.68961241  0.93910816  0.44243263  1
  Zn  Zn130  1  0.69367611  0.93611540  0.93635499  1
  Zn  Zn131  1  0.31252650  0.06020796  0.05927787  1
  Zn  Zn132  1  0.31157863  0.06384135  0.56042021  1
  Zn  Zn133  1  0.31031886  0.56632859  0.06276745  1
  Zn  Zn134  1  0.31485208  0.56232912  0.56613907  1
  Zn  Zn135  1  0.81306357  0.06858233  0.06238394  1
  Zn  Zn136  1  0.81035839  0.06455276  0.56145774  1
  Zn  Zn137  1  0.81256212  0.55825833  0.06037524  1
  Zn  Zn138  1  0.81547338  0.57071764  0.55453130  1
  Zn  Zn139  1  0.43430790  0.43605056  0.18836708  1
  Zn  Zn140  1  0.43836300  0.43506943  0.68650782  1
  Zn  Zn141  1  0.44224276  0.94044582  0.18832018  1
  Zn  Zn142  1  0.43689006  0.93998915  0.68907200  1
  Zn  Zn143  1  0.94163542  0.43838042  0.18401971  1
  Zn  Zn144  1  0.93651902  0.43666845  0.68801692  1
  Zn  Zn145  1  0.94564300  0.93616230  0.19427542  1
  Zn  Zn146  1  0.94179756  0.93784893  0.68891343  1
  Zn  Zn147  1  0.06444493  0.05700784  0.31466359  1
  Zn  Zn148  1  0.05572946  0.05981720  0.81542773  1
  Zn  Zn149  1  0.06067315  0.56401763  0.31169016  1
  Zn  Zn150  1  0.06466960  0.56129354  0.81232869  1
  Zn  Zn151  1  0.56442967  0.06304824  0.31100006  1
  Zn  Zn152  1  0.55829231  0.06623293  0.81351836  1
  Zn  Zn153  1  0.56390236  0.56393062  0.31421776  1
  Zn  Zn154  1  0.56379908  0.56438287  0.81159145  1
  Zn  Zn155  1  0.43771264  0.18829841  0.43387414  1
  Zn  Zn156  1  0.44305443  0.18341156  0.93944598  1
  Zn  Zn157  1  0.43784801  0.68621907  0.43797023  1
  Zn  Zn158  1  0.43299011  0.68777705  0.93854676  1
  Zn  Zn159  1  0.93497782  0.18663876  0.44153178  1
  Zn  Zn160  1  0.93724171  0.18614685  0.94219166  1
  Zn  Zn161  1  0.93450837  0.68410167  0.43543763  1
  Zn  Zn162  1  0.94392727  0.68578140  0.93710549  1
  Zn  Zn163  1  0.06103711  0.31273745  0.06351669  1
  Zn  Zn164  1  0.06272796  0.30848327  0.56096285  1
  Zn  Zn165  1  0.05644959  0.81036861  0.06367877  1
  Zn  Zn166  1  0.06446767  0.81158477  0.56156623  1
  Zn  Zn167  1  0.56189254  0.30934976  0.05930237  1
  Zn  Zn168  1  0.56048878  0.31173424  0.55910075  1
  Zn  Zn169  1  0.56499360  0.81509137  0.06443279  1
  Zn  Zn170  1  0.56350779  0.81526781  0.56773141  1
  O  O171  1  0.11374602  0.11985951  0.11823954  1
  O  O172  1  0.10831199  0.14061496  0.60781293  1
  O  O173  1  0.12421642  0.61259904  0.12348890  1
  O  O174  1  0.11905821  0.62388751  0.61659004  1
  O  O175  1  0.63158170  0.11415223  0.11678225  1
  O  O176  1  0.63085099  0.11430316  0.61763322  1
  O  O177  1  0.62135602  0.61920385  0.11576562  1
  O  O178  1  0.62518020  0.63178192  0.61071318  1
  O  O179  1  0.38377598  0.38448979  0.36601854  1
  O  O180  1  0.38247323  0.37765934  0.87794836  1
  O  O181  1  0.37874120  0.88071373  0.38144060  1
  O  O182  1  0.37699451  0.88725752  0.87510960  1
  O  O183  1  0.87482467  0.38225795  0.38607753  1
  O  O184  1  0.88003095  0.37920066  0.88021698  1
  O  O185  1  0.87729693  0.88721817  0.37435298  1
  O  O186  1  0.87858761  0.88857214  0.87406211  1
  O  O187  1  0.25749343  0.00675836  0.37514461  1
  O  O188  1  0.26478697  -0.00302335  0.87826500  1
  O  O189  1  0.25464792  0.50269105  0.36768853  1
  O  O190  1  0.25264695  0.50634524  0.87205329  1
  O  O191  1  0.75623781  0.00558869  0.36979539  1
  O  O192  1  0.76433676  0.00981197  0.87929462  1
  O  O193  1  0.74475177  0.50007922  0.35504224  1
  O  O194  1  0.75899151  0.50911553  0.86900691  1
  O  O195  1  0.24123059  0.49584553  0.12900841  1
  O  O196  1  0.25142362  0.48928812  0.63089592  1
  O  O197  1  0.23286060  1.00339499  0.12355857  1
  O  O198  1  0.25497222  0.98435942  0.62142959  1
  O  O199  1  0.74355653  0.49110277  0.13134480  1
  O  O200  1  0.75833258  0.51107610  0.63805366  1
  O  O201  1  0.74847061  0.99643517  0.13111287  1
  O  O202  1  0.73976912  0.99293971  0.61922070  1
  O  O203  1  0.00442079  0.38069955  0.25481117  1
  O  O204  1  0.00616621  0.36576924  0.75658305  1
  O  O205  1  0.00731405  0.85809553  0.25231715  1
  O  O206  1  -0.00033454  0.87683017  0.76661455  1
  O  O207  1  0.51124518  0.37735628  0.25618327  1
  O  O208  1  0.50718278  0.37485002  0.76168366  1
  O  O209  1  0.50947703  0.86985163  0.25679583  1
  O  O210  1  0.50196342  0.86094896  0.74550777  1
  O  O211  1  0.49950253  0.12600075  0.24533986  1
  O  O212  1  0.48418063  0.12696488  0.74924769  1
  O  O213  1  0.49309530  0.63204320  0.24983063  1
  O  O214  1  0.49139990  0.63385617  0.75151031  1
  O  O215  1  1.00434377  0.12032745  0.23663835  1
  O  O216  1  0.99651123  0.13777412  0.74186015  1
  O  O217  1  1.00553053  0.63591275  0.24133123  1
  O  O218  1  0.99786433  0.62401062  0.73730559  1
  O  O219  1  0.36627044  0.25399564  -0.00265156  1
  O  O220  1  0.36308730  0.24102125  0.50554107  1
  O  O221  1  0.36785963  0.75215257  0.00940078  1
  O  O222  1  0.36947240  0.75275633  0.50892734  1
  O  O223  1  0.87701647  0.26093469  0.00847769  1
  O  O224  1  0.87212762  0.26039004  0.50724059  1
  O  O225  1  0.86633973  0.74676409  -0.00037350  1
  O  O226  1  0.86659851  0.74756916  0.50994167  1
  O  O227  1  0.13403884  0.24284083  0.48943668  1
  O  O228  1  0.12899235  0.24261420  0.99651290  1
  O  O229  1  0.13475811  0.74051494  0.50332953  1
  O  O230  1  0.13683875  0.75359557  0.99259762  1
  O  O231  1  0.62775641  0.24494780  0.49151720  1
  O  O232  1  0.62400990  0.24222795  0.98642536  1
  O  O233  1  0.63007572  0.74666485  0.49387395  1
  O  O234  1  0.62738991  0.73940243  1.00213939  1
  O  O235  1  0.49608106  0.24747832  0.12464746  1
  O  O236  1  0.48316343  0.25890563  0.62469615  1
  O  O237  1  0.49226049  0.74960513  0.13172550  1
  O  O238  1  0.49240519  0.74628554  0.63468643  1
  O  O239  1  0.99505578  0.23715027  0.12357303  1
  O  O240  1  0.99060367  0.24561925  0.63193654  1
  O  O241  1  1.00416196  0.73537713  0.13436248  1
  O  O242  1  0.99470395  0.74494417  0.62593366  1
  O  O243  1  0.01443782  0.24718980  0.38093402  1
  O  O244  1  0.00216408  0.25562963  0.86879308  1
  O  O245  1  -0.00317254  0.74693303  0.36094230  1
  O  O246  1  0.00907894  0.75805895  0.87509605  1
  O  O247  1  0.50999264  0.25749738  0.37154187  1
  O  O248  1  0.50939596  0.25717226  0.87332388  1
  O  O249  1  0.50699024  0.75537837  0.36974807  1
  O  O250  1  0.49808946  0.74731960  0.86276903  1
  O  O251  1  0.24099702  0.12927027  0.49085164  1
  O  O252  1  0.23952016  0.13525009  1.00432137  1
  O  O253  1  0.24334196  0.63140205  0.49934250  1
  O  O254  1  0.25561067  0.63902036  0.99048593  1
  O  O255  1  0.73925223  0.12833786  0.49010209  1
  O  O256  1  0.73898762  0.12127471  0.99002435  1
  O  O257  1  0.73823427  0.63882462  0.49938303  1
  O  O258  1  0.74475315  0.63435852  0.99841692  1
  O  O259  1  0.25273166  0.36422197  0.00463115  1
  O  O260  1  0.24678540  0.36412294  0.50858157  1
  O  O261  1  0.25479835  0.85896173  -0.00245279  1
  O  O262  1  0.25410139  0.86832201  0.50589863  1
  O  O263  1  0.75723621  0.37954152  0.00846633  1
  O  O264  1  0.75941370  0.37642348  0.49950590  1
  O  O265  1  0.75118259  0.86099104  0.00755233  1
  O  O266  1  0.74495569  0.86387662  0.51210036  1
  O  O267  1  0.13694400  0.50162676  0.24531363  1
  O  O268  1  0.13174334  0.48985403  0.74723656  1
  O  O269  1  0.12307951  0.98744516  0.24213555  1
  O  O270  1  0.13344178  1.04264001  0.74031689  1
  O  O271  1  0.62894880  0.49416848  0.24199765  1
  O  O272  1  0.63488083  0.49254021  0.75480742  1
  O  O273  1  0.63642313  0.99444827  0.24335441  1
  O  O274  1  0.62291937  1.00537290  0.73734760  1
  O  O275  1  0.37164053  -0.00356829  0.26198891  1
  O  O276  1  0.37601254  0.00645358  0.76231957  1
  O  O277  1  0.36309491  0.50585141  0.25380457  1
  O  O278  1  0.36751700  0.50365397  0.75847714  1
  O  O279  1  0.86587636  -0.00155570  0.25774489  1
  O  O280  1  0.87758932  0.00320303  0.76348314  1
  O  O281  1  0.85825176  0.49400055  0.24637332  1
  O  O282  1  0.86959749  0.50448503  0.75893212  1
  O  O283  1  0.12646166  0.35844658  0.37529258  1
  O  O284  1  0.11611910  0.36789267  0.86959534  1
  O  O285  1  0.12024748  0.87859406  0.35995197  1
  O  O286  1  0.11733218  0.86787213  0.87753356  1
  O  O287  1  0.62140854  0.36848525  0.36581225  1
  O  O288  1  0.61992232  0.36812830  0.87277420  1
  O  O289  1  0.62316866  0.86670551  0.37290130  1
  O  O290  1  0.62889262  0.87400061  0.87223510  1
  O  O291  1  0.37647278  0.12359371  0.12646268  1
  O  O292  1  0.37320826  0.13191354  0.63133944  1
  O  O293  1  0.37550853  0.63361896  0.13374140  1
  O  O294  1  0.36922957  0.64012873  0.63367480  1
  O  O295  1  0.88676479  0.13441913  0.12352572  1
  O  O296  1  0.88532375  0.13592109  0.61703893  1
  O  O297  1  0.89042243  0.61484557  0.12160006  1
  O  O298  1  0.88457515  0.63570370  0.62723964  1
  O  O299  1  0.24664841  0.25808569  0.11630290  1
  O  O300  1  0.25804809  0.25313200  0.61503695  1
  O  O301  1  0.25506910  0.74439365  0.11311386  1
  O  O302  1  0.25696460  0.76013855  0.61817639  1
  O  O303  1  0.75704654  0.26152872  0.12844239  1
  O  O304  1  0.76261027  0.24441933  0.62654740  1
  O  O305  1  0.75017989  0.75783846  0.11294366  1
  O  O306  1  0.75827425  0.75680922  0.61932501  1
  O  O307  1  0.24421637  0.24231966  0.38129189  1
  O  O308  1  0.23810807  0.25457754  0.88419713  1
  O  O309  1  0.25740292  0.74366047  0.39068552  1
  O  O310  1  0.24516218  0.74516365  0.88222741  1
  O  O311  1  0.74011072  0.24510139  0.37417364  1
  O  O312  1  0.74639167  0.23834963  0.87371235  1
  O  O313  1  0.74334723  0.75387490  0.38224441  1
  O  O314  1  0.75144342  0.74433787  0.88840213  1
  O  O315  1  0.00425313  0.11626481  0.00997255  1
  O  O316  1  0.00484385  0.11732256  0.50509200  1
  O  O317  1  0.00369419  0.62845296  0.01428263  1
  O  O318  1  0.00744716  0.62001234  0.50934070  1
  O  O319  1  0.51566301  0.11365085  -0.00011204  1
  O  O320  1  0.51544183  0.12541979  0.49252226  1
  O  O321  1  0.50692142  0.61911307  -0.00085537  1
  O  O322  1  0.51596320  0.62789179  0.49925337  1
  O  O323  1  0.50730838  0.37918304  0.48239751  1
  O  O324  1  0.49639630  0.38024008  0.98853093  1
  O  O325  1  0.49225509  0.87408374  0.49477380  1
  O  O326  1  0.49898783  0.88826872  1.00532635  1
  O  O327  1  0.99387934  0.38164703  0.49791985  1
  O  O328  1  0.99285327  0.37127704  0.98751370  1
  O  O329  1  1.00679552  0.88765187  0.49844857  1
  O  O330  1  1.00276386  0.88471426  0.99039070  1
  O  O331  1  0.49087156  0.49438384  0.37413032  1
  O  O332  1  0.49460893  0.49344249  0.87964693  1
  O  O333  1  0.49345179  0.99302028  0.37682139  1
  O  O334  1  0.48895928  1.00390997  0.88250468  1
  O  O335  1  1.00215219  0.50027989  0.38919581  1
  O  O336  1  0.99191049  0.48880341  0.86739008  1
  O  O337  1  0.99022653  1.00121464  0.38322071  1
  O  O338  1  0.98759440  0.99712431  0.88327106  1
  O  O339  1  0.00444166  0.00825361  0.12074374  1
  O  O340  1  -0.00683366  0.00994152  0.61684128  1
  O  O341  1  0.01454516  0.51177772  0.12779108  1
  O  O342  1  0.00193302  0.50732724  0.61653778  1
  O  O343  1  0.51333795  0.00082972  0.11868078  1
  O  O344  1  0.51528781  -0.00477999  0.62207296  1
  O  O345  1  0.50496660  0.49890635  0.11703567  1
  O  O346  1  0.48518900  0.50869816  0.61936765  1
  O  O347  1  0.24456224  0.38265957  0.23984972  1
  O  O348  1  0.24287697  0.37669345  0.74537845  1
  O  O349  1  0.23502583  0.87332493  0.25097355  1
  O  O350  1  0.25210842  0.88050838  0.73763299  1
  O  O351  1  0.73826617  0.38361067  0.24178164  1
  O  O352  1  0.74002831  0.38732471  0.75443828  1
  O  O353  1  0.74700824  0.88146727  0.24244053  1
  O  O354  1  0.74718562  0.86771434  0.73667956  1
  O  O355  1  0.24800899  0.11813583  0.26213002  1
  O  O356  1  0.27219151  0.12123929  0.74743826  1
  O  O357  1  0.25401393  0.62002683  0.25630916  1
  O  O358  1  0.25528692  0.61953748  0.75687685  1
  O  O359  1  0.74452777  0.11533025  0.25987001  1
  O  O360  1  0.75016309  0.12462838  0.76540465  1
  O  O361  1  0.74330062  0.61097966  0.24571426  1
  O  O362  1  0.75625188  0.62292809  0.75668083  1
  O  O363  1  0.36673647  0.11638849  0.37423798  1
  O  O364  1  0.37679612  0.11718441  0.86816991  1
  O  O365  1  0.36933371  0.61901264  0.36726010  1
  O  O366  1  0.36371618  0.62011686  0.87028599  1
  O  O367  1  0.86226484  0.11997574  0.37960529  1
  O  O368  1  0.86499955  0.11882548  0.88004364  1
  O  O369  1  0.86580451  0.61442332  0.38359292  1
  O  O370  1  0.87398890  0.61758711  0.87072145  1
  O  O371  1  0.13290199  0.38570972  0.12227845  1
  O  O372  1  0.13516296  0.37004852  0.63147425  1
  O  O373  1  0.11577727  0.88117099  0.13688308  1
  O  O374  1  0.13892958  0.87242363  0.62502534  1
  O  O375  1  0.63128873  0.37807983  0.12802395  1
  O  O376  1  0.62060918  0.37047284  0.63758650  1
  O  O377  1  0.63598841  0.88589516  0.12835041  1
  O  O378  1  0.63258192  0.88809250  0.62999958  1
  O  O379  1  0.13186186  0.24885519  0.26506668  1
  O  O380  1  0.11719388  0.24869100  0.75792203  1
  O  O381  1  0.12114660  0.75940464  0.24859071  1
  O  O382  1  0.12599865  0.74615344  0.76325817  1
  O  O383  1  0.62469629  0.25909600  0.25627452  1
  O  O384  1  0.62474756  0.25791038  0.75983852  1
  O  O385  1  0.62321491  0.75519516  0.25691868  1
  O  O386  1  0.61037190  0.74720464  0.75208869  1
  O  O387  1  0.37606984  0.24637003  0.24631948  1
  O  O388  1  0.37768588  0.23857819  0.74505435  1
  O  O389  1  0.37791624  0.74537935  0.24455865  1
  O  O390  1  0.38288865  0.74808507  0.74584647  1
  O  O391  1  0.87166442  0.25783161  0.23998905  1
  O  O392  1  0.88255233  0.25841316  0.74226579  1
  O  O393  1  0.88549395  0.74889477  0.24769594  1
  O  O394  1  0.87957220  0.74216828  0.74288100  1
  O  O395  1  0.37326446  0.50586961  0.48429808  1
  O  O396  1  0.37760543  0.49360897  0.99434794  1
  O  O397  1  0.37734268  0.99579072  0.48979318  1
  O  O398  1  0.38293766  0.99830506  0.98915257  1
  O  O399  1  0.88347274  0.49207617  0.50416079  1
  O  O400  1  0.87128489  0.48898291  0.98613591  1
  O  O401  1  0.88355493  1.00467425  0.49188673  1
  O  O402  1  0.88371455  1.00420762  0.99490145  1
  O  O403  1  0.11599002  0.00506945  0.00666253  1
  O  O404  1  0.11596073  0.01191855  0.49282298  1
  O  O405  1  0.12925844  0.49965936  0.00972860  1
  O  O406  1  0.11947899  0.50558906  0.50448764  1
  O  O407  1  0.62284747  0.00427340  0.00561746  1
  O  O408  1  0.62296038  0.00780085  0.50817762  1
  O  O409  1  0.62230218  0.50992192  0.00341033  1
  O  O410  1  0.62597247  0.51764083  0.49270187  1
  O  O411  1  0.36051884  0.37679033  0.11719948  1
  O  O412  1  0.36097480  0.36195417  0.63601880  1
  O  O413  1  0.37636606  0.86426085  0.12777475  1
  O  O414  1  0.37080829  0.86633572  0.62079947  1
  O  O415  1  0.86987058  0.37077047  0.11644605  1
  O  O416  1  0.88011641  0.36612174  0.61631895  1
  O  O417  1  0.86708680  0.88223507  0.12820592  1
  O  O418  1  0.87033849  0.86579069  0.63029650  1
  O  O419  1  0.13001470  0.13249685  0.38077239  1
  O  O420  1  0.11358082  0.13093563  0.89266557  1
  O  O421  1  0.13202424  0.61942406  0.38872143  1
  O  O422  1  0.13592199  0.63075006  0.87295150  1
  O  O423  1  0.63347236  0.13182695  0.37965342  1
  O  O424  1  0.63531521  0.13103940  0.87833711  1
  O  O425  1  0.62913152  0.63849452  0.38074001  1
  O  O426  1  0.63238460  0.62857271  0.88433724  1
