# generated using pymatgen
data_V85Zn86O256
_symmetry_space_group_name_H-M   'P 1'
_cell_length_a   16.91887657
_cell_length_b   16.91560783
_cell_length_c   16.91432577
_cell_angle_alpha   89.93249316
_cell_angle_beta   90.00393729
_cell_angle_gamma   90.03414432
_symmetry_Int_Tables_number   1
_chemical_formula_structural   V85Zn86O256
_chemical_formula_sum   'V85 Zn86 O256'
_cell_volume   4840.75877185
_cell_formula_units_Z   1
loop_
 _symmetry_equiv_pos_site_id
 _symmetry_equiv_pos_as_xyz
  1  'x, y, z'
loop_
 _atom_site_type_symbol
 _atom_site_label
 _atom_site_symmetry_multiplicity
 _atom_site_fract_x
 _atom_site_fract_y
 _atom_site_fract_z
 _atom_site_occupancy
  V  V0  1  0.86988496  0.50079188  0.37061627  1
  V  V1  1  0.25196583  0.12656829  0.87313426  1
  V  V2  1  0.11293847  0.12494357  0.50163385  1
  V  V3  1  0.24976731  -0.00362113  0.25165420  1
  V  V4  1  0.38541364  0.14134311  0.74614755  1
  V  V5  1  0.12191813  0.00119478  0.13056052  1
  V  V6  1  -0.00032422  0.36861387  0.36613852  1
  V  V7  1  0.00114955  0.49851011  0.49871679  1
  V  V8  1  0.25435139  0.37515812  0.11824187  1
  V  V9  1  0.49725668  0.36954079  0.37052843  1
  V  V10  1  0.38033146  0.87222761  0.50584243  1
  V  V11  1  0.24950129  0.50013639  0.25024833  1
  V  V12  1  0.74791764  0.37593851  0.62646316  1
  V  V13  1  0.24992840  0.24716800  0.50629230  1
  V  V14  1  0.87475831  0.62696108  0.75343152  1
  V  V15  1  0.00169299  0.63503015  0.12651570  1
  V  V16  1  0.62542610  0.62085743  0.00666520  1
  V  V17  1  0.74957157  0.13129825  0.87282476  1
  V  V18  1  0.50467249  0.74876814  0.75782324  1
  V  V19  1  0.62563065  0.87569812  0.75614803  1
  V  V20  1  0.12803214  0.48922564  0.62739790  1
  V  V21  1  0.74582719  0.50135340  0.74935998  1
  V  V22  1  0.50527169  0.88010304  0.37319282  1
  V  V23  1  0.62507790  0.75210867  0.36784409  1
  V  V24  1  0.37928121  0.00089186  0.38240266  1
  V  V25  1  0.62427866  0.12698001  -0.00352870  1
  V  V26  1  0.87433275  0.23467644  0.62918917  1
  V  V27  1  0.36553757  0.63184949  0.75456275  1
  V  V28  1  0.13452648  0.74755461  0.87540013  1
  V  V29  1  0.37401063  0.50029024  0.37110157  1
  V  V30  1  0.74728406  0.24980850  0.00309268  1
  V  V31  1  0.49085350  0.75036201  0.25070240  1
  V  V32  1  0.74336892  0.87559968  0.13267715  1
  V  V33  1  0.50094632  0.00004900  0.00204866  1
  V  V34  1  0.50045180  0.13378688  0.61362779  1
  V  V35  1  -0.00667285  -0.01541049  0.50584733  1
  V  V36  1  0.61523406  0.00049636  0.61323982  1
  V  V37  1  0.49666640  0.49989542  0.50168104  1
  V  V38  1  0.00148649  0.87655919  0.87643770  1
  V  V39  1  -0.00015716  0.00706939  0.00407311  1
  V  V40  1  0.73946630  0.63200220  0.87229587  1
  V  V41  1  0.25305677  0.62582466  0.37301435  1
  V  V42  1  0.62020402  0.36199042  0.75748629  1
  V  V43  1  0.87354950  0.50040140  0.87506215  1
  V  V44  1  0.74388565  0.24641606  0.50063491  1
  V  V45  1  0.37582124  0.87293114  0.00205378  1
  V  V46  1  0.88658557  0.12382210  0.25185907  1
  V  V47  1  -0.00310024  0.87157328  0.35776269  1
  V  V48  1  0.50322576  0.12951818  0.13149394  1
  V  V49  1  0.87518942  0.37329617  -0.00028627  1
  V  V50  1  0.00106604  0.23202395  0.74601605  1
  V  V51  1  0.25157711  0.74970068  0.50756980  1
  V  V52  1  0.74510458  0.75404276  -0.00550775  1
  V  V53  1  0.12662414  0.00346183  0.62418485  1
  V  V54  1  0.88801334  0.24750822  0.13059003  1
  V  V55  1  0.62077327  0.24561835  0.37306079  1
  V  V56  1  0.87192184  0.37649754  0.50250288  1
  V  V57  1  0.00470936  0.37558926  0.86157428  1
  V  V58  1  0.24810101  0.12500071  0.37724514  1
  V  V59  1  0.74970264  0.00571159  0.74628463  1
  V  V60  1  0.37621101  0.25305493  0.12020530  1
  V  V61  1  0.62619367  0.37723373  0.24576632  1
  V  V62  1  0.00249496  0.62379147  0.62692818  1
  V  V63  1  0.37885859  -0.00143129  0.87041349  1
  V  V64  1  0.12687881  0.12774687  0.00287029  1
  V  V65  1  0.87539038  0.00777464  0.86981595  1
  V  V66  1  0.00030219  0.50015565  -0.00132069  1
  V  V67  1  0.49716764  0.61986606  0.13170347  1
  V  V68  1  0.24873507  0.49191554  0.75856727  1
  V  V69  1  0.49366492  0.63422712  0.62602085  1
  V  V70  1  0.12555796  0.75582004  0.36285894  1
  V  V71  1  0.13390148  0.62492097  -0.00264976  1
  V  V72  1  0.12932188  0.87692596  0.74919633  1
  V  V73  1  0.37383081  0.37063342  0.50959650  1
  V  V74  1  0.87384974  0.87634370  -0.00059379  1
  V  V75  1  0.37694348  0.13190026  0.25182149  1
  V  V76  1  0.12377938  0.49900342  0.12640714  1
  V  V77  1  0.74718469  0.12380845  0.37323707  1
  V  V78  1  0.49707833  0.49738050  0.00127811  1
  V  V79  1  0.87646089  0.63074927  0.24694919  1
  V  V80  1  0.49639602  0.36474746  0.87844473  1
  V  V81  1  0.62477293  0.62802509  0.49829775  1
  V  V82  1  0.00009684  0.75102683  0.75044190  1
  V  V83  1  0.24747002  0.87377874  0.12727106  1
  V  V84  1  0.62384192  0.50103522  0.62673495  1
  Zn  Zn85  1  0.74776374  0.37731945  0.12278857  1
  Zn  Zn86  1  0.25488765  0.00180257  0.74578928  1
  Zn  Zn87  1  0.50557026  0.86960559  0.88028810  1
  Zn  Zn88  1  0.25576353  0.87300980  0.62612757  1
  Zn  Zn89  1  0.74441265  0.00017464  0.25234939  1
  Zn  Zn90  1  0.75753228  0.87785827  0.61751924  1
  Zn  Zn91  1  0.12691206  0.62502109  0.49875486  1
  Zn  Zn92  1  0.87851721  0.76177620  0.61206054  1
  Zn  Zn93  1  0.74294542  0.50654212  0.23377494  1
  Zn  Zn94  1  0.62185195  -0.00316563  0.13064947  1
  Zn  Zn95  1  0.25171791  0.25539540  -0.00338954  1
  Zn  Zn96  1  0.87822894  0.75424535  0.12667853  1
  Zn  Zn97  1  0.37371954  0.50011877  0.87929293  1
  Zn  Zn98  1  0.37271586  0.74640189  0.12949037  1
  Zn  Zn99  1  0.12820754  0.25460536  0.86891822  1
  Zn  Zn100  1  0.86865585  -0.01008349  0.37947186  1
  Zn  Zn101  1  0.25094480  0.36793581  0.63095079  1
  Zn  Zn102  1  0.75738418  0.76415494  0.49561740  1
  Zn  Zn103  1  0.25480364  0.74641228  -0.00063108  1
  Zn  Zn104  1  0.74730413  0.62606777  0.36965388  1
  Zn  Zn105  1  0.11888978  0.24410994  0.36940870  1
  Zn  Zn106  1  0.12106003  0.36466438  0.24374628  1
  Zn  Zn107  1  0.18610781  0.18801654  0.18875290  1
  Zn  Zn108  1  0.18626135  0.18503665  0.68859256  1
  Zn  Zn109  1  0.19096479  0.68449303  0.18685408  1
  Zn  Zn110  1  0.18563956  0.68448095  0.68688701  1
  Zn  Zn111  1  0.68847192  0.19060912  0.18940497  1
  Zn  Zn112  1  0.68265673  0.18419963  0.68444466  1
  Zn  Zn113  1  0.68621746  0.69072347  0.18650939  1
  Zn  Zn114  1  0.68703047  0.69322202  0.68173501  1
  Zn  Zn115  1  0.30622223  0.31194428  0.31355107  1
  Zn  Zn116  1  0.31691505  0.31318284  0.81507715  1
  Zn  Zn117  1  0.31406618  0.81483410  0.31605432  1
  Zn  Zn118  1  0.31581984  0.81196556  0.81203498  1
  Zn  Zn119  1  0.81100639  0.31115312  0.31059184  1
  Zn  Zn120  1  0.81496526  0.31151861  0.81068599  1
  Zn  Zn121  1  0.81365113  0.80830808  0.31333134  1
  Zn  Zn122  1  0.81383501  0.81764229  0.80463531  1
  Zn  Zn123  1  0.18578576  0.43420168  0.43961203  1
  Zn  Zn124  1  0.18562380  0.43661332  0.93728394  1
  Zn  Zn125  1  0.18690338  0.93443763  0.43848396  1
  Zn  Zn126  1  0.19063970  0.93976251  0.93871615  1
  Zn  Zn127  1  0.68489507  0.43750959  0.43640875  1
  Zn  Zn128  1  0.68499731  0.43935336  0.93845266  1
  Zn  Zn129  1  0.68647656  0.93679925  0.43804416  1
  Zn  Zn130  1  0.68701873  0.94181817  0.93788648  1
  Zn  Zn131  1  0.31320635  0.06289488  0.06251341  1
  Zn  Zn132  1  0.31372168  0.06302754  0.56474171  1
  Zn  Zn133  1  0.31739448  0.56122306  0.06454411  1
  Zn  Zn134  1  0.31245189  0.56202401  0.56478545  1
  Zn  Zn135  1  0.81395728  0.06393119  0.06544527  1
  Zn  Zn136  1  0.80751659  0.05797722  0.55799647  1
  Zn  Zn137  1  0.81188219  0.56235904  0.06292378  1
  Zn  Zn138  1  0.82822222  0.59524701  0.54555955  1
  Zn  Zn139  1  0.43980523  0.43766648  0.18808580  1
  Zn  Zn140  1  0.43822269  0.44040080  0.69302462  1
  Zn  Zn141  1  0.43728907  0.93946600  0.19131107  1
  Zn  Zn142  1  0.44180493  0.93673708  0.68770238  1
  Zn  Zn143  1  0.93244856  0.44140425  0.18472033  1
  Zn  Zn144  1  0.93309906  0.43746058  0.68541372  1
  Zn  Zn145  1  0.93195769  0.94225347  0.18571367  1
  Zn  Zn146  1  0.93900787  0.94317466  0.68912091  1
  Zn  Zn147  1  0.06249394  0.05669692  0.31692611  1
  Zn  Zn148  1  0.06573530  0.06250174  0.81439666  1
  Zn  Zn149  1  0.06335457  0.56249230  0.31129360  1
  Zn  Zn150  1  0.06687010  0.56134621  0.81341363  1
  Zn  Zn151  1  0.56480332  0.06110751  0.31124181  1
  Zn  Zn152  1  0.56329879  0.06383659  0.81156080  1
  Zn  Zn153  1  0.55982142  0.56123724  0.31129376  1
  Zn  Zn154  1  0.55950594  0.56012764  0.81470170  1
  Zn  Zn155  1  0.43558830  0.18943090  0.43990667  1
  Zn  Zn156  1  0.43693659  0.18724530  0.93914286  1
  Zn  Zn157  1  0.43613026  0.68920086  0.43619956  1
  Zn  Zn158  1  0.43831377  0.68470825  0.93753967  1
  Zn  Zn159  1  0.93149043  0.18566180  0.44088741  1
  Zn  Zn160  1  0.93775731  0.18944999  0.93665458  1
  Zn  Zn161  1  0.94221201  0.68829840  0.43247806  1
  Zn  Zn162  1  0.93841603  0.68928181  0.93881599  1
  Zn  Zn163  1  0.06450851  0.31372917  0.05767485  1
  Zn  Zn164  1  0.05945794  0.30947218  0.56355040  1
  Zn  Zn165  1  0.06575898  0.81627610  0.06154353  1
  Zn  Zn166  1  0.06827696  0.81023907  0.56151217  1
  Zn  Zn167  1  0.56107131  0.30941427  0.06081335  1
  Zn  Zn168  1  0.56216310  0.31299170  0.56196349  1
  Zn  Zn169  1  0.56376854  0.80662996  0.06306418  1
  Zn  Zn170  1  0.56593690  0.81462757  0.56206956  1
  O  O171  1  0.13420661  0.11560048  0.11106526  1
  O  O172  1  0.12741313  0.11176498  0.61764271  1
  O  O173  1  0.11919101  0.61967262  0.11893554  1
  O  O174  1  0.11502403  0.61400022  0.62504672  1
  O  O175  1  0.61770703  0.12890484  0.11643389  1
  O  O176  1  0.61063258  0.11428580  0.62871908  1
  O  O177  1  0.61386369  0.63168998  0.11594857  1
  O  O178  1  0.61595192  0.61973766  0.61803937  1
  O  O179  1  0.37997732  0.37926626  0.38135523  1
  O  O180  1  0.39186184  0.37935210  0.87146551  1
  O  O181  1  0.38199628  0.88378536  0.38244541  1
  O  O182  1  0.37719107  0.88274841  0.88307943  1
  O  O183  1  0.88211850  0.38071302  0.37963318  1
  O  O184  1  0.88099243  0.38083213  0.88045053  1
  O  O185  1  0.89153232  0.87128911  0.37114032  1
  O  O186  1  0.87917469  0.88731604  0.88003933  1
  O  O187  1  0.25451028  0.00329047  0.36839419  1
  O  O188  1  0.26014545  0.01045995  0.87363726  1
  O  O189  1  0.25278745  0.50466764  0.37057492  1
  O  O190  1  0.25106129  0.49776864  0.86278035  1
  O  O191  1  0.75159829  0.00976961  0.37422956  1
  O  O192  1  0.75689272  0.01041300  0.87057143  1
  O  O193  1  0.76319064  0.49973701  0.37579215  1
  O  O194  1  0.75388116  0.50979065  0.86990795  1
  O  O195  1  0.24795957  0.49527284  0.13244919  1
  O  O196  1  0.24293887  0.49727330  0.63372102  1
  O  O197  1  0.24538071  0.99498396  0.13229512  1
  O  O198  1  0.24153113  0.99514738  0.62616236  1
  O  O199  1  0.75109082  0.49076239  0.12085471  1
  O  O200  1  0.74073443  0.49432385  0.63129719  1
  O  O201  1  0.75120189  0.98468025  0.12178522  1
  O  O202  1  0.73668058  1.00535210  0.63252107  1
  O  O203  1  -0.00301083  0.38096115  0.26379692  1
  O  O204  1  -0.00439337  0.37438850  0.75923903  1
  O  O205  1  0.00114705  0.88034787  0.25912323  1
  O  O206  1  0.01330740  0.87320943  0.75711904  1
  O  O207  1  0.50764171  0.37819465  0.26398797  1
  O  O208  1  0.51136283  0.37981749  0.76190848  1
  O  O209  1  0.49466334  0.86671463  0.26103641  1
  O  O210  1  0.50611352  0.86544341  0.75223288  1
  O  O211  1  0.48988155  0.12295395  0.24246540  1
  O  O212  1  0.48896404  0.12494420  0.74711083  1
  O  O213  1  0.50335186  0.63232795  0.24159842  1
  O  O214  1  0.49336751  0.63022819  0.74439869  1
  O  O215  1  0.98580151  0.12081278  0.25770140  1
  O  O216  1  0.99592579  0.13331449  0.75423569  1
  O  O217  1  0.99314506  0.61669655  0.23655769  1
  O  O218  1  0.99739283  0.62872737  0.74576619  1
  O  O219  1  0.37024897  0.24311237  0.01530699  1
  O  O220  1  0.36372328  0.25912139  0.49717870  1
  O  O221  1  0.37535753  0.76178663  -0.00012422  1
  O  O222  1  0.36434747  0.75956297  0.49244220  1
  O  O223  1  0.86734061  0.24997297  0.00988791  1
  O  O224  1  0.86522399  0.25638939  0.50820316  1
  O  O225  1  0.86535112  0.75793208  -0.00015682  1
  O  O226  1  0.86300985  0.70864489  0.50857492  1
  O  O227  1  0.12646215  0.23965926  0.49730171  1
  O  O228  1  0.12861109  0.24035301  0.99540161  1
  O  O229  1  0.13495535  0.74701052  0.48931917  1
  O  O230  1  0.12676452  0.74324279  0.99214538  1
  O  O231  1  0.63762799  0.25696755  0.49249793  1
  O  O232  1  0.63850291  0.24302880  1.00293118  1
  O  O233  1  0.62202755  0.74154553  0.48913791  1
  O  O234  1  0.63732204  0.74088904  0.99890092  1
  O  O235  1  0.49223670  0.23824248  0.12202451  1
  O  O236  1  0.50542943  0.23413086  0.62188745  1
  O  O237  1  0.49809255  0.74516330  0.13532199  1
  O  O238  1  0.50503076  0.73858748  0.63304138  1
  O  O239  1  0.98643096  0.24988873  0.11749962  1
  O  O240  1  0.99052544  0.25166609  0.63715192  1
  O  O241  1  1.00117519  0.73915686  0.11844448  1
  O  O242  1  1.00207129  0.73982365  0.63016526  1
  O  O243  1  -0.00442962  0.26655008  0.38376631  1
  O  O244  1  -0.00305875  0.25643574  0.86087511  1
  O  O245  1  0.01343041  0.75990040  0.37745577  1
  O  O246  1  0.00965719  0.75780635  0.87100897  1
  O  O247  1  0.50800773  0.25759043  0.38160232  1
  O  O248  1  0.49971685  0.26503891  0.88242327  1
  O  O249  1  0.50389914  0.75589300  0.36794040  1
  O  O250  1  0.49913229  0.74950210  0.86250685  1
  O  O251  1  0.24276150  0.12932849  0.49704440  1
  O  O252  1  0.24505071  0.12443711  0.99027551  1
  O  O253  1  0.24981591  0.63128152  0.49271191  1
  O  O254  1  0.23830556  0.62534198  1.00636195  1
  O  O255  1  0.75519581  0.13446826  0.48600106  1
  O  O256  1  0.74348582  0.12960667  0.99607983  1
  O  O257  1  0.72879374  0.61568763  0.49352822  1
  O  O258  1  0.74446943  0.63302620  0.99304485  1
  O  O259  1  0.25051258  0.37786998  0.01326501  1
  O  O260  1  0.25697851  0.36680087  0.50138169  1
  O  O261  1  0.25931821  0.87538224  0.00812802  1
  O  O262  1  0.25833231  0.86567289  0.49883045  1
  O  O263  1  0.75595377  0.36501854  -0.00523615  1
  O  O264  1  0.75364522  0.36918794  0.50494106  1
  O  O265  1  0.75413218  0.86986912  0.00241225  1
  O  O266  1  0.75565766  0.87844122  0.50172278  1
  O  O267  1  0.13218036  0.49544653  0.24320306  1
  O  O268  1  0.14128995  0.50623976  0.74402422  1
  O  O269  1  0.13289532  1.00700372  0.23838509  1
  O  O270  1  0.12710176  0.99390997  0.74289999  1
  O  O271  1  0.62717239  0.48275547  0.26073991  1
  O  O272  1  0.62912090  0.49631468  0.74463858  1
  O  O273  1  0.63134653  1.00548436  0.24245231  1
  O  O274  1  0.63063667  0.99514556  0.74481694  1
  O  O275  1  0.36808499  0.00906890  0.25966226  1
  O  O276  1  0.37618108  0.00005363  0.76187762  1
  O  O277  1  0.36833797  0.49443863  0.26420837  1
  O  O278  1  0.36262760  0.50938423  0.75154631  1
  O  O279  1  0.86814794  0.01362544  0.25209929  1
  O  O280  1  0.86536105  0.00196169  0.75997553  1
  O  O281  1  0.87086936  0.50850406  0.25580966  1
  O  O282  1  0.86646425  0.50564400  0.75620473  1
  O  O283  1  0.10707434  0.37674986  0.37610845  1
  O  O284  1  0.11146657  0.37152684  0.88019609  1
  O  O285  1  0.11811298  0.86294831  0.37505502  1
  O  O286  1  0.12269130  0.87129722  0.86958347  1
  O  O287  1  0.61622506  0.36704015  0.37116042  1
  O  O288  1  0.61764490  0.37877699  0.86318637  1
  O  O289  1  0.61323160  0.86810633  0.37835009  1
  O  O290  1  0.62306317  0.88220810  0.86208048  1
  O  O291  1  0.38031196  0.13011844  0.13325165  1
  O  O292  1  0.38644974  0.11722858  0.63891631  1
  O  O293  1  0.39103883  0.62965004  0.12004337  1
  O  O294  1  0.38402773  0.61934837  0.63789251  1
  O  O295  1  0.87138097  0.13553338  0.13825887  1
  O  O296  1  0.86777611  0.13592149  0.62117006  1
  O  O297  1  0.88495688  0.62740137  0.12831556  1
  O  O298  1  0.89168828  0.61591364  0.63988999  1
  O  O299  1  0.25730552  0.25917925  0.12381415  1
  O  O300  1  0.24295655  0.25056568  0.61258261  1
  O  O301  1  0.25264383  0.75899511  0.12401200  1
  O  O302  1  0.24404832  0.75069620  0.61181041  1
  O  O303  1  0.75846487  0.25484317  0.11696665  1
  O  O304  1  0.75257562  0.25379448  0.61941170  1
  O  O305  1  0.75250040  0.76093737  0.11566975  1
  O  O306  1  0.75485195  0.75370186  0.61771703  1
  O  O307  1  0.24626919  0.24240543  0.38715642  1
  O  O308  1  0.25049262  0.24061335  0.87567533  1
  O  O309  1  0.24273152  0.74401654  0.37881015  1
  O  O310  1  0.23834754  0.75382639  0.87731053  1
  O  O311  1  0.74355972  0.24650751  0.38262614  1
  O  O312  1  0.75946654  0.23675385  0.88200358  1
  O  O313  1  0.73951863  0.74692421  0.37632378  1
  O  O314  1  0.75688024  0.74285437  0.88086189  1
  O  O315  1  0.00971336  0.11449784  -0.00711668  1
  O  O316  1  0.00979721  0.11327441  0.49180574  1
  O  O317  1  0.00826959  0.61923655  0.00585542  1
  O  O318  1  0.00325538  0.61252158  0.50730381  1
  O  O319  1  0.50736473  0.12125868  0.00586752  1
  O  O320  1  0.48927671  0.12171790  0.51493816  1
  O  O321  1  0.50895774  0.62057886  0.00514923  1
  O  O322  1  0.50343550  0.62158223  0.50715648  1
  O  O323  1  0.49270668  0.37919944  0.49184295  1
  O  O324  1  0.51195219  0.38335641  0.98778555  1
  O  O325  1  0.49114261  0.86723284  0.48837821  1
  O  O326  1  0.49384818  0.87983656  1.00192133  1
  O  O327  1  0.99290913  0.38483857  0.49589845  1
  O  O328  1  0.99316555  0.38089618  0.99117779  1
  O  O329  1  1.00311919  0.88253269  0.49593274  1
  O  O330  1  0.99595986  0.88573920  0.99493863  1
  O  O331  1  0.49015597  0.49417009  0.38118464  1
  O  O332  1  0.49886930  0.49252471  0.88427197  1
  O  O333  1  0.49116039  0.99247326  0.37164044  1
  O  O334  1  0.49308490  0.99974645  0.88378891  1
  O  O335  1  0.99190705  0.49373910  0.38158828  1
  O  O336  1  0.99571972  0.49386309  0.87817182  1
  O  O337  1  1.00225668  0.98257774  0.38495553  1
  O  O338  1  0.99370099  0.99661000  0.88060297  1
  O  O339  1  0.00961427  -0.00404160  0.11651446  1
  O  O340  1  0.00827577  -0.00314824  0.61252841  1
  O  O341  1  0.00451705  0.50542967  0.11597703  1
  O  O342  1  0.00653752  0.50248600  0.61934049  1
  O  O343  1  0.49633452  0.01213292  0.11885924  1
  O  O344  1  0.51083336  0.00815802  0.62944921  1
  O  O345  1  0.49944820  0.50703860  0.11821466  1
  O  O346  1  0.50499189  0.50877343  0.62186472  1
  O  O347  1  0.24793240  0.38584032  0.24279598  1
  O  O348  1  0.25550523  0.38744529  0.74864305  1
  O  O349  1  0.25689538  0.88801466  0.24389947  1
  O  O350  1  0.24076881  0.87580786  0.74904540  1
  O  O351  1  0.73638719  0.37672627  0.25139083  1
  O  O352  1  0.73859977  0.37957609  0.74916913  1
  O  O353  1  0.75674818  0.87348747  0.23503632  1
  O  O354  1  0.74127207  0.88985587  0.75060756  1
  O  O355  1  0.25741732  0.11391243  0.25466003  1
  O  O356  1  0.26281605  0.12361119  0.75566930  1
  O  O357  1  0.24860249  0.61033666  0.25648894  1
  O  O358  1  0.26161291  0.61918558  0.74562262  1
  O  O359  1  0.75798456  0.13022171  0.26173189  1
  O  O360  1  0.74118385  0.11611367  0.75935250  1
  O  O361  1  0.75733234  0.62322623  0.24939884  1
  O  O362  1  0.75379379  0.62365446  0.75603472  1
  O  O363  1  0.37021171  0.11940914  0.37016289  1
  O  O364  1  0.37280182  0.12036489  0.86525546  1
  O  O365  1  0.36167044  0.61633241  0.37932828  1
  O  O366  1  0.37852614  0.62174479  0.85861395  1
  O  O367  1  0.86825540  0.12622649  0.36403778  1
  O  O368  1  0.86658582  0.11460154  0.88240534  1
  O  O369  1  0.87748335  0.61628441  0.36365875  1
  O  O370  1  0.86903603  0.61964023  0.87030270  1
  O  O371  1  0.13259058  0.38197360  0.12374816  1
  O  O372  1  0.12567689  0.38596479  0.62146906  1
  O  O373  1  0.13883398  0.88532928  0.11960833  1
  O  O374  1  0.12676339  0.88285510  0.63348010  1
  O  O375  1  0.61981871  0.36649545  0.14354474  1
  O  O376  1  0.62608827  0.38049775  0.63613164  1
  O  O377  1  0.64020587  0.87432477  0.11857293  1
  O  O378  1  0.62304434  0.88828504  0.63435423  1
  O  O379  1  0.12706183  0.25200959  0.25628246  1
  O  O380  1  0.10772851  0.24450083  0.74983454  1
  O  O381  1  0.13111862  0.74714809  0.26390742  1
  O  O382  1  0.12128488  0.75580316  0.75598815  1
  O  O383  1  0.62786507  0.26154596  0.26310727  1
  O  O384  1  0.62805104  0.26375815  0.74934255  1
  O  O385  1  0.61480245  0.74679077  0.26231626  1
  O  O386  1  0.61661145  0.76072197  0.74601200  1
  O  O387  1  0.36655461  0.23703956  0.24446353  1
  O  O388  1  0.37662528  0.23967560  0.74770014  1
  O  O389  1  0.38589175  0.74998927  0.25264979  1
  O  O390  1  0.38072467  0.73843953  0.74975962  1
  O  O391  1  0.87455269  0.24279950  0.23871751  1
  O  O392  1  0.88561760  0.25364711  0.74015570  1
  O  O393  1  0.87564750  0.73550885  0.24732278  1
  O  O394  1  0.88517898  0.74018200  0.75523398  1
  O  O395  1  0.37632815  0.49295166  0.49015724  1
  O  O396  1  0.39090273  0.50460507  0.99726087  1
  O  O397  1  0.36739529  0.99326056  0.48726612  1
  O  O398  1  0.37995921  0.99252532  0.99213733  1
  O  O399  1  0.88275328  0.49987856  0.49247387  1
  O  O400  1  0.88195693  0.49621025  0.99249384  1
  O  O401  1  0.89148280  1.00511828  0.49731584  1
  O  O402  1  0.88341485  0.99775085  0.99569621  1
  O  O403  1  0.11899576  0.00553451  0.00689800  1
  O  O404  1  0.11694747  0.00240170  0.50632683  1
  O  O405  1  0.12008963  0.50785234  0.00451884  1
  O  O406  1  0.11807100  0.50161905  0.50750057  1
  O  O407  1  0.61824244  0.00865733  0.00637510  1
  O  O408  1  0.62251661  -0.00084891  0.51480513  1
  O  O409  1  0.61714325  0.51386717  -0.00393892  1
  O  O410  1  0.61375421  0.50364666  0.50486275  1
  O  O411  1  0.36913753  0.36419394  0.13367236  1
  O  O412  1  0.37624776  0.38168957  0.61282214  1
  O  O413  1  0.36540666  0.87671957  0.11852349  1
  O  O414  1  0.37591280  0.88129079  0.61073859  1
  O  O415  1  0.87577413  0.36256263  0.11911408  1
  O  O416  1  0.86486971  0.37042770  0.61952381  1
  O  O417  1  0.86734469  0.87422330  0.11580732  1
  O  O418  1  0.87115475  0.86977254  0.64327098  1
  O  O419  1  0.13122084  0.12108120  0.38496566  1
  O  O420  1  0.13620464  0.12431707  0.88288830  1
  O  O421  1  0.13426717  0.63274889  0.37569943  1
  O  O422  1  0.11972088  0.63513976  0.88507151  1
  O  O423  1  0.63041264  0.13709067  0.37268644  1
  O  O424  1  0.63296174  0.12077157  0.88798756  1
  O  O425  1  0.62037462  0.63226968  0.38164873  1
  O  O426  1  0.63583682  0.62402664  0.87989913  1
