# generated using pymatgen
data_V85Zn86O256
_symmetry_space_group_name_H-M   'P 1'
_cell_length_a   16.93472247
_cell_length_b   16.91864248
_cell_length_c   16.91388697
_cell_angle_alpha   89.98963004
_cell_angle_beta   90.01224612
_cell_angle_gamma   89.99954223
_symmetry_Int_Tables_number   1
_chemical_formula_structural   V85Zn86O256
_chemical_formula_sum   'V85 Zn86 O256'
_cell_volume   4846.04010321
_cell_formula_units_Z   1
loop_
 _symmetry_equiv_pos_site_id
 _symmetry_equiv_pos_as_xyz
  1  'x, y, z'
loop_
 _atom_site_type_symbol
 _atom_site_label
 _atom_site_symmetry_multiplicity
 _atom_site_fract_x
 _atom_site_fract_y
 _atom_site_fract_z
 _atom_site_occupancy
  V  V0  1  0.60905272  0.25358364  0.87501170  1
  V  V1  1  0.37874988  0.49807016  0.87732322  1
  V  V2  1  -0.00256507  0.88094622  0.37236700  1
  V  V3  1  0.12716706  0.12520461  0.48669880  1
  V  V4  1  0.00190184  0.74969617  0.25122049  1
  V  V5  1  0.36364912  0.62793389  0.25296755  1
  V  V6  1  0.62570964  0.12523798  0.00073785  1
  V  V7  1  0.12585743  0.50345832  0.62574494  1
  V  V8  1  0.50181595  0.88394376  0.87718293  1
  V  V9  1  0.12312819  0.00244932  0.62844018  1
  V  V10  1  0.37475490  0.87598193  0.49424312  1
  V  V11  1  0.62288854  0.75006844  0.87486284  1
  V  V12  1  0.62591708  0.25227246  0.37437425  1
  V  V13  1  0.50215971  0.49615723  0.00218808  1
  V  V14  1  0.75037307  0.87718919  0.62604125  1
  V  V15  1  0.00537735  0.11308868  0.12022541  1
  V  V16  1  0.27293932  0.11946071  0.37365107  1
  V  V17  1  0.25530801  0.00456873  0.24675455  1
  V  V18  1  0.87327246  0.74359385  0.62726727  1
  V  V19  1  0.00024696  0.50321939  0.49872589  1
  V  V20  1  0.37813844  0.13230681  0.75067809  1
  V  V21  1  0.13327690  0.62702691  0.49800963  1
  V  V22  1  0.87674957  0.12319049  0.74588548  1
  V  V23  1  0.87513527  0.37270422  0.50373736  1
  V  V24  1  0.74298325  0.37392588  0.11600188  1
  V  V25  1  0.25163439  0.87383828  0.62340570  1
  V  V26  1  0.12719796  0.74651500  0.87306438  1
  V  V27  1  0.50212068  0.12962073  0.62917224  1
  V  V28  1  0.75181918  0.37550044  0.63521188  1
  V  V29  1  0.87648144  0.62192323  0.24763672  1
  V  V30  1  0.61042517  0.37213017  0.75303112  1
  V  V31  1  0.74985471  0.62284255  0.37320125  1
  V  V32  1  0.75302946  0.13688433  0.87853033  1
  V  V33  1  -0.00569262  0.87425466  0.88862945  1
  V  V34  1  0.75561832  0.11992823  0.37390864  1
  V  V35  1  0.62690302  0.61917070  0.00363729  1
  V  V36  1  0.37472873  0.37019883  0.00104077  1
  V  V37  1  0.38085791  0.25768637  0.62611681  1
  V  V38  1  0.75147418  0.25213242  0.50499008  1
  V  V39  1  0.62334623  0.62361055  0.50001469  1
  V  V40  1  0.62833636  0.50066150  0.63258362  1
  V  V41  1  0.62666402  -0.00361776  0.12286857  1
  V  V42  1  0.25293927  0.00183719  0.75249996  1
  V  V43  1  0.12772105  0.61987864  -0.00070461  1
  V  V44  1  -0.00074622  0.24713381  0.73887276  1
  V  V45  1  0.12868330  0.25081654  0.88024154  1
  V  V46  1  0.25523577  0.37644440  0.62184844  1
  V  V47  1  0.74200132  0.49603762  0.24403819  1
  V  V48  1  0.25006526  0.50605646  0.75695556  1
  V  V49  1  0.49624852  0.49666120  0.50145201  1
  V  V50  1  0.87066526  0.50323423  0.86208088  1
  V  V51  1  0.50244829  0.62280944  0.13210879  1
  V  V52  1  0.74927220  0.74984715  0.49689010  1
  V  V53  1  -0.00568253  0.74789707  0.75126852  1
  V  V54  1  -0.00227089  0.00206037  0.49735246  1
  V  V55  1  0.49569724  0.00149434  0.49494615  1
  V  V56  1  0.24123453  0.87823977  0.12399825  1
  V  V57  1  0.49293521  0.37568299  0.37451791  1
  V  V58  1  0.87443798  0.88033360  0.49597066  1
  V  V59  1  0.00361080  0.61949027  0.12472493  1
  V  V60  1  0.38048480  0.75116471  0.12855804  1
  V  V61  1  0.86923263  0.24583415  0.12131968  1
  V  V62  1  0.87811436  0.75636867  0.12045299  1
  V  V63  1  0.37941262  0.88351529  0.00092015  1
  V  V64  1  0.75525552  0.75302392  -0.00150737  1
  V  V65  1  -0.00387460  0.37432002  0.87243522  1
  V  V66  1  0.62418130  0.00075607  0.62588993  1
  V  V67  1  0.12604288  0.37471107  0.74659351  1
  V  V68  1  0.87255430  -0.00526153  0.88924508  1
  V  V69  1  0.13199699  0.75040855  0.37367929  1
  V  V70  1  0.49888915  0.87557232  0.36704709  1
  V  V71  1  0.25235937  0.13262956  0.88173315  1
  V  V72  1  0.24688959  0.48357690  0.24408107  1
  V  V73  1  0.87503248  0.49394276  0.37265002  1
  V  V74  1  0.00875791  0.25375145  0.25209851  1
  V  V75  1  0.49526374  0.24431775  0.24860608  1
  V  V76  1  -0.00110839  0.12794551  0.62458420  1
  V  V77  1  0.49727413  0.11779338  0.12462759  1
  V  V78  1  0.36790477  0.50308350  0.37864553  1
  V  V79  1  0.75145506  0.62171852  0.86136612  1
  V  V80  1  0.25334361  0.74372803  -0.00315141  1
  V  V81  1  0.25414682  0.25073592  0.49695352  1
  V  V82  1  0.61926576  0.74858010  0.36534382  1
  V  V83  1  0.37017562  0.24864324  0.12527147  1
  V  V84  1  0.37411646  0.62977360  0.75512727  1
  Zn  Zn85  1  0.20925854  0.30855370  0.06216070  1
  Zn  Zn86  1  0.12223760  0.88318052  0.24631479  1
  Zn  Zn87  1  0.74987217  0.00154473  0.75234037  1
  Zn  Zn88  1  0.25362711  0.74808808  0.49583423  1
  Zn  Zn89  1  0.12094653  0.47648997  0.13583096  1
  Zn  Zn90  1  0.37959578  0.75013150  0.62429796  1
  Zn  Zn91  1  0.02679025  0.37659811  0.35858290  1
  Zn  Zn92  1  0.49887456  0.75174601  0.74921769  1
  Zn  Zn93  1  -0.00416951  0.62448076  0.62977935  1
  Zn  Zn94  1  0.12685147  0.11134003  0.00686482  1
  Zn  Zn95  1  0.62258276  0.87511485  0.74963697  1
  Zn  Zn96  1  0.87904700  0.12007859  0.25308170  1
  Zn  Zn97  1  0.75291888  0.87543868  0.12445231  1
  Zn  Zn98  1  0.62540124  0.12742007  0.50104121  1
  Zn  Zn99  1  0.49967361  0.62785995  0.62767057  1
  Zn  Zn100  1  0.38195171  0.00526089  0.87819355  1
  Zn  Zn101  1  0.86748425  0.37267437  -0.00607487  1
  Zn  Zn102  1  0.12322614  0.87490737  0.75172039  1
  Zn  Zn103  1  -0.00295841  0.49681725  -0.00004443  1
  Zn  Zn104  1  0.62025787  0.37816592  0.24414893  1
  Zn  Zn105  1  0.62402501  0.87228088  0.24498373  1
  Zn  Zn106  1  0.75356612  -0.00767166  0.25259491  1
  Zn  Zn107  1  0.18359999  0.18080432  0.19535339  1
  Zn  Zn108  1  0.18794580  0.18860910  0.68814729  1
  Zn  Zn109  1  0.18870768  0.68814131  0.18584991  1
  Zn  Zn110  1  0.18693702  0.68806528  0.68752285  1
  Zn  Zn111  1  0.68471800  0.18958337  0.18910028  1
  Zn  Zn112  1  0.68865934  0.19013694  0.69116461  1
  Zn  Zn113  1  0.68988278  0.68610814  0.18525787  1
  Zn  Zn114  1  0.68520783  0.68994015  0.68700000  1
  Zn  Zn115  1  0.31461941  0.30867346  0.31537217  1
  Zn  Zn116  1  0.31695220  0.31653314  0.81301114  1
  Zn  Zn117  1  0.31323960  0.81764048  0.30934468  1
  Zn  Zn118  1  0.31253768  0.81470632  0.81511352  1
  Zn  Zn119  1  0.81533242  0.30969411  0.30828176  1
  Zn  Zn120  1  0.81351334  0.30969228  0.80775608  1
  Zn  Zn121  1  0.81238628  0.81314815  0.30904660  1
  Zn  Zn122  1  0.81089568  0.81278419  0.81155830  1
  Zn  Zn123  1  0.19279537  0.43754417  0.43652708  1
  Zn  Zn124  1  0.18722407  0.43814101  0.93593081  1
  Zn  Zn125  1  0.18611474  0.94093786  0.43384382  1
  Zn  Zn126  1  0.18934380  0.93418426  0.93862501  1
  Zn  Zn127  1  0.68547982  0.43594039  0.43790798  1
  Zn  Zn128  1  0.68605371  0.43817002  0.93335840  1
  Zn  Zn129  1  0.68098763  0.93715131  0.43954616  1
  Zn  Zn130  1  0.68854366  0.93998931  0.94118388  1
  Zn  Zn131  1  0.31223248  0.06386279  0.06569756  1
  Zn  Zn132  1  0.31517651  0.06241866  0.56396090  1
  Zn  Zn133  1  0.31251660  0.55994811  0.06637236  1
  Zn  Zn134  1  0.31467287  0.56458500  0.56642838  1
  Zn  Zn135  1  0.80870899  0.06509373  0.06446915  1
  Zn  Zn136  1  0.81325684  0.06479974  0.56123439  1
  Zn  Zn137  1  0.81536957  0.55900710  0.05556721  1
  Zn  Zn138  1  0.80937556  0.56019926  0.56307316  1
  Zn  Zn139  1  0.43353824  0.43626393  0.18611504  1
  Zn  Zn140  1  0.43861917  0.44186204  0.68907639  1
  Zn  Zn141  1  0.43420298  0.94132129  0.18842705  1
  Zn  Zn142  1  0.43784887  0.93814057  0.68822609  1
  Zn  Zn143  1  0.93314995  0.43271672  0.18399983  1
  Zn  Zn144  1  0.93830631  0.43709312  0.68511295  1
  Zn  Zn145  1  0.93115022  0.94138837  0.19246733  1
  Zn  Zn146  1  0.93759173  0.93634375  0.69256299  1
  Zn  Zn147  1  0.06362524  0.06229950  0.30540540  1
  Zn  Zn148  1  0.07635747  0.04530452  0.84487010  1
  Zn  Zn149  1  0.06685078  0.56287899  0.31427644  1
  Zn  Zn150  1  0.05948192  0.56475944  0.81307780  1
  Zn  Zn151  1  0.56676935  0.06329160  0.31005966  1
  Zn  Zn152  1  0.56511107  0.06460571  0.81109478  1
  Zn  Zn153  1  0.55854004  0.56295495  0.31183153  1
  Zn  Zn154  1  0.56062361  0.56186240  0.81430458  1
  Zn  Zn155  1  0.44000858  0.19098078  0.44384459  1
  Zn  Zn156  1  0.43973428  0.18534322  0.94326600  1
  Zn  Zn157  1  0.43738470  0.68797040  0.43752387  1
  Zn  Zn158  1  0.43880804  0.68585156  0.93766433  1
  Zn  Zn159  1  0.93845565  0.19235658  0.43720486  1
  Zn  Zn160  1  0.93842987  0.18677339  0.93797450  1
  Zn  Zn161  1  0.93891595  0.68871027  0.43656654  1
  Zn  Zn162  1  0.93775810  0.68261366  0.93633893  1
  Zn  Zn163  1  0.04545077  0.30545485  0.05968060  1
  Zn  Zn164  1  0.08117689  0.32683062  0.53115978  1
  Zn  Zn165  1  0.06299079  0.80803111  0.06102765  1
  Zn  Zn166  1  0.06178711  0.81340191  0.56247461  1
  Zn  Zn167  1  0.56052775  0.30935948  0.05899612  1
  Zn  Zn168  1  0.56373631  0.31602851  0.56206856  1
  Zn  Zn169  1  0.56182199  0.80981482  0.05986379  1
  Zn  Zn170  1  0.56110793  0.81172227  0.55969828  1
  O  O171  1  0.11175597  0.12530555  0.12299318  1
  O  O172  1  0.12177294  0.11350638  0.62200340  1
  O  O173  1  0.11477727  0.62490861  0.11885121  1
  O  O174  1  0.12139114  0.62099993  0.61683194  1
  O  O175  1  0.62147544  0.12153364  0.11789866  1
  O  O176  1  0.61903087  0.12015632  0.62504532  1
  O  O177  1  0.61498455  0.63089671  0.11654993  1
  O  O178  1  0.62517224  0.61701965  0.61976613  1
  O  O179  1  0.38645249  0.38326167  0.37396099  1
  O  O180  1  0.37770961  0.38929213  0.87857978  1
  O  O181  1  0.38224890  0.87121780  0.38622279  1
  O  O182  1  0.38352231  0.87725779  0.88336330  1
  O  O183  1  0.87058557  0.38596963  0.38308550  1
  O  O184  1  0.87889756  0.38199557  0.87073561  1
  O  O185  1  0.88518992  0.86678099  0.38419107  1
  O  O186  1  0.87597339  0.88630261  0.87350367  1
  O  O187  1  0.25184329  0.01391412  0.37223832  1
  O  O188  1  0.25792254  0.00649614  0.86145226  1
  O  O189  1  0.26220634  0.49739239  0.36894389  1
  O  O190  1  0.25638970  0.49747683  0.86216416  1
  O  O191  1  0.73822456  0.01810160  0.38016248  1
  O  O192  1  0.75929974  0.00610237  0.87324395  1
  O  O193  1  0.75617271  0.50343287  0.36874801  1
  O  O194  1  0.76117397  0.50613463  0.87542731  1
  O  O195  1  0.24790742  0.49824497  0.14046205  1
  O  O196  1  0.24769324  0.49310126  0.63251768  1
  O  O197  1  0.25173459  0.99410919  0.13451134  1
  O  O198  1  0.24473660  0.99463883  0.63259072  1
  O  O199  1  0.75710538  0.48535213  0.13145158  1
  O  O200  1  0.73669467  0.49078574  0.62002752  1
  O  O201  1  0.74114193  0.99513389  0.12417648  1
  O  O202  1  0.74199077  0.99395701  0.62255275  1
  O  O203  1  -0.00311138  0.36205626  0.24820733  1
  O  O204  1  0.00382543  0.36796593  0.75496398  1
  O  O205  1  0.00174302  0.87032210  0.25695266  1
  O  O206  1  0.00173263  0.86353916  0.75726142  1
  O  O207  1  0.50164686  0.37087443  0.25754557  1
  O  O208  1  0.51092176  0.37349136  0.74646017  1
  O  O209  1  0.50015332  0.88022174  0.26354285  1
  O  O210  1  0.50097403  0.87275416  0.76012435  1
  O  O211  1  0.50533391  0.13392515  0.24090767  1
  O  O212  1  0.49378484  0.12123958  0.73754962  1
  O  O213  1  0.48934336  0.61673514  0.23701911  1
  O  O214  1  0.48898300  0.62721832  0.75079944  1
  O  O215  1  0.99898090  0.13337966  0.24005989  1
  O  O216  1  0.99549867  0.13099845  0.74416012  1
  O  O217  1  0.99715694  0.62729023  0.24366884  1
  O  O218  1  1.00316438  0.64143514  0.74813104  1
  O  O219  1  0.38126227  0.25871363  0.00903956  1
  O  O220  1  0.36447078  0.24589584  0.51229972  1
  O  O221  1  0.36765415  0.75429758  0.00531761  1
  O  O222  1  0.37173211  0.75865908  0.50289245  1
  O  O223  1  0.87792796  0.25232760  0.01501517  1
  O  O224  1  0.86744361  0.26388054  0.49728492  1
  O  O225  1  0.86703354  0.73977835  0.00810538  1
  O  O226  1  0.86959823  0.75971119  0.50482579  1
  O  O227  1  0.14689433  0.23238019  0.51829951  1
  O  O228  1  0.12680590  0.24544608  0.98620242  1
  O  O229  1  0.12455415  0.74352950  0.49343892  1
  O  O230  1  0.13308935  0.73950984  0.99495046  1
  O  O231  1  0.63260399  0.25194068  0.49235210  1
  O  O232  1  0.62255482  0.24380691  0.98447841  1
  O  O233  1  0.63156512  0.74313264  0.49184468  1
  O  O234  1  0.63040931  0.73913358  0.99060998  1
  O  O235  1  0.49526498  0.24201190  0.13244869  1
  O  O236  1  0.49308985  0.24252115  0.61737321  1
  O  O237  1  0.48724176  0.74117933  0.11951587  1
  O  O238  1  0.49943372  0.74761242  0.62942723  1
  O  O239  1  0.98561521  0.24301479  0.13416463  1
  O  O240  1  1.00842110  0.24798418  0.63571604  1
  O  O241  1  0.99607268  0.74110992  0.13077330  1
  O  O242  1  0.98991903  0.75147757  0.63097307  1
  O  O243  1  -0.00896143  0.25273483  0.35628854  1
  O  O244  1  0.00754403  0.25529290  0.86537653  1
  O  O245  1  0.00681986  0.75789201  0.36961961  1
  O  O246  1  0.00161387  0.75467045  0.86926063  1
  O  O247  1  0.50378927  0.25654016  0.37144978  1
  O  O248  1  0.51080156  0.24612377  0.87276060  1
  O  O249  1  0.50942352  0.76035802  0.38164428  1
  O  O250  1  0.50902672  0.75758005  0.87532977  1
  O  O251  1  0.24847446  0.12567039  0.49019131  1
  O  O252  1  0.24927423  0.11976403  0.98497407  1
  O  O253  1  0.23761366  0.62700388  0.50454248  1
  O  O254  1  0.24377408  0.63446858  1.00764338  1
  O  O255  1  0.74848588  0.13541729  0.49341193  1
  O  O256  1  0.73731629  0.12354664  0.99171519  1
  O  O257  1  0.74306848  0.62776983  0.49198617  1
  O  O258  1  0.74176275  0.63039777  0.99448691  1
  O  O259  1  0.26768551  0.37722648  -0.00917367  1
  O  O260  1  0.25390027  0.36663301  0.51421805  1
  O  O261  1  0.25722971  0.86793184  0.00545609  1
  O  O262  1  0.25804816  0.87929632  0.50564472  1
  O  O263  1  0.74776426  0.37859690  0.01256833  1
  O  O264  1  0.75535647  0.37072659  0.50752136  1
  O  O265  1  0.74470070  0.85671465  0.00140711  1
  O  O266  1  0.75562605  0.87216381  0.50584121  1
  O  O267  1  0.14132150  0.50023016  0.25378314  1
  O  O268  1  0.13200822  0.49719768  0.74655801  1
  O  O269  1  0.14463947  0.99687112  0.25854146  1
  O  O270  1  0.13402928  0.99808231  0.74574900  1
  O  O271  1  0.63850445  0.50003773  0.25441900  1
  O  O272  1  0.62017285  0.49144483  0.74227733  1
  O  O273  1  0.63109488  0.99999927  0.23658322  1
  O  O274  1  0.62795168  0.99836689  0.73781135  1
  O  O275  1  0.35650401  -0.00693249  0.25431478  1
  O  O276  1  0.36928149  0.01329373  0.74804347  1
  O  O277  1  0.36421629  0.50499215  0.25612525  1
  O  O278  1  0.36966464  0.50665250  0.75721473  1
  O  O279  1  0.86597432  0.00692310  0.25337783  1
  O  O280  1  0.87194621  0.01139520  0.75351413  1
  O  O281  1  0.86735218  0.50175960  0.25647677  1
  O  O282  1  0.87756792  0.49863537  0.76213273  1
  O  O283  1  0.11552539  0.36038484  0.42291650  1
  O  O284  1  0.11759146  0.37034024  0.86712809  1
  O  O285  1  0.11367522  0.86757604  0.37724266  1
  O  O286  1  0.11492323  0.86051729  0.87497568  1
  O  O287  1  0.61494215  0.36665082  0.37359133  1
  O  O288  1  0.62846611  0.36202327  0.86891772  1
  O  O289  1  0.61703141  0.86522323  0.37489640  1
  O  O290  1  0.61936839  0.86840749  0.87686285  1
  O  O291  1  0.38839921  0.13218144  0.11676239  1
  O  O292  1  0.38203483  0.13423642  0.63140316  1
  O  O293  1  0.38026507  0.63247639  0.13172571  1
  O  O294  1  0.37727456  0.62723588  0.63865763  1
  O  O295  1  0.87826609  0.13424297  0.12544190  1
  O  O296  1  0.88517044  0.12133847  0.63205575  1
  O  O297  1  0.88713691  0.62725347  0.12764338  1
  O  O298  1  0.87292826  0.63947418  0.61747343  1
  O  O299  1  0.26451865  0.23495166  0.12982152  1
  O  O300  1  0.26068076  0.25726227  0.62341506  1
  O  O301  1  0.25869284  0.75781647  0.11721872  1
  O  O302  1  0.24735736  0.76615376  0.62298842  1
  O  O303  1  0.75874480  0.25964628  0.13029881  1
  O  O304  1  0.74305973  0.25833518  0.61249794  1
  O  O305  1  0.76134698  0.74600678  0.11659449  1
  O  O306  1  0.75347163  0.75793002  0.61811375  1
  O  O307  1  0.25881479  0.23519996  0.38474810  1
  O  O308  1  0.24382279  0.24424226  0.86708200  1
  O  O309  1  0.23580363  0.75832048  0.37545877  1
  O  O310  1  0.24084171  0.75561811  0.88603159  1
  O  O311  1  0.74278120  0.24881815  0.38385459  1
  O  O312  1  0.74855213  0.23906855  0.87416091  1
  O  O313  1  0.74427801  0.74202632  0.37916674  1
  O  O314  1  0.74553139  0.74253181  0.88023368  1
  O  O315  1  0.00166292  0.13082112  0.01624618  1
  O  O316  1  0.00741697  0.12410551  0.50377333  1
  O  O317  1  0.00882837  0.62322221  0.00833131  1
  O  O318  1  0.00382301  0.61433640  0.50088899  1
  O  O319  1  0.51413172  0.12685141  0.00960048  1
  O  O320  1  0.50168141  0.11829595  0.51095292  1
  O  O321  1  0.50715080  0.61983885  0.00925677  1
  O  O322  1  0.50711455  0.61402007  0.50029807  1
  O  O323  1  0.50405411  0.38863560  0.49203545  1
  O  O324  1  0.49123122  0.38551715  1.00488162  1
  O  O325  1  0.49330290  0.88284171  0.49291428  1
  O  O326  1  0.48981542  0.86866090  0.99106157  1
  O  O327  1  0.98479504  0.38992828  0.51060825  1
  O  O328  1  0.99450527  0.37379498  0.98082647  1
  O  O329  1  0.99192952  0.87974287  0.49409547  1
  O  O330  1  0.99753106  0.86590439  0.98833557  1
  O  O331  1  0.49230413  0.49349093  0.37985210  1
  O  O332  1  0.49244180  0.50587990  0.89068666  1
  O  O333  1  0.51063163  0.99303185  0.38591172  1
  O  O334  1  0.50163593  0.98910359  0.87268987  1
  O  O335  1  0.99385229  0.49465804  0.38048402  1
  O  O336  1  0.99014199  0.49216580  0.87218711  1
  O  O337  1  1.00592250  0.98961044  0.38130203  1
  O  O338  1  0.97931750  0.98739509  0.86546054  1
  O  O339  1  -0.00489965  0.01444822  0.12785329  1
  O  O340  1  0.00741129  0.00312565  0.61973297  1
  O  O341  1  0.00323093  0.50494958  0.12352976  1
  O  O342  1  0.00636904  0.50441732  0.61857916  1
  O  O343  1  0.50621277  0.01107640  0.13075072  1
  O  O344  1  0.50690014  0.00647567  0.61930102  1
  O  O345  1  0.49319531  0.50926107  0.11381883  1
  O  O346  1  0.50919085  0.50110824  0.61694595  1
  O  O347  1  0.25329297  0.38454810  0.25398862  1
  O  O348  1  0.24665348  0.38270484  0.74026701  1
  O  O349  1  0.24727631  0.88287482  0.24002231  1
  O  O350  1  0.25073499  0.88466885  0.74236487  1
  O  O351  1  0.74755193  0.38123228  0.24129466  1
  O  O352  1  0.74182177  0.36807356  0.73798731  1
  O  O353  1  0.74323118  0.87294294  0.24444496  1
  O  O354  1  0.74766745  0.87725293  0.73608739  1
  O  O355  1  0.25201048  0.11812304  0.26449350  1
  O  O356  1  0.25951857  0.11964110  0.75307225  1
  O  O357  1  0.26066912  0.61847109  0.24653210  1
  O  O358  1  0.25762388  0.61594247  0.74517093  1
  O  O359  1  0.74738549  0.13073852  0.26820281  1
  O  O360  1  0.75911187  0.12461671  0.75695677  1
  O  O361  1  0.75709084  0.61650333  0.25274619  1
  O  O362  1  0.74635988  0.62806761  0.76209243  1
  O  O363  1  0.37114031  0.12219473  0.37930617  1
  O  O364  1  0.37171275  0.12660836  0.86830368  1
  O  O365  1  0.38216208  0.61625315  0.36429191  1
  O  O366  1  0.37649464  0.61391314  0.86735243  1
  O  O367  1  0.85811834  0.13085908  0.37893885  1
  O  O368  1  0.86989940  0.11599506  0.87161746  1
  O  O369  1  0.87180708  0.61376825  0.37013710  1
  O  O370  1  0.86725445  0.61208316  0.87601438  1
  O  O371  1  0.12589478  0.37004240  0.10239449  1
  O  O372  1  0.13463509  0.38363141  0.62703668  1
  O  O373  1  0.13777664  0.87032574  0.12226134  1
  O  O374  1  0.13163151  0.88737014  0.62437738  1
  O  O375  1  0.63878603  0.36694194  0.12566438  1
  O  O376  1  0.62997703  0.38106493  0.63314415  1
  O  O377  1  0.62192930  0.88249744  0.12417402  1
  O  O378  1  0.63314022  0.88253812  0.62283872  1
  O  O379  1  0.10856077  0.24955247  0.24755579  1
  O  O380  1  0.11959344  0.25871617  0.75393277  1
  O  O381  1  0.11919017  0.75217658  0.25642034  1
  O  O382  1  0.11984166  0.75231883  0.75797504  1
  O  O383  1  0.61384067  0.25388957  0.25817427  1
  O  O384  1  0.62790216  0.25577576  0.76492058  1
  O  O385  1  0.62580617  0.74603527  0.26203644  1
  O  O386  1  0.62532394  0.75273186  0.76394958  1
  O  O387  1  0.38777975  0.25446361  0.24288615  1
  O  O388  1  0.37297124  0.24000978  0.74254598  1
  O  O389  1  0.36949873  0.74281783  0.24034451  1
  O  O390  1  0.37257063  0.74051490  0.75107875  1
  O  O391  1  0.87948140  0.24442937  0.23776145  1
  O  O392  1  0.88570619  0.23514264  0.75542643  1
  O  O393  1  0.88203665  0.74009749  0.24289341  1
  O  O394  1  0.88054322  0.75505354  0.73940275  1
  O  O395  1  0.38309137  0.50741775  0.49178345  1
  O  O396  1  0.38045254  0.49658871  0.99476459  1
  O  O397  1  0.38773806  0.99305398  0.50593157  1
  O  O398  1  0.37134821  0.98707641  0.99942501  1
  O  O399  1  0.88015593  0.49695628  0.49235118  1
  O  O400  1  0.87869337  0.49379296  0.98554214  1
  O  O401  1  0.88033419  0.98788648  0.50362198  1
  O  O402  1  0.87154925  1.00193304  0.98771145  1
  O  O403  1  0.11416756  0.01268201  -0.04747473  1
  O  O404  1  0.11954052  0.00787636  0.50838434  1
  O  O405  1  0.12392469  0.51323731  -0.00395643  1
  O  O406  1  0.11818501  0.50966499  0.50388534  1
  O  O407  1  0.62678484  0.00907311  0.01145199  1
  O  O408  1  0.61518909  0.00254675  0.51163646  1
  O  O409  1  0.61830221  0.51067315  -0.00494107  1
  O  O410  1  0.61846625  0.50494148  0.50612718  1
  O  O411  1  0.37644101  0.36303059  0.11571696  1
  O  O412  1  0.37106542  0.36599083  0.63270677  1
  O  O413  1  0.37016589  0.86819556  0.11882743  1
  O  O414  1  0.36772950  0.87570997  0.61545863  1
  O  O415  1  0.86365583  0.36397796  0.12116571  1
  O  O416  1  0.86256669  0.38298212  0.61726760  1
  O  O417  1  0.87833068  0.85908658  0.12709512  1
  O  O418  1  0.86744816  0.86839263  0.61779368  1
  O  O419  1  0.12774848  0.12423187  0.38558934  1
  O  O420  1  0.13890249  0.14102238  0.86010593  1
  O  O421  1  0.11844688  0.63704858  0.38584238  1
  O  O422  1  0.11882328  0.63740466  0.88350815  1
  O  O423  1  0.63008353  0.13933466  0.37900954  1
  O  O424  1  0.63107305  0.13333494  0.87860352  1
  O  O425  1  0.62739107  0.62991175  0.37971576  1
  O  O426  1  0.63137360  0.63056183  0.88133912  1
