# generated using pymatgen
data_V85Zn86O256
_symmetry_space_group_name_H-M   'P 1'
_cell_length_a   16.99030654
_cell_length_b   16.96960604
_cell_length_c   16.95966347
_cell_angle_alpha   90.06656387
_cell_angle_beta   89.97432242
_cell_angle_gamma   89.99514599
_symmetry_Int_Tables_number   1
_chemical_formula_structural   V85Zn86O256
_chemical_formula_sum   'V85 Zn86 O256'
_cell_volume   4889.78615747
_cell_formula_units_Z   1
loop_
 _symmetry_equiv_pos_site_id
 _symmetry_equiv_pos_as_xyz
  1  'x, y, z'
loop_
 _atom_site_type_symbol
 _atom_site_label
 _atom_site_symmetry_multiplicity
 _atom_site_fract_x
 _atom_site_fract_y
 _atom_site_fract_z
 _atom_site_occupancy
  V  V0  1  0.12303041  0.61256078  0.00211019  1
  V  V1  1  0.12590751  0.12733170  0.49929946  1
  V  V2  1  0.11996681  0.50673742  0.62188079  1
  V  V3  1  0.36996701  0.51075311  0.34631734  1
  V  V4  1  0.88609137  0.38220536  -0.02122794  1
  V  V5  1  0.24953218  0.75230920  -0.00383081  1
  V  V6  1  0.75062089  0.24934242  -0.00018581  1
  V  V7  1  0.63193005  0.63290443  0.00009941  1
  V  V8  1  0.13145871  0.13507076  -0.00051861  1
  V  V9  1  0.11621862  0.63315185  0.49851637  1
  V  V10  1  0.37492975  0.12257471  0.25331925  1
  V  V11  1  0.49897988  0.12379137  0.62377154  1
  V  V12  1  0.87745898  0.12205763  0.25245946  1
  V  V13  1  0.11814727  0.74484021  0.87752638  1
  V  V14  1  0.62615745  0.12428650  0.50023349  1
  V  V15  1  0.49465218  0.50398222  0.49477592  1
  V  V16  1  0.61808932  0.25173523  0.87718855  1
  V  V17  1  0.62892875  -0.00825700  0.62229994  1
  V  V18  1  0.49868695  0.74817560  0.24571929  1
  V  V19  1  0.88762674  0.37651223  0.50119601  1
  V  V20  1  0.37191155  -0.00508697  0.37461102  1
  V  V21  1  0.87404798  0.50284961  0.37199233  1
  V  V22  1  0.49629226  0.25503477  0.75232054  1
  V  V23  1  0.62220760  0.49875058  0.11349232  1
  V  V24  1  0.37666828  0.62592852  0.74876925  1
  V  V25  1  0.37362318  0.25266550  0.62256890  1
  V  V26  1  0.50045274  0.87558716  0.36488325  1
  V  V27  1  0.00452191  0.87121002  0.36611310  1
  V  V28  1  -0.01425747  0.61956873  0.12435863  1
  V  V29  1  0.24486896  -0.00338494  0.24935459  1
  V  V30  1  -0.01775697  0.74855147  0.24025965  1
  V  V31  1  0.62881837  0.37873537  0.24923047  1
  V  V32  1  0.24901629  0.87833486  0.62537334  1
  V  V33  1  0.62597067  0.75603072  0.36622379  1
  V  V34  1  0.39212930  0.50104093  0.88200663  1
  V  V35  1  0.50532825  0.11531528  0.12632534  1
  V  V36  1  0.74706095  0.86330649  0.12628974  1
  V  V37  1  -0.00381929  0.87429318  0.87013928  1
  V  V38  1  0.75621637  0.37486560  0.12606783  1
  V  V39  1  0.24808432  0.87388689  0.12559392  1
  V  V40  1  -0.00265532  -0.00079465  0.49107004  1
  V  V41  1  0.49781215  -0.00460227  -0.01853391  1
  V  V42  1  0.62442899  0.75519357  0.88153672  1
  V  V43  1  0.12352298  0.00211644  0.62713848  1
  V  V44  1  0.87623982  0.25312957  0.62548856  1
  V  V45  1  0.87276279  0.00010257  0.87680473  1
  V  V46  1  0.12993080  0.50050188  0.14887307  1
  V  V47  1  0.14409849  0.74472031  0.34126782  1
  V  V48  1  0.75717631  0.11891898  0.37525282  1
  V  V49  1  0.00044527  0.12764998  0.62698916  1
  V  V50  1  0.25051078  0.38078022  0.62235339  1
  V  V51  1  0.36800010  0.24154601  0.11041093  1
  V  V52  1  0.75327400  0.62792359  0.36979929  1
  V  V53  1  0.12198052  -0.00708888  0.12740579  1
  V  V54  1  0.50097330  0.24536700  0.25008622  1
  V  V55  1  0.24748188  0.74509591  0.49886978  1
  V  V56  1  0.62499022  0.62906112  0.49567697  1
  V  V57  1  0.61873077  0.87616687  0.75436426  1
  V  V58  1  0.87671412  0.74488399  0.62209050  1
  V  V59  1  0.49791318  0.37680574  0.37010398  1
  V  V60  1  -0.00175969  -0.00098487  0.00157756  1
  V  V61  1  0.37480190  0.75099049  0.62233078  1
  V  V62  1  0.24818484  0.12256376  0.37756119  1
  V  V63  1  0.49999961  0.62942969  0.62585103  1
  V  V64  1  0.37325646  0.87449187  0.49712741  1
  V  V65  1  0.62681313  0.24953922  0.37485983  1
  V  V66  1  0.87307647  0.87929876  0.49775748  1
  V  V67  1  0.00051812  0.25865481  0.25317591  1
  V  V68  1  0.75056575  -0.00519637  0.74571700  1
  V  V69  1  0.74690069  -0.00187844  0.24619300  1
  V  V70  1  0.49934732  -0.00144479  0.49892455  1
  V  V71  1  0.86981113  0.86374665  0.00604205  1
  V  V72  1  0.87555868  0.12393409  0.75083381  1
  V  V73  1  0.75056471  0.25395528  0.49994024  1
  V  V74  1  0.37294387  0.12299387  0.75677854  1
  V  V75  1  -0.00246391  0.73699693  0.74527462  1
  V  V76  1  0.49567197  0.62252774  0.12040593  1
  V  V77  1  0.00488829  0.12702237  0.12676504  1
  V  V78  1  0.37511953  0.74955530  0.12063095  1
  V  V79  1  0.25093047  0.62563519  0.87479298  1
  V  V80  1  0.25274732  -0.00226972  0.76172441  1
  V  V81  1  0.24918659  0.49860113  0.75022439  1
  V  V82  1  0.74805207  0.75794198  0.50479055  1
  V  V83  1  0.12591457  0.25996290  0.37578691  1
  V  V84  1  0.62235273  0.37797475  0.74822172  1
  Zn  Zn85  1  0.74876897  0.12432242  0.87618188  1
  Zn  Zn86  1  0.00832500  0.38557285  0.37165686  1
  Zn  Zn87  1  0.25047449  0.38567760  0.13824980  1
  Zn  Zn88  1  0.62744852  0.12184905  0.00085950  1
  Zn  Zn89  1  0.74895428  0.51329579  0.75134552  1
  Zn  Zn90  1  0.87918060  0.25340440  0.12228249  1
  Zn  Zn91  1  0.80091311  0.69160505  -0.06274648  1
  Zn  Zn92  1  0.24971059  0.25330419  0.50118219  1
  Zn  Zn93  1  0.75333494  0.50694179  0.24843227  1
  Zn  Zn94  1  0.12926252  0.26572872  0.86035943  1
  Zn  Zn95  1  0.74581349  0.37806462  0.62585040  1
  Zn  Zn96  1  -0.00253460  0.50937536  0.50081101  1
  Zn  Zn97  1  0.12129098  0.87444895  0.75095990  1
  Zn  Zn98  1  0.37489694  0.37848534  0.49436459  1
  Zn  Zn99  1  0.38706665  0.37596764  -0.00495818  1
  Zn  Zn100  1  0.86596687  0.62336495  0.77220051  1
  Zn  Zn101  1  -0.01616334  0.27349450  0.78434255  1
  Zn  Zn102  1  0.37629512  0.88130829  -0.02065378  1
  Zn  Zn103  1  0.25411114  0.12939371  0.88275366  1
  Zn  Zn104  1  0.62643089  -0.00493979  0.12380758  1
  Zn  Zn105  1  0.62290786  0.50045212  0.62111953  1
  Zn  Zn106  1  0.49541730  0.75845717  0.75813976  1
  Zn  Zn107  1  0.20342748  0.22053212  0.20639018  1
  Zn  Zn108  1  0.19111563  0.19263469  0.69853528  1
  Zn  Zn109  1  0.18035363  0.69191056  0.18160593  1
  Zn  Zn110  1  0.18502135  0.68675617  0.68760377  1
  Zn  Zn111  1  0.68892232  0.18804950  0.18672783  1
  Zn  Zn112  1  0.68672596  0.18564271  0.68757201  1
  Zn  Zn113  1  0.68572486  0.68875297  0.18764041  1
  Zn  Zn114  1  0.68527745  0.69267593  0.68756735  1
  Zn  Zn115  1  0.31084307  0.31702279  0.30939346  1
  Zn  Zn116  1  0.30469213  0.32072883  0.82066415  1
  Zn  Zn117  1  0.30640262  0.79775167  0.30288078  1
  Zn  Zn118  1  0.31315463  0.81193365  0.81338588  1
  Zn  Zn119  1  0.81651197  0.31203106  0.31445215  1
  Zn  Zn120  1  0.80140753  0.30938564  0.81061901  1
  Zn  Zn121  1  0.81457862  0.81842514  0.31543449  1
  Zn  Zn122  1  0.80903710  0.81411532  0.80688575  1
  Zn  Zn123  1  0.19483593  0.44497570  0.43575496  1
  Zn  Zn124  1  0.20671686  0.42890389  0.95331328  1
  Zn  Zn125  1  0.18177736  0.93022372  0.43513584  1
  Zn  Zn126  1  0.18439184  0.93579020  0.94029857  1
  Zn  Zn127  1  0.68715263  0.44154087  0.43873590  1
  Zn  Zn128  1  0.69008872  0.43007594  0.93574157  1
  Zn  Zn129  1  0.68731136  0.93825823  0.43279514  1
  Zn  Zn130  1  0.68640627  0.93727753  0.93864398  1
  Zn  Zn131  1  0.31397318  0.06013405  0.06328046  1
  Zn  Zn132  1  0.31188265  0.06255239  0.56619921  1
  Zn  Zn133  1  0.30833769  0.56021583  0.06414334  1
  Zn  Zn134  1  0.31212348  0.56471948  0.55504126  1
  Zn  Zn135  1  0.81527687  0.06281147  0.06569958  1
  Zn  Zn136  1  0.81371973  0.06246843  0.56220894  1
  Zn  Zn137  1  0.80866853  0.55377054  0.06006981  1
  Zn  Zn138  1  0.84120966  0.53673776  0.60961357  1
  Zn  Zn139  1  0.44658674  0.42452657  0.16236398  1
  Zn  Zn140  1  0.43862796  0.44081484  0.68615669  1
  Zn  Zn141  1  0.43255367  0.93322943  0.18287846  1
  Zn  Zn142  1  0.43513170  0.93847416  0.69213875  1
  Zn  Zn143  1  0.93832563  0.44206292  0.18766258  1
  Zn  Zn144  1  0.92767254  0.45000107  0.78781490  1
  Zn  Zn145  1  0.93192399  0.93861211  0.18956646  1
  Zn  Zn146  1  0.93536317  0.93529434  0.68145557  1
  Zn  Zn147  1  0.06333237  0.06354973  0.31126757  1
  Zn  Zn148  1  0.06140707  0.06641685  0.81490589  1
  Zn  Zn149  1  0.05645587  0.57328464  0.31568011  1
  Zn  Zn150  1  0.08206855  0.44137821  0.81671139  1
  Zn  Zn151  1  0.56653471  0.05931971  0.31302659  1
  Zn  Zn152  1  0.56559679  0.06901577  0.80961158  1
  Zn  Zn153  1  0.56001929  0.56392713  0.30657566  1
  Zn  Zn154  1  0.59709814  0.54283743  0.83764031  1
  Zn  Zn155  1  0.43704966  0.18697587  0.43698736  1
  Zn  Zn156  1  0.44230062  0.17902843  0.93696302  1
  Zn  Zn157  1  0.43255781  0.68470188  0.42986928  1
  Zn  Zn158  1  0.44377409  0.69033960  0.93765690  1
  Zn  Zn159  1  0.93999504  0.18944902  0.43805818  1
  Zn  Zn160  1  0.93972637  0.18945819  0.94095121  1
  Zn  Zn161  1  0.93659226  0.69329652  0.43102476  1
  Zn  Zn162  1  0.95016302  0.56568027  0.93361370  1
  Zn  Zn163  1  0.06391173  0.31765223  0.06404106  1
  Zn  Zn164  1  0.06301141  0.32331074  0.65829845  1
  Zn  Zn165  1  0.05705003  0.80850265  0.06254172  1
  Zn  Zn166  1  0.06027977  0.81543209  0.56244336  1
  Zn  Zn167  1  0.55799144  0.31017571  0.06265484  1
  Zn  Zn168  1  0.55861168  0.31330948  0.56087079  1
  Zn  Zn169  1  0.56319726  0.81773597  0.05988222  1
  Zn  Zn170  1  0.56076507  0.81446490  0.55940185  1
  O  O171  1  0.11358531  0.11565474  0.11700759  1
  O  O172  1  0.12307496  0.11554517  0.61757719  1
  O  O173  1  0.11930751  0.61742999  0.12036217  1
  O  O174  1  0.13463789  0.62026379  0.60882851  1
  O  O175  1  0.61807957  0.12233630  0.12440807  1
  O  O176  1  0.61890647  0.11676541  0.61858939  1
  O  O177  1  0.62075342  0.61878437  0.12154975  1
  O  O178  1  0.61373907  0.63127882  0.61216090  1
  O  O179  1  0.38924213  0.37430116  0.37164391  1
  O  O180  1  0.37720666  0.39470629  0.87641679  1
  O  O181  1  0.38057509  0.87760372  0.37653476  1
  O  O182  1  0.36682603  0.88644071  0.86859434  1
  O  O183  1  0.87214737  0.38473549  0.38629337  1
  O  O184  1  0.87403396  0.37270176  0.87476222  1
  O  O185  1  0.88970278  0.87156276  0.38748523  1
  O  O186  1  0.87833698  0.88004281  0.88320042  1
  O  O187  1  0.25134427  0.00043794  0.36996319  1
  O  O188  1  0.23933510  0.00346914  0.86267483  1
  O  O189  1  0.27250365  0.49066345  0.36641014  1
  O  O190  1  0.26317883  0.51249119  0.86339084  1
  O  O191  1  0.74855522  0.01322262  0.36917932  1
  O  O192  1  0.75511340  0.00265739  0.86626187  1
  O  O193  1  0.75508271  0.51142902  0.37710046  1
  O  O194  1  0.70413643  0.50326249  0.85598335  1
  O  O195  1  0.23517724  0.51016381  0.13796339  1
  O  O196  1  0.25227760  0.49675343  0.62716788  1
  O  O197  1  0.24188460  0.99243463  0.12752237  1
  O  O198  1  0.24156487  0.99415491  0.63040140  1
  O  O199  1  0.74037977  0.49166855  0.12999662  1
  O  O200  1  0.73656427  0.49444655  0.62714601  1
  O  O201  1  0.74924108  0.99563078  0.13259985  1
  O  O202  1  0.73990302  1.00667539  0.63146269  1
  O  O203  1  -0.00609163  0.36236373  0.25317371  1
  O  O204  1  0.00538283  0.37758587  0.74299360  1
  O  O205  1  -0.01132086  0.86530740  0.25554364  1
  O  O206  1  -0.00069523  0.88000433  0.76211895  1
  O  O207  1  0.51125010  0.36604011  0.25326986  1
  O  O208  1  0.49950583  0.35828354  0.74205570  1
  O  O209  1  0.49563011  0.86838732  0.25846775  1
  O  O210  1  0.51442613  0.87698790  0.74250715  1
  O  O211  1  0.49506914  0.12435970  0.24791350  1
  O  O212  1  0.49217315  0.13089262  0.74172282  1
  O  O213  1  0.50748600  0.64243620  0.23907626  1
  O  O214  1  0.49300632  0.63119257  0.73218973  1
  O  O215  1  0.99251472  0.12869695  0.24518826  1
  O  O216  1  0.98437472  0.11603149  0.74285769  1
  O  O217  1  0.99840324  0.63831954  0.23743738  1
  O  O218  1  0.99254615  0.64062522  0.74617466  1
  O  O219  1  0.38607464  0.25000135  0.00888160  1
  O  O220  1  0.37500606  0.24934535  0.51193512  1
  O  O221  1  0.36933755  0.75294363  0.00548842  1
  O  O222  1  0.36686634  0.75535873  0.50070001  1
  O  O223  1  0.86565679  0.26120339  0.00040542  1
  O  O224  1  0.86712689  0.25436283  0.50395339  1
  O  O225  1  0.87047296  0.76644257  -0.00003643  1
  O  O226  1  0.86677991  0.75974588  0.50002509  1
  O  O227  1  0.12565759  0.23251676  0.49253119  1
  O  O228  1  0.12627046  0.23495991  1.01096751  1
  O  O229  1  0.13081339  0.74271535  0.50622061  1
  O  O230  1  0.12854348  0.74536100  0.99311755  1
  O  O231  1  0.63132695  0.24392617  0.49525011  1
  O  O232  1  0.62921763  0.25104977  0.99404385  1
  O  O233  1  0.62874967  0.74971915  0.48885961  1
  O  O234  1  0.62553693  0.74920150  0.99130696  1
  O  O235  1  0.49373680  0.23112145  0.13366654  1
  O  O236  1  0.49258170  0.24248139  0.62830705  1
  O  O237  1  0.49494829  0.74944558  0.12851247  1
  O  O238  1  0.49033134  0.74578706  0.62065697  1
  O  O239  1  1.00199997  0.24354013  0.13483939  1
  O  O240  1  0.98393106  0.24213032  0.61737411  1
  O  O241  1  0.99462384  0.73993291  0.13223992  1
  O  O242  1  0.99463844  0.76054200  0.63921058  1
  O  O243  1  0.00752246  0.25366593  0.37045843  1
  O  O244  1  0.01740456  0.24366850  0.88401210  1
  O  O245  1  0.00593072  0.75384874  0.35925418  1
  O  O246  1  0.00591767  0.75983234  0.85967923  1
  O  O247  1  0.50766871  0.25606278  0.37102543  1
  O  O248  1  0.50484064  0.24289569  0.86410264  1
  O  O249  1  0.50348603  0.75664779  0.36574625  1
  O  O250  1  0.51622290  0.75236393  0.87268495  1
  O  O251  1  0.24187588  0.12245114  0.49526455  1
  O  O252  1  0.23457608  0.11381604  0.99957509  1
  O  O253  1  0.24578479  0.64068585  0.49579606  1
  O  O254  1  0.24351918  0.63452057  0.99444023  1
  O  O255  1  0.74837839  0.13294045  0.49231719  1
  O  O256  1  0.75051370  0.13844233  1.00277562  1
  O  O257  1  0.73205728  0.63908901  0.48736288  1
  O  O258  1  0.73724070  0.62841064  1.01084684  1
  O  O259  1  0.27769867  0.39050961  0.02740959  1
  O  O260  1  0.25794522  0.37523241  0.50722887  1
  O  O261  1  0.25027881  0.86953423  0.00833301  1
  O  O262  1  0.25408837  0.87725731  0.51392768  1
  O  O263  1  0.75731155  0.36674650  0.00518875  1
  O  O264  1  0.74958552  0.36115927  0.49655858  1
  O  O265  1  0.76116257  0.88272652  0.01253011  1
  O  O266  1  0.76005424  0.87019962  0.48883543  1
  O  O267  1  0.12132355  0.50518690  0.24784925  1
  O  O268  1  0.14421999  0.50869408  0.73633899  1
  O  O269  1  0.13025255  1.00495014  0.23608617  1
  O  O270  1  0.13051044  1.00084238  0.74129786  1
  O  O271  1  0.62826068  0.48772281  0.24703667  1
  O  O272  1  0.59724046  0.47948736  0.73883326  1
  O  O273  1  0.64288468  1.00295071  0.25016090  1
  O  O274  1  0.63091978  0.99809500  0.74184878  1
  O  O275  1  0.36825961  0.00653765  0.25416622  1
  O  O276  1  0.36337096  0.01089242  0.73989683  1
  O  O277  1  0.38527781  0.48918761  0.24973696  1
  O  O278  1  0.37330668  0.51389436  0.75239287  1
  O  O279  1  0.86577042  0.01537842  0.24734887  1
  O  O280  1  0.86667965  0.00304406  0.75203029  1
  O  O281  1  0.87127457  0.49515982  0.26783046  1
  O  O282  1  0.86429570  0.51321080  0.72451378  1
  O  O283  1  0.12627161  0.36267601  0.38577048  1
  O  O284  1  0.15470527  0.37843806  0.87094752  1
  O  O285  1  0.11179013  0.86049235  0.37414268  1
  O  O286  1  0.11404233  0.86498828  0.87650032  1
  O  O287  1  0.61726490  0.37214798  0.36842498  1
  O  O288  1  0.62021129  0.35874164  0.86523130  1
  O  O289  1  0.61228371  0.86855405  0.37891191  1
  O  O290  1  0.62607571  0.86921178  0.86676539  1
  O  O291  1  0.38437905  0.12606720  0.13512533  1
  O  O292  1  0.37982096  0.13284715  0.62988459  1
  O  O293  1  0.38483001  0.63492625  0.11748301  1
  O  O294  1  0.37935851  0.63143081  0.62703032  1
  O  O295  1  0.88841754  0.12885467  0.13164249  1
  O  O296  1  0.87851203  0.13096855  0.63159138  1
  O  O297  1  0.88726248  0.61357419  0.12006425  1
  O  O298  1  0.87880108  0.64606829  0.60874766  1
  O  O299  1  0.26998975  0.22132045  0.11347836  1
  O  O300  1  0.25802537  0.26065087  0.62489511  1
  O  O301  1  0.25611286  0.75609229  0.11694153  1
  O  O302  1  0.25379985  0.75971012  0.61825324  1
  O  O303  1  0.75198226  0.25852187  0.11786507  1
  O  O304  1  0.75829848  0.24450814  0.61468348  1
  O  O305  1  0.75181353  0.76464392  0.13245866  1
  O  O306  1  0.75421585  0.75436518  0.60848999  1
  O  O307  1  0.24263827  0.24014126  0.38052071  1
  O  O308  1  0.24121458  0.23788937  0.85403561  1
  O  O309  1  0.23813975  0.78389760  0.39850495  1
  O  O310  1  0.23832296  0.74459936  0.87479832  1
  O  O311  1  0.74585776  0.24093598  0.38076434  1
  O  O312  1  0.73986115  0.24702938  0.88478167  1
  O  O313  1  0.74190429  0.74889195  0.37879431  1
  O  O314  1  0.73337990  0.75830152  0.87200308  1
  O  O315  1  0.00491236  0.11814436  0.01108035  1
  O  O316  1  0.00643316  0.11713402  0.50413107  1
  O  O317  1  0.01009629  0.62528465  0.01636108  1
  O  O318  1  0.01373202  0.63231819  0.49753542  1
  O  O319  1  0.50399804  0.11314717  0.01012844  1
  O  O320  1  0.50599194  0.11741146  0.50229499  1
  O  O321  1  0.51436578  0.63368341  0.01403745  1
  O  O322  1  0.50496555  0.62377850  0.50180000  1
  O  O323  1  0.49971707  0.38548595  0.48790356  1
  O  O324  1  0.48386282  0.39074781  1.05266916  1
  O  O325  1  0.49187890  0.87987614  0.48888498  1
  O  O326  1  0.49784688  0.89233168  1.00284297  1
  O  O327  1  0.98787137  0.37496691  0.49609660  1
  O  O328  1  0.98129389  0.37031412  1.00253695  1
  O  O329  1  0.99719668  0.88231697  0.49076783  1
  O  O330  1  0.98783960  0.87771600  0.99228687  1
  O  O331  1  0.49430051  0.49296273  0.37451683  1
  O  O332  1  0.48965447  0.51108187  0.86905600  1
  O  O333  1  0.49517793  0.99199600  0.37799919  1
  O  O334  1  0.50353312  1.00620764  0.88327345  1
  O  O335  1  0.99095982  0.50268273  0.38076890  1
  O  O336  1  0.99839040  0.49588988  0.86390600  1
  O  O337  1  1.00885347  0.99006569  0.38231001  1
  O  O338  1  0.99413252  0.99244845  0.88115034  1
  O  O339  1  0.00510925  0.00466708  0.12364870  1
  O  O340  1  0.00763724  0.00542843  0.61698054  1
  O  O341  1  0.00954925  0.51467259  0.13452662  1
  O  O342  1  0.02144972  0.50055446  0.61740774  1
  O  O343  1  0.50465963  0.00791067  0.13299956  1
  O  O344  1  0.50642890  0.00462553  0.61757474  1
  O  O345  1  0.51307673  0.51763939  0.14202623  1
  O  O346  1  0.49793896  0.51158692  0.61082004  1
  O  O347  1  0.23082242  0.33061036  0.23556799  1
  O  O348  1  0.26662849  0.39124942  0.73546924  1
  O  O349  1  0.25439743  0.88138602  0.23372817  1
  O  O350  1  0.24379439  0.88045503  0.73761457  1
  O  O351  1  0.74404912  0.37247180  0.24334911  1
  O  O352  1  0.73192486  0.37115897  0.74590257  1
  O  O353  1  0.76320695  0.88568793  0.23672093  1
  O  O354  1  0.73886612  0.88900509  0.74816255  1
  O  O355  1  0.25848048  0.11923066  0.25826302  1
  O  O356  1  0.25895985  0.11260292  0.74454546  1
  O  O357  1  0.22876955  0.70491945  0.28295963  1
  O  O358  1  0.25949315  0.62282330  0.75318418  1
  O  O359  1  0.75810400  0.12273496  0.25631939  1
  O  O360  1  0.76037725  0.11598571  0.74947557  1
  O  O361  1  0.74191167  0.62549642  0.26542945  1
  O  O362  1  0.75734432  0.63003438  0.73880896  1
  O  O363  1  0.37003767  0.11403212  0.37225891  1
  O  O364  1  0.37391632  0.12590770  0.86051249  1
  O  O365  1  0.38208559  0.61119156  0.35973261  1
  O  O366  1  0.37361238  0.62612357  0.86404343  1
  O  O367  1  0.86736194  0.13067779  0.36748926  1
  O  O368  1  0.87324581  0.11929333  0.86705554  1
  O  O369  1  0.86324777  0.61652812  0.38650810  1
  O  O370  1  0.87721181  0.63342221  0.88384793  1
  O  O371  1  0.12100114  0.40007229  0.12143930  1
  O  O372  1  0.14311559  0.39071422  0.61569620  1
  O  O373  1  0.13136747  0.88272670  0.11733659  1
  O  O374  1  0.13035578  0.88770839  0.62446144  1
  O  O375  1  0.63573274  0.38046669  0.13161707  1
  O  O376  1  0.62407338  0.37061797  0.63272499  1
  O  O377  1  0.64298618  0.87611650  0.12214502  1
  O  O378  1  0.62253941  0.88762332  0.62678834  1
  O  O379  1  0.10853047  0.23179846  0.26745511  1
  O  O380  1  0.10362464  0.24671098  0.73795266  1
  O  O381  1  0.10115516  0.75774510  0.24472425  1
  O  O382  1  0.11312705  0.75097922  0.75437792  1
  O  O383  1  0.62196795  0.25823447  0.25523056  1
  O  O384  1  0.61468057  0.25199584  0.75418161  1
  O  O385  1  0.61832208  0.75337804  0.26022133  1
  O  O386  1  0.62116499  0.76220409  0.75564493  1
  O  O387  1  0.38374723  0.22974830  0.26064452  1
  O  O388  1  0.38039375  0.24300143  0.73846056  1
  O  O389  1  0.38565652  0.75567615  0.23086052  1
  O  O390  1  0.37482029  0.74023230  0.74186058  1
  O  O391  1  0.88301921  0.24007546  0.24889852  1
  O  O392  1  0.87402891  0.24214939  0.74339031  1
  O  O393  1  0.88353705  0.74829979  0.25519000  1
  O  O394  1  0.88465496  0.75741391  0.73968280  1
  O  O395  1  0.38729258  0.50406308  0.48817759  1
  O  O396  1  0.37817226  0.51662447  0.98192411  1
  O  O397  1  0.37897583  0.99403315  0.49464251  1
  O  O398  1  0.39397267  1.00286102  1.00515084  1
  O  O399  1  0.87664060  0.48976461  0.50261345  1
  O  O400  1  0.87195069  0.48474592  0.99380145  1
  O  O401  1  0.88883694  0.99624372  0.50367162  1
  O  O402  1  0.88128664  0.99762386  0.99362737  1
  O  O403  1  0.11557749  0.00262113  0.01095592  1
  O  O404  1  0.11660672  0.00584107  0.50548996  1
  O  O405  1  0.13408002  0.51293116  0.00131131  1
  O  O406  1  0.12903768  0.51883329  0.49908418  1
  O  O407  1  0.61341984  0.00219252  0.00204824  1
  O  O408  1  0.62161288  0.00428084  0.50520100  1
  O  O409  1  0.62676725  0.50679357  0.01087041  1
  O  O410  1  0.61166663  0.51239169  0.49468903  1
  O  O411  1  0.36998604  0.33695828  0.15068719  1
  O  O412  1  0.37248356  0.36846782  0.61932827  1
  O  O413  1  0.36522697  0.86801572  0.11552551  1
  O  O414  1  0.36711675  0.87115460  0.62018654  1
  O  O415  1  0.86377844  0.37713863  0.12411719  1
  O  O416  1  0.86540927  0.36173330  0.61333648  1
  O  O417  1  0.86801198  0.88083722  0.11138309  1
  O  O418  1  0.88061235  0.86724492  0.60625819  1
  O  O419  1  0.13053239  0.12582068  0.38365117  1
  O  O420  1  0.12369648  0.11871279  0.89529380  1
  O  O421  1  0.12287025  0.64257606  0.38486100  1
  O  O422  1  0.12942587  0.63779978  0.88522168  1
  O  O423  1  0.63312917  0.12990643  0.38147653  1
  O  O424  1  0.62903996  0.13744718  0.87686952  1
  O  O425  1  0.62459325  0.63566965  0.37893083  1
  O  O426  1  0.62140559  0.64267694  0.88876610  1
