# generated using pymatgen
data_V85Zn86O256
_symmetry_space_group_name_H-M   'P 1'
_cell_length_a   16.92170519
_cell_length_b   16.92787110
_cell_length_c   16.93686477
_cell_angle_alpha   89.93660354
_cell_angle_beta   89.96202732
_cell_angle_gamma   90.08127851
_symmetry_Int_Tables_number   1
_chemical_formula_structural   V85Zn86O256
_chemical_formula_sum   'V85 Zn86 O256'
_cell_volume   4851.52964243
_cell_formula_units_Z   1
loop_
 _symmetry_equiv_pos_site_id
 _symmetry_equiv_pos_as_xyz
  1  'x, y, z'
loop_
 _atom_site_type_symbol
 _atom_site_label
 _atom_site_symmetry_multiplicity
 _atom_site_fract_x
 _atom_site_fract_y
 _atom_site_fract_z
 _atom_site_occupancy
  V  V0  1  0.62907353  0.25466723  0.87290042  1
  V  V1  1  0.50379431  0.37543130  0.87185753  1
  V  V2  1  0.00575459  0.25541149  0.26370715  1
  V  V3  1  0.87167434  0.24942655  0.63430718  1
  V  V4  1  0.11938822  0.00146056  0.62268753  1
  V  V5  1  0.49748430  0.63189706  0.12933849  1
  V  V6  1  0.00645040  0.87888567  0.36901774  1
  V  V7  1  0.87026489  0.62509859  0.24858581  1
  V  V8  1  0.23507139  0.24857587  -0.00252902  1
  V  V9  1  0.37886169  0.24751730  0.12105681  1
  V  V10  1  0.57908051  0.93418988  0.69360222  1
  V  V11  1  -0.00743778  0.12237732  0.62746834  1
  V  V12  1  0.87761866  0.75718370  0.12675172  1
  V  V13  1  0.37624724  0.12744876  0.74728670  1
  V  V14  1  0.74839633  0.24702318  0.50089142  1
  V  V15  1  0.24564701  0.62886275  0.37612830  1
  V  V16  1  0.00357947  0.50198779  0.00430633  1
  V  V17  1  0.11535314  0.49641485  0.62722187  1
  V  V18  1  0.62775638  0.75435994  0.87095472  1
  V  V19  1  0.37897244  0.50209327  0.37001535  1
  V  V20  1  0.11815765  0.87392269  0.75165750  1
  V  V21  1  0.25175764  0.62578096  0.87599418  1
  V  V22  1  0.37238505  0.74669659  0.62447291  1
  V  V23  1  0.64105393  0.37231441  0.24456972  1
  V  V24  1  0.11315144  0.62636806  0.49854425  1
  V  V25  1  0.12407697  0.75072236  0.87561006  1
  V  V26  1  0.87236478  -0.00816893  0.88327607  1
  V  V27  1  0.86970620  0.49573016  0.37062990  1
  V  V28  1  0.25044314  0.50033188  0.24870795  1
  V  V29  1  0.24356021  0.87387164  0.62330686  1
  V  V30  1  0.24899069  0.37414602  0.12606005  1
  V  V31  1  0.75923062  0.00168684  0.74612755  1
  V  V32  1  0.74571968  0.62250001  0.37481016  1
  V  V33  1  0.62254115  0.49110696  0.63286411  1
  V  V34  1  0.87633424  0.50679565  0.87104431  1
  V  V35  1  0.37715323  0.12145241  0.24675934  1
  V  V36  1  0.37553072  -0.00004482  0.87919153  1
  V  V37  1  0.75645270  0.75537286  -0.00153447  1
  V  V38  1  0.61507699  0.74392581  0.37226780  1
  V  V39  1  0.50594573  0.74873527  0.74831314  1
  V  V40  1  0.12713706  -0.00499277  0.12543806  1
  V  V41  1  0.00892707  0.12608622  0.12247835  1
  V  V42  1  0.50098363  0.87905038  0.88332461  1
  V  V43  1  0.24268740  0.75148133  0.49859159  1
  V  V44  1  -0.01104310  -0.00019698  0.49471401  1
  V  V45  1  0.37453299  0.00353441  0.38554900  1
  V  V46  1  0.03915695  0.44210576  0.44247046  1
  V  V47  1  0.13030030  0.63000045  0.00947790  1
  V  V48  1  0.62008698  0.87028209  0.24929893  1
  V  V49  1  0.00439909  0.36787858  0.88053269  1
  V  V50  1  0.50202496  0.24746528  0.24409428  1
  V  V51  1  -0.00283010  0.24136505  0.75744242  1
  V  V52  1  0.74514799  0.74696352  0.49742034  1
  V  V53  1  0.24200987  0.13333982  0.37547172  1
  V  V54  1  -0.00076028  -0.00503946  0.00340785  1
  V  V55  1  0.75091590  0.88130883  0.12179633  1
  V  V56  1  0.23569292  0.13060401  0.87584978  1
  V  V57  1  0.61129275  0.11470689  0.51194914  1
  V  V58  1  0.75272827  -0.00418138  0.25982543  1
  V  V59  1  0.26556121  0.76445356  -0.00407950  1
  V  V60  1  0.24359870  0.00318550  0.75166822  1
  V  V61  1  0.49930227  0.87915896  0.37981857  1
  V  V62  1  0.62470928  0.24442987  0.37388840  1
  V  V63  1  0.37751331  0.24745620  0.62291997  1
  V  V64  1  0.24886560  0.49914058  0.74971988  1
  V  V65  1  0.50621968  0.24795667  0.74715070  1
  V  V66  1  0.50530322  0.62493678  0.61923205  1
  V  V67  1  0.37921010  0.37484904  0.50003183  1
  V  V68  1  0.63765057  0.49480560  0.12711505  1
  V  V69  1  0.75038695  0.25002335  0.00539375  1
  V  V70  1  0.87643280  0.11957808  0.25742398  1
  V  V71  1  0.87180100  0.74075517  0.62510001  1
  V  V72  1  0.01869221  0.75144483  0.25384306  1
  V  V73  1  0.87352963  0.37584959  0.00729749  1
  V  V74  1  0.87184562  0.37897356  0.50163504  1
  V  V75  1  0.62811197  0.62340379  -0.00086717  1
  V  V76  1  0.37709424  0.49886090  0.87525025  1
  V  V77  1  0.61317990  0.11993951  0.00551799  1
  V  V78  1  0.51000211  0.50338677  0.49479830  1
  V  V79  1  0.26110522  0.87693386  0.12992434  1
  V  V80  1  0.75171670  0.87569081  0.62758815  1
  V  V81  1  0.12548689  0.36677713  0.75448518  1
  V  V82  1  0.87421487  0.24991531  0.12922026  1
  V  V83  1  0.75813324  0.12603005  0.87298708  1
  V  V84  1  -0.00561093  0.73932459  0.74966990  1
  Zn  Zn85  1  0.12159802  0.37548535  0.26582041  1
  Zn  Zn86  1  0.74114838  0.36921482  0.63583303  1
  Zn  Zn87  1  0.87055778  0.87636867  0.49016930  1
  Zn  Zn88  1  0.75604698  0.63089976  0.86625415  1
  Zn  Zn89  1  0.75151199  0.11692641  0.38006504  1
  Zn  Zn90  1  0.11772737  0.13147354  0.49447567  1
  Zn  Zn91  1  0.00119003  0.62818870  0.12607661  1
  Zn  Zn92  1  -0.00648448  0.87044172  0.88350203  1
  Zn  Zn93  1  0.25114600  0.37396919  0.62670256  1
  Zn  Zn94  1  0.37678826  0.87812462  0.50233871  1
  Zn  Zn95  1  0.50201793  0.49758956  0.00253039  1
  Zn  Zn96  1  0.12606408  0.49963761  0.12828154  1
  Zn  Zn97  1  0.50324671  0.37556517  0.36842289  1
  Zn  Zn98  1  0.75104453  0.50062787  0.74969925  1
  Zn  Zn99  1  0.37505036  0.62422724  0.74872170  1
  Zn  Zn100  1  0.37530354  0.37229375  -0.00114840  1
  Zn  Zn101  1  0.44219262  0.94865746  0.04638838  1
  Zn  Zn102  1  -0.00938641  0.61708200  0.62429162  1
  Zn  Zn103  1  0.61024832  0.00314761  0.12678958  1
  Zn  Zn104  1  0.24209738  -0.00188153  0.25584721  1
  Zn  Zn105  1  0.38796624  0.64646382  0.25292943  1
  Zn  Zn106  1  0.24416323  0.25292229  0.49809680  1
  Zn  Zn107  1  0.18728922  0.18916776  0.19077491  1
  Zn  Zn108  1  0.18599994  0.18836338  0.68317100  1
  Zn  Zn109  1  0.22281300  0.70720239  0.20063207  1
  Zn  Zn110  1  0.18308271  0.68354717  0.68599772  1
  Zn  Zn111  1  0.69033729  0.18268855  0.18666440  1
  Zn  Zn112  1  0.68642694  0.18175684  0.68864808  1
  Zn  Zn113  1  0.68816288  0.68795268  0.18655748  1
  Zn  Zn114  1  0.68749076  0.67937078  0.68705948  1
  Zn  Zn115  1  0.31613173  0.31337616  0.31064427  1
  Zn  Zn116  1  0.31328286  0.31137499  0.81414525  1
  Zn  Zn117  1  0.31123787  0.81560373  0.31580996  1
  Zn  Zn118  1  0.31379186  0.81466776  0.81063739  1
  Zn  Zn119  1  0.81593322  0.30878653  0.31633077  1
  Zn  Zn120  1  0.81266205  0.32104998  0.81456052  1
  Zn  Zn121  1  0.81569544  0.81254471  0.31259718  1
  Zn  Zn122  1  0.81271837  0.81391729  0.80792964  1
  Zn  Zn123  1  0.20237270  0.44008370  0.44154651  1
  Zn  Zn124  1  0.18842669  0.43644923  0.93992899  1
  Zn  Zn125  1  0.18183788  0.94191801  0.43740673  1
  Zn  Zn126  1  0.18232000  0.94279242  0.93968902  1
  Zn  Zn127  1  0.68920580  0.43278007  0.43519471  1
  Zn  Zn128  1  0.69133449  0.43573838  0.93953362  1
  Zn  Zn129  1  0.68378848  0.93485452  0.44041321  1
  Zn  Zn130  1  0.68496711  0.93814983  0.93655520  1
  Zn  Zn131  1  0.30543569  0.06981895  0.06177914  1
  Zn  Zn132  1  0.31054871  0.06530953  0.56261299  1
  Zn  Zn133  1  0.31577832  0.56428971  0.06077818  1
  Zn  Zn134  1  0.31189372  0.56101203  0.56213919  1
  Zn  Zn135  1  0.81372558  0.06442860  0.06565668  1
  Zn  Zn136  1  0.80997731  0.06427198  0.56366016  1
  Zn  Zn137  1  0.81386966  0.56751478  0.06007310  1
  Zn  Zn138  1  0.80636691  0.56117898  0.55773682  1
  Zn  Zn139  1  0.44384438  0.43809498  0.18425959  1
  Zn  Zn140  1  0.44033332  0.43439541  0.68929056  1
  Zn  Zn141  1  0.43633367  0.93487043  0.20665665  1
  Zn  Zn142  1  0.41777678  0.93490911  0.69224214  1
  Zn  Zn143  1  0.93633625  0.43786485  0.18942283  1
  Zn  Zn144  1  0.93617717  0.42990535  0.69060202  1
  Zn  Zn145  1  0.93892351  0.93608465  0.19062388  1
  Zn  Zn146  1  0.93246443  0.93182187  0.68744873  1
  Zn  Zn147  1  0.06093996  0.06080177  0.30869404  1
  Zn  Zn148  1  0.05593814  0.06020408  0.81454166  1
  Zn  Zn149  1  0.06577264  0.56861554  0.30580368  1
  Zn  Zn150  1  0.06416179  0.56087546  0.81714795  1
  Zn  Zn151  1  0.56236891  0.06082422  0.31199442  1
  Zn  Zn152  1  0.56307497  0.06956670  0.82105808  1
  Zn  Zn153  1  0.56661388  0.55942704  0.30392697  1
  Zn  Zn154  1  0.56394814  0.56666851  0.81153880  1
  Zn  Zn155  1  0.43853279  0.18724831  0.43378348  1
  Zn  Zn156  1  0.43262725  0.18816469  0.93412749  1
  Zn  Zn157  1  0.43284716  0.68746243  0.43958650  1
  Zn  Zn158  1  0.44314303  0.68500286  0.93659968  1
  Zn  Zn159  1  0.93388801  0.18838283  0.44037511  1
  Zn  Zn160  1  0.93813761  0.18271252  0.94168826  1
  Zn  Zn161  1  0.93353601  0.69321836  0.43153290  1
  Zn  Zn162  1  0.94010338  0.68879043  0.94169255  1
  Zn  Zn163  1  0.06235799  0.31343035  0.07057543  1
  Zn  Zn164  1  0.06465496  0.30454948  0.56914169  1
  Zn  Zn165  1  0.06761543  0.81525358  0.06563547  1
  Zn  Zn166  1  0.05670873  0.81196570  0.55974433  1
  Zn  Zn167  1  0.56260283  0.31379340  0.05996616  1
  Zn  Zn168  1  0.55909583  0.30889430  0.55907927  1
  Zn  Zn169  1  0.56916525  0.80967688  0.06203248  1
  Zn  Zn170  1  0.56260626  0.80680550  0.55469518  1
  O  O171  1  0.11336606  0.12293161  0.12843326  1
  O  O172  1  0.10900726  0.11816613  0.62879090  1
  O  O173  1  0.12980158  0.62539626  0.11351952  1
  O  O174  1  0.12202440  0.61303881  0.61511781  1
  O  O175  1  0.62722512  0.12480765  0.10982960  1
  O  O176  1  0.62350117  0.12791268  0.61125675  1
  O  O177  1  0.62245498  0.61559046  0.12015551  1
  O  O178  1  0.61102722  0.61328886  0.62266158  1
  O  O179  1  0.37849918  0.38352695  0.38103333  1
  O  O180  1  0.38365414  0.38178528  0.87552667  1
  O  O181  1  0.38016239  0.88395101  0.37643014  1
  O  O182  1  0.38569502  0.88813572  0.86325729  1
  O  O183  1  0.87198140  0.38452756  0.38323644  1
  O  O184  1  0.88751614  0.38177983  0.88911531  1
  O  O185  1  0.89392577  0.86626634  0.37585452  1
  O  O186  1  0.87453531  0.88723467  0.87360303  1
  O  O187  1  0.25541739  0.00933563  0.37509841  1
  O  O188  1  0.25341005  0.00683092  0.86838741  1
  O  O189  1  0.26101987  0.50726872  0.36985979  1
  O  O190  1  0.25762458  0.50357111  0.87057655  1
  O  O191  1  0.74894298  -0.00416262  0.36385864  1
  O  O192  1  0.75535876  0.00579383  0.87097509  1
  O  O193  1  0.75907957  0.50767607  0.37826588  1
  O  O194  1  0.76911656  0.49877618  0.88161128  1
  O  O195  1  0.25361074  0.49366011  0.13283411  1
  O  O196  1  0.23849117  0.49775067  0.63139831  1
  O  O197  1  0.24373833  0.99246299  0.12111399  1
  O  O198  1  0.24116585  0.99610451  0.63104725  1
  O  O199  1  0.73700811  0.50492945  0.12035928  1
  O  O200  1  0.72951014  0.49983333  0.61822058  1
  O  O201  1  0.74882075  0.98987249  0.13121092  1
  O  O202  1  0.75589216  0.99105883  0.63367378  1
  O  O203  1  -0.00005518  0.35974393  0.24706844  1
  O  O204  1  0.00489520  0.36326527  0.76095955  1
  O  O205  1  0.00237948  0.86387898  0.25684795  1
  O  O206  1  0.00812430  0.86534230  0.75006165  1
  O  O207  1  0.50930114  0.36180986  0.24793709  1
  O  O208  1  0.49717414  0.36273331  0.76242076  1
  O  O209  1  0.50882865  0.86773050  0.26485355  1
  O  O210  1  0.50964420  0.87226557  0.74989845  1
  O  O211  1  0.49184216  0.13735393  0.25415569  1
  O  O212  1  0.49134898  0.13827199  0.75846129  1
  O  O213  1  0.50095910  0.62477392  0.23602854  1
  O  O214  1  0.49704121  0.63366545  0.74130509  1
  O  O215  1  0.99413257  0.13374493  0.24429635  1
  O  O216  1  0.99923676  0.13498013  0.74651904  1
  O  O217  1  0.99333860  0.63766940  0.24751786  1
  O  O218  1  1.00875657  0.63636841  0.74819668  1
  O  O219  1  0.36785118  0.24947736  0.00855175  1
  O  O220  1  0.37785416  0.25691286  0.50708147  1
  O  O221  1  0.36327020  0.74967010  -0.00905873  1
  O  O222  1  0.36017867  0.75049561  0.50699256  1
  O  O223  1  0.87100863  0.25538886  0.00848486  1
  O  O224  1  0.86736146  0.25724921  0.50856029  1
  O  O225  1  0.86488681  0.74621759  0.00863735  1
  O  O226  1  0.86173196  0.75130981  0.50435147  1
  O  O227  1  0.13121223  0.24337424  0.50757257  1
  O  O228  1  0.13560638  0.25412719  1.00501100  1
  O  O229  1  0.13463435  0.74012822  0.50934131  1
  O  O230  1  0.13056056  0.74544176  0.99208392  1
  O  O231  1  0.63046094  0.24520335  0.49174896  1
  O  O232  1  0.63390347  0.24398544  0.99590202  1
  O  O233  1  0.63669332  0.74962317  0.48861083  1
  O  O234  1  0.63761339  0.74290567  0.99405137  1
  O  O235  1  0.48815091  0.25352716  0.12816700  1
  O  O236  1  0.48949328  0.25462263  0.63453757  1
  O  O237  1  0.50920215  0.73117357  0.11993439  1
  O  O238  1  0.49672774  0.74256614  0.62764077  1
  O  O239  1  0.99123113  0.24249347  0.13005653  1
  O  O240  1  0.99047714  0.24242293  0.63625306  1
  O  O241  1  0.99447838  0.75267586  0.13405863  1
  O  O242  1  0.98952222  0.74659289  0.63151168  1
  O  O243  1  -0.00418316  0.24732875  0.36213965  1
  O  O244  1  -0.00609684  0.25555510  0.87089417  1
  O  O245  1  0.00334307  0.75485969  0.35962948  1
  O  O246  1  0.00369672  0.75154040  0.86825350  1
  O  O247  1  0.50869010  0.25259470  0.36493322  1
  O  O248  1  0.50845172  0.25604154  0.86949012  1
  O  O249  1  0.51074669  0.75042729  0.37943304  1
  O  O250  1  0.50359659  0.75800291  0.86480429  1
  O  O251  1  0.25051368  0.12728280  0.48532504  1
  O  O252  1  0.24924412  0.13640441  0.98846550  1
  O  O253  1  0.24112882  0.62853853  0.49412335  1
  O  O254  1  0.24743694  0.63642174  0.99577760  1
  O  O255  1  0.74504278  0.13538323  0.49925610  1
  O  O256  1  0.74735826  0.13583570  0.99464665  1
  O  O257  1  0.75137015  0.63221042  0.48411149  1
  O  O258  1  0.74168863  0.63400732  0.99589692  1
  O  O259  1  0.25339415  0.36875960  0.00810596  1
  O  O260  1  0.26657422  0.37315015  0.50446966  1
  O  O261  1  0.25275536  0.86851894  -0.00270738  1
  O  O262  1  0.24580989  0.86698928  0.50503289  1
  O  O263  1  0.76026794  0.36014974  -0.00382968  1
  O  O264  1  0.75459307  0.36244679  0.50495329  1
  O  O265  1  0.74403108  0.86789625  0.00962688  1
  O  O266  1  0.74958124  0.86832448  0.50970162  1
  O  O267  1  0.13293467  0.49439433  0.24769857  1
  O  O268  1  0.12715822  0.49000330  0.74605362  1
  O  O269  1  0.12571466  1.00494503  0.23253532  1
  O  O270  1  0.12266846  0.99131309  0.74450298  1
  O  O271  1  0.62660163  0.48765332  0.23652574  1
  O  O272  1  0.61650705  0.49803082  0.73446740  1
  O  O273  1  0.63289625  0.98833005  0.24904349  1
  O  O274  1  0.63340221  0.99850374  0.75431426  1
  O  O275  1  0.36773812  0.00978959  0.26296627  1
  O  O276  1  0.36427910  0.00990547  0.75772016  1
  O  O277  1  0.37168434  0.49867266  0.26030069  1
  O  O278  1  0.36999875  0.49901400  0.75908595  1
  O  O279  1  0.86703371  0.00797621  0.24451497  1
  O  O280  1  0.86474169  -0.00317188  0.75873675  1
  O  O281  1  0.87971942  0.51065778  0.25797440  1
  O  O282  1  0.88585367  0.49745684  0.76978829  1
  O  O283  1  0.11335106  0.39174078  0.38575379  1
  O  O284  1  0.11216623  0.38035537  0.87020075  1
  O  O285  1  0.10783052  0.87445023  0.37975638  1
  O  O286  1  0.12052565  0.87071232  0.86702122  1
  O  O287  1  0.62618398  0.36255840  0.36516960  1
  O  O288  1  0.62096538  0.36279688  0.88068929  1
  O  O289  1  0.61848838  0.86739036  0.36983501  1
  O  O290  1  0.61559557  0.86694138  0.87724008  1
  O  O291  1  0.36718319  0.13316837  0.13814067  1
  O  O292  1  0.37192317  0.13038914  0.63783011  1
  O  O293  1  0.39399904  0.61837519  0.12392633  1
  O  O294  1  0.38381483  0.62816096  0.62651317  1
  O  O295  1  0.88343359  0.13176240  0.13570519  1
  O  O296  1  0.88403112  0.13432029  0.62386118  1
  O  O297  1  0.87607221  0.63598865  0.13179337  1
  O  O298  1  0.87317010  0.63496440  0.61747210  1
  O  O299  1  0.25708144  0.25587404  0.12068429  1
  O  O300  1  0.26537883  0.25239201  0.62605281  1
  O  O301  1  0.24466593  0.76880144  0.10442021  1
  O  O302  1  0.25188536  0.75294396  0.62096969  1
  O  O303  1  0.76475213  0.24340116  0.11925698  1
  O  O304  1  0.75647026  0.24860248  0.62134929  1
  O  O305  1  0.75654209  0.75899124  0.11850097  1
  O  O306  1  0.75128616  0.75325248  0.61801703  1
  O  O307  1  0.25667732  0.23695775  0.37487216  1
  O  O308  1  0.25262979  0.24309317  0.88435421  1
  O  O309  1  0.24912109  0.73997758  0.38655306  1
  O  O310  1  0.24585039  0.74875961  0.88132156  1
  O  O311  1  0.74365196  0.24590943  0.38444832  1
  O  O312  1  0.74720873  0.24463195  0.88039293  1
  O  O313  1  0.74284054  0.74459877  0.38037703  1
  O  O314  1  0.74788016  0.75236343  0.88135536  1
  O  O315  1  -0.00572550  0.11378361  0.01304155  1
  O  O316  1  -0.00331600  0.11848580  0.50787427  1
  O  O317  1  0.01044041  0.61900706  0.00355714  1
  O  O318  1  0.01013709  0.63396701  0.49916213  1
  O  O319  1  0.51505246  0.13026284  -0.00849195  1
  O  O320  1  0.51225566  0.12851781  0.49706609  1
  O  O321  1  0.51420865  0.62287206  0.00550730  1
  O  O322  1  0.49359263  0.61521809  0.50691007  1
  O  O323  1  0.49190788  0.38236583  0.49426113  1
  O  O324  1  0.49743096  0.37573864  0.98626622  1
  O  O325  1  0.49625328  0.86940331  0.48622506  1
  O  O326  1  0.49922595  0.86747242  0.98806199  1
  O  O327  1  0.99042373  0.37248937  0.50542017  1
  O  O328  1  0.99736481  0.38091489  0.99787854  1
  O  O329  1  0.99643141  0.88189804  0.49014765  1
  O  O330  1  1.00174204  0.88836098  1.00210264  1
  O  O331  1  0.49595933  0.50065899  0.37791467  1
  O  O332  1  0.49546748  0.49290232  0.87345847  1
  O  O333  1  0.48934184  0.99114991  0.36933971  1
  O  O334  1  0.49181771  0.99112710  0.86925166  1
  O  O335  1  0.98884478  0.50718248  0.37621277  1
  O  O336  1  0.99458493  0.49413110  0.88793124  1
  O  O337  1  1.00150301  0.99044404  0.37964904  1
  O  O338  1  0.98960642  0.99970660  0.88495122  1
  O  O339  1  0.00481078  0.00515163  0.12162343  1
  O  O340  1  -0.00227101  0.00541613  0.62065718  1
  O  O341  1  0.00261180  0.50299223  0.11561233  1
  O  O342  1  0.00970983  0.49984902  0.63300088  1
  O  O343  1  0.49746148  -0.00709859  0.13090677  1
  O  O344  1  0.51207959  -0.01295173  0.64382960  1
  O  O345  1  0.51320627  0.50776309  0.12108192  1
  O  O346  1  0.50556789  0.50383661  0.61676796  1
  O  O347  1  0.24786837  0.38354189  0.24690097  1
  O  O348  1  0.24040949  0.37898738  0.75203072  1
  O  O349  1  0.25116408  0.88007171  0.23331473  1
  O  O350  1  0.23629267  0.87980850  0.74519648  1
  O  O351  1  0.74034012  0.36343844  0.24837577  1
  O  O352  1  0.75545329  0.38724885  0.74681549  1
  O  O353  1  0.74556834  0.87965461  0.24346320  1
  O  O354  1  0.74889902  0.88160060  0.73641887  1
  O  O355  1  0.25740630  0.12551053  0.26032602  1
  O  O356  1  0.25468814  0.12266976  0.75459669  1
  O  O357  1  0.24254094  0.60850694  0.26016541  1
  O  O358  1  0.24995272  0.61838220  0.75751694  1
  O  O359  1  0.75745999  0.11333583  0.25088495  1
  O  O360  1  0.74592134  0.11433136  0.76044664  1
  O  O361  1  0.76216222  0.63233574  0.25865858  1
  O  O362  1  0.74567031  0.61367978  0.75497946  1
  O  O363  1  0.36823702  0.12070439  0.36709877  1
  O  O364  1  0.36685684  0.12107163  0.86292287  1
  O  O365  1  0.36650895  0.61879669  0.37150729  1
  O  O366  1  0.37136187  0.61690217  0.87198261  1
  O  O367  1  0.87188469  0.12857882  0.36186203  1
  O  O368  1  0.86283331  0.11661289  0.87957825  1
  O  O369  1  0.86762294  0.61923813  0.36783242  1
  O  O370  1  0.87799827  0.60983246  0.88368988  1
  O  O371  1  0.13995747  0.37734032  0.12820018  1
  O  O372  1  0.12575669  0.38104264  0.63618878  1
  O  O373  1  0.14107187  0.88532686  0.11802774  1
  O  O374  1  0.12446501  0.88036441  0.63129733  1
  O  O375  1  0.62512409  0.38592710  0.12751255  1
  O  O376  1  0.62018569  0.38716979  0.62021024  1
  O  O377  1  0.63284197  0.87524772  0.13330414  1
  O  O378  1  0.62976343  0.87478973  0.62440233  1
  O  O379  1  0.11067537  0.25395368  0.24989110  1
  O  O380  1  0.11582325  0.26058251  0.74560183  1
  O  O381  1  0.11636395  0.74243216  0.24222730  1
  O  O382  1  0.11923569  0.75604893  0.75497316  1
  O  O383  1  0.62058277  0.25042426  0.25230538  1
  O  O384  1  0.61822332  0.24427774  0.75977561  1
  O  O385  1  0.63383933  0.76228484  0.25838551  1
  O  O386  1  0.61356421  0.74640121  0.75275172  1
  O  O387  1  0.38312434  0.24481454  0.24273586  1
  O  O388  1  0.38172694  0.24459476  0.74450287  1
  O  O389  1  0.32954067  0.73950419  0.23766408  1
  O  O390  1  0.38738635  0.75126766  0.74276419  1
  O  O391  1  0.88257252  0.24414606  0.24436719  1
  O  O392  1  0.88222051  0.25565045  0.74227745  1
  O  O393  1  0.88206717  0.74276504  0.24237261  1
  O  O394  1  0.88314761  0.75206714  0.74038844  1
  O  O395  1  0.38206500  0.49462468  0.48968560  1
  O  O396  1  0.37725229  0.49818429  0.98598227  1
  O  O397  1  0.37200305  0.99967954  0.49015565  1
  O  O398  1  0.36988373  1.01054832  0.98371705  1
  O  O399  1  0.87178782  0.48646095  0.49477856  1
  O  O400  1  0.88354140  0.49350781  0.99836314  1
  O  O401  1  0.88493845  0.99863787  0.50288285  1
  O  O402  1  0.88096489  1.00296292  0.99386988  1
  O  O403  1  0.11437707  0.00340643  0.01086234  1
  O  O404  1  0.11057995  0.00625229  0.50768037  1
  O  O405  1  0.11969113  0.50869455  0.00172472  1
  O  O406  1  0.11495619  0.50016704  0.50561882  1
  O  O407  1  0.62810484  0.01634289  0.00039971  1
  O  O408  1  0.62798366  0.01624366  0.49564698  1
  O  O409  1  0.62694788  0.50615745  0.00722115  1
  O  O410  1  0.61272065  0.49444215  0.50175846  1
  O  O411  1  0.36585044  0.36779140  0.12547877  1
  O  O412  1  0.37646402  0.36886450  0.61715730  1
  O  O413  1  0.36347519  0.88645129  0.12039143  1
  O  O414  1  0.36223390  0.86655890  0.62227593  1
  O  O415  1  0.88061305  0.36751413  0.11468413  1
  O  O416  1  0.87275749  0.36616622  0.61810620  1
  O  O417  1  0.86712513  0.86465996  0.13099144  1
  O  O418  1  0.86627746  0.86135393  0.62013200  1
  O  O419  1  0.13918154  0.12045147  0.37244979  1
  O  O420  1  0.13665090  0.12189140  0.86670524  1
  O  O421  1  0.13599980  0.61596033  0.38575712  1
  O  O422  1  0.13274365  0.62968270  0.88541533  1
  O  O423  1  0.62818039  0.13490002  0.37714500  1
  O  O424  1  0.63595980  0.13554796  0.88573133  1
  O  O425  1  0.63363947  0.63153515  0.36361393  1
  O  O426  1  0.62480916  0.63376874  0.88367062  1
