# generated using pymatgen
data_V85Zn86O256
_symmetry_space_group_name_H-M   'P 1'
_cell_length_a   16.93025845
_cell_length_b   16.93649425
_cell_length_c   16.93172078
_cell_angle_alpha   90.04320111
_cell_angle_beta   89.96984030
_cell_angle_gamma   90.01982024
_symmetry_Int_Tables_number   1
_chemical_formula_structural   V85Zn86O256
_chemical_formula_sum   'V85 Zn86 O256'
_cell_volume   4854.98615225
_cell_formula_units_Z   1
loop_
 _symmetry_equiv_pos_site_id
 _symmetry_equiv_pos_as_xyz
  1  'x, y, z'
loop_
 _atom_site_type_symbol
 _atom_site_label
 _atom_site_symmetry_multiplicity
 _atom_site_fract_x
 _atom_site_fract_y
 _atom_site_fract_z
 _atom_site_occupancy
  V  V0  1  0.87629558  0.73474551  0.63259632  1
  V  V1  1  0.37089932  0.74662841  0.62830265  1
  V  V2  1  0.62048762  0.37548831  0.75429709  1
  V  V3  1  0.50172499  0.01277942  -0.00005419  1
  V  V4  1  0.87377623  0.74364281  0.12671672  1
  V  V5  1  0.00466889  0.74864496  0.24335742  1
  V  V6  1  0.24532344  0.87401629  0.61616580  1
  V  V7  1  0.74463415  0.00016612  0.74798444  1
  V  V8  1  0.50298773  0.87387741  0.88059603  1
  V  V9  1  0.00100557  -0.00163659  0.50079631  1
  V  V10  1  0.12870413  0.75100889  0.37755364  1
  V  V11  1  0.37120610  0.00100287  0.37553831  1
  V  V12  1  0.24835421  0.49568979  0.24353572  1
  V  V13  1  0.62439424  0.73928956  0.87616549  1
  V  V14  1  0.75166890  -0.00439318  0.24885793  1
  V  V15  1  0.37027472  0.75752772  0.12747332  1
  V  V16  1  0.43309056  0.07494683  0.69239058  1
  V  V17  1  0.06896379  0.55800926  0.67026548  1
  V  V18  1  0.25002321  0.25999630  0.01304869  1
  V  V19  1  0.25600908  0.50398119  0.74349693  1
  V  V20  1  0.75157950  0.50776506  0.74865530  1
  V  V21  1  0.51086403  0.50216247  -0.00232765  1
  V  V22  1  -0.00484031  0.00035818  0.00321129  1
  V  V23  1  0.00342246  0.24842054  0.75359483  1
  V  V24  1  0.12911960  0.24882402  0.88102406  1
  V  V25  1  0.74904185  0.87533061  0.62452765  1
  V  V26  1  0.74824741  0.38500864  0.13478518  1
  V  V27  1  0.62275341  0.87215401  0.24612879  1
  V  V28  1  0.87204294  0.49171961  0.37151524  1
  V  V29  1  0.12593291  0.75246144  0.87446702  1
  V  V30  1  0.87752691  0.25068834  0.12885086  1
  V  V31  1  0.37610118  0.87979748  -0.00024747  1
  V  V32  1  0.88320296  0.61943429  0.25140674  1
  V  V33  1  0.38694468  0.38075430  0.49975870  1
  V  V34  1  0.87640090  0.37508729  -0.00240062  1
  V  V35  1  0.37414260  0.62582939  0.24812082  1
  V  V36  1  0.50093237  0.88074450  0.38003241  1
  V  V37  1  0.87967117  0.12637223  0.25009946  1
  V  V38  1  0.13668345  0.88634272  0.23502156  1
  V  V39  1  0.74325627  0.73903340  0.00503564  1
  V  V40  1  0.00230383  0.87315329  0.37341474  1
  V  V41  1  0.86961178  -0.00220922  0.87481280  1
  V  V42  1  0.24837416  0.12444181  0.36290899  1
  V  V43  1  0.00083646  0.50048030  0.49928416  1
  V  V44  1  0.00294134  0.12471871  0.12369724  1
  V  V45  1  0.12525016  0.36633987  0.24236916  1
  V  V46  1  0.12302687  0.87624210  0.75092891  1
  V  V47  1  0.49196704  0.25441071  0.74850965  1
  V  V48  1  0.24823695  0.00649988  0.75492895  1
  V  V49  1  0.61815681  0.25275752  0.87862556  1
  V  V50  1  0.49290179  0.62151111  0.62419752  1
  V  V51  1  0.24399972  0.37670669  0.62140156  1
  V  V52  1  0.25104228  0.75477814  0.00213600  1
  V  V53  1  0.61814737  0.49888122  0.61672086  1
  V  V54  1  0.15296736  0.09804810  0.01472945  1
  V  V55  1  0.38983795  0.25716410  0.13358889  1
  V  V56  1  0.62249089  0.01339641  0.12225492  1
  V  V57  1  0.39044040  0.12099022  0.24356611  1
  V  V58  1  0.50691022  0.62880288  0.12038680  1
  V  V59  1  -0.00109723  0.87525062  0.87214082  1
  V  V60  1  0.74476256  0.24845926  0.00241117  1
  V  V61  1  0.87623092  -0.00330958  0.37405392  1
  V  V62  1  0.62452483  0.75109951  0.37631944  1
  V  V63  1  0.74408000  0.12510531  0.88098152  1
  V  V64  1  0.37647761  0.87370727  0.49943248  1
  V  V65  1  0.37821897  0.37899361  0.00143832  1
  V  V66  1  0.25754174  0.62614088  0.87100166  1
  V  V67  1  0.74741483  0.12449884  0.37566056  1
  V  V68  1  0.12514255  0.62258955  0.49915082  1
  V  V69  1  0.12253332  0.62560379  0.00930316  1
  V  V70  1  0.24971252  0.24995321  0.49649295  1
  V  V71  1  0.74798787  0.61766511  0.37218623  1
  V  V72  1  0.60821410  0.11962326  0.50447969  1
  V  V73  1  0.87403642  0.12527238  0.75253531  1
  V  V74  1  0.00217282  0.12577652  0.62453188  1
  V  V75  1  0.87250177  0.86999180  0.00094431  1
  V  V76  1  0.38130847  0.49786532  0.87216836  1
  V  V77  1  0.00073236  0.36684138  0.37070629  1
  V  V78  1  0.50698621  0.37836673  0.35170887  1
  V  V79  1  0.74850144  0.37370631  0.62438377  1
  V  V80  1  0.87658387  0.50672414  0.87255473  1
  V  V81  1  0.75003706  0.74771559  0.50024943  1
  V  V82  1  0.26677078  0.13102120  0.86988176  1
  V  V83  1  0.75014212  0.24360170  0.50342440  1
  V  V84  1  0.25160847  0.62517823  0.37898037  1
  Zn  Zn85  1  0.61082750  0.24659561  0.36818844  1
  Zn  Zn86  1  0.49576847  0.74419895  0.75402230  1
  Zn  Zn87  1  0.12566143  0.12531449  0.49574281  1
  Zn  Zn88  1  -0.00187110  0.73429605  0.74689017  1
  Zn  Zn89  1  0.87480134  0.37110689  0.49908459  1
  Zn  Zn90  1  -0.00357614  0.50468351  0.00627871  1
  Zn  Zn91  1  0.12075337  0.49952247  0.12631206  1
  Zn  Zn92  1  0.00194501  0.37367689  0.87721758  1
  Zn  Zn93  1  0.38135174  0.50399034  0.37761035  1
  Zn  Zn94  1  0.12146403  0.24759030  0.37196613  1
  Zn  Zn95  1  0.49702071  0.75123524  0.25271760  1
  Zn  Zn96  1  0.87700188  0.87080603  0.50149031  1
  Zn  Zn97  1  0.74719514  0.86954118  0.12502463  1
  Zn  Zn98  1  0.12402421  0.00073635  0.62551073  1
  Zn  Zn99  1  0.62202790  0.48954741  0.14340843  1
  Zn  Zn100  1  0.62399540  0.87180549  0.75052959  1
  Zn  Zn101  1  0.37804176  0.24769947  0.62374909  1
  Zn  Zn102  1  0.12485338  0.37715726  0.74951472  1
  Zn  Zn103  1  0.61677334  0.62049066  0.49758856  1
  Zn  Zn104  1  0.61240466  -0.00037938  0.62202207  1
  Zn  Zn105  1  0.74943470  0.62317616  0.87575975  1
  Zn  Zn106  1  0.87528154  0.25041047  0.62943589  1
  Zn  Zn107  1  0.19204956  0.18745381  0.18752491  1
  Zn  Zn108  1  0.18806913  0.19001026  0.68539331  1
  Zn  Zn109  1  0.19124094  0.69257434  0.19052743  1
  Zn  Zn110  1  0.19397782  0.69385021  0.69072061  1
  Zn  Zn111  1  0.68910629  0.18766255  0.18795083  1
  Zn  Zn112  1  0.67961772  0.18531081  0.68749633  1
  Zn  Zn113  1  0.67906981  0.66230502  0.20009890  1
  Zn  Zn114  1  0.68117947  0.68645950  0.68692717  1
  Zn  Zn115  1  0.31559706  0.31439470  0.31357047  1
  Zn  Zn116  1  0.31131746  0.32052432  0.81447349  1
  Zn  Zn117  1  0.30814799  0.81368002  0.31353150  1
  Zn  Zn118  1  0.31259035  0.81813118  0.81414161  1
  Zn  Zn119  1  0.77910101  0.29749784  0.29904010  1
  Zn  Zn120  1  0.81009096  0.31453928  0.81330866  1
  Zn  Zn121  1  0.81294956  0.80937549  0.31239878  1
  Zn  Zn122  1  0.80920276  0.80852398  0.81155780  1
  Zn  Zn123  1  0.18796073  0.43867009  0.43240574  1
  Zn  Zn124  1  0.19090241  0.43776401  0.93653424  1
  Zn  Zn125  1  0.18658146  0.94009634  0.43277778  1
  Zn  Zn126  1  0.19507074  0.94450451  0.94510881  1
  Zn  Zn127  1  0.68602591  0.43288956  0.43558848  1
  Zn  Zn128  1  0.69156942  0.43561526  0.93794091  1
  Zn  Zn129  1  0.68605824  0.94024253  0.44086768  1
  Zn  Zn130  1  0.68499007  0.93072847  0.94139316  1
  Zn  Zn131  1  0.32078334  0.06834888  0.06078625  1
  Zn  Zn132  1  0.30621471  0.05721142  0.55500394  1
  Zn  Zn133  1  0.31272464  0.56523960  0.06250543  1
  Zn  Zn134  1  0.31176405  0.56214938  0.56039272  1
  Zn  Zn135  1  0.80938057  0.06147073  0.06438349  1
  Zn  Zn136  1  0.81475106  0.06172176  0.56377895  1
  Zn  Zn137  1  0.81697418  0.56297215  0.06332024  1
  Zn  Zn138  1  0.80995763  0.55838116  0.55743963  1
  Zn  Zn139  1  0.43521856  0.44298238  0.18311776  1
  Zn  Zn140  1  0.43606077  0.43504450  0.68500449  1
  Zn  Zn141  1  0.43899488  0.93972183  0.18610752  1
  Zn  Zn142  1  0.43183345  0.91470732  0.69453765  1
  Zn  Zn143  1  0.94299932  0.43775301  0.18476561  1
  Zn  Zn144  1  0.93253436  0.43079865  0.69174169  1
  Zn  Zn145  1  0.94153508  0.93321133  0.18643589  1
  Zn  Zn146  1  0.93325455  0.93512740  0.68596056  1
  Zn  Zn147  1  0.06304809  0.06122753  0.30992212  1
  Zn  Zn148  1  0.06726806  0.06491910  0.82208250  1
  Zn  Zn149  1  0.06223967  0.55749147  0.31255594  1
  Zn  Zn150  1  0.06780099  0.56031846  0.83470228  1
  Zn  Zn151  1  0.56308325  0.05947364  0.31568673  1
  Zn  Zn152  1  0.56650042  0.06134962  0.82032105  1
  Zn  Zn153  1  0.56209235  0.55847492  0.31090030  1
  Zn  Zn154  1  0.55934269  0.56332312  0.80573512  1
  Zn  Zn155  1  0.43388760  0.19552188  0.43057834  1
  Zn  Zn156  1  0.43839505  0.19396163  0.94106129  1
  Zn  Zn157  1  0.43642279  0.69204471  0.44247165  1
  Zn  Zn158  1  0.43661344  0.68709729  0.93904713  1
  Zn  Zn159  1  0.93188365  0.18765841  0.44046926  1
  Zn  Zn160  1  0.93528470  0.18719644  0.93977984  1
  Zn  Zn161  1  0.93850597  0.68459156  0.43867259  1
  Zn  Zn162  1  0.93809180  0.68899780  0.93495210  1
  Zn  Zn163  1  0.06093730  0.31080570  0.06509508  1
  Zn  Zn164  1  0.06398781  0.31269549  0.56018133  1
  Zn  Zn165  1  0.06068837  0.81209068  0.06285858  1
  Zn  Zn166  1  0.06006485  0.80788728  0.56323622  1
  Zn  Zn167  1  0.56363387  0.31802098  0.06386619  1
  Zn  Zn168  1  0.56460077  0.30373885  0.56419065  1
  Zn  Zn169  1  0.56137658  0.80905841  0.06386191  1
  Zn  Zn170  1  0.56084225  0.81046762  0.56341685  1
  O  O171  1  0.11769649  0.13176238  0.11545928  1
  O  O172  1  0.11286537  0.12305660  0.62336277  1
  O  O173  1  0.13148323  0.63092707  0.11107730  1
  O  O174  1  0.13111002  0.62625988  0.61656746  1
  O  O175  1  0.62963343  0.11234082  0.12743935  1
  O  O176  1  0.62334639  0.12111650  0.61009343  1
  O  O177  1  0.60439322  0.65015332  0.11189375  1
  O  O178  1  0.61718820  0.61496747  0.62159337  1
  O  O179  1  0.38651985  0.37808545  0.38358543  1
  O  O180  1  0.37349032  0.38757115  0.88611679  1
  O  O181  1  0.37868588  0.88009455  0.37944869  1
  O  O182  1  0.38454770  0.87114171  0.88978385  1
  O  O183  1  0.87953395  0.38427914  0.37231795  1
  O  O184  1  0.87473751  0.38206040  0.88245571  1
  O  O185  1  0.88370976  0.87869122  0.37599466  1
  O  O186  1  0.87765377  0.87723026  0.87998761  1
  O  O187  1  0.26196701  0.00800523  0.37640037  1
  O  O188  1  0.25004649  0.01177146  0.86321990  1
  O  O189  1  0.25314756  0.50999142  0.36380828  1
  O  O190  1  0.25682823  0.50724309  0.86537018  1
  O  O191  1  0.75629220  0.00429126  0.37022309  1
  O  O192  1  0.74933195  0.00550301  0.87124520  1
  O  O193  1  0.75778874  0.50674568  0.38101907  1
  O  O194  1  0.75641204  0.50102066  0.86695843  1
  O  O195  1  0.24577815  0.50844727  0.13956608  1
  O  O196  1  0.25469343  0.49480835  0.63562751  1
  O  O197  1  0.21896298  1.01847035  0.04800911  1
  O  O198  1  0.24592950  0.99336183  0.63538837  1
  O  O199  1  0.74835964  0.48596547  0.11274038  1
  O  O200  1  0.74395420  0.49174491  0.63053106  1
  O  O201  1  0.73858370  0.99384827  0.12864365  1
  O  O202  1  0.75080844  0.99190551  0.63294255  1
  O  O203  1  0.01481735  0.37691333  0.25711465  1
  O  O204  1  0.00298023  0.36000670  0.75252023  1
  O  O205  1  0.00841611  0.86574492  0.25566295  1
  O  O206  1  0.01155454  0.87935345  0.75326917  1
  O  O207  1  0.50355188  0.37992971  0.25204084  1
  O  O208  1  0.51255121  0.36976956  0.74713941  1
  O  O209  1  0.50712459  0.87371077  0.25725961  1
  O  O210  1  0.50301256  0.87260190  0.76902844  1
  O  O211  1  0.48904699  0.12686450  0.25542213  1
  O  O212  1  0.49587102  0.13037281  0.75462313  1
  O  O213  1  0.48487591  0.62930637  0.24323945  1
  O  O214  1  0.50012886  0.62852442  0.73241661  1
  O  O215  1  0.98987860  0.11751367  0.23760046  1
  O  O216  1  0.99809655  0.13191089  0.74738631  1
  O  O217  1  0.99230225  0.63469169  0.25890721  1
  O  O218  1  1.01766620  0.61581101  0.74213713  1
  O  O219  1  0.37254177  0.25992041  0.01019175  1
  O  O220  1  0.36452070  0.26103845  0.49950525  1
  O  O221  1  0.36874763  0.75745718  0.00714347  1
  O  O222  1  0.37264468  0.76536162  0.50857448  1
  O  O223  1  0.86484277  0.25449119  0.00568229  1
  O  O224  1  0.86780549  0.25134341  0.51188173  1
  O  O225  1  0.87090342  0.75039033  0.00873110  1
  O  O226  1  0.86507565  0.74906153  0.50742202  1
  O  O227  1  0.13744895  0.24808080  0.49602912  1
  O  O228  1  0.13653152  0.25060242  0.99785961  1
  O  O229  1  0.11506807  0.73462763  0.49093007  1
  O  O230  1  0.13213240  0.74540422  0.99588387  1
  O  O231  1  0.63254386  0.23751726  0.49514420  1
  O  O232  1  0.63584656  0.25796196  0.99381322  1
  O  O233  1  0.63710140  0.74972191  0.49635010  1
  O  O234  1  0.63487946  0.75744382  0.99134307  1
  O  O235  1  0.48836072  0.25090024  0.12148707  1
  O  O236  1  0.49720898  0.24856824  0.63878008  1
  O  O237  1  0.48433432  0.74749564  0.12652007  1
  O  O238  1  0.48884402  0.74658716  0.62825094  1
  O  O239  1  0.98582508  0.24032452  0.12019773  1
  O  O240  1  1.00127198  0.24253790  0.63364217  1
  O  O241  1  0.99320887  0.75074509  0.13636057  1
  O  O242  1  0.98113171  0.75188101  0.62695117  1
  O  O243  1  -0.00222081  0.26320004  0.38212231  1
  O  O244  1  0.00905289  0.24591705  0.87059910  1
  O  O245  1  0.00795308  0.75363195  0.36784896  1
  O  O246  1  0.00461845  0.75695171  0.86748562  1
  O  O247  1  0.49725097  0.27065390  0.37232838  1
  O  O248  1  0.51320085  0.24686921  0.87120980  1
  O  O249  1  0.50569655  0.76166558  0.37514704  1
  O  O250  1  0.50633582  0.75489071  0.87767281  1
  O  O251  1  0.24982043  0.13259479  0.48755401  1
  O  O252  1  0.25620131  0.14539031  0.98962664  1
  O  O253  1  0.24263157  0.62001567  0.48661224  1
  O  O254  1  0.24562075  0.63719055  0.99418011  1
  O  O255  1  0.74582023  0.12770354  0.49821032  1
  O  O256  1  0.75471818  0.13439352  0.99257204  1
  O  O257  1  0.74863342  0.63159553  0.48911866  1
  O  O258  1  0.75377914  0.63557214  0.99814627  1
  O  O259  1  0.26215132  0.36985979  -0.00262679  1
  O  O260  1  0.25462346  0.36987772  0.50268251  1
  O  O261  1  0.25938023  0.86194109  -0.00771818  1
  O  O262  1  0.25214621  0.88227217  0.51115631  1
  O  O263  1  0.76089056  0.36627694  0.00484036  1
  O  O264  1  0.74856928  0.36398490  0.50805842  1
  O  O265  1  0.75804510  0.86304245  0.00274069  1
  O  O266  1  0.75164269  0.86752430  0.50678934  1
  O  O267  1  0.13193972  0.49073518  0.24984985  1
  O  O268  1  0.12847555  0.50150954  0.74527463  1
  O  O269  1  0.12184245  0.98519568  0.24936141  1
  O  O270  1  0.13163601  0.99486015  0.75111943  1
  O  O271  1  0.64012567  0.55425253  0.23256715  1
  O  O272  1  0.63073034  0.49151213  0.74296509  1
  O  O273  1  0.62849111  0.99358990  0.24036145  1
  O  O274  1  0.63527880  0.99999988  0.74711565  1
  O  O275  1  0.37786877  0.01367048  0.25242884  1
  O  O276  1  0.37135122  0.00866497  0.74403966  1
  O  O277  1  0.36749324  0.50978577  0.25086459  1
  O  O278  1  0.36775311  0.49394492  0.75940881  1
  O  O279  1  0.87207127  0.00183443  0.25368471  1
  O  O280  1  0.86286062  0.00403545  0.75480046  1
  O  O281  1  0.88277170  0.50968910  0.25760662  1
  O  O282  1  0.86405151  0.49175349  0.75967263  1
  O  O283  1  0.11641278  0.37272971  0.36662644  1
  O  O284  1  0.12467583  0.36259457  0.87470965  1
  O  O285  1  0.12039306  0.86639817  0.37102727  1
  O  O286  1  0.12207298  0.87140411  0.86907771  1
  O  O287  1  0.60903212  0.37466916  0.37647104  1
  O  O288  1  0.63273014  0.36516966  0.86543844  1
  O  O289  1  0.61793464  0.87485596  0.36798831  1
  O  O290  1  0.61811728  0.86411270  0.87505894  1
  O  O291  1  0.37517768  0.13386966  0.13731850  1
  O  O292  1  0.37456120  0.12521585  0.62478439  1
  O  O293  1  0.37803208  0.63404840  0.13274842  1
  O  O294  1  0.37682781  0.63649120  0.61854949  1
  O  O295  1  0.87966171  0.13006391  0.13069816  1
  O  O296  1  0.88708887  0.12419339  0.63454223  1
  O  O297  1  0.87281758  0.63435048  0.13604762  1
  O  O298  1  0.86730952  0.63638108  0.62215095  1
  O  O299  1  0.26173791  0.24705304  0.11535651  1
  O  O300  1  0.25476748  0.25661505  0.61684634  1
  O  O301  1  0.26144859  0.74778938  0.11660574  1
  O  O302  1  0.25654314  0.76280337  0.62644798  1
  O  O303  1  0.75886593  0.25728790  0.11743530  1
  O  O304  1  0.74670803  0.25480487  0.61962969  1
  O  O305  1  0.75655378  0.74708318  0.12081018  1
  O  O306  1  0.75491210  0.75412183  0.62014843  1
  O  O307  1  0.25126778  0.24242463  0.38034031  1
  O  O308  1  0.24486653  0.24833021  0.87890852  1
  O  O309  1  0.23626947  0.74239177  0.37252053  1
  O  O310  1  0.24806420  0.74423198  0.87960383  1
  O  O311  1  0.76751098  0.23751479  0.39675588  1
  O  O312  1  0.74341719  0.24344051  0.88209400  1
  O  O313  1  0.74615530  0.74545681  0.38446930  1
  O  O314  1  0.74259852  0.74544440  0.88277880  1
  O  O315  1  -0.00332505  0.11723588  0.01101485  1
  O  O316  1  -0.00027888  0.11826410  0.50845611  1
  O  O317  1  0.01982312  0.62853392  -0.00810011  1
  O  O318  1  0.00626327  0.60974155  0.49683830  1
  O  O319  1  0.49951137  0.11156772  -0.00450159  1
  O  O320  1  0.50997418  0.13124431  0.49285637  1
  O  O321  1  0.48737338  0.61364416  0.01015205  1
  O  O322  1  0.50109327  0.63122365  0.51501582  1
  O  O323  1  0.48662025  0.37113587  0.50732925  1
  O  O324  1  0.48789200  0.38677685  1.00625084  1
  O  O325  1  0.49153370  0.87351200  0.49214518  1
  O  O326  1  0.49536803  0.87995333  0.99486943  1
  O  O327  1  1.00017517  0.38435906  0.49356678  1
  O  O328  1  0.98547359  0.36884628  0.99882321  1
  O  O329  1  0.99921975  0.88154576  0.49408764  1
  O  O330  1  0.99224903  0.87959620  0.99353673  1
  O  O331  1  0.49803805  0.48723704  0.37092320  1
  O  O332  1  0.48839845  0.50957810  0.88102195  1
  O  O333  1  0.48826956  0.98804955  0.37002639  1
  O  O334  1  0.51125610  0.99111050  0.89235654  1
  O  O335  1  0.99321202  0.48971665  0.38189207  1
  O  O336  1  0.99237273  0.49291336  0.88449799  1
  O  O337  1  0.99614834  0.99422454  0.38172361  1
  O  O338  1  0.98509135  0.99586685  0.87575515  1
  O  O339  1  -0.00570123  0.00668812  0.11304333  1
  O  O340  1  -0.00060670  0.00567888  0.61814440  1
  O  O341  1  0.00644561  0.50024585  0.11812505  1
  O  O342  1  0.00060045  0.49371214  0.61966206  1
  O  O343  1  0.51387441  -0.00164897  0.11551750  1
  O  O344  1  0.49141821  0.00670528  0.64255725  1
  O  O345  1  0.50544659  0.51010022  0.11789284  1
  O  O346  1  0.50653399  0.50653359  0.62837095  1
  O  O347  1  0.23767678  0.38331393  0.25823586  1
  O  O348  1  0.24674448  0.38483423  0.74134561  1
  O  O349  1  0.23601696  0.87329641  0.24984264  1
  O  O350  1  0.23970391  0.88407825  0.74588604  1
  O  O351  1  0.76429331  0.38946649  0.23266291  1
  O  O352  1  0.73943626  0.37862761  0.74248375  1
  O  O353  1  0.74091747  0.87878229  0.25076088  1
  O  O354  1  0.74822042  0.88313517  0.74348694  1
  O  O355  1  0.26101008  0.12843497  0.25916416  1
  O  O356  1  0.24487999  0.11925133  0.75680749  1
  O  O357  1  0.25732851  0.62215019  0.25893568  1
  O  O358  1  0.24652766  0.61701408  0.75872228  1
  O  O359  1  0.76425498  0.11187627  0.25219497  1
  O  O360  1  0.75259724  0.11874436  0.75624760  1
  O  O361  1  0.77067101  0.63984064  0.26894890  1
  O  O362  1  0.74459139  0.61033482  0.74988360  1
  O  O363  1  0.37174468  0.11884634  0.36497355  1
  O  O364  1  0.36616036  0.13405210  0.87400273  1
  O  O365  1  0.36851503  0.62838639  0.36919296  1
  O  O366  1  0.36324133  0.61861161  0.87975097  1
  O  O367  1  0.87314707  0.11689509  0.36671081  1
  O  O368  1  0.86361945  0.11987573  0.87104666  1
  O  O369  1  0.87209075  0.61258782  0.37209025  1
  O  O370  1  0.87513502  0.61107371  0.87753983  1
  O  O371  1  0.12500075  0.37373939  0.13853117  1
  O  O372  1  0.13937938  0.37131450  0.62610810  1
  O  O373  1  0.12331384  0.87174878  0.13568630  1
  O  O374  1  0.12927386  0.87481453  0.63202916  1
  O  O375  1  0.64228165  0.37420793  0.12694855  1
  O  O376  1  0.63196998  0.37883524  0.63049418  1
  O  O377  1  0.62384123  0.87714874  0.13744964  1
  O  O378  1  0.63466091  0.87835009  0.62654819  1
  O  O379  1  0.13021502  0.26237621  0.25146519  1
  O  O380  1  0.11885332  0.24800470  0.76131715  1
  O  O381  1  0.11904464  0.75482127  0.25671290  1
  O  O382  1  0.12209209  0.75946917  0.75565119  1
  O  O383  1  0.67367416  0.25037392  0.27534356  1
  O  O384  1  0.61695273  0.25588126  0.75762958  1
  O  O385  1  0.62386398  0.75687183  0.25850061  1
  O  O386  1  0.62245027  0.75251142  0.76048041  1
  O  O387  1  0.37275282  0.24338800  0.23815747  1
  O  O388  1  0.38846302  0.26053400  0.75234909  1
  O  O389  1  0.37235271  0.74560353  0.24346209  1
  O  O390  1  0.37567783  0.76277241  0.73449238  1
  O  O391  1  0.86753239  0.23794160  0.24082285  1
  O  O392  1  0.88280993  0.24312604  0.75195707  1
  O  O393  1  0.88520764  0.74578276  0.24447832  1
  O  O394  1  0.87490493  0.74746487  0.73768143  1
  O  O395  1  0.36913545  0.48437299  0.49621172  1
  O  O396  1  0.37792238  0.49489513  0.99475590  1
  O  O397  1  0.37237413  0.98794208  0.48954906  1
  O  O398  1  0.39304721  0.99375618  1.00782514  1
  O  O399  1  0.88235037  0.49474074  0.49214105  1
  O  O400  1  0.87412573  0.49129606  0.99167587  1
  O  O401  1  0.88608456  0.99734483  0.49474267  1
  O  O402  1  0.87789871  0.99241955  0.99553939  1
  O  O403  1  0.09796947  0.00558745  -0.02666869  1
  O  O404  1  0.11251489  0.00244327  0.50043298  1
  O  O405  1  0.13180681  0.51638216  -0.00059026  1
  O  O406  1  0.11805219  0.51131701  0.49502984  1
  O  O407  1  0.61821543  -0.00530594  0.01439280  1
  O  O408  1  0.62221889  0.01325562  0.50270930  1
  O  O409  1  0.61231929  0.49359567  -0.00165802  1
  O  O410  1  0.63028127  0.49876789  0.51398935  1
  O  O411  1  0.37550007  0.36426191  0.12172698  1
  O  O412  1  0.36486630  0.37353628  0.61342512  1
  O  O413  1  0.37861707  0.87034644  0.11358616  1
  O  O414  1  0.36483112  0.87116947  0.61589409  1
  O  O415  1  0.86956935  0.36710013  0.11868498  1
  O  O416  1  0.85890794  0.37211697  0.62538827  1
  O  O417  1  0.87372775  0.86079640  0.12086548  1
  O  O418  1  0.86132721  0.86680588  0.62367878  1
  O  O419  1  0.13290960  0.12738727  0.37274758  1
  O  O420  1  0.13637232  0.13419836  0.89137251  1
  O  O421  1  0.13120959  0.63027042  0.37901084  1
  O  O422  1  0.13946384  0.63385253  0.88553063  1
  O  O423  1  0.63119214  0.12252259  0.38539352  1
  O  O424  1  0.63755326  0.13497684  0.87298680  1
  O  O425  1  0.63286659  0.63172349  0.37942231  1
  O  O426  1  0.62359352  0.63538136  0.87316329  1
