# generated using pymatgen
data_V85Zn86O256
_symmetry_space_group_name_H-M   'P 1'
_cell_length_a   16.94244349
_cell_length_b   16.93185812
_cell_length_c   16.93997147
_cell_angle_alpha   89.91852359
_cell_angle_beta   90.04532003
_cell_angle_gamma   90.04673810
_symmetry_Int_Tables_number   1
_chemical_formula_structural   V85Zn86O256
_chemical_formula_sum   'V85 Zn86 O256'
_cell_volume   4859.51158530
_cell_formula_units_Z   1
loop_
 _symmetry_equiv_pos_site_id
 _symmetry_equiv_pos_as_xyz
  1  'x, y, z'
loop_
 _atom_site_type_symbol
 _atom_site_label
 _atom_site_symmetry_multiplicity
 _atom_site_fract_x
 _atom_site_fract_y
 _atom_site_fract_z
 _atom_site_occupancy
  V  V0  1  0.62461447  0.36674321  0.75287979  1
  V  V1  1  0.24845658  0.87612702  0.62451523  1
  V  V2  1  0.63573346  0.62844480  0.50058327  1
  V  V3  1  0.62086703  0.11918350  0.49685505  1
  V  V4  1  -0.00260062  0.88475337  0.37692229  1
  V  V5  1  0.87342767  0.38026836  -0.00075399  1
  V  V6  1  0.25560411  0.01156193  0.75207399  1
  V  V7  1  0.62324254  0.87885110  0.24991825  1
  V  V8  1  0.74281676  0.13024802  0.87215810  1
  V  V9  1  0.24096244  0.50026033  0.24204620  1
  V  V10  1  0.12168611  0.12809163  0.49671949  1
  V  V11  1  0.49818347  0.11934797  0.62377538  1
  V  V12  1  0.76133594  0.12347524  0.37386159  1
  V  V13  1  0.88984621  0.24700552  0.62775887  1
  V  V14  1  0.50444884  0.38432905  0.88520839  1
  V  V15  1  0.09529393  0.89941644  0.21167868  1
  V  V16  1  0.86543688  0.86640799  -0.00696246  1
  V  V17  1  0.23864461  0.74954308  0.49824952  1
  V  V18  1  0.49653695  0.50233702  0.49382242  1
  V  V19  1  0.75806541  -0.00140644  0.25315783  1
  V  V20  1  0.50056824  0.87922356  0.38238252  1
  V  V21  1  0.26018713  0.87850306  0.12644546  1
  V  V22  1  0.12670558  0.50387439  0.61876194  1
  V  V23  1  0.63564483  0.75277001  0.37991266  1
  V  V24  1  0.62593649  0.49623072  0.11956418  1
  V  V25  1  0.24427839  0.61996747  0.37927142  1
  V  V26  1  0.37905855  0.75069253  0.11992694  1
  V  V27  1  0.74754914  0.00286952  0.74585536  1
  V  V28  1  0.12218962  0.37110341  0.75349829  1
  V  V29  1  0.36681972  0.25550228  0.11392552  1
  V  V30  1  0.37420627  0.87633741  0.49881634  1
  V  V31  1  0.25266419  0.50032701  0.75098673  1
  V  V32  1  0.00199187  0.50359805  -0.00787917  1
  V  V33  1  0.62657337  0.49860944  0.62393633  1
  V  V34  1  0.00550415  0.62581955  0.61631701  1
  V  V35  1  0.49876388  0.75022437  0.25246325  1
  V  V36  1  0.86805400  0.75136663  0.61898464  1
  V  V37  1  0.25376601  0.62754805  0.87913407  1
  V  V38  1  0.49897544  0.24477285  0.75694894  1
  V  V39  1  -0.01105576  0.24990245  0.23467718  1
  V  V40  1  0.12695402  0.87975428  0.75209221  1
  V  V41  1  0.74924605  0.24831415  -0.00021865  1
  V  V42  1  0.87800368  0.61898399  0.75288900  1
  V  V43  1  0.49444770  -0.00310183  0.00110497  1
  V  V44  1  0.00734722  0.62084223  0.12896942  1
  V  V45  1  0.50078774  0.61750352  0.12439655  1
  V  V46  1  0.49032283  0.87332968  0.87952275  1
  V  V47  1  0.89157656  0.12839688  0.74829342  1
  V  V48  1  -0.00998491  0.00396384  0.50406430  1
  V  V49  1  0.75225696  0.49706322  0.75661466  1
  V  V50  1  0.37500808  0.61879150  0.25735085  1
  V  V51  1  -0.00516778  0.75069829  0.24996664  1
  V  V52  1  0.87382274  0.00054481  0.87649654  1
  V  V53  1  0.12008881  0.00919398  0.62638499  1
  V  V54  1  0.75639615  0.36830523  0.12765017  1
  V  V55  1  0.37758254  0.00345093  0.38111006  1
  V  V56  1  -0.00035533  0.87625151  0.87760303  1
  V  V57  1  0.37393052  0.12852830  0.25178607  1
  V  V58  1  0.00162906  0.74790349  0.74984110  1
  V  V59  1  0.11618132  0.26471237  0.37124273  1
  V  V60  1  0.37728453  0.61855445  0.75302772  1
  V  V61  1  0.74602330  0.87117666  0.11808896  1
  V  V62  1  0.87134861  0.74158666  0.12280747  1
  V  V63  1  0.25461738  0.13858952  0.88372207  1
  V  V64  1  0.32495933  0.44680966  0.93446737  1
  V  V65  1  0.62738367  0.37656755  0.25265540  1
  V  V66  1  0.25236957  0.37423603  0.62330778  1
  V  V67  1  0.50072995  0.62357199  0.62363926  1
  V  V68  1  0.37388701  0.74883495  0.62280733  1
  V  V69  1  0.24859838  0.76022825  0.00101244  1
  V  V70  1  0.50229272  0.12637415  0.12383573  1
  V  V71  1  0.75149941  0.25078032  0.50015856  1
  V  V72  1  0.49945386  0.25168020  0.25121520  1
  V  V73  1  0.88166775  0.50534683  0.36706762  1
  V  V74  1  0.62949775  0.75025429  0.88131660  1
  V  V75  1  0.62212347  0.62287110  -0.00087795  1
  V  V76  1  0.24796212  -0.00124374  0.24920796  1
  V  V77  1  0.62453242  0.87507672  0.75032541  1
  V  V78  1  0.75232468  0.37313276  0.62488109  1
  V  V79  1  0.49986435  0.74808089  0.75157764  1
  V  V80  1  0.88662747  0.37720175  0.49536412  1
  V  V81  1  0.49211262  0.37994797  0.37345927  1
  V  V82  1  -0.01004877  0.37072028  0.86717034  1
  V  V83  1  0.37630718  0.24559008  0.62445732  1
  V  V84  1  0.75523109  0.62455130  0.88161771  1
  Zn  Zn85  1  0.24707890  0.12961933  0.37477778  1
  Zn  Zn86  1  0.11534677  0.38042232  0.23145255  1
  Zn  Zn87  1  0.62227538  0.12838555  -0.00485794  1
  Zn  Zn88  1  0.13836902  0.14777583  0.02124505  1
  Zn  Zn89  1  0.62611127  0.25227053  0.37683787  1
  Zn  Zn90  1  0.12903401  0.62181261  0.00399309  1
  Zn  Zn91  1  0.74460329  0.87128225  0.61937324  1
  Zn  Zn92  1  0.12391186  0.75551784  0.36912084  1
  Zn  Zn93  1  0.61929823  -0.00365707  0.61965189  1
  Zn  Zn94  1  0.75675973  0.62829980  0.37041855  1
  Zn  Zn95  1  0.00686470  0.50135143  0.49284103  1
  Zn  Zn96  1  0.25027907  0.25085766  0.49594101  1
  Zn  Zn97  1  0.88274744  0.12116070  0.23139467  1
  Zn  Zn98  1  0.62656163  0.00224934  0.12207885  1
  Zn  Zn99  1  0.86477213  0.87589719  0.49370008  1
  Zn  Zn100  1  0.37458965  0.37851334  0.49762409  1
  Zn  Zn101  1  0.11356544  0.24252168  0.87257690  1
  Zn  Zn102  1  0.24971864  0.37325762  0.11906612  1
  Zn  Zn103  1  0.12489783  0.74866259  0.87733298  1
  Zn  Zn104  1  0.37389475  0.00235636  0.87486844  1
  Zn  Zn105  1  0.75621500  0.50747896  0.24795493  1
  Zn  Zn106  1  0.02733163  0.05711984  0.08503386  1
  Zn  Zn107  1  0.17992850  0.18464031  0.19051072  1
  Zn  Zn108  1  0.18423431  0.18879021  0.68849845  1
  Zn  Zn109  1  0.18282459  0.69638077  0.19011887  1
  Zn  Zn110  1  0.18793665  0.68863484  0.68934729  1
  Zn  Zn111  1  0.68964508  0.18906105  0.18902197  1
  Zn  Zn112  1  0.68701313  0.18652196  0.68331073  1
  Zn  Zn113  1  0.68866730  0.68991566  0.18976580  1
  Zn  Zn114  1  0.68797224  0.68458056  0.69235915  1
  Zn  Zn115  1  0.30808255  0.31376895  0.31265003  1
  Zn  Zn116  1  0.31756999  0.31081278  0.80504550  1
  Zn  Zn117  1  0.31252256  0.81126681  0.31109638  1
  Zn  Zn118  1  0.31189599  0.81043510  0.81057440  1
  Zn  Zn119  1  0.81854943  0.31506843  0.31462927  1
  Zn  Zn120  1  0.81566057  0.30860628  0.81427091  1
  Zn  Zn121  1  0.81567139  0.81543142  0.30953363  1
  Zn  Zn122  1  0.81044847  0.80859003  0.80561023  1
  Zn  Zn123  1  0.18977915  0.43978610  0.43630342  1
  Zn  Zn124  1  0.14831970  0.38410216  0.98108750  1
  Zn  Zn125  1  0.18292935  0.93965601  0.43532406  1
  Zn  Zn126  1  0.18597585  0.94377223  0.94495451  1
  Zn  Zn127  1  0.69204774  0.44004813  0.43527204  1
  Zn  Zn128  1  0.68529038  0.43550025  0.93762544  1
  Zn  Zn129  1  0.69112527  0.93979502  0.43939696  1
  Zn  Zn130  1  0.68236138  0.94282623  0.93666739  1
  Zn  Zn131  1  0.31543100  0.06399581  0.06292154  1
  Zn  Zn132  1  0.30899278  0.06503005  0.56250329  1
  Zn  Zn133  1  0.31133662  0.57037507  0.06689847  1
  Zn  Zn134  1  0.31317047  0.56250179  0.56047400  1
  Zn  Zn135  1  0.81959330  0.05925020  0.06131354  1
  Zn  Zn136  1  0.80992451  0.06616123  0.56673379  1
  Zn  Zn137  1  0.81283394  0.55740225  0.06154232  1
  Zn  Zn138  1  0.81661627  0.56067090  0.56303347  1
  Zn  Zn139  1  0.43401745  0.43840771  0.18746358  1
  Zn  Zn140  1  0.44035294  0.43501232  0.68779153  1
  Zn  Zn141  1  0.43739190  0.94092256  0.19066899  1
  Zn  Zn142  1  0.43691097  0.93635565  0.68775707  1
  Zn  Zn143  1  0.94065082  0.43612137  0.18524089  1
  Zn  Zn144  1  0.93778356  0.43867054  0.68309575  1
  Zn  Zn145  1  0.92305981  0.95122442  0.17274269  1
  Zn  Zn146  1  0.93802711  0.93873024  0.69006996  1
  Zn  Zn147  1  0.06077708  0.06785428  0.31342896  1
  Zn  Zn148  1  0.06201865  0.06045399  0.90293967  1
  Zn  Zn149  1  0.06202946  0.56668737  0.31254421  1
  Zn  Zn150  1  0.06680241  0.55740338  0.81445841  1
  Zn  Zn151  1  0.56500542  0.06325151  0.31504087  1
  Zn  Zn152  1  0.56062033  0.06147098  0.81221150  1
  Zn  Zn153  1  0.57065360  0.56373647  0.31129425  1
  Zn  Zn154  1  0.56490731  0.55778249  0.81294172  1
  Zn  Zn155  1  0.43844582  0.19231095  0.43944764  1
  Zn  Zn156  1  0.43390268  0.18595944  0.93444736  1
  Zn  Zn157  1  0.43712706  0.68936840  0.43712289  1
  Zn  Zn158  1  0.43810645  0.68403593  0.93942168  1
  Zn  Zn159  1  0.94100426  0.18889013  0.43641970  1
  Zn  Zn160  1  0.93188441  0.19135914  0.94419508  1
  Zn  Zn161  1  0.93996670  0.68837594  0.43514411  1
  Zn  Zn162  1  0.93668098  0.68791879  0.93761003  1
  Zn  Zn163  1  0.05676350  0.30295681  0.06749122  1
  Zn  Zn164  1  0.06677606  0.31284456  0.56328003  1
  Zn  Zn165  1  0.05986297  0.81887313  0.05982758  1
  Zn  Zn166  1  0.05887112  0.81826076  0.56347178  1
  Zn  Zn167  1  0.56470594  0.30788382  0.06290757  1
  Zn  Zn168  1  0.56274914  0.31002291  0.56215226  1
  Zn  Zn169  1  0.56257468  0.81010762  0.06099678  1
  Zn  Zn170  1  0.56237234  0.81143449  0.56200262  1
  O  O171  1  0.11704630  0.11838163  0.12871271  1
  O  O172  1  0.12773624  0.11539184  0.61949190  1
  O  O173  1  0.11187943  0.63273782  0.12246896  1
  O  O174  1  0.11741655  0.61614314  0.63486825  1
  O  O175  1  0.61127111  0.12583879  0.12829403  1
  O  O176  1  0.61657664  0.12401376  0.61554083  1
  O  O177  1  0.62024510  0.61974739  0.11776337  1
  O  O178  1  0.62026023  0.62174260  0.61971225  1
  O  O179  1  0.38827735  0.37351891  0.37506518  1
  O  O180  1  0.38221553  0.38091214  0.87520716  1
  O  O181  1  0.38206938  0.88174529  0.37765578  1
  O  O182  1  0.38800731  0.87289396  0.87110887  1
  O  O183  1  0.87250233  0.38798572  0.38633799  1
  O  O184  1  0.88314027  0.37913664  0.87742301  1
  O  O185  1  0.89161129  0.86632100  0.37964847  1
  O  O186  1  0.87641160  0.87698766  0.87434107  1
  O  O187  1  0.25758096  -0.00057536  0.36417208  1
  O  O188  1  0.25130006  0.00349306  0.86194301  1
  O  O189  1  0.24943274  0.51521481  0.36855012  1
  O  O190  1  0.26176326  0.50663512  0.87251666  1
  O  O191  1  0.73897567  0.01228529  0.36382022  1
  O  O192  1  0.75485263  0.00392677  0.86314068  1
  O  O193  1  0.76464488  0.50253272  0.37361031  1
  O  O194  1  0.74325867  0.50656750  0.86297731  1
  O  O195  1  0.25156734  0.50509006  0.13996668  1
  O  O196  1  0.24556933  0.49569213  0.62978140  1
  O  O197  1  0.26282425  0.99190072  0.13793589  1
  O  O198  1  0.24374348  0.99558857  0.63337056  1
  O  O199  1  0.74227760  0.48918179  0.12644589  1
  O  O200  1  0.74665472  0.49506060  0.63557172  1
  O  O201  1  0.74684268  0.98831966  0.13249382  1
  O  O202  1  0.74433814  1.00078534  0.63739216  1
  O  O203  1  0.00077448  0.35889883  0.24396993  1
  O  O204  1  0.00488368  0.38635342  0.76097936  1
  O  O205  1  -0.00366614  0.87477630  0.26257440  1
  O  O206  1  0.00627008  0.86650428  0.75565746  1
  O  O207  1  0.50623971  0.37372848  0.25601222  1
  O  O208  1  0.50800713  0.36824240  0.75602888  1
  O  O209  1  0.50558494  0.87227725  0.25862103  1
  O  O210  1  0.50654186  0.86950990  0.75740183  1
  O  O211  1  0.49312574  0.12910706  0.24502188  1
  O  O212  1  0.50814757  0.13598940  0.74137719  1
  O  O213  1  0.49454885  0.62905340  0.24606330  1
  O  O214  1  0.49503652  0.62705900  0.74677931  1
  O  O215  1  0.99490055  0.14376641  0.26201601  1
  O  O216  1  0.98632959  0.12281337  0.75685718  1
  O  O217  1  1.00246066  0.63698120  0.24108040  1
  O  O218  1  0.99491134  0.62953813  0.74699134  1
  O  O219  1  0.37715320  0.24650245  0.01609683  1
  O  O220  1  0.37282174  0.25672991  0.51030594  1
  O  O221  1  0.37116738  0.74440182  0.01412247  1
  O  O222  1  0.36666999  0.75677911  0.50482736  1
  O  O223  1  0.86263013  0.26594564  -0.00381316  1
  O  O224  1  0.87107018  0.25651977  0.50612639  1
  O  O225  1  0.87227418  0.75954432  0.00346743  1
  O  O226  1  0.88122708  0.74932311  0.51721755  1
  O  O227  1  0.12536132  0.24536280  0.49147594  1
  O  O228  1  0.12698316  0.26243492  0.98705015  1
  O  O229  1  0.13659996  0.75436138  0.50305009  1
  O  O230  1  0.13479065  0.74918476  0.99687884  1
  O  O231  1  0.63640127  0.24328692  0.50051769  1
  O  O232  1  0.64205436  0.24607978  1.00419701  1
  O  O233  1  0.61969261  0.74149100  0.49145970  1
  O  O234  1  0.62419253  0.74195771  0.98803981  1
  O  O235  1  0.49174611  0.24487508  0.13232560  1
  O  O236  1  0.49430990  0.24362741  0.63129347  1
  O  O237  1  0.49720408  0.74036563  0.13095899  1
  O  O238  1  0.49473123  0.74311293  0.63172600  1
  O  O239  1  0.99058556  0.24212310  0.13489378  1
  O  O240  1  0.98912321  0.25361619  0.62462208  1
  O  O241  1  0.98968467  0.74546553  0.12755436  1
  O  O242  1  0.99579920  0.74490610  0.63497152  1
  O  O243  1  0.01352998  0.25452945  0.37570478  1
  O  O244  1  -0.00678401  0.26789580  0.87253566  1
  O  O245  1  0.00253118  0.75549302  0.36621071  1
  O  O246  1  0.00105443  0.75354922  0.86275941  1
  O  O247  1  0.50383749  0.26024928  0.36823486  1
  O  O248  1  0.49148137  0.25857976  0.86167558  1
  O  O249  1  0.50563927  0.75950505  0.36975837  1
  O  O250  1  0.50709353  0.75462359  0.87122647  1
  O  O251  1  0.23548192  0.12648833  0.49771109  1
  O  O252  1  0.25226332  0.12539626  0.98760649  1
  O  O253  1  0.25639996  0.63259289  0.48645731  1
  O  O254  1  0.24969234  0.63649511  0.99476396  1
  O  O255  1  0.74464063  0.13155656  0.49400023  1
  O  O256  1  0.75612720  0.13074602  0.99356047  1
  O  O257  1  0.73804316  0.62135096  0.50033836  1
  O  O258  1  0.74039283  0.61712397  0.98817998  1
  O  O259  1  0.26328947  0.39169497  -0.00536044  1
  O  O260  1  0.25251065  0.37702261  0.51223314  1
  O  O261  1  0.25407548  0.86664881  0.00369850  1
  O  O262  1  0.25363596  0.86924327  0.50385744  1
  O  O263  1  0.75415664  0.37085181  0.00517390  1
  O  O264  1  0.75615585  0.36771235  0.50574485  1
  O  O265  1  0.75159049  0.87756544  0.00578445  1
  O  O266  1  0.75292631  0.87900878  0.50706465  1
  O  O267  1  0.13719577  0.49976152  0.25314560  1
  O  O268  1  0.13366158  0.49139406  0.74269783  1
  O  O269  1  0.13278153  0.99105717  0.25693842  1
  O  O270  1  0.13656822  0.98866964  0.74187625  1
  O  O271  1  0.62404350  0.48885039  0.23841013  1
  O  O272  1  0.63258488  0.49023540  0.74330657  1
  O  O273  1  0.62855637  0.98896807  0.24795674  1
  O  O274  1  0.63021709  0.98999750  0.75016102  1
  O  O275  1  0.37059931  0.01071780  0.25971524  1
  O  O276  1  0.35795045  -0.00775600  0.75024304  1
  O  O277  1  0.36649333  0.51414509  0.24780599  1
  O  O278  1  0.37139132  0.51231948  0.74269093  1
  O  O279  1  0.85912319  -0.00920945  0.26104805  1
  O  O280  1  0.86659207  0.00900998  0.75288772  1
  O  O281  1  0.87668690  0.49466160  0.26407337  1
  O  O282  1  0.86740898  0.51133545  0.74354224  1
  O  O283  1  0.12760895  0.36626187  0.37351114  1
  O  O284  1  0.10779557  0.37793621  0.86781453  1
  O  O285  1  0.10673097  0.87271400  0.37907869  1
  O  O286  1  0.11655222  0.87524774  0.86747500  1
  O  O287  1  0.61976970  0.37560916  0.36633016  1
  O  O288  1  0.61483285  0.37656562  0.86597043  1
  O  O289  1  0.61750846  0.87175118  0.37084755  1
  O  O290  1  0.62060225  0.86704871  0.86664715  1
  O  O291  1  0.38435328  0.13254462  0.13335261  1
  O  O292  1  0.38360351  0.13374815  0.61739880  1
  O  O293  1  0.38480699  0.63170637  0.13353416  1
  O  O294  1  0.38023887  0.63025842  0.63104028  1
  O  O295  1  0.91030959  0.06481302  0.12952227  1
  O  O296  1  0.87343946  0.13203976  0.63911747  1
  O  O297  1  0.87666979  0.63851539  0.11540599  1
  O  O298  1  0.88315405  0.63308329  0.63202150  1
  O  O299  1  0.26451909  0.24798612  0.13271588  1
  O  O300  1  0.25730598  0.25794772  0.62500512  1
  O  O301  1  0.26132944  0.75286737  0.11982445  1
  O  O302  1  0.25462278  0.75392540  0.61797897  1
  O  O303  1  0.74948063  0.26067811  0.11992385  1
  O  O304  1  0.75800368  0.25258578  0.61445109  1
  O  O305  1  0.75525237  0.76311766  0.12918779  1
  O  O306  1  0.76518692  0.74711365  0.63340590  1
  O  O307  1  0.23724841  0.25002066  0.37600907  1
  O  O308  1  0.25518171  0.23951882  0.86879939  1
  O  O309  1  0.24642152  0.74535439  0.38155406  1
  O  O310  1  0.25051609  0.74505051  0.88380365  1
  O  O311  1  0.75058692  0.24636587  0.38608068  1
  O  O312  1  0.75308155  0.24015175  0.88253540  1
  O  O313  1  0.73851506  0.75275291  0.37151246  1
  O  O314  1  0.73992394  0.73729240  0.86592784  1
  O  O315  1  0.00789624  0.12308508  -0.01475653  1
  O  O316  1  0.01084782  0.11750879  0.49674112  1
  O  O317  1  0.00106696  0.61620146  0.00173951  1
  O  O318  1  0.00123804  0.62597924  0.51378701  1
  O  O319  1  0.50077160  0.12127601  0.00760906  1
  O  O320  1  0.51017487  0.13383288  0.50880944  1
  O  O321  1  0.51303581  0.62833615  0.00845772  1
  O  O322  1  0.50654347  0.61973815  0.50426892  1
  O  O323  1  0.50370635  0.38360193  0.49070189  1
  O  O324  1  0.50690931  0.36860535  0.98376720  1
  O  O325  1  0.49358405  0.87213692  0.48936576  1
  O  O326  1  0.50678568  0.88179323  0.99043299  1
  O  O327  1  0.98927611  0.37875475  0.50754143  1
  O  O328  1  0.99167231  0.38346550  0.99040644  1
  O  O329  1  0.99435800  0.88403321  0.49345372  1
  O  O330  1  0.98758627  0.86685137  0.98205401  1
  O  O331  1  0.50802776  0.49396491  0.38269224  1
  O  O332  1  0.50064551  0.48414917  0.87250814  1
  O  O333  1  0.49039870  0.99129852  0.36994252  1
  O  O334  1  0.49781641  0.99099001  0.88046142  1
  O  O335  1  0.98939354  0.50561461  0.37724038  1
  O  O336  1  0.99653315  0.49621077  0.88592537  1
  O  O337  1  1.00269092  0.99158680  0.38536110  1
  O  O338  1  0.98493860  0.98646357  0.86039299  1
  O  O339  1  0.02986152  -0.05937382  0.13313753  1
  O  O340  1  0.01077631  -0.00701346  0.61873015  1
  O  O341  1  -0.01188976  0.51422446  0.11310814  1
  O  O342  1  0.00934511  0.50968784  0.62489740  1
  O  O343  1  0.49999484  0.00829524  0.11975549  1
  O  O344  1  0.49916752  0.01443336  0.63141939  1
  O  O345  1  0.50624783  0.51099880  0.12998206  1
  O  O346  1  0.50847889  0.50470866  0.61920741  1
  O  O347  1  0.25194705  0.39466757  0.25074296  1
  O  O348  1  0.24563651  0.38206001  0.74241225  1
  O  O349  1  0.25144189  0.88351138  0.24214199  1
  O  O350  1  0.24223838  0.87734974  0.74488785  1
  O  O351  1  0.74367141  0.37570429  0.24344295  1
  O  O352  1  0.74485312  0.37908355  0.74846546  1
  O  O353  1  0.74071975  0.87991558  0.24452783  1
  O  O354  1  0.74066903  0.88168292  0.74636546  1
  O  O355  1  0.25874740  0.11707270  0.25262578  1
  O  O356  1  0.25201790  0.11308673  0.74781991  1
  O  O357  1  0.25399400  0.62100593  0.25699655  1
  O  O358  1  0.25823082  0.62141500  0.75763462  1
  O  O359  1  0.75748697  0.11786743  0.25268765  1
  O  O360  1  0.75002134  0.11864421  0.75551571  1
  O  O361  1  0.73799496  0.61930352  0.25728108  1
  O  O362  1  0.75644617  0.61593378  0.75861157  1
  O  O363  1  0.37473365  0.11979132  0.37045445  1
  O  O364  1  0.36083502  0.12132469  0.87164725  1
  O  O365  1  0.36205825  0.63526317  0.36568601  1
  O  O366  1  0.36592463  0.63143366  0.86621494  1
  O  O367  1  0.86233591  0.12692750  0.37833312  1
  O  O368  1  0.86540208  0.11736997  0.86444024  1
  O  O369  1  0.87351087  0.61070754  0.38397361  1
  O  O370  1  0.86580575  0.62944874  0.86653072  1
  O  O371  1  0.13431548  0.37316691  0.11520876  1
  O  O372  1  0.13251501  0.38205229  0.63242468  1
  O  O373  1  0.15122712  0.86231529  0.12256460  1
  O  O374  1  0.13043760  0.88267686  0.63157434  1
  O  O375  1  0.62985487  0.38091540  0.13022873  1
  O  O376  1  0.63199772  0.37867517  0.63159615  1
  O  O377  1  0.62901918  0.87384554  0.13297468  1
  O  O378  1  0.62153340  0.87487802  0.63768815  1
  O  O379  1  0.11595816  0.25556669  0.25973097  1
  O  O380  1  0.12766780  0.26711495  0.75071960  1
  O  O381  1  0.10749725  0.77242357  0.24293552  1
  O  O382  1  0.11881747  0.76105834  0.75103944  1
  O  O383  1  0.61933983  0.26265987  0.24927881  1
  O  O384  1  0.61884799  0.26133517  0.74331830  1
  O  O385  1  0.61796838  0.76239790  0.25782656  1
  O  O386  1  0.61899685  0.75368644  0.75900028  1
  O  O387  1  0.37928529  0.23972516  0.25010949  1
  O  O388  1  0.38647258  0.25344975  0.73456476  1
  O  O389  1  0.37974647  0.74173716  0.24106189  1
  O  O390  1  0.37993074  0.73970278  0.74366358  1
  O  O391  1  0.88459755  0.24597602  0.25148425  1
  O  O392  1  0.87133614  0.23660015  0.74268371  1
  O  O393  1  0.88557245  0.75758687  0.23696326  1
  O  O394  1  0.88319472  0.73845536  0.74296828  1
  O  O395  1  0.39209225  0.49933629  0.50487588  1
  O  O396  1  0.37664970  0.50622911  0.99506819  1
  O  O397  1  0.36725334  0.99506027  0.48737545  1
  O  O398  1  0.38933636  1.00267420  0.99743208  1
  O  O399  1  0.87895669  0.49149411  0.49573135  1
  O  O400  1  0.88173485  0.48906260  0.99843304  1
  O  O401  1  0.88710400  1.00143004  0.51086840  1
  O  O402  1  0.86716844  0.98483957  0.98120737  1
  O  O403  1  0.11767624  0.01522733  -0.00656460  1
  O  O404  1  0.11797636  0.00733008  0.50827249  1
  O  O405  1  0.10465755  0.49868747  -0.00131556  1
  O  O406  1  0.12572509  0.49754044  0.51392172  1
  O  O407  1  0.61260573  0.00650869  0.00282905  1
  O  O408  1  0.62531423  0.01469232  0.50087613  1
  O  O409  1  0.62624878  0.50557780  0.01168330  1
  O  O410  1  0.61871400  0.50791487  0.50500881  1
  O  O411  1  0.37221278  0.36037419  0.12968720  1
  O  O412  1  0.36728557  0.36984510  0.62445636  1
  O  O413  1  0.37067358  0.86507114  0.13127182  1
  O  O414  1  0.36942108  0.86964150  0.61916340  1
  O  O415  1  0.86458952  0.38095886  0.11515541  1
  O  O416  1  0.86903045  0.36755484  0.62081967  1
  O  O417  1  0.86425416  0.86824933  0.11053469  1
  O  O418  1  0.87563560  0.85775848  0.63125735  1
  O  O419  1  0.12658995  0.13542902  0.38237629  1
  O  O420  1  0.14678430  0.13002337  0.86198023  1
  O  O421  1  0.14068163  0.63443708  0.36914168  1
  O  O422  1  0.14193005  0.62503189  0.87456080  1
  O  O423  1  0.63178909  0.13133854  0.38092634  1
  O  O424  1  0.63874483  0.11973296  0.87586275  1
  O  O425  1  0.62301166  0.63674644  0.38515656  1
  O  O426  1  0.62889628  0.62933795  0.88110762  1
