# generated using pymatgen
data_V85Zn86O256
_symmetry_space_group_name_H-M   'P 1'
_cell_length_a   16.93759369
_cell_length_b   16.93626022
_cell_length_c   16.94594495
_cell_angle_alpha   90.06643627
_cell_angle_beta   89.95726351
_cell_angle_gamma   89.98305421
_symmetry_Int_Tables_number   1
_chemical_formula_structural   V85Zn86O256
_chemical_formula_sum   'V85 Zn86 O256'
_cell_volume   4861.10036316
_cell_formula_units_Z   1
loop_
 _symmetry_equiv_pos_site_id
 _symmetry_equiv_pos_as_xyz
  1  'x, y, z'
loop_
 _atom_site_type_symbol
 _atom_site_label
 _atom_site_symmetry_multiplicity
 _atom_site_fract_x
 _atom_site_fract_y
 _atom_site_fract_z
 _atom_site_occupancy
  V  V0  1  0.88250942  0.12656019  0.76170432  1
  V  V1  1  0.62376337  0.25864114  0.37786050  1
  V  V2  1  0.64601030  0.37740729  0.75068347  1
  V  V3  1  0.12246936  0.12121525  0.00021610  1
  V  V4  1  0.25126049  0.25040827  0.49846859  1
  V  V5  1  0.62762194  0.12743550  0.50236902  1
  V  V6  1  0.00011821  0.13228095  0.62857129  1
  V  V7  1  0.25968290  0.00163334  0.25001327  1
  V  V8  1  0.49141671  0.12333510  0.12983623  1
  V  V9  1  0.24979990  0.74876939  0.49931583  1
  V  V10  1  0.25591927  0.62631724  0.37035736  1
  V  V11  1  0.37858486  0.12426455  0.75198512  1
  V  V12  1  -0.00250589  0.62069305  0.61527125  1
  V  V13  1  0.75398137  0.00692376  0.25103719  1
  V  V14  1  0.49945050  0.12576083  0.62781123  1
  V  V15  1  -0.00552640  0.12566753  0.12963635  1
  V  V16  1  0.13832847  0.63192099  -0.00773830  1
  V  V17  1  0.49612305  0.62569128  0.12304532  1
  V  V18  1  0.88102219  0.00292378  0.37174957  1
  V  V19  1  0.00011499  0.75741081  0.25068571  1
  V  V20  1  0.38396244  0.49909282  0.37344530  1
  V  V21  1  0.74872913  0.74806562  -0.00315833  1
  V  V22  1  0.87428132  0.62702081  0.24873810  1
  V  V23  1  0.37458304  0.25184188  0.62662781  1
  V  V24  1  0.49764708  0.00259823  0.49388265  1
  V  V25  1  0.75195377  0.87531433  0.12697651  1
  V  V26  1  -0.00937882  0.24946685  0.25255215  1
  V  V27  1  0.38984258  -0.00854700  0.87115058  1
  V  V28  1  0.49800214  0.49565308  -0.00428011  1
  V  V29  1  0.87130945  0.75134039  0.62070649  1
  V  V30  1  0.49387462  0.24817056  0.25469654  1
  V  V31  1  0.62503066  -0.00285165  0.63149654  1
  V  V32  1  0.12893773  0.87593030  0.24623125  1
  V  V33  1  0.12494457  -0.00906031  0.62867031  1
  V  V34  1  0.11788993  0.49519499  0.61338591  1
  V  V35  1  0.25246470  0.37378861  0.12368484  1
  V  V36  1  0.61805899  0.25456628  0.88085019  1
  V  V37  1  0.37450432  0.37093372  -0.01513615  1
  V  V38  1  0.25114701  -0.01000493  0.74886965  1
  V  V39  1  0.74918401  0.25055798  0.00422099  1
  V  V40  1  0.87583224  0.88173306  -0.00856171  1
  V  V41  1  0.12657677  0.12301040  0.49862525  1
  V  V42  1  0.74776401  0.50267531  0.24974414  1
  V  V43  1  0.87043320  0.62329710  0.74696656  1
  V  V44  1  0.87081061  0.49965603  0.87165952  1
  V  V45  1  0.38646565  0.37568959  0.49801203  1
  V  V46  1  0.75472664  0.26103611  0.51006734  1
  V  V47  1  0.49508476  0.26168434  0.75848909  1
  V  V48  1  0.26386281  0.12192634  0.37145436  1
  V  V49  1  0.61702940  0.63358781  0.51026746  1
  V  V50  1  0.24905671  0.11596283  0.87643742  1
  V  V51  1  0.12611017  -0.00375849  0.12291797  1
  V  V52  1  0.24386564  0.37528244  0.62725649  1
  V  V53  1  0.74489459  0.62341253  0.87173175  1
  V  V54  1  0.00679275  0.75076750  0.74924052  1
  V  V55  1  0.24856882  0.24519106  0.00010512  1
  V  V56  1  0.62623386  0.87675247  0.25083349  1
  V  V57  1  0.87559719  0.75153457  0.12281371  1
  V  V58  1  0.23819353  0.50626852  0.75292222  1
  V  V59  1  0.49888398  0.74562106  0.24834223  1
  V  V60  1  0.36317153  0.86886400  0.00193211  1
  V  V61  1  0.38418599  0.62220115  0.73493294  1
  V  V62  1  0.74824228  0.63451414  0.38322086  1
  V  V63  1  0.36361802  0.75207471  0.12753286  1
  V  V64  1  0.00185216  0.50206128  0.00015900  1
  V  V65  1  0.12163719  0.75442145  0.37436399  1
  V  V66  1  0.37154560  0.87947650  0.49600437  1
  V  V67  1  0.25551308  0.50237654  0.24997350  1
  V  V68  1  0.61703066  0.37854012  0.25248109  1
  V  V69  1  0.74861250  0.87598005  0.62496303  1
  V  V70  1  0.49615640  0.87827495  0.37299607  1
  V  V71  1  0.00723655  0.37161826  0.86549990  1
  V  V72  1  0.62167925  0.12585203  0.00043900  1
  V  V73  1  0.12483545  0.37408428  0.24974781  1
  V  V74  1  0.75377732  0.00055853  0.75649012  1
  V  V75  1  -0.00008406  -0.00287286  0.49908355  1
  V  V76  1  0.00197494  0.88064058  0.86694065  1
  V  V77  1  0.00103336  0.62612737  0.12170818  1
  V  V78  1  0.36985162  0.51031018  0.87384381  1
  V  V79  1  0.87607649  0.37553670  0.00591394  1
  V  V80  1  0.75565400  0.12872124  0.37517811  1
  V  V81  1  0.88127244  0.50170290  0.38217987  1
  V  V82  1  0.12534871  0.24809097  0.37440531  1
  V  V83  1  0.87313919  0.87427202  0.49518265  1
  V  V84  1  0.50419048  -0.01114931  0.00136467  1
  Zn  Zn85  1  0.75275096  0.12223762  0.87882385  1
  Zn  Zn86  1  0.24614524  0.86826295  0.62579986  1
  Zn  Zn87  1  0.62783417  0.49818214  0.63378603  1
  Zn  Zn88  1  0.74747877  0.37613095  0.12766112  1
  Zn  Zn89  1  0.88204487  0.38811701  0.51464689  1
  Zn  Zn90  1  0.51282101  0.76501192  0.74812806  1
  Zn  Zn91  1  0.00471981  0.38357063  0.37972946  1
  Zn  Zn92  1  0.62898456  0.75550056  0.37790474  1
  Zn  Zn93  1  0.11321129  0.24289304  0.85831446  1
  Zn  Zn94  1  0.61420309  0.76816768  0.87419649  1
  Zn  Zn95  1  0.38599595  0.74393259  0.61780388  1
  Zn  Zn96  1  0.50243586  0.50584568  0.50687681  1
  Zn  Zn97  1  0.62075940  0.62396506  -0.00271285  1
  Zn  Zn98  1  0.87465392  0.25538176  0.63680358  1
  Zn  Zn99  1  0.12726581  0.50132835  0.12304311  1
  Zn  Zn100  1  0.37355064  0.24564314  0.12875932  1
  Zn  Zn101  1  0.13925678  0.74549880  0.86556206  1
  Zn  Zn102  1  -0.00497027  0.00279182  -0.00520524  1
  Zn  Zn103  1  0.62208575  0.50089286  0.12319600  1
  Zn  Zn104  1  0.11984482  0.62106022  0.49297761  1
  Zn  Zn105  1  0.87104984  0.24703006  0.13167587  1
  Zn  Zn106  1  0.62595557  0.00359839  0.12915687  1
  Zn  Zn107  1  0.18536871  0.18444243  0.18749648  1
  Zn  Zn108  1  0.18692949  0.18050425  0.68694411  1
  Zn  Zn109  1  0.18474335  0.68357904  0.18524142  1
  Zn  Zn110  1  0.18668990  0.68098847  0.68197092  1
  Zn  Zn111  1  0.68252978  0.18871975  0.18830342  1
  Zn  Zn112  1  0.68545260  0.18683643  0.69416804  1
  Zn  Zn113  1  0.68318565  0.68711790  0.18654411  1
  Zn  Zn114  1  0.68511627  0.69521062  0.69164424  1
  Zn  Zn115  1  0.31288721  0.31462539  0.31481045  1
  Zn  Zn116  1  0.27694091  0.29951122  0.79893771  1
  Zn  Zn117  1  0.31277428  0.81599780  0.30992301  1
  Zn  Zn118  1  0.32523110  0.80581144  0.81239530  1
  Zn  Zn119  1  0.80848283  0.31910645  0.31682924  1
  Zn  Zn120  1  0.81776191  0.30641427  0.82296073  1
  Zn  Zn121  1  0.81600919  0.81706116  0.31297534  1
  Zn  Zn122  1  0.81053468  0.81044774  0.80883714  1
  Zn  Zn123  1  0.19190787  0.43607153  0.43734336  1
  Zn  Zn124  1  0.18638968  0.43910998  0.93730733  1
  Zn  Zn125  1  0.18575542  0.93692570  0.43126275  1
  Zn  Zn126  1  0.20944551  0.89849423  0.91308097  1
  Zn  Zn127  1  0.68884215  0.44438149  0.44002598  1
  Zn  Zn128  1  0.68609905  0.43625403  0.93668981  1
  Zn  Zn129  1  0.68733510  0.93949336  0.44029988  1
  Zn  Zn130  1  0.69477415  0.94326019  0.94425169  1
  Zn  Zn131  1  0.31259547  0.05439002  0.06311671  1
  Zn  Zn132  1  0.31215080  0.06120441  0.56163727  1
  Zn  Zn133  1  0.31577439  0.56349191  0.06483670  1
  Zn  Zn134  1  0.30793122  0.55926560  0.55818090  1
  Zn  Zn135  1  0.81287544  0.06370046  0.06482140  1
  Zn  Zn136  1  0.81419767  0.06742172  0.56608286  1
  Zn  Zn137  1  0.81198154  0.56287768  0.06199831  1
  Zn  Zn138  1  0.79996382  0.55855640  0.56686563  1
  Zn  Zn139  1  0.43583997  0.43495223  0.18502163  1
  Zn  Zn140  1  0.43943503  0.44279098  0.68487039  1
  Zn  Zn141  1  0.43872730  0.93374796  0.18347929  1
  Zn  Zn142  1  0.43430488  0.93279753  0.67658605  1
  Zn  Zn143  1  0.93774358  0.43897674  0.18989957  1
  Zn  Zn144  1  0.93227149  0.43689171  0.68788804  1
  Zn  Zn145  1  0.93938802  0.93827481  0.18646593  1
  Zn  Zn146  1  0.93532998  0.94075091  0.68746721  1
  Zn  Zn147  1  0.06467342  0.06449432  0.31188131  1
  Zn  Zn148  1  0.06381580  0.05522520  0.81265985  1
  Zn  Zn149  1  0.06568280  0.56723078  0.30821658  1
  Zn  Zn150  1  0.05847483  0.56407599  0.81134594  1
  Zn  Zn151  1  0.56646925  0.06676602  0.31414837  1
  Zn  Zn152  1  0.56686996  -0.07104571  0.80962963  1
  Zn  Zn153  1  0.56390352  0.56784938  0.31430238  1
  Zn  Zn154  1  0.55804095  0.55865511  0.81492740  1
  Zn  Zn155  1  0.43975889  0.18935902  0.43799591  1
  Zn  Zn156  1  0.43620376  0.18238082  0.93940714  1
  Zn  Zn157  1  0.43734408  0.68965362  0.43384353  1
  Zn  Zn158  1  0.43579042  0.68997415  0.93432176  1
  Zn  Zn159  1  0.93803866  0.18931880  0.43960794  1
  Zn  Zn160  1  0.93773317  0.19008173  0.93959660  1
  Zn  Zn161  1  0.93523413  0.68983678  0.43544993  1
  Zn  Zn162  1  0.93785542  0.69034278  0.93324935  1
  Zn  Zn163  1  0.06368236  0.31058561  0.06178899  1
  Zn  Zn164  1  0.05868830  0.31518929  0.55930497  1
  Zn  Zn165  1  0.06349303  0.81417598  0.05812057  1
  Zn  Zn166  1  0.05805983  0.81157943  0.55922596  1
  Zn  Zn167  1  0.55851394  0.31551119  0.06878164  1
  Zn  Zn168  1  0.56337529  0.31623500  0.56992662  1
  Zn  Zn169  1  0.56632868  0.81147262  0.06157617  1
  Zn  Zn170  1  0.56308947  0.80952313  0.56450065  1
  O  O171  1  0.11466232  0.12008054  0.11904410  1
  O  O172  1  0.12138037  0.11384941  0.61830791  1
  O  O173  1  0.11688036  0.62248153  0.11408349  1
  O  O174  1  0.11407837  0.61577928  0.61869978  1
  O  O175  1  0.61480530  0.12712002  0.11598185  1
  O  O176  1  0.61821241  0.11912034  0.62302803  1
  O  O177  1  0.61020194  0.62295484  0.12198363  1
  O  O178  1  0.63252470  0.63040393  0.61108917  1
  O  O179  1  0.36630462  0.38643277  0.38667541  1
  O  O180  1  0.36163138  0.38084310  0.88494825  1
  O  O181  1  0.38726525  0.87404817  0.38067679  1
  O  O182  1  0.37656599  0.88049328  0.89231238  1
  O  O183  1  0.87369439  0.39628403  0.37340280  1
  O  O184  1  0.88331485  0.38128381  0.88731688  1
  O  O185  1  0.87076142  0.88705111  0.38629607  1
  O  O186  1  0.88372151  0.86673602  0.88325357  1
  O  O187  1  0.24543508  0.00771393  0.36008978  1
  O  O188  1  0.25885409  -0.00189647  0.86672487  1
  O  O189  1  0.25567013  0.50790803  0.36824428  1
  O  O190  1  0.25178255  0.49387422  0.85891977  1
  O  O191  1  0.75744235  0.00869253  0.37052324  1
  O  O192  1  0.74797480  0.00224604  0.86058525  1
  O  O193  1  0.75753969  0.51306436  0.36552273  1
  O  O194  1  0.76412773  0.50663855  0.88413395  1
  O  O195  1  0.25045096  0.49236744  0.13267481  1
  O  O196  1  0.23844072  0.49424132  0.62860921  1
  O  O197  1  0.23541923  1.00917322  0.13821255  1
  O  O198  1  0.24151928  0.99859391  0.62995768  1
  O  O199  1  0.74815333  0.50301290  0.13875608  1
  O  O200  1  0.73831537  0.49724014  0.62902109  1
  O  O201  1  0.75077303  0.99624721  0.13628153  1
  O  O202  1  0.74327289  0.99794828  0.63129321  1
  O  O203  1  0.00932499  0.37055043  0.25451514  1
  O  O204  1  -0.00066219  0.38076643  0.76785538  1
  O  O205  1  0.00890545  0.86404433  0.24598523  1
  O  O206  1  -0.00957898  0.86775855  0.75913021  1
  O  O207  1  0.51031552  0.36851955  0.24721442  1
  O  O208  1  0.49242369  0.36182879  0.75310392  1
  O  O209  1  0.50630693  0.87241405  0.25620688  1
  O  O210  1  0.48189480  0.87939358  0.75898267  1
  O  O211  1  0.50735987  0.13437049  0.24247571  1
  O  O212  1  0.48489709  0.13407297  0.74518526  1
  O  O213  1  0.50278948  0.63881760  0.24402391  1
  O  O214  1  0.48367789  0.61236894  0.74596534  1
  O  O215  1  1.00708685  0.13702231  0.24175071  1
  O  O216  1  0.98989568  0.11768073  0.74560143  1
  O  O217  1  0.99726906  0.63613027  0.24085984  1
  O  O218  1  0.98912990  0.63210748  0.74182299  1
  O  O219  1  0.36889226  0.25535227  0.00433707  1
  O  O220  1  0.36993496  0.25642377  0.50417226  1
  O  O221  1  0.37667321  0.76114642  0.00941078  1
  O  O222  1  0.36578853  0.75709680  0.49683907  1
  O  O223  1  0.86703682  0.25845936  0.00357193  1
  O  O224  1  0.85916935  0.24760269  0.50020944  1
  O  O225  1  0.86680350  0.75635372  0.00400147  1
  O  O226  1  0.88123425  0.76317818  0.50591157  1
  O  O227  1  0.13334018  0.24324730  0.49458986  1
  O  O228  1  0.13238122  0.23742690  0.99931061  1
  O  O229  1  0.12963992  0.75049719  0.48926126  1
  O  O230  1  0.12026618  0.73361472  0.99976958  1
  O  O231  1  0.63324824  0.24891454  0.49526299  1
  O  O232  1  0.62859514  0.24941744  1.00018209  1
  O  O233  1  0.62614532  0.73898530  0.49430856  1
  O  O234  1  0.63813048  0.74584700  0.99778568  1
  O  O235  1  0.49766936  0.24182742  0.13596455  1
  O  O236  1  0.49285158  0.24453447  0.63428468  1
  O  O237  1  0.49526802  0.74470462  0.13008809  1
  O  O238  1  0.49683961  0.75675246  0.63406670  1
  O  O239  1  0.99918711  0.24446239  0.13435841  1
  O  O240  1  1.00835729  0.23419123  0.62608240  1
  O  O241  1  0.99479393  0.74629894  0.12949988  1
  O  O242  1  0.99057458  0.74498026  0.62936653  1
  O  O243  1  0.00891682  0.24579221  0.36689805  1
  O  O244  1  -0.00011047  0.26553161  0.87911214  1
  O  O245  1  0.00895474  0.74322159  0.36306690  1
  O  O246  1  0.00067098  0.75728704  0.86329065  1
  O  O247  1  0.51434496  0.24323448  0.36927290  1
  O  O248  1  0.50623822  0.24368164  0.87074724  1
  O  O249  1  0.50051237  0.75998312  0.36415031  1
  O  O250  1  0.50575314  0.73215285  0.86096875  1
  O  O251  1  0.24628034  0.12869697  0.49222819  1
  O  O252  1  0.24305262  0.12629295  0.99959505  1
  O  O253  1  0.24580631  0.63255010  0.48894097  1
  O  O254  1  0.23637504  0.61993176  1.00259890  1
  O  O255  1  0.74487452  0.13188158  0.49326827  1
  O  O256  1  0.74254846  0.13185060  1.00315413  1
  O  O257  1  0.74632506  0.62807238  0.48535059  1
  O  O258  1  0.75051960  0.63255033  0.99247526  1
  O  O259  1  0.25127688  0.36556871  0.00614261  1
  O  O260  1  0.25773006  0.37030295  0.50931837  1
  O  O261  1  0.26709909  0.88992999  0.01489927  1
  O  O262  1  0.25661365  0.86799785  0.49255876  1
  O  O263  1  0.75798499  0.36919777  0.00369935  1
  O  O264  1  0.75313098  0.36292531  0.49430715  1
  O  O265  1  0.75886015  0.86773113  0.00655808  1
  O  O266  1  0.76214422  0.88473529  0.51132045  1
  O  O267  1  0.13387201  0.48886193  0.24954885  1
  O  O268  1  0.13479032  0.50591203  0.74230563  1
  O  O269  1  0.12683493  0.99145271  0.24401490  1
  O  O270  1  0.13691903  1.00294271  0.74019391  1
  O  O271  1  0.63000609  0.49512877  0.25188308  1
  O  O272  1  0.62196070  0.47803503  0.76136774  1
  O  O273  1  0.63531008  0.99393428  0.25163681  1
  O  O274  1  0.63314021  0.99828393  0.73715661  1
  O  O275  1  0.35808584  -0.00732749  0.24201028  1
  O  O276  1  0.37307584  0.00669883  0.75579748  1
  O  O277  1  0.36307380  0.49045300  0.25760344  1
  O  O278  1  0.36608589  0.50688637  0.75432534  1
  O  O279  1  0.86837612  -0.00578193  0.26104733  1
  O  O280  1  0.86595631  0.01575007  0.74193812  1
  O  O281  1  0.86733400  0.50854148  0.25570468  1
  O  O282  1  0.88083643  0.51034867  0.76192145  1
  O  O283  1  0.12811143  0.36832615  0.36589096  1
  O  O284  1  0.10951475  0.37364420  0.88306755  1
  O  O285  1  0.12575457  0.86208649  0.36456003  1
  O  O286  1  0.10337775  0.87306214  0.87538201  1
  O  O287  1  0.63063834  0.36708008  0.36959777  1
  O  O288  1  0.62745459  0.36120436  0.87029621  1
  O  O289  1  0.61618754  0.87570710  0.37090559  1
  O  O290  1  0.62042411  0.88069852  0.89299303  1
  O  O291  1  0.38735154  0.12465518  0.12075492  1
  O  O292  1  0.37802097  0.13083268  0.63160401  1
  O  O293  1  0.38457239  0.63956116  0.12034472  1
  O  O294  1  0.37299095  0.62022711  0.63140926  1
  O  O295  1  0.88965191  0.12689254  0.12259680  1
  O  O296  1  0.88492670  0.13171561  0.63401902  1
  O  O297  1  0.88087911  0.63149370  0.13003211  1
  O  O298  1  0.87783020  0.63157628  0.62839705  1
  O  O299  1  0.25125815  0.25325513  0.11763589  1
  O  O300  1  0.25595210  0.25688449  0.61762306  1
  O  O301  1  0.26493256  0.74612365  0.13226932  1
  O  O302  1  0.24760793  0.74886595  0.60849002  1
  O  O303  1  0.75116495  0.25141318  0.11752466  1
  O  O304  1  0.74758616  0.24314678  0.61101352  1
  O  O305  1  0.75542562  0.75354431  0.11836025  1
  O  O306  1  0.76420999  0.76035837  0.62763754  1
  O  O307  1  0.24471353  0.24257946  0.37745809  1
  O  O308  1  0.25878503  0.23405839  0.89385581  1
  O  O309  1  0.24540891  0.74446806  0.37825012  1
  O  O310  1  0.24049739  0.79022345  0.88266098  1
  O  O311  1  0.74382485  0.24482240  0.38125259  1
  O  O312  1  0.74324769  0.24630148  0.89174392  1
  O  O313  1  0.75248481  0.73790265  0.36762968  1
  O  O314  1  0.75367331  0.74034638  0.88355805  1
  O  O315  1  0.00627805  0.12414603  0.00619859  1
  O  O316  1  0.00405015  0.11620928  0.50796726  1
  O  O317  1  -0.00135206  0.61472406  0.00274986  1
  O  O318  1  -0.00129589  0.62997548  0.51154235  1
  O  O319  1  0.50490976  0.11542118  0.00816962  1
  O  O320  1  0.50565857  0.11975280  0.50542693  1
  O  O321  1  0.49788585  0.61612597  0.00694454  1
  O  O322  1  0.51326202  0.62807253  0.49520636  1
  O  O323  1  0.48904592  0.37019225  0.49953137  1
  O  O324  1  0.48569120  0.38293538  1.00784093  1
  O  O325  1  0.49436641  0.88288538  0.49098724  1
  O  O326  1  0.49287985  0.88654317  1.01075046  1
  O  O327  1  0.99275257  0.36926954  0.48973897  1
  O  O328  1  0.99476879  0.38581171  0.99972293  1
  O  O329  1  0.99140507  0.89012713  0.50308177  1
  O  O330  1  0.99128008  0.87483875  0.98852564  1
  O  O331  1  0.48601941  0.50712517  0.37419011  1
  O  O332  1  0.48611735  0.50099229  0.88775151  1
  O  O333  1  0.50666270  0.99640553  0.38611405  1
  O  O334  1  0.49202854  1.00443528  0.88492051  1
  O  O335  1  0.98465583  0.50744191  0.36658160  1
  O  O336  1  0.99191207  0.49385349  0.88288878  1
  O  O337  1  0.98896805  1.00921981  0.38212778  1
  O  O338  1  0.99635944  0.98555595  0.87456733  1
  O  O339  1  0.00900204  0.00766596  0.12420374  1
  O  O340  1  0.00687862  0.00775546  0.61900783  1
  O  O341  1  0.00195027  0.50639072  0.11818300  1
  O  O342  1  0.00778102  0.50893789  0.63250003  1
  O  O343  1  0.50352625  0.00642719  0.12047340  1
  O  O344  1  0.50685238  0.00446932  0.61450578  1
  O  O345  1  0.49360656  0.50886490  0.11655403  1
  O  O346  1  0.51574182  0.48786039  0.61857946  1
  O  O347  1  0.24382469  0.37823652  0.24252232  1
  O  O348  1  0.25967084  0.39384727  0.73255490  1
  O  O349  1  0.23801601  0.88665739  0.25379007  1
  O  O350  1  0.26485295  0.88715066  0.74250208  1
  O  O351  1  0.73961540  0.38555712  0.25040204  1
  O  O352  1  0.74432897  0.36891598  0.76080411  1
  O  O353  1  0.74616101  0.88438998  0.24755561  1
  O  O354  1  0.76389605  0.88667958  0.73447990  1
  O  O355  1  0.24511310  0.11255076  0.25717762  1
  O  O356  1  0.26301663  0.11080321  0.75347293  1
  O  O357  1  0.24452500  0.61275603  0.25559352  1
  O  O358  1  0.25675414  0.60920632  0.74245969  1
  O  O359  1  0.74481176  0.11547783  0.25773609  1
  O  O360  1  0.75913447  0.11834844  0.75363837  1
  O  O361  1  0.75327637  0.62116494  0.25601096  1
  O  O362  1  0.76337300  0.63174906  0.75729407  1
  O  O363  1  0.36322497  0.12839143  0.37796912  1
  O  O364  1  0.36997140  0.11245759  0.86988867  1
  O  O365  1  0.36262035  0.61830002  0.37695361  1
  O  O366  1  0.36850153  0.61293699  0.86782607  1
  O  O367  1  0.86321852  0.11892788  0.37916172  1
  O  O368  1  0.87613398  0.12374984  0.86596760  1
  O  O369  1  0.86606584  0.62105727  0.36906000  1
  O  O370  1  0.86926024  0.61829206  0.86806486  1
  O  O371  1  0.13600109  0.37583011  0.13018505  1
  O  O372  1  0.13268326  0.38147015  0.62110946  1
  O  O373  1  0.12032096  0.88469485  0.13114269  1
  O  O374  1  0.12527486  0.88689983  0.61798715  1
  O  O375  1  0.62700198  0.38009050  0.13713258  1
  O  O376  1  0.62851742  0.36354763  0.64934790  1
  O  O377  1  0.63456410  0.87790396  0.13202500  1
  O  O378  1  0.63784721  0.88610112  0.61273529  1
  O  O379  1  0.12023755  0.26020971  0.25300687  1
  O  O380  1  0.17144102  0.25739146  0.76408422  1
  O  O381  1  0.12046159  0.75685976  0.25183482  1
  O  O382  1  0.11131777  0.74221919  0.74585713  1
  O  O383  1  0.61896074  0.25915466  0.25879108  1
  O  O384  1  0.61588300  0.25467658  0.76278377  1
  O  O385  1  0.61695130  0.76050657  0.25086381  1
  O  O386  1  0.63035987  0.76101801  0.75950886  1
  O  O387  1  0.38999894  0.25683759  0.25185651  1
  O  O388  1  0.37424038  0.24299918  0.74814716  1
  O  O389  1  0.38421057  0.75958702  0.23646012  1
  O  O390  1  0.36789916  0.72770186  0.74309663  1
  O  O391  1  0.88668443  0.25961477  0.25249968  1
  O  O392  1  0.87114885  0.23153305  0.75360216  1
  O  O393  1  0.88337432  0.74804961  0.24543887  1
  O  O394  1  0.88354704  0.74315066  0.74047282  1
  O  O395  1  0.37783507  0.49283920  0.49221638  1
  O  O396  1  0.37488342  0.49317621  0.99156649  1
  O  O397  1  0.38525092  0.99373794  0.50107514  1
  O  O398  1  0.38430025  0.99172275  0.99466218  1
  O  O399  1  0.86923103  0.50720365  0.48455041  1
  O  O400  1  0.88219517  0.49423875  0.99569135  1
  O  O401  1  0.88200600  0.99819742  0.49454671  1
  O  O402  1  0.87437796  0.98605487  1.00435864  1
  O  O403  1  0.12233332  0.01170286  0.00845687  1
  O  O404  1  0.11775586  0.00345253  0.50232016  1
  O  O405  1  0.11694288  0.50939274  0.00049804  1
  O  O406  1  0.12774809  0.50150120  0.50889419  1
  O  O407  1  0.62027165  0.01084483  0.00622922  1
  O  O408  1  0.61910078  0.00871468  0.50816222  1
  O  O409  1  0.61255691  0.49896046  0.00147168  1
  O  O410  1  0.62348630  0.52134803  0.49119677  1
  O  O411  1  0.36135002  0.37220308  0.11771830  1
  O  O412  1  0.36787656  0.37008748  0.61632402  1
  O  O413  1  0.37933843  0.86128386  0.11584650  1
  O  O414  1  0.36722939  0.87292730  0.60490158  1
  O  O415  1  0.87351802  0.37518557  0.11544541  1
  O  O416  1  0.87837657  0.36610409  0.62528137  1
  O  O417  1  0.87126221  0.86921109  0.11847700  1
  O  O418  1  0.87268986  0.87034684  0.61503906  1
  O  O419  1  0.13294324  0.13006245  0.38128931  1
  O  O420  1  0.12950185  0.12325805  0.88267071  1
  O  O421  1  0.13484483  0.63583594  0.37274440  1
  O  O422  1  0.12100459  0.62706965  0.88709389  1
  O  O423  1  0.63732306  0.13402123  0.38191834  1
  O  O424  1  0.62843909  0.13870995  0.89414545  1
  O  O425  1  0.63812595  0.63175986  0.37639341  1
  O  O426  1  0.64056038  0.61538263  0.87471695  1
