# generated using pymatgen
data_V85Zn86O256
_symmetry_space_group_name_H-M   'P 1'
_cell_length_a   16.91090516
_cell_length_b   16.91050328
_cell_length_c   16.91625900
_cell_angle_alpha   90.05384240
_cell_angle_beta   90.03249299
_cell_angle_gamma   90.04478124
_symmetry_Int_Tables_number   1
_chemical_formula_structural   V85Zn86O256
_chemical_formula_sum   'V85 Zn86 O256'
_cell_volume   4837.57062372
_cell_formula_units_Z   1
loop_
 _symmetry_equiv_pos_site_id
 _symmetry_equiv_pos_as_xyz
  1  'x, y, z'
loop_
 _atom_site_type_symbol
 _atom_site_label
 _atom_site_symmetry_multiplicity
 _atom_site_fract_x
 _atom_site_fract_y
 _atom_site_fract_z
 _atom_site_occupancy
  V  V0  1  0.74973584  0.87491695  0.12520094  1
  V  V1  1  0.76687302  0.10951240  0.86128356  1
  V  V2  1  0.25020489  0.88677578  0.12922512  1
  V  V3  1  0.62473285  0.12136284  -0.00479663  1
  V  V4  1  0.38130488  0.49925261  0.87489491  1
  V  V5  1  0.49884328  0.75266964  0.25091546  1
  V  V6  1  0.36987450  0.11392069  0.74962496  1
  V  V7  1  0.50607425  0.37463954  0.87732088  1
  V  V8  1  0.87479619  0.88028109  -0.00315915  1
  V  V9  1  0.36661590  0.36976535  0.50103001  1
  V  V10  1  0.87834519  0.75108128  0.13281551  1
  V  V11  1  0.49611640  0.63395441  0.62329751  1
  V  V12  1  0.37533988  0.75476962  0.11640903  1
  V  V13  1  0.75161226  0.24747003  0.49935123  1
  V  V14  1  0.24470348  0.62383197  0.88190438  1
  V  V15  1  0.75117959  0.50265825  0.74797720  1
  V  V16  1  0.88233284  0.75180251  0.62378482  1
  V  V17  1  0.62675869  0.62789732  0.49935699  1
  V  V18  1  0.00403999  0.00270961  0.50174092  1
  V  V19  1  0.75313724  0.62863654  0.37853236  1
  V  V20  1  0.24112940  0.75115525  0.00340549  1
  V  V21  1  0.75531339  0.37345131  0.12104743  1
  V  V22  1  0.49892579  0.50006129  0.49955411  1
  V  V23  1  0.49845946  0.37453885  0.37581372  1
  V  V24  1  0.10480862  0.37297549  0.75313483  1
  V  V25  1  0.88517873  0.62773334  0.74715128  1
  V  V26  1  0.37412999  0.63067229  0.74592100  1
  V  V27  1  0.63324292  0.87116725  0.76120805  1
  V  V28  1  0.11486226  0.37892994  0.25367386  1
  V  V29  1  0.49715728  0.24753513  0.24834704  1
  V  V30  1  0.88709108  0.23780388  0.63530889  1
  V  V31  1  -0.00382326  0.00416213  0.01033615  1
  V  V32  1  0.11824373  0.75183185  0.36738359  1
  V  V33  1  0.12508687  0.25565430  0.38178365  1
  V  V34  1  0.25233425  0.86811610  0.63171184  1
  V  V35  1  0.24909355  0.49885235  0.24876522  1
  V  V36  1  0.75151476  0.12554695  0.37430596  1
  V  V37  1  0.24906426  0.25099941  -0.00566350  1
  V  V38  1  0.12224569  0.63011794  0.50754196  1
  V  V39  1  0.00176736  0.87863721  0.87321450  1
  V  V40  1  0.62412992  0.37622397  0.24825163  1
  V  V41  1  0.24546607  0.12070241  0.36882989  1
  V  V42  1  0.88477153  0.12510891  0.24725094  1
  V  V43  1  0.75002240  0.00268332  0.24928397  1
  V  V44  1  0.49137483  -0.00279498  -0.00244303  1
  V  V45  1  0.88163896  0.49868599  0.37302249  1
  V  V46  1  0.62289378  0.62719708  -0.01005382  1
  V  V47  1  0.38051634  0.87565165  0.50722181  1
  V  V48  1  0.74995066  0.37290664  0.62141705  1
  V  V49  1  0.13156683  0.00228804  0.63587802  1
  V  V50  1  0.49163939  0.86656693  0.87808212  1
  V  V51  1  0.50175678  0.62259926  0.12072180  1
  V  V52  1  0.25091156  0.62791279  0.37699654  1
  V  V53  1  0.11930073  0.12798696  0.00999215  1
  V  V54  1  0.87445401  0.87413438  0.50101340  1
  V  V55  1  0.37847829  -0.00113866  0.37245707  1
  V  V56  1  0.24979176  0.49492986  0.74980537  1
  V  V57  1  0.62461154  0.50161925  0.62171452  1
  V  V58  1  0.37537999  0.50042814  0.37455537  1
  V  V59  1  0.62835076  0.75188787  0.38010181  1
  V  V60  1  0.61818835  0.11631931  0.49998309  1
  V  V61  1  0.11862024  0.50214472  0.62770956  1
  V  V62  1  0.75264921  0.63159112  0.86958291  1
  V  V63  1  0.88382242  0.25019833  0.12400352  1
  V  V64  1  0.49819912  0.24475387  0.74685256  1
  V  V65  1  -0.01392608  0.48988987  -0.00105859  1
  V  V66  1  0.75334513  0.24668800  -0.00340125  1
  V  V67  1  0.75555066  0.87820369  0.62753695  1
  V  V68  1  0.74741932  0.75146910  -0.00353711  1
  V  V69  1  0.12720087  0.50390718  0.11276791  1
  V  V70  1  0.62456525  0.24941890  0.37533146  1
  V  V71  1  0.88125151  0.37173378  0.49557847  1
  V  V72  1  0.62438192  0.49903453  0.11122383  1
  V  V73  1  0.36417543  0.24603714  0.62364383  1
  V  V74  1  0.62320475  0.37291461  0.74555732  1
  V  V75  1  0.24257909  0.11612594  0.86989703  1
  V  V76  1  0.62534776  0.87615903  0.25128484  1
  V  V77  1  0.00060143  0.50224315  0.49986932  1
  V  V78  1  0.10879930  0.25186146  0.87056878  1
  V  V79  1  0.37808226  0.37840606  -0.00256664  1
  V  V80  1  0.37478477  0.25052271  0.12312532  1
  V  V81  1  0.75039752  0.50117822  0.24894559  1
  V  V82  1  0.13020872  0.12829654  0.50535939  1
  V  V83  1  0.62168442  -0.00344686  0.62829443  1
  V  V84  1  0.00462373  0.62996256  0.12146672  1
  Zn  Zn85  1  0.88163543  0.62979255  0.25259074  1
  Zn  Zn86  1  0.37547339  0.62623969  0.24853859  1
  Zn  Zn87  1  0.36588682  -0.00686421  0.87389439  1
  Zn  Zn88  1  0.12078107  0.74618726  0.87850791  1
  Zn  Zn89  1  0.00581837  0.75125324  0.74901820  1
  Zn  Zn90  1  0.49478982  0.11631195  0.62063223  1
  Zn  Zn91  1  0.62943748  0.24369966  0.86894107  1
  Zn  Zn92  1  0.12279799  0.88476368  0.25096707  1
  Zn  Zn93  1  0.24323026  0.37074501  0.62329421  1
  Zn  Zn94  1  0.13521292  0.87566295  0.75915040  1
  Zn  Zn95  1  0.37015794  0.11737344  0.24395671  1
  Zn  Zn96  1  0.12330264  0.01076652  0.13609323  1
  Zn  Zn97  1  -0.00549083  0.87122574  0.36889775  1
  Zn  Zn98  1  0.87795752  0.00024865  0.37681952  1
  Zn  Zn99  1  0.61963704  0.00028515  0.12510983  1
  Zn  Zn100  1  0.00203956  0.25073867  0.25380403  1
  Zn  Zn101  1  0.25351320  0.75036028  0.50310649  1
  Zn  Zn102  1  0.88543511  0.48767958  0.86710162  1
  Zn  Zn103  1  0.49933386  0.12281132  0.12175287  1
  Zn  Zn104  1  0.24961640  0.37647034  0.12384879  1
  Zn  Zn105  1  0.50359731  0.88167174  0.38255796  1
  Zn  Zn106  1  0.50473074  0.74727215  0.75261400  1
  Zn  Zn107  1  0.18993246  0.19387178  0.19094855  1
  Zn  Zn108  1  0.18237001  0.18670156  0.69189662  1
  Zn  Zn109  1  0.18839706  0.68595307  0.18693360  1
  Zn  Zn110  1  0.18623309  0.68959952  0.69215279  1
  Zn  Zn111  1  0.68687947  0.18620040  0.18341342  1
  Zn  Zn112  1  0.69083648  0.18471830  0.68514986  1
  Zn  Zn113  1  0.68874616  0.68745440  0.18852090  1
  Zn  Zn114  1  0.69246985  0.69548516  0.68336230  1
  Zn  Zn115  1  0.30640111  0.30924832  0.31453312  1
  Zn  Zn116  1  0.30871362  0.30724540  0.81128801  1
  Zn  Zn117  1  0.31236615  0.81411373  0.31096994  1
  Zn  Zn118  1  0.31149506  0.80832720  0.81352125  1
  Zn  Zn119  1  0.81415747  0.31312572  0.31009204  1
  Zn  Zn120  1  0.81687881  0.30607860  0.81268148  1
  Zn  Zn121  1  0.81227832  0.81434505  0.31509786  1
  Zn  Zn122  1  0.81754414  0.81744269  0.81158785  1
  Zn  Zn123  1  0.18670765  0.43952887  0.43751466  1
  Zn  Zn124  1  0.18767390  0.43443040  0.93424491  1
  Zn  Zn125  1  0.19274906  0.93810129  0.44113423  1
  Zn  Zn126  1  0.18372551  0.93667219  0.94933804  1
  Zn  Zn127  1  0.69003262  0.43918377  0.43598919  1
  Zn  Zn128  1  0.71865647  0.42374354  0.91990260  1
  Zn  Zn129  1  0.69221817  0.93776426  0.44002624  1
  Zn  Zn130  1  0.68443495  0.93985354  0.93704371  1
  Zn  Zn131  1  0.31170919  0.06676227  0.05618257  1
  Zn  Zn132  1  0.30860560  0.05821131  0.55816958  1
  Zn  Zn133  1  0.31673475  0.56315671  0.06143525  1
  Zn  Zn134  1  0.30957336  0.55987106  0.56352907  1
  Zn  Zn135  1  0.81169239  0.06454053  0.06306303  1
  Zn  Zn136  1  0.80953108  0.05846926  0.56609711  1
  Zn  Zn137  1  0.81270501  0.56639751  0.06190385  1
  Zn  Zn138  1  0.81490143  0.56698805  0.56238289  1
  Zn  Zn139  1  0.43847792  0.43824395  0.18580818  1
  Zn  Zn140  1  0.43710429  0.43726455  0.68598160  1
  Zn  Zn141  1  0.43468115  0.93661886  0.18760506  1
  Zn  Zn142  1  0.44283128  0.93387652  0.68953665  1
  Zn  Zn143  1  0.93825092  0.44088653  0.18415262  1
  Zn  Zn144  1  0.93369135  0.43765069  0.68109360  1
  Zn  Zn145  1  0.94132268  0.93495553  0.19142236  1
  Zn  Zn146  1  0.94205942  0.96543221  0.69218639  1
  Zn  Zn147  1  0.06394773  0.05705571  0.31477956  1
  Zn  Zn148  1  0.04583229  0.06331107  0.81623622  1
  Zn  Zn149  1  0.06253907  0.56853487  0.30916246  1
  Zn  Zn150  1  0.06219942  0.55994943  0.81727401  1
  Zn  Zn151  1  0.55936323  0.06318074  0.31307640  1
  Zn  Zn152  1  0.56351659  0.05630283  0.81233833  1
  Zn  Zn153  1  0.56403991  0.56421159  0.30870501  1
  Zn  Zn154  1  0.56386205  0.56119095  0.81083603  1
  Zn  Zn155  1  0.43363376  0.18545576  0.43745154  1
  Zn  Zn156  1  0.43652351  0.18509402  0.93257466  1
  Zn  Zn157  1  0.43706671  0.69259065  0.43838645  1
  Zn  Zn158  1  0.43498624  0.68655306  0.93817104  1
  Zn  Zn159  1  0.94391291  0.18500024  0.43912750  1
  Zn  Zn160  1  0.93532181  0.18766090  0.94029677  1
  Zn  Zn161  1  0.93832923  0.68788930  0.44353288  1
  Zn  Zn162  1  0.93680364  0.68715047  0.94090613  1
  Zn  Zn163  1  0.06467591  0.31620598  0.06326071  1
  Zn  Zn164  1  0.06140834  0.31329269  0.56165231  1
  Zn  Zn165  1  0.06378455  0.81528131  0.06549683  1
  Zn  Zn166  1  0.06283801  0.81799078  0.56204516  1
  Zn  Zn167  1  0.56614239  0.30993553  0.05901873  1
  Zn  Zn168  1  0.55834227  0.30737511  0.56117733  1
  Zn  Zn169  1  0.56334513  0.81291123  0.06088861  1
  Zn  Zn170  1  0.56428587  0.81518583  0.56405424  1
  O  O171  1  0.12843567  0.13485594  0.11309982  1
  O  O172  1  0.13229678  0.11184073  0.62033487  1
  O  O173  1  0.11785762  0.61643016  0.12691292  1
  O  O174  1  0.13110498  0.61836302  0.61559450  1
  O  O175  1  0.62181637  0.12344681  0.11094569  1
  O  O176  1  0.62570276  0.11538794  0.61702428  1
  O  O177  1  0.62144543  0.61949117  0.11668061  1
  O  O178  1  0.62099148  0.62261038  0.61810018  1
  O  O179  1  0.37806763  0.37795446  0.38180690  1
  O  O180  1  0.38200572  0.37879761  0.87836395  1
  O  O181  1  0.37395460  0.88542210  0.38155362  1
  O  O182  1  0.38737182  0.87548390  0.87078765  1
  O  O183  1  0.86876249  0.38409802  0.38654795  1
  O  O184  1  0.82397604  0.39453899  0.87685203  1
  O  O185  1  0.87357735  0.87799110  0.38607838  1
  O  O186  1  0.88491990  0.87031009  0.88930582  1
  O  O187  1  0.25874304  0.01265027  0.37823105  1
  O  O188  1  0.24636161  0.01171083  0.88350313  1
  O  O189  1  0.25335233  0.51029777  0.36938337  1
  O  O190  1  0.25996068  0.50420485  0.87003957  1
  O  O191  1  0.75165159  0.00618436  0.36362608  1
  O  O192  1  0.75007228  0.01138508  0.88009823  1
  O  O193  1  0.76074879  0.50641576  0.37084660  1
  O  O194  1  0.73477460  0.52280422  0.86139387  1
  O  O195  1  0.24512622  0.50144546  0.13177368  1
  O  O196  1  0.23805870  0.49693143  0.63334148  1
  O  O197  1  0.25468386  0.98893791  0.11958810  1
  O  O198  1  0.23809732  0.98914215  0.62139428  1
  O  O199  1  0.74480440  0.49335646  0.12763290  1
  O  O200  1  0.74538475  0.49360280  0.62646922  1
  O  O201  1  0.74681938  0.99530426  0.13620624  1
  O  O202  1  0.73917478  0.98812660  0.62414554  1
  O  O203  1  0.01181288  0.37930481  0.25016967  1
  O  O204  1  0.00586302  0.38592234  0.75393828  1
  O  O205  1  0.00711465  0.87467937  0.25639720  1
  O  O206  1  -0.00137660  0.87926772  0.76869783  1
  O  O207  1  0.50358841  0.36626437  0.25472683  1
  O  O208  1  0.50316398  0.36820647  0.75678861  1
  O  O209  1  0.50590688  0.86539136  0.25212051  1
  O  O210  1  0.50804484  0.86986679  0.76220008  1
  O  O211  1  0.49584353  0.13735049  0.24762125  1
  O  O212  1  0.49212481  0.13075079  0.74936785  1
  O  O213  1  0.50372897  0.63707995  0.23928103  1
  O  O214  1  0.49379938  0.62402280  0.74154293  1
  O  O215  1  0.98727734  0.12549327  0.25497272  1
  O  O216  1  0.97186319  0.07518533  0.73670593  1
  O  O217  1  0.99642965  0.61813052  0.23027366  1
  O  O218  1  0.98849491  0.62511087  0.75598877  1
  O  O219  1  0.37281977  0.25850308  0.00318095  1
  O  O220  1  0.38068540  0.25796069  0.51045855  1
  O  O221  1  0.36988947  0.74685450  0.01260057  1
  O  O222  1  0.37146286  0.76917161  0.49313600  1
  O  O223  1  0.86235923  0.24640206  0.00963742  1
  O  O224  1  0.87098168  0.25808711  0.49915301  1
  O  O225  1  0.86308252  0.75574104  0.00898042  1
  O  O226  1  0.87879852  0.76003266  0.50944874  1
  O  O227  1  0.12431711  0.24297933  0.49586776  1
  O  O228  1  0.12679030  0.24758413  0.98978932  1
  O  O229  1  0.12803374  0.74208833  0.49464457  1
  O  O230  1  0.13744721  0.74789846  1.00131252  1
  O  O231  1  0.63181854  0.24452835  0.49405024  1
  O  O232  1  0.63429507  0.24011229  0.99704328  1
  O  O233  1  0.62051898  0.74601761  0.48754124  1
  O  O234  1  0.63904847  0.74151971  1.00715103  1
  O  O235  1  0.49288497  0.25102381  0.13111513  1
  O  O236  1  0.48996119  0.24786060  0.63592729  1
  O  O237  1  0.49481514  0.74616039  0.13019894  1
  O  O238  1  0.50194949  0.73686930  0.62533769  1
  O  O239  1  0.98721361  0.25686932  0.12711239  1
  O  O240  1  0.98596451  0.25282393  0.62111561  1
  O  O241  1  0.99133944  0.74193242  0.11700498  1
  O  O242  1  0.98799001  0.75982138  0.62963775  1
  O  O243  1  0.01867728  0.24628207  0.37344586  1
  O  O244  1  0.00990494  0.25062103  0.87798066  1
  O  O245  1  0.01526625  0.74637524  0.37868361  1
  O  O246  1  0.00071063  0.76295023  0.87977282  1
  O  O247  1  0.50277350  0.25466776  0.36719030  1
  O  O248  1  0.50122260  0.25607917  0.86192716  1
  O  O249  1  0.50870943  0.75134772  0.36597302  1
  O  O250  1  0.49840954  0.76200354  0.87645870  1
  O  O251  1  0.23834240  0.12308286  0.48980108  1
  O  O252  1  0.23929123  0.13244805  0.99131510  1
  O  O253  1  0.24285291  0.62515009  0.49320104  1
  O  O254  1  0.25909892  0.63309502  0.99138269  1
  O  O255  1  0.74143855  0.12789823  0.49208590  1
  O  O256  1  0.74255297  0.12969461  0.99512816  1
  O  O257  1  0.74388683  0.61975518  0.48646270  1
  O  O258  1  0.74438877  0.63210231  0.99136739  1
  O  O259  1  0.26075255  0.36910295  -0.00144308  1
  O  O260  1  0.26289918  0.38119547  0.50254237  1
  O  O261  1  0.25074914  0.86402737  0.01359744  1
  O  O262  1  0.26003378  0.87310942  0.51200792  1
  O  O263  1  0.73672874  0.36191329  0.01545654  1
  O  O264  1  0.75613988  0.37177943  0.50661188  1
  O  O265  1  0.75399816  0.86971379  0.00318576  1
  O  O266  1  0.76559065  0.88121643  0.50933443  1
  O  O267  1  0.13226435  0.49641744  0.24458505  1
  O  O268  1  0.12956374  0.49491985  0.74552851  1
  O  O269  1  0.13047454  1.00101267  0.24758535  1
  O  O270  1  0.12461310  0.99706406  0.73756271  1
  O  O271  1  0.63151667  0.49542751  0.24143639  1
  O  O272  1  0.62934433  0.49385276  0.73983778  1
  O  O273  1  0.63064094  0.99540547  0.24961462  1
  O  O274  1  0.62175393  0.98315193  0.74270561  1
  O  O275  1  0.37566765  0.00004880  0.26555586  1
  O  O276  1  0.37941543  0.01116190  0.75083447  1
  O  O277  1  0.36834745  0.50105899  0.25606649  1
  O  O278  1  0.36785199  0.50330603  0.75604372  1
  O  O279  1  0.86653378  0.00835389  0.24993680  1
  O  O280  1  0.86699511  0.00360628  0.76453401  1
  O  O281  1  0.86926116  0.50031852  0.25828351  1
  O  O282  1  0.86807223  0.50930220  0.74639017  1
  O  O283  1  0.13260798  0.36810615  0.36776985  1
  O  O284  1  0.12843482  0.36086616  0.86719954  1
  O  O285  1  0.13272000  0.85774082  0.37838759  1
  O  O286  1  0.11489372  0.87278508  0.87931092  1
  O  O287  1  0.61982948  0.37024883  0.36944028  1
  O  O288  1  0.62060225  0.37258035  0.86593367  1
  O  O289  1  0.62515745  0.86865403  0.37151460  1
  O  O290  1  0.61891255  0.87556987  0.86472263  1
  O  O291  1  0.37595782  0.13777062  0.12441173  1
  O  O292  1  0.37371035  0.12876323  0.62887539  1
  O  O293  1  0.38669483  0.63001204  0.12711748  1
  O  O294  1  0.38398071  0.61497324  0.63317737  1
  O  O295  1  0.86649039  0.13729163  0.13620251  1
  O  O296  1  0.86980373  0.14041244  0.61577634  1
  O  O297  1  0.87973685  0.63500680  0.12697051  1
  O  O298  1  0.86940653  0.63831274  0.63356052  1
  O  O299  1  0.25970590  0.25509560  0.11704507  1
  O  O300  1  0.26039412  0.25235348  0.63178232  1
  O  O301  1  0.25837490  0.74925058  0.11945874  1
  O  O302  1  0.24886561  0.76337311  0.62412901  1
  O  O303  1  0.75609820  0.25676795  0.12055743  1
  O  O304  1  0.75461311  0.25745807  0.61643101  1
  O  O305  1  0.75619777  0.75508406  0.11901678  1
  O  O306  1  0.76333506  0.76790880  0.62773836  1
  O  O307  1  0.23977082  0.23712733  0.37510416  1
  O  O308  1  0.24077745  0.23997925  0.87893347  1
  O  O309  1  0.24528492  0.73780497  0.37531525  1
  O  O310  1  0.25223533  0.74107355  0.88561278  1
  O  O311  1  0.74395953  0.24602311  0.37863373  1
  O  O312  1  0.74824970  0.23826977  0.88392348  1
  O  O313  1  0.74054364  0.74072380  0.36969815  1
  O  O314  1  0.75413272  0.74211629  0.88208446  1
  O  O315  1  0.00741581  0.11748348  -0.00331789  1
  O  O316  1  0.01625456  0.11574528  0.49785928  1
  O  O317  1  -0.00543173  0.61420929  0.01353017  1
  O  O318  1  0.00888063  0.61286675  0.49894276  1
  O  O319  1  0.50647792  0.11755880  -0.00328489  1
  O  O320  1  0.51435211  0.13295544  0.50172480  1
  O  O321  1  0.50909748  0.63093691  0.01037725  1
  O  O322  1  0.50349584  0.62038082  0.50520417  1
  O  O323  1  0.49137952  0.37948668  0.49408588  1
  O  O324  1  0.49631437  0.36812118  0.98434788  1
  O  O325  1  0.48611232  0.87298855  0.50111706  1
  O  O326  1  0.50749909  0.88049655  0.98587878  1
  O  O327  1  0.99248970  0.38864714  0.50113124  1
  O  O328  1  0.99927905  0.39087659  1.00594393  1
  O  O329  1  0.99093942  0.88047874  0.49380143  1
  O  O330  1  0.99177157  0.88016983  0.99802008  1
  O  O331  1  0.49540227  0.49532680  0.37750099  1
  O  O332  1  0.48948458  0.49079389  0.86795299  1
  O  O333  1  0.48486664  1.00140202  0.37646604  1
  O  O334  1  0.49718678  0.98686520  0.88042656  1
  O  O335  1  0.98836703  0.50657469  0.38000002  1
  O  O336  1  0.99909566  0.50318853  0.89353472  1
  O  O337  1  0.99887976  0.99748572  0.38976076  1
  O  O338  1  1.00622985  0.98497480  0.89459418  1
  O  O339  1  0.00122616  -0.00173498  0.11451333  1
  O  O340  1  0.02137666  -0.01667827  0.61018938  1
  O  O341  1  0.00744985  0.50546676  0.11484035  1
  O  O342  1  0.01104356  0.49953689  0.61770903  1
  O  O343  1  0.49880148  0.00024101  0.11559774  1
  O  O344  1  0.51463200  -0.00102524  0.62613013  1
  O  O345  1  0.51046218  0.51090062  0.13000571  1
  O  O346  1  0.50631076  0.50677896  0.61865338  1
  O  O347  1  0.24546452  0.38820443  0.25015399  1
  O  O348  1  0.24571560  0.38659665  0.75109901  1
  O  O349  1  0.24659055  0.86740385  0.23282253  1
  O  O350  1  0.25613320  0.87480415  0.73721670  1
  O  O351  1  0.74289101  0.37942703  0.24118253  1
  O  O352  1  0.74251623  0.37783871  0.73255301  1
  O  O353  1  0.74571162  0.88416881  0.24682666  1
  O  O354  1  0.73974070  0.87357701  0.74743101  1
  O  O355  1  0.25299300  0.12988490  0.26412097  1
  O  O356  1  0.25637629  0.12768675  0.75869502  1
  O  O357  1  0.25161741  0.61418167  0.25751686  1
  O  O358  1  0.25698980  0.61344024  0.75491567  1
  O  O359  1  0.75341640  0.11946088  0.25525438  1
  O  O360  1  0.74594907  0.12607132  0.76363128  1
  O  O361  1  0.75119187  0.61819170  0.26097020  1
  O  O362  1  0.75740634  0.62610141  0.75336862  1
  O  O363  1  0.36482179  0.11656108  0.37630619  1
  O  O364  1  0.36241555  0.12391315  0.86599431  1
  O  O365  1  0.36800258  0.61979922  0.37461719  1
  O  O366  1  0.37144219  0.61491786  0.86814057  1
  O  O367  1  0.86697773  0.12586485  0.36814385  1
  O  O368  1  0.86493157  0.12591603  0.87754934  1
  O  O369  1  0.86903420  0.62057208  0.37467168  1
  O  O370  1  0.86636536  0.62143971  0.86680032  1
  O  O371  1  0.12927140  0.38467816  0.13464173  1
  O  O372  1  0.12451333  0.38157704  0.63466040  1
  O  O373  1  0.14016759  0.87639492  0.12535229  1
  O  O374  1  0.13929612  0.88096898  0.62727097  1
  O  O375  1  0.62772641  0.38267076  0.12938221  1
  O  O376  1  0.63049838  0.37919148  0.62327458  1
  O  O377  1  0.63243304  0.87504062  0.13326647  1
  O  O378  1  0.63310996  0.87894801  0.63149607  1
  O  O379  1  0.12427990  0.26273254  0.25636630  1
  O  O380  1  0.12234226  0.25760596  0.76083364  1
  O  O381  1  0.12825437  0.74534632  0.26622130  1
  O  O382  1  0.12267201  0.75595424  0.75806264  1
  O  O383  1  0.61686694  0.25451350  0.25365903  1
  O  O384  1  0.61587942  0.25482548  0.74586843  1
  O  O385  1  0.61986061  0.75510756  0.25827410  1
  O  O386  1  0.62317823  0.76631520  0.74461477  1
  O  O387  1  0.38089554  0.25315316  0.24037162  1
  O  O388  1  0.38010770  0.24143170  0.74302071  1
  O  O389  1  0.38460527  0.74737098  0.24375348  1
  O  O390  1  0.37790891  0.73344500  0.75280036  1
  O  O391  1  0.87798313  0.24370461  0.24414909  1
  O  O392  1  0.87328018  0.25164894  0.73451758  1
  O  O393  1  0.86887188  0.75071685  0.23677455  1
  O  O394  1  0.87952375  0.74435970  0.74407868  1
  O  O395  1  0.38044785  0.49297393  0.49424845  1
  O  O396  1  0.37429381  0.48700105  0.99166609  1
  O  O397  1  0.37124775  0.98739466  0.48881030  1
  O  O398  1  0.38737236  1.00575729  0.99407352  1
  O  O399  1  0.88235657  0.49581215  0.49535902  1
  O  O400  1  0.88336797  0.49833707  1.00138402  1
  O  O401  1  0.88570850  0.99496874  0.50290466  1
  O  O402  1  0.87981861  0.99003122  1.00757707  1
  O  O403  1  0.11772170  0.01230196  0.01033001  1
  O  O404  1  0.12275749  0.00678810  0.50578725  1
  O  O405  1  0.12425636  0.49517981  0.01027851  1
  O  O406  1  0.11929492  0.50532536  0.50686848  1
  O  O407  1  0.61397444  0.00578192  0.00209674  1
  O  O408  1  0.62893324  0.00743975  0.50735587  1
  O  O409  1  0.63235423  0.50899892  0.00916311  1
  O  O410  1  0.61852697  0.50626635  0.50189430  1
  O  O411  1  0.37686193  0.36877050  0.11468639  1
  O  O412  1  0.37343386  0.36674505  0.61779506  1
  O  O413  1  0.36413878  0.86563720  0.12885838  1
  O  O414  1  0.36711331  0.88256663  0.61630371  1
  O  O415  1  0.86362767  0.36736340  0.13281783  1
  O  O416  1  0.86710231  0.36960787  0.61252249  1
  O  O417  1  0.86906411  0.86882818  0.11715312  1
  O  O418  1  0.87177915  0.87610402  0.62196964  1
  O  O419  1  0.13446155  0.12974924  0.38123415  1
  O  O420  1  0.12446894  0.13411795  0.87660822  1
  O  O421  1  0.13129791  0.63147330  0.38404120  1
  O  O422  1  0.14132421  0.62302042  0.87248879  1
  O  O423  1  0.63016115  0.12959847  0.38061024  1
  O  O424  1  0.62747829  0.12334858  0.88457648  1
  O  O425  1  0.63131723  0.63147329  0.37880992  1
  O  O426  1  0.62453707  0.62753453  0.88577709  1
