# generated using pymatgen
data_V85Zn86O256
_symmetry_space_group_name_H-M   'P 1'
_cell_length_a   16.93776089
_cell_length_b   16.93729007
_cell_length_c   16.93319659
_cell_angle_alpha   89.98995884
_cell_angle_beta   89.99697699
_cell_angle_gamma   90.04682808
_symmetry_Int_Tables_number   1
_chemical_formula_structural   V85Zn86O256
_chemical_formula_sum   'V85 Zn86 O256'
_cell_volume   4857.78982851
_cell_formula_units_Z   1
loop_
 _symmetry_equiv_pos_site_id
 _symmetry_equiv_pos_as_xyz
  1  'x, y, z'
loop_
 _atom_site_type_symbol
 _atom_site_label
 _atom_site_symmetry_multiplicity
 _atom_site_fract_x
 _atom_site_fract_y
 _atom_site_fract_z
 _atom_site_occupancy
  V  V0  1  0.74858087  0.50519335  0.75656991  1
  V  V1  1  0.00138404  0.12732878  0.12765103  1
  V  V2  1  0.74992612  0.12610690  0.37491898  1
  V  V3  1  0.12442519  0.00088426  0.12371399  1
  V  V4  1  -0.00134538  0.88090181  0.88440333  1
  V  V5  1  0.87964791  0.87063999  0.49095789  1
  V  V6  1  0.37459401  0.26277036  0.12374738  1
  V  V7  1  0.62646949  0.26314389  0.36929484  1
  V  V8  1  0.49024279  0.50175548  0.49871218  1
  V  V9  1  0.23220934  0.38102873  0.12439817  1
  V  V10  1  0.36744329  0.75052614  0.62137645  1
  V  V11  1  0.74733529  0.87139894  0.12808936  1
  V  V12  1  0.26005127  0.12570653  0.37233007  1
  V  V13  1  0.13011206  0.26314660  0.37314735  1
  V  V14  1  0.62444167  0.49847286  0.62508835  1
  V  V15  1  0.74873657  0.74249702  -0.00444115  1
  V  V16  1  -0.00200555  0.12992909  0.62480880  1
  V  V17  1  0.62745401  0.37127394  0.75455837  1
  V  V18  1  0.87638374  0.49516245  0.37598356  1
  V  V19  1  0.00252894  0.49965785  0.49856501  1
  V  V20  1  -0.00237923  0.74945929  0.75140628  1
  V  V21  1  0.00257784  0.61176221  0.12101921  1
  V  V22  1  0.49994642  0.74320818  0.26260892  1
  V  V23  1  0.49751537  0.62319762  0.12735232  1
  V  V24  1  0.49672484  -0.00105215  0.00100878  1
  V  V25  1  0.66522118  0.89561360  0.78063830  1
  V  V26  1  0.49726288  0.12140448  0.62069191  1
  V  V27  1  0.49694105  0.89144355  0.37990013  1
  V  V28  1  0.62622585  0.74354732  0.87181687  1
  V  V29  1  0.87152012  0.75001426  0.61921910  1
  V  V30  1  0.75333894  0.24838017  0.00141554  1
  V  V31  1  0.24668603  0.87747475  0.62443966  1
  V  V32  1  0.87469845  0.50407923  0.88079419  1
  V  V33  1  0.62236461  0.12126296  0.49637173  1
  V  V34  1  0.87485244  0.74855611  0.12302104  1
  V  V35  1  0.37619480  0.62693782  0.74974188  1
  V  V36  1  0.13103719  0.49992469  0.62335556  1
  V  V37  1  -0.00483258  0.24850378  0.75318085  1
  V  V38  1  0.36582828  -0.00153817  0.87325710  1
  V  V39  1  0.49289523  0.87496430  0.86910235  1
  V  V40  1  0.12535464  0.74737303  0.88019745  1
  V  V41  1  0.86666049  0.10632907  0.76136288  1
  V  V42  1  -0.00011647  0.75308645  0.25299428  1
  V  V43  1  0.50233998  0.24453142  0.74947223  1
  V  V44  1  0.12087743  0.60853987  0.00164532  1
  V  V45  1  0.74942096  0.87599626  0.61131179  1
  V  V46  1  0.00544783  0.26347596  0.25433187  1
  V  V47  1  0.62446813  0.86734558  0.25806313  1
  V  V48  1  0.62826318  0.12165849  -0.00008055  1
  V  V49  1  0.74903894  -0.00071607  0.25074186  1
  V  V50  1  0.25333325  0.63061438  0.36863093  1
  V  V51  1  0.49825539  0.49261933  -0.00030728  1
  V  V52  1  0.37354466  0.12182653  0.74982708  1
  V  V53  1  0.87689236  0.12586380  0.25082657  1
  V  V54  1  0.24763875  0.12720187  0.87375352  1
  V  V55  1  0.86591616  0.62904587  0.75403073  1
  V  V56  1  0.88471875  0.37241834  0.49987681  1
  V  V57  1  0.12326531  0.37523797  0.74647015  1
  V  V58  1  0.49873315  0.75847178  0.75229738  1
  V  V59  1  0.25068491  0.87296006  0.12595629  1
  V  V60  1  0.62298602  0.49472728  0.13125729  1
  V  V61  1  0.13137843  0.13033248  0.49571436  1
  V  V62  1  0.00194894  -0.00217686  0.49424687  1
  V  V63  1  0.62975507  -0.00237307  0.62013340  1
  V  V64  1  0.26326857  0.00508085  0.25228618  1
  V  V65  1  0.87360141  0.62156932  0.24923348  1
  V  V66  1  0.25582124  0.25579636  -0.00587388  1
  V  V67  1  0.49091770  0.12488544  0.12971305  1
  V  V68  1  0.12739641  0.87887119  0.75308231  1
  V  V69  1  0.63255343  0.24150717  0.87538731  1
  V  V70  1  0.25125082  0.62166340  0.87552492  1
  V  V71  1  0.74770308  0.25275994  0.49949043  1
  V  V72  1  0.12070259  0.87758622  0.25772369  1
  V  V73  1  0.37636682  0.74491818  0.12944282  1
  V  V74  1  0.87990240  -0.00000105  0.37417919  1
  V  V75  1  0.51355330  0.63880148  0.61973790  1
  V  V76  1  -0.00229085  0.37859835  0.88352511  1
  V  V77  1  0.74930441  0.63690692  0.38218771  1
  V  V78  1  0.24315502  0.49970136  0.24696836  1
  V  V79  1  0.37599068  0.48900353  0.87549279  1
  V  V80  1  0.74716545  0.37285320  0.13385396  1
  V  V81  1  0.75096947  0.37530530  0.62484643  1
  V  V82  1  0.12700319  0.00336420  0.62856832  1
  V  V83  1  0.49845641  0.25379397  0.24905922  1
  V  V84  1  0.48868131  0.37634218  0.37471259  1
  Zn  Zn85  1  0.37416121  0.87164804  0.00159901  1
  Zn  Zn86  1  0.12564522  0.62807884  0.49840137  1
  Zn  Zn87  1  0.74403925  0.49516384  0.25675524  1
  Zn  Zn88  1  0.12498383  0.25121606  0.87607627  1
  Zn  Zn89  1  0.62647981  0.63228177  0.48935844  1
  Zn  Zn90  1  0.62581485  0.62094594  -0.00430838  1
  Zn  Zn91  1  -0.01091983  0.00979645  -0.00196232  1
  Zn  Zn92  1  0.33075118  0.31468217  0.56684584  1
  Zn  Zn93  1  0.25106368  0.74553104  0.00424355  1
  Zn  Zn94  1  0.37543243  0.50583634  0.36510806  1
  Zn  Zn95  1  0.12550649  0.12710647  -0.00055242  1
  Zn  Zn96  1  0.24388701  0.75287969  0.49656123  1
  Zn  Zn97  1  0.62102190  -0.00053955  0.12902420  1
  Zn  Zn98  1  0.36915764  0.89685446  0.48673971  1
  Zn  Zn99  1  -0.00048954  0.62453997  0.62422518  1
  Zn  Zn100  1  0.49763472  0.36878754  0.87911784  1
  Zn  Zn101  1  0.87143374  0.24584941  0.62686750  1
  Zn  Zn102  1  0.87641809  0.25238111  0.12641732  1
  Zn  Zn103  1  0.25284452  0.49491943  0.74408672  1
  Zn  Zn104  1  0.86740325  0.88083022  -0.00387646  1
  Zn  Zn105  1  0.87434004  0.38168863  0.00341536  1
  Zn  Zn106  1  0.12043607  0.75137183  0.37721165  1
  Zn  Zn107  1  0.18957272  0.19011110  0.18835725  1
  Zn  Zn108  1  0.18977621  0.18970229  0.69084984  1
  Zn  Zn109  1  0.18433322  0.68378134  0.18955238  1
  Zn  Zn110  1  0.18392337  0.68467423  0.68868843  1
  Zn  Zn111  1  0.68297808  0.18634379  0.18649094  1
  Zn  Zn112  1  0.69165201  0.18289398  0.68622009  1
  Zn  Zn113  1  0.68435992  0.68346650  0.18919415  1
  Zn  Zn114  1  0.68006911  0.69970767  0.67384801  1
  Zn  Zn115  1  0.31101218  0.31335431  0.30600799  1
  Zn  Zn116  1  0.32751886  0.32586633  0.76093432  1
  Zn  Zn117  1  0.31561566  0.81382067  0.30985720  1
  Zn  Zn118  1  0.30826869  0.81167361  0.81122763  1
  Zn  Zn119  1  0.81677558  0.31202171  0.31319101  1
  Zn  Zn120  1  0.81398569  0.31076326  0.81460529  1
  Zn  Zn121  1  0.81672191  0.81147191  0.31220121  1
  Zn  Zn122  1  0.81234871  0.82235202  0.81448086  1
  Zn  Zn123  1  0.19850792  0.44104900  0.43949481  1
  Zn  Zn124  1  0.19011855  0.43247827  0.93412082  1
  Zn  Zn125  1  0.18865703  0.94135480  0.43689721  1
  Zn  Zn126  1  0.18603507  0.93800534  0.94198918  1
  Zn  Zn127  1  0.68775202  0.44246628  0.44092221  1
  Zn  Zn128  1  0.68701498  0.43430534  0.94086371  1
  Zn  Zn129  1  0.68733410  0.93608687  0.43526902  1
  Zn  Zn130  1  0.68457387  0.93297070  0.94799177  1
  Zn  Zn131  1  0.31293531  0.06462031  0.06117455  1
  Zn  Zn132  1  0.31131396  0.06935536  0.56344507  1
  Zn  Zn133  1  0.31415630  0.55792622  0.06130338  1
  Zn  Zn134  1  0.31119219  0.56558484  0.55827279  1
  Zn  Zn135  1  0.81334374  0.06056145  0.06380451  1
  Zn  Zn136  1  0.81317739  0.06245942  0.56365355  1
  Zn  Zn137  1  0.80837732  0.56207289  0.06534592  1
  Zn  Zn138  1  0.81257853  0.56344447  0.56357833  1
  Zn  Zn139  1  0.43351502  0.43773812  0.19191551  1
  Zn  Zn140  1  0.44399339  0.44157271  0.68529621  1
  Zn  Zn141  1  0.43911406  0.93225792  0.18904598  1
  Zn  Zn142  1  0.42118876  0.95604860  0.65889143  1
  Zn  Zn143  1  0.93402549  0.43672029  0.18655759  1
  Zn  Zn144  1  0.93981529  0.43758013  0.68640167  1
  Zn  Zn145  1  0.93678303  0.93791741  0.18376901  1
  Zn  Zn146  1  0.94059283  0.93595832  0.68339223  1
  Zn  Zn147  1  0.06760238  0.06550056  0.31140189  1
  Zn  Zn148  1  0.06070591  0.06412587  0.81169411  1
  Zn  Zn149  1  0.06459925  0.56087665  0.31273676  1
  Zn  Zn150  1  0.05914644  0.56163835  0.81162476  1
  Zn  Zn151  1  0.56275449  0.06552353  0.30898830  1
  Zn  Zn152  1  0.56236604  0.05834511  0.81352654  1
  Zn  Zn153  1  0.56417884  0.56320362  0.31241873  1
  Zn  Zn154  1  0.55928409  0.56333445  0.80858636  1
  Zn  Zn155  1  0.43604176  0.19020579  0.44055337  1
  Zn  Zn156  1  0.43759879  0.18684081  0.93770096  1
  Zn  Zn157  1  0.43099117  0.68877963  0.44020761  1
  Zn  Zn158  1  0.43716329  0.68354231  0.94256738  1
  Zn  Zn159  1  0.94256127  0.19015766  0.43707450  1
  Zn  Zn160  1  0.93568865  0.18528191  0.93587676  1
  Zn  Zn161  1  0.93875636  0.68309713  0.43504991  1
  Zn  Zn162  1  0.93699339  0.68745607  0.93859288  1
  Zn  Zn163  1  0.06341986  0.30827645  0.05913056  1
  Zn  Zn164  1  0.16789940  0.31278198  0.56198548  1
  Zn  Zn165  1  0.06459682  0.80618633  0.06692632  1
  Zn  Zn166  1  0.06048323  0.81195080  0.56177764  1
  Zn  Zn167  1  0.56423562  0.31244144  0.06234972  1
  Zn  Zn168  1  0.52860137  0.29763083  0.54731300  1
  Zn  Zn169  1  0.56218252  0.81077586  0.06146767  1
  Zn  Zn170  1  0.55954639  0.81253837  0.55998628  1
  O  O171  1  0.11914214  0.11813319  0.12660275  1
  O  O172  1  0.11848845  0.11860155  0.61898275  1
  O  O173  1  0.11534652  0.63004464  0.11351485  1
  O  O174  1  0.11860280  0.61645657  0.62348449  1
  O  O175  1  0.61081830  0.12350859  0.11759543  1
  O  O176  1  0.62439939  0.11781508  0.61602183  1
  O  O177  1  0.61341931  0.61760154  0.12231762  1
  O  O178  1  0.61925271  0.59924972  0.66060457  1
  O  O179  1  0.38624750  0.37538963  0.37183917  1
  O  O180  1  0.37750820  0.38758469  0.85849247  1
  O  O181  1  0.38972090  0.87628674  0.37370294  1
  O  O182  1  0.37407658  0.88062368  0.87828639  1
  O  O183  1  0.86904082  0.38403701  0.38571772  1
  O  O184  1  0.88007707  0.38474764  0.87617000  1
  O  O185  1  0.87493596  0.88060502  0.38409271  1
  O  O186  1  0.89657762  0.86814353  0.87748736  1
  O  O187  1  0.24777522  0.00710376  0.35997544  1
  O  O188  1  0.25972724  0.00524237  0.88086795  1
  O  O189  1  0.25228791  0.51024526  0.36533108  1
  O  O190  1  0.25876358  0.50603764  0.87112198  1
  O  O191  1  0.75765941  0.00612870  0.36948835  1
  O  O192  1  0.73982405  -0.06996885  0.84922114  1
  O  O193  1  0.76078668  0.50759214  0.37475725  1
  O  O194  1  0.75465613  0.49509309  0.86266313  1
  O  O195  1  0.25075194  0.48789399  0.12723428  1
  O  O196  1  0.23614235  0.50843164  0.62634825  1
  O  O197  1  0.24524686  0.99570577  0.13263764  1
  O  O198  1  0.23337427  0.99429005  0.62533880  1
  O  O199  1  0.74091552  0.49126726  0.12688870  1
  O  O200  1  0.74546616  0.49530129  0.63602769  1
  O  O201  1  0.74661988  0.98876098  0.13390666  1
  O  O202  1  0.74030451  0.99188139  0.62018142  1
  O  O203  1  -0.00343389  0.36160947  0.24837135  1
  O  O204  1  0.00274733  0.36717979  0.75786023  1
  O  O205  1  0.00877020  0.86679840  0.24156808  1
  O  O206  1  0.00719637  0.86620356  0.75856618  1
  O  O207  1  0.50064630  0.36412978  0.25755531  1
  O  O208  1  0.51604506  0.36409088  0.75265285  1
  O  O209  1  0.50691618  0.86826002  0.25993601  1
  O  O210  1  0.48978919  0.87549738  0.76456860  1
  O  O211  1  0.50315055  0.13733887  0.24080944  1
  O  O212  1  0.49677936  0.12724053  0.74650972  1
  O  O213  1  0.50424242  0.63295784  0.24209650  1
  O  O214  1  0.49244568  0.63749855  0.74442342  1
  O  O215  1  0.99735208  0.12975584  0.24103310  1
  O  O216  1  0.99327880  0.13062503  0.74406373  1
  O  O217  1  0.98990651  0.62905161  0.24341474  1
  O  O218  1  0.99185750  0.63847832  0.75092976  1
  O  O219  1  0.36443295  0.24701431  0.00556997  1
  O  O220  1  0.42039701  0.26880787  0.51578580  1
  O  O221  1  0.37305394  0.75030362  0.01375436  1
  O  O222  1  0.37092189  0.75737126  0.51492380  1
  O  O223  1  0.86049606  0.24599584  0.00100746  1
  O  O224  1  0.87039187  0.25753859  0.50001039  1
  O  O225  1  0.86662535  0.75403546  0.00545940  1
  O  O226  1  0.88958693  0.75987685  0.50636831  1
  O  O227  1  0.11609409  0.23990867  0.48271115  1
  O  O228  1  0.13973206  0.24702794  0.99780439  1
  O  O229  1  0.12399014  0.74872029  0.49500111  1
  O  O230  1  0.12771391  0.74364015  0.98905308  1
  O  O231  1  0.62627002  0.24069780  0.48968060  1
  O  O232  1  0.63183421  0.24162578  0.99458947  1
  O  O233  1  0.60808025  0.71073941  0.57059664  1
  O  O234  1  0.62986547  0.74757423  0.99011977  1
  O  O235  1  0.49447236  0.24662143  0.12910205  1
  O  O236  1  0.51936441  0.23399304  0.64425728  1
  O  O237  1  0.49521693  0.74188370  0.13037261  1
  O  O238  1  0.48186447  0.75909129  0.63677682  1
  O  O239  1  1.00143066  0.24465757  0.13645671  1
  O  O240  1  0.99761536  0.23500951  0.63287077  1
  O  O241  1  0.99189811  0.74263227  0.13295122  1
  O  O242  1  0.98995373  0.75269826  0.63589000  1
  O  O243  1  0.01264625  0.24507704  0.36173902  1
  O  O244  1  0.00034031  0.25684616  0.86860609  1
  O  O245  1  -0.00158874  0.74428333  0.35709883  1
  O  O246  1  0.00815810  0.75656685  0.87060265  1
  O  O247  1  0.50748785  0.25730383  0.36659314  1
  O  O248  1  0.51370373  0.24762000  0.86899057  1
  O  O249  1  0.49566894  0.74978504  0.36462962  1
  O  O250  1  0.50191727  0.75617676  0.87201034  1
  O  O251  1  0.23844380  0.11722863  0.49006639  1
  O  O252  1  0.25027977  0.13143217  0.98929568  1
  O  O253  1  0.24732848  0.62882831  0.48548022  1
  O  O254  1  0.24404857  0.62391937  0.98965146  1
  O  O255  1  0.74496536  0.13336522  0.49483494  1
  O  O256  1  0.73563288  0.13087948  1.01155487  1
  O  O257  1  0.75202211  0.62548288  0.48668194  1
  O  O258  1  0.74568933  0.63838206  1.00462757  1
  O  O259  1  0.24887648  0.36870028  0.01113251  1
  O  O260  1  0.24893896  0.36986285  0.50564888  1
  O  O261  1  0.24891025  0.87198433  0.01537067  1
  O  O262  1  0.25157977  0.87544571  0.50929153  1
  O  O263  1  0.75077092  0.36421262  0.00974210  1
  O  O264  1  0.75567045  0.37147314  0.50670752  1
  O  O265  1  0.74747608  0.86203634  0.01410071  1
  O  O266  1  0.76223463  0.87632608  0.50255553  1
  O  O267  1  0.14081382  0.50164613  0.25056631  1
  O  O268  1  0.12132196  0.49385815  0.74083423  1
  O  O269  1  0.13026297  0.99419362  0.23999104  1
  O  O270  1  0.11500336  0.99041654  0.74064222  1
  O  O271  1  0.62608857  0.50241739  0.23589618  1
  O  O272  1  0.63107761  0.48633070  0.75449620  1
  O  O273  1  0.63111099  0.98903879  0.24954858  1
  O  O274  1  0.62576234  0.98519153  0.74467327  1
  O  O275  1  0.36132109  -0.00144326  0.24391929  1
  O  O276  1  0.37852705  0.01274093  0.75824595  1
  O  O277  1  0.35661818  0.49647837  0.24947756  1
  O  O278  1  0.37825453  0.51611008  0.75589229  1
  O  O279  1  0.87043503  0.00514984  0.25471646  1
  O  O280  1  0.88047492  0.00726860  0.74733399  1
  O  O281  1  0.87259838  0.50629281  0.25808293  1
  O  O282  1  0.86679443  0.50907181  0.75507879  1
  O  O283  1  0.13006674  0.36104398  0.37690946  1
  O  O284  1  0.11222422  0.37564561  0.86847307  1
  O  O285  1  0.12864106  0.87613373  0.36088190  1
  O  O286  1  0.12025119  0.86739577  0.87142418  1
  O  O287  1  0.62452120  0.36606364  0.37648311  1
  O  O288  1  0.62505694  0.36346987  0.86920988  1
  O  O289  1  0.61479226  0.87557172  0.36780505  1
  O  O290  1  0.60830087  0.86665238  0.87712200  1
  O  O291  1  0.38692424  0.13538929  0.11718283  1
  O  O292  1  0.38731863  0.12568427  0.63629601  1
  O  O293  1  0.38787719  0.62955320  0.12046047  1
  O  O294  1  0.38120048  0.63404520  0.63097147  1
  O  O295  1  0.88303679  0.12866883  0.13442554  1
  O  O296  1  0.88414208  0.12415812  0.63091072  1
  O  O297  1  0.87847205  0.62882888  0.13169547  1
  O  O298  1  0.87722495  0.63303561  0.63398870  1
  O  O299  1  0.25576134  0.25957804  0.12025895  1
  O  O300  1  0.24436568  0.24515372  0.61364339  1
  O  O301  1  0.25762221  0.75591445  0.12896815  1
  O  O302  1  0.25060485  0.75654057  0.62496145  1
  O  O303  1  0.74864363  0.25588815  0.11957343  1
  O  O304  1  0.75011509  0.25744257  0.61742982  1
  O  O305  1  0.75363569  0.75344333  0.12159441  1
  O  O306  1  0.76613946  0.75483969  0.61748866  1
  O  O307  1  0.23665691  0.24181500  0.36118929  1
  O  O308  1  0.24991214  0.24246126  0.88229669  1
  O  O309  1  0.24824653  0.74257905  0.37069018  1
  O  O310  1  0.24212296  0.74083428  0.87750503  1
  O  O311  1  0.74349734  0.24622363  0.37858855  1
  O  O312  1  0.74028943  0.25197841  0.88436739  1
  O  O313  1  0.75659608  0.73591519  0.37408775  1
  O  O314  1  0.73962352  0.75816120  0.88350148  1
  O  O315  1  0.00263437  0.12960369  0.01422180  1
  O  O316  1  0.00731330  0.11857367  0.50685389  1
  O  O317  1  0.00834459  0.62973240  0.00836126  1
  O  O318  1  -0.00059250  0.61161567  0.50180010  1
  O  O319  1  0.50775283  0.11773203  0.00532017  1
  O  O320  1  0.51029437  0.12587429  0.50995737  1
  O  O321  1  0.50361881  0.61297986  0.00781151  1
  O  O322  1  0.50185938  0.61829408  0.50130613  1
  O  O323  1  0.51654934  0.39368310  0.48480571  1
  O  O324  1  0.50381461  0.38703434  0.99716172  1
  O  O325  1  0.50154553  0.87007763  0.48152067  1
  O  O326  1  0.49739514  0.88243088  0.99212565  1
  O  O327  1  0.98589888  0.38684380  0.50174198  1
  O  O328  1  0.99420147  0.36746889  0.98772431  1
  O  O329  1  0.99449058  0.88982119  0.50423797  1
  O  O330  1  1.00476929  0.87107953  0.98909547  1
  O  O331  1  0.49767916  0.49543877  0.37852242  1
  O  O332  1  0.49396134  0.49903241  0.88166829  1
  O  O333  1  0.50118086  0.99040310  0.37220943  1
  O  O334  1  0.48883755  0.99302970  0.88051933  1
  O  O335  1  0.98656632  0.50568961  0.38170041  1
  O  O336  1  0.98697641  0.49112009  0.86780503  1
  O  O337  1  0.99490270  1.00906477  0.38386459  1
  O  O338  1  1.01156211  0.98411941  0.88082202  1
  O  O339  1  0.00830471  0.00895996  0.12550449  1
  O  O340  1  0.00855467  0.00817051  0.61696523  1
  O  O341  1  -0.00609539  0.51240403  0.12604427  1
  O  O342  1  0.00631289  0.50231177  0.61637536  1
  O  O343  1  0.49800576  0.00656251  0.12085971  1
  O  O344  1  0.52061575  0.01260386  0.63516086  1
  O  O345  1  0.50343628  0.50316234  0.12029943  1
  O  O346  1  0.50733151  0.50774151  0.61632440  1
  O  O347  1  0.24961092  0.38070746  0.23233890  1
  O  O348  1  0.22643863  0.37816784  0.76172869  1
  O  O349  1  0.24471767  0.88499711  0.24199120  1
  O  O350  1  0.23218540  0.87136442  0.74746557  1
  O  O351  1  0.75391002  0.37397912  0.23819949  1
  O  O352  1  0.74367453  0.37926967  0.74561970  1
  O  O353  1  0.74223402  0.87574773  0.24833255  1
  O  O354  1  0.75221484  0.86198280  0.72149506  1
  O  O355  1  0.24683158  0.11216027  0.25448661  1
  O  O356  1  0.25899524  0.12930181  0.76396940  1
  O  O357  1  0.24844965  0.61810457  0.25840119  1
  O  O358  1  0.25595758  0.62323762  0.76073802  1
  O  O359  1  0.75519859  0.12062478  0.25434919  1
  O  O360  1  0.76786762  0.12412054  0.74608793  1
  O  O361  1  0.76123226  0.62342815  0.25596028  1
  O  O362  1  0.75760997  0.61936465  0.74402921  1
  O  O363  1  0.35995450  0.13154849  0.38260263  1
  O  O364  1  0.36963956  0.11551739  0.87181268  1
  O  O365  1  0.35896027  0.62608180  0.37611859  1
  O  O366  1  0.36793573  0.62113340  0.86904458  1
  O  O367  1  0.86983484  0.12166153  0.37017069  1
  O  O368  1  0.88038613  0.12026574  0.86083370  1
  O  O369  1  0.86670682  0.61888629  0.36758404  1
  O  O370  1  0.87817104  0.62023347  0.86343844  1
  O  O371  1  0.13401192  0.37428193  0.12261219  1
  O  O372  1  0.11507414  0.38619636  0.63549962  1
  O  O373  1  0.13221171  0.88058393  0.13196939  1
  O  O374  1  0.12933859  0.88023188  0.63273601  1
  O  O375  1  0.63317508  0.38280336  0.12114849  1
  O  O376  1  0.63054052  0.38567095  0.63464523  1
  O  O377  1  0.63352622  0.87378040  0.13352635  1
  O  O378  1  0.63513549  0.88417407  0.61179542  1
  O  O379  1  0.11411035  0.24703625  0.25906043  1
  O  O380  1  0.11064241  0.25581769  0.75150865  1
  O  O381  1  0.11613142  0.75994721  0.24786954  1
  O  O382  1  0.11646325  0.75392001  0.76051153  1
  O  O383  1  0.61681567  0.24535937  0.26060490  1
  O  O384  1  0.62683104  0.25097078  0.75906350  1
  O  O385  1  0.61542171  0.75960522  0.24559095  1
  O  O386  1  0.62379961  0.77255245  0.75832854  1
  O  O387  1  0.38480712  0.25168118  0.23808019  1
  O  O388  1  0.39245857  0.23213315  0.76580711  1
  O  O389  1  0.38609944  0.75427704  0.23741090  1
  O  O390  1  0.37487499  0.73970109  0.74736047  1
  O  O391  1  0.88877591  0.24310665  0.25255465  1
  O  O392  1  0.88527395  0.24650877  0.74875446  1
  O  O393  1  0.88002511  0.74210113  0.24263800  1
  O  O394  1  0.87913180  0.74645517  0.74528948  1
  O  O395  1  0.38740475  0.50214931  0.49822493  1
  O  O396  1  0.38440004  0.50337475  0.98708685  1
  O  O397  1  0.38515399  0.98670672  0.55072484  1
  O  O398  1  0.38019712  0.99748099  0.99207332  1
  O  O399  1  0.87909536  0.49434284  0.49517293  1
  O  O400  1  0.86538942  0.50341972  0.98440343  1
  O  O401  1  0.88342945  0.99509763  0.49453258  1
  O  O402  1  0.87734378  0.99268634  1.00497996  1
  O  O403  1  0.12301523  0.00275217  0.01460743  1
  O  O404  1  0.11789995  0.00700889  0.50488458  1
  O  O405  1  0.12545816  0.51003342  -0.00878315  1
  O  O406  1  0.11657707  0.50023248  0.50546133  1
  O  O407  1  0.61806092  0.00569190  0.00385367  1
  O  O408  1  0.63127818  0.01327659  0.50402285  1
  O  O409  1  0.61887074  0.50187344  0.00819845  1
  O  O410  1  0.62265351  0.51023869  0.51303791  1
  O  O411  1  0.37338449  0.36462850  0.12160329  1
  O  O412  1  0.36729765  0.36785327  0.66225281  1
  O  O413  1  0.36751081  0.86640455  0.12456394  1
  O  O414  1  0.35160462  0.86306631  0.64729135  1
  O  O415  1  0.86532720  0.37195107  0.12064705  1
  O  O416  1  0.86781774  0.37350080  0.61847044  1
  O  O417  1  0.86105473  0.86619260  0.12979053  1
  O  O418  1  0.87241099  0.87075834  0.61165201  1
  O  O419  1  0.13415977  0.12962602  0.38163499  1
  O  O420  1  0.13365876  0.12569456  0.87614052  1
  O  O421  1  0.13682012  0.62872879  0.37471314  1
  O  O422  1  0.13051261  0.62992082  0.87813123  1
  O  O423  1  0.63095140  0.13047584  0.38058260  1
  O  O424  1  0.62334726  0.12801354  0.88548090  1
  O  O425  1  0.64346281  0.62309858  0.37317666  1
  O  O426  1  0.61957114  0.63992564  0.87125666  1
