# generated using pymatgen
data_V85Zn86O256
_symmetry_space_group_name_H-M   'P 1'
_cell_length_a   16.93680255
_cell_length_b   16.94070615
_cell_length_c   16.93953287
_cell_angle_alpha   89.98550692
_cell_angle_beta   90.00213027
_cell_angle_gamma   89.98241705
_symmetry_Int_Tables_number   1
_chemical_formula_structural   V85Zn86O256
_chemical_formula_sum   'V85 Zn86 O256'
_cell_volume   4860.31401767
_cell_formula_units_Z   1
loop_
 _symmetry_equiv_pos_site_id
 _symmetry_equiv_pos_as_xyz
  1  'x, y, z'
loop_
 _atom_site_type_symbol
 _atom_site_label
 _atom_site_symmetry_multiplicity
 _atom_site_fract_x
 _atom_site_fract_y
 _atom_site_fract_z
 _atom_site_occupancy
  V  V0  1  0.73780973  0.74009678  0.48796707  1
  V  V1  1  0.74841805  0.37750032  0.12695097  1
  V  V2  1  0.87443027  0.73221244  0.62634802  1
  V  V3  1  0.62394465  0.12899193  0.49183993  1
  V  V4  1  0.49692785  0.37655372  0.88042312  1
  V  V5  1  0.75284860  -0.00644527  0.24463832  1
  V  V6  1  0.41924149  0.69945286  0.58183393  1
  V  V7  1  -0.00109234  0.74191740  0.74433552  1
  V  V8  1  0.87449549  0.25593798  0.61957241  1
  V  V9  1  0.87549825  0.00028665  0.37544029  1
  V  V10  1  0.86587403  0.62681257  0.26022788  1
  V  V11  1  0.50144854  0.74418194  0.75263647  1
  V  V12  1  0.87243624  0.87490458  0.00193473  1
  V  V13  1  -0.00354451  0.50536539  0.00375040  1
  V  V14  1  0.74810290  0.62878862  0.86567726  1
  V  V15  1  0.75107541  0.00083296  0.74924418  1
  V  V16  1  0.00088564  0.63174324  0.13752303  1
  V  V17  1  0.12311494  0.24932148  0.38460899  1
  V  V18  1  0.00731694  0.37753739  0.87251440  1
  V  V19  1  0.86706436  0.50356391  0.86270577  1
  V  V20  1  0.37609244  0.87802959  0.50203948  1
  V  V21  1  0.37576247  0.87214317  0.00032408  1
  V  V22  1  0.75058297  0.12686537  0.87302126  1
  V  V23  1  0.25515899  0.37676178  0.12425986  1
  V  V24  1  0.24913218  0.87336587  0.62310784  1
  V  V25  1  0.87472452  0.37854007  0.00063347  1
  V  V26  1  0.00433561  0.00680061  0.49691749  1
  V  V27  1  0.75533925  0.87410132  0.62232169  1
  V  V28  1  0.24046491  0.24549634  0.00633707  1
  V  V29  1  0.75178976  0.25136244  -0.00012821  1
  V  V30  1  0.63086330  -0.00809598  0.12229437  1
  V  V31  1  0.75075770  0.38281146  0.62694253  1
  V  V32  1  0.37647407  0.50154466  0.87791119  1
  V  V33  1  0.37485463  0.25172383  0.62642462  1
  V  V34  1  0.50209905  -0.00176487  -0.00083876  1
  V  V35  1  0.00767131  0.00653252  -0.00004686  1
  V  V36  1  0.25489192  0.62353080  0.36938671  1
  V  V37  1  0.24887792  -0.00198370  0.74954568  1
  V  V38  1  0.62959920  0.38010626  0.75226055  1
  V  V39  1  0.62665634  0.12417965  -0.00092772  1
  V  V40  1  0.24400130  0.12428732  0.38085334  1
  V  V41  1  -0.01330786  0.38485240  0.37828838  1
  V  V42  1  0.12118213  0.61799037  0.50447089  1
  V  V43  1  0.62450627  0.00356441  0.62404312  1
  V  V44  1  0.49813024  0.50183146  0.00839041  1
  V  V45  1  0.87705579  0.75424216  0.12946968  1
  V  V46  1  0.24425093  0.38052451  0.64221782  1
  V  V47  1  0.37584599  0.12595112  0.75207496  1
  V  V48  1  0.00826431  0.25553872  0.74795220  1
  V  V49  1  0.00084339  0.25089274  0.25066102  1
  V  V50  1  0.50356637  0.86861445  0.87550396  1
  V  V51  1  0.37640565  0.73708377  0.12766964  1
  V  V52  1  0.20059170  0.56596189  0.81826946  1
  V  V53  1  0.62516496  0.50582355  0.13443766  1
  V  V54  1  0.74830766  0.74976889  0.00234659  1
  V  V55  1  0.12754694  0.37909290  0.25278114  1
  V  V56  1  0.25065411  0.87525231  0.12647615  1
  V  V57  1  -0.01322350  0.50094681  0.50743033  1
  V  V58  1  0.87866031  0.12770385  0.74579371  1
  V  V59  1  0.74928590  0.25266999  0.49559931  1
  V  V60  1  0.37739657  0.25309479  0.12008333  1
  V  V61  1  0.62418224  0.87334213  0.25579527  1
  V  V62  1  0.37682647  0.62423466  0.75555159  1
  V  V63  1  0.61269744  0.50849902  0.62521237  1
  V  V64  1  0.24065985  0.12366579  0.88079239  1
  V  V65  1  0.87618930  0.12510147  0.24571268  1
  V  V66  1  0.50702550  0.24772857  0.25279628  1
  V  V67  1  0.37545408  -0.00074902  0.87524827  1
  V  V68  1  0.37507979  0.00093343  0.37291227  1
  V  V69  1  0.12078644  0.87060839  0.24770193  1
  V  V70  1  0.87712050  -0.00078015  0.87333869  1
  V  V71  1  0.24436781  0.74729120  0.50022538  1
  V  V72  1  0.50013434  0.12392557  0.12469104  1
  V  V73  1  0.62447402  0.25186959  0.87520329  1
  V  V74  1  0.00596640  0.86910857  0.87130403  1
  V  V75  1  0.62321734  0.62773717  0.00218191  1
  V  V76  1  0.37071113  0.37659819  0.50074782  1
  V  V77  1  0.12625220  0.63135059  0.00063486  1
  V  V78  1  0.12653323  0.00884253  0.62000206  1
  V  V79  1  0.37495984  0.49451998  0.36798199  1
  V  V80  1  0.50360044  0.74071643  0.24445451  1
  V  V81  1  0.62741012  0.87014467  0.75384563  1
  V  V82  1  0.00018573  0.86795766  0.37295107  1
  V  V83  1  0.50770373  0.36599437  0.38317673  1
  V  V84  1  0.24737365  0.74809732  -0.01265857  1
  Zn  Zn85  1  0.24853533  0.00107698  0.25034583  1
  Zn  Zn86  1  0.76901840  0.49009986  0.26422973  1
  Zn  Zn87  1  0.13044136  0.00845605  0.12367055  1
  Zn  Zn88  1  0.50039239  0.12666750  0.62544750  1
  Zn  Zn89  1  0.49949712  0.25158433  0.75284591  1
  Zn  Zn90  1  0.25457209  0.50655013  0.24577000  1
  Zn  Zn91  1  0.12642939  0.50287247  0.12751961  1
  Zn  Zn92  1  0.11945218  0.74479117  0.37059010  1
  Zn  Zn93  1  0.50190376  0.00133827  0.49836526  1
  Zn  Zn94  1  0.24410065  0.24832783  0.50507761  1
  Zn  Zn95  1  0.87585690  0.25183431  0.12468117  1
  Zn  Zn96  1  0.62870254  0.37315677  0.25853845  1
  Zn  Zn97  1  0.12501762  0.49924031  0.63240961  1
  Zn  Zn98  1  0.74556107  0.12790509  0.37096943  1
  Zn  Zn99  1  0.50383644  0.87364790  0.37657594  1
  Zn  Zn100  1  0.51534925  0.52807706  0.48747326  1
  Zn  Zn101  1  0.00919045  0.13281218  0.11855825  1
  Zn  Zn102  1  0.12509675  0.25130755  0.87601887  1
  Zn  Zn103  1  0.00688540  0.13200340  0.61776053  1
  Zn  Zn104  1  0.37413707  0.12515696  0.25101379  1
  Zn  Zn105  1  0.12480112  0.87045991  0.74955771  1
  Zn  Zn106  1  0.87473455  0.87298237  0.49961243  1
  Zn  Zn107  1  0.18643538  0.18504242  0.19384513  1
  Zn  Zn108  1  0.19095977  0.18898994  0.68988536  1
  Zn  Zn109  1  0.18900947  0.69202769  0.18590698  1
  Zn  Zn110  1  0.18350717  0.69124286  0.68151121  1
  Zn  Zn111  1  0.68834667  0.18491632  0.18504714  1
  Zn  Zn112  1  0.68737879  0.19171660  0.68576923  1
  Zn  Zn113  1  0.69030875  0.69008098  0.18458469  1
  Zn  Zn114  1  0.68691048  0.68915702  0.68243497  1
  Zn  Zn115  1  0.31319337  0.30739161  0.30984790  1
  Zn  Zn116  1  0.31371408  0.31230303  0.81933567  1
  Zn  Zn117  1  0.31523386  0.81079203  0.31285602  1
  Zn  Zn118  1  0.31709102  0.81053762  0.80749376  1
  Zn  Zn119  1  0.81175810  0.30981571  0.31293752  1
  Zn  Zn120  1  0.81604734  0.31499141  0.81029292  1
  Zn  Zn121  1  0.81291219  0.81309238  0.31096795  1
  Zn  Zn122  1  0.81623641  0.80868383  0.81276858  1
  Zn  Zn123  1  0.18723629  0.43680633  0.43948118  1
  Zn  Zn124  1  0.18432880  0.43420592  0.94928872  1
  Zn  Zn125  1  0.18566214  0.93701133  0.43574951  1
  Zn  Zn126  1  0.18706548  0.93278424  0.93621656  1
  Zn  Zn127  1  0.69174137  0.43475753  0.44501080  1
  Zn  Zn128  1  0.68610881  0.44232451  0.94039396  1
  Zn  Zn129  1  0.69140264  0.93755636  0.43760224  1
  Zn  Zn130  1  0.69058874  0.93516860  0.93545251  1
  Zn  Zn131  1  0.31387258  0.06242992  0.06299839  1
  Zn  Zn132  1  0.31163553  0.06433956  0.56042160  1
  Zn  Zn133  1  0.31033634  0.56150340  0.05847308  1
  Zn  Zn134  1  0.30876021  0.55378817  0.55689773  1
  Zn  Zn135  1  0.81687835  0.06258240  0.06267291  1
  Zn  Zn136  1  0.81256299  0.06510034  0.56058619  1
  Zn  Zn137  1  0.81141900  0.56618848  0.06655355  1
  Zn  Zn138  1  0.80253033  0.56213909  0.55945364  1
  Zn  Zn139  1  0.44166677  0.43405791  0.19130950  1
  Zn  Zn140  1  0.43860889  0.43890955  0.69089745  1
  Zn  Zn141  1  0.43736721  0.93579872  0.18689017  1
  Zn  Zn142  1  0.43807696  0.93596325  0.68663271  1
  Zn  Zn143  1  0.93880959  0.44142726  0.18827927  1
  Zn  Zn144  1  0.93682322  0.43764694  0.68608771  1
  Zn  Zn145  1  0.94073335  0.93598739  0.18526841  1
  Zn  Zn146  1  0.94150661  0.93818616  0.68555804  1
  Zn  Zn147  1  0.06546102  0.06078991  0.30789378  1
  Zn  Zn148  1  0.06241723  0.06053628  0.80801028  1
  Zn  Zn149  1  0.06374825  0.56271517  0.31741435  1
  Zn  Zn150  1  0.03948675  0.56689279  0.81259814  1
  Zn  Zn151  1  0.56076237  0.05871492  0.31175097  1
  Zn  Zn152  1  0.56240783  0.06083899  0.81186019  1
  Zn  Zn153  1  0.63149513  0.56023318  0.34106990  1
  Zn  Zn154  1  0.56584540  0.56194297  0.81374300  1
  Zn  Zn155  1  0.43474863  0.18608378  0.44141674  1
  Zn  Zn156  1  0.43374336  0.18896104  0.94035890  1
  Zn  Zn157  1  0.46921798  0.66038322  0.39341128  1
  Zn  Zn158  1  0.43775338  0.68495047  0.93846838  1
  Zn  Zn159  1  0.93603638  0.18778139  0.43501443  1
  Zn  Zn160  1  0.93670700  0.18993785  0.93416593  1
  Zn  Zn161  1  0.93450305  0.68687252  0.44542972  1
  Zn  Zn162  1  0.93525121  0.68813002  0.93552529  1
  Zn  Zn163  1  0.06413931  0.31586736  0.06514342  1
  Zn  Zn164  1  0.06153504  0.32167732  0.56247065  1
  Zn  Zn165  1  0.06192929  0.81400337  0.06087671  1
  Zn  Zn166  1  0.06111998  0.81588385  0.56062292  1
  Zn  Zn167  1  0.56398251  0.31582803  0.06298702  1
  Zn  Zn168  1  0.56333359  0.31173297  0.56603718  1
  Zn  Zn169  1  0.56438077  0.80979770  0.06570532  1
  Zn  Zn170  1  0.56632082  0.81724439  0.56321873  1
  O  O171  1  0.12132647  0.12181623  0.13001176  1
  O  O172  1  0.12706184  0.11366700  0.62914715  1
  O  O173  1  0.11796443  0.62658357  0.11792355  1
  O  O174  1  0.13270584  0.61886363  0.60941345  1
  O  O175  1  0.62020656  0.11504353  0.11704568  1
  O  O176  1  0.62427618  0.11749970  0.62100061  1
  O  O177  1  0.63102834  0.61732134  0.11470576  1
  O  O178  1  0.62877196  0.60690557  0.63012002  1
  O  O179  1  0.37331984  0.37445100  0.38493726  1
  O  O180  1  0.38325404  0.38928908  0.87110027  1
  O  O181  1  0.36994234  0.88301588  0.38807260  1
  O  O182  1  0.38382439  0.88010647  0.87889653  1
  O  O183  1  0.88846491  0.37594708  0.36959567  1
  O  O184  1  0.87809010  0.38741824  0.88113202  1
  O  O185  1  0.88221613  0.88670089  0.37236584  1
  O  O186  1  0.88335312  0.88116296  0.87955007  1
  O  O187  1  0.25573207  0.00673319  0.37540269  1
  O  O188  1  0.25464688  0.00446663  0.87145736  1
  O  O189  1  0.25720476  0.50570068  0.37509008  1
  O  O190  1  0.25412927  0.49794019  0.87729856  1
  O  O191  1  0.76019585  0.00282002  0.36578736  1
  O  O192  1  0.75702947  0.00666560  0.86838911  1
  O  O193  1  0.72501951  0.50360289  0.36593239  1
  O  O194  1  0.76039217  0.50959088  0.87957064  1
  O  O195  1  0.24857129  0.49206630  0.12654350  1
  O  O196  1  0.24909604  0.48457600  0.62694619  1
  O  O197  1  0.25145748  0.98700755  0.12376558  1
  O  O198  1  0.24454179  0.99561236  0.62843621  1
  O  O199  1  0.74303403  0.49332226  0.12929615  1
  O  O200  1  0.74239619  0.48649815  0.62313298  1
  O  O201  1  0.74268773  1.00581317  0.13140721  1
  O  O202  1  0.74214430  0.99546396  0.62960082  1
  O  O203  1  0.00536900  0.37278428  0.25965655  1
  O  O204  1  -0.00568848  0.36809537  0.76045317  1
  O  O205  1  0.00786859  0.87979525  0.25915756  1
  O  O206  1  -0.00056837  0.86896314  0.75657562  1
  O  O207  1  0.50394918  0.36446622  0.26249896  1
  O  O208  1  0.50769560  0.37458969  0.76433543  1
  O  O209  1  0.51208370  0.87349612  0.24671695  1
  O  O210  1  0.50553922  0.86784112  0.75605090  1
  O  O211  1  0.49897744  0.12941817  0.24283834  1
  O  O212  1  0.48703493  0.12492442  0.75086272  1
  O  O213  1  0.50554269  0.64414406  0.24915736  1
  O  O214  1  0.49518033  0.63591857  0.75657688  1
  O  O215  1  0.99327435  0.13528731  0.25117788  1
  O  O216  1  0.99261821  0.13286232  0.74684529  1
  O  O217  1  0.99965429  0.62494197  0.24025996  1
  O  O218  1  0.99211184  0.64218308  0.74596268  1
  O  O219  1  0.36530175  0.24715879  0.01356342  1
  O  O220  1  0.37001540  0.25538043  0.51179798  1
  O  O221  1  0.37046116  0.75309542  0.00801997  1
  O  O222  1  0.36611096  0.75852286  0.51168031  1
  O  O223  1  0.86982444  0.25844752  0.00098779  1
  O  O224  1  0.86845695  0.24173004  0.51301580  1
  O  O225  1  0.87098815  0.75701234  0.00614610  1
  O  O226  1  0.86941049  0.75307528  0.51481607  1
  O  O227  1  0.12216961  0.25479908  0.48846570  1
  O  O228  1  0.13614363  0.25191998  0.99935507  1
  O  O229  1  0.12984859  0.74300440  0.49728097  1
  O  O230  1  0.13119575  0.74116271  1.00005696  1
  O  O231  1  0.63525959  0.23927377  0.50984823  1
  O  O232  1  0.63177483  0.24510821  0.99462572  1
  O  O233  1  0.63894911  0.75534709  0.50466973  1
  O  O234  1  0.63485084  0.74249398  1.00511254  1
  O  O235  1  0.49502811  0.24606510  0.12728914  1
  O  O236  1  0.48646117  0.25007359  0.63165507  1
  O  O237  1  0.48485197  0.75487991  0.12893380  1
  O  O238  1  0.49132556  0.75647203  0.63326997  1
  O  O239  1  0.99744740  0.25476808  0.13853123  1
  O  O240  1  0.99360912  0.25311041  0.62947110  1
  O  O241  1  0.99055365  0.74228180  0.11779059  1
  O  O242  1  0.98414447  0.75810220  0.63085238  1
  O  O243  1  0.00293455  0.25985129  0.36827051  1
  O  O244  1  0.00009956  0.26030990  0.86802490  1
  O  O245  1  -0.00201935  0.76524166  0.38415316  1
  O  O246  1  -0.01207928  0.75690078  0.85750260  1
  O  O247  1  0.48881650  0.25669043  0.36560405  1
  O  O248  1  0.50411256  0.25917814  0.87838497  1
  O  O249  1  0.48663684  0.76261851  0.34847717  1
  O  O250  1  0.49719168  0.76081441  0.86846371  1
  O  O251  1  0.25166912  0.12960515  0.48693739  1
  O  O252  1  0.25506147  0.13192069  0.99199933  1
  O  O253  1  0.24512467  0.63049181  0.49204492  1
  O  O254  1  0.23726384  0.63333113  1.00339283  1
  O  O255  1  0.74204386  0.13251936  0.49907299  1
  O  O256  1  0.74770106  0.12986869  0.99312745  1
  O  O257  1  0.74910332  0.64017993  0.49890639  1
  O  O258  1  0.74383829  0.63187630  0.99464464  1
  O  O259  1  0.24662831  0.36526483  0.01614480  1
  O  O260  1  0.25982529  0.37193080  0.50841251  1
  O  O261  1  0.25394403  0.86805287  0.00633570  1
  O  O262  1  0.25398369  0.86733834  0.50389216  1
  O  O263  1  0.75510180  0.37270746  0.00646571  1
  O  O264  1  0.74755160  0.36264944  0.51271009  1
  O  O265  1  0.76372434  0.86683719  -0.00884338  1
  O  O266  1  0.75276603  0.87032000  0.50922575  1
  O  O267  1  0.12784488  0.48938105  0.25124401  1
  O  O268  1  0.13362791  0.51699222  0.75779985  1
  O  O269  1  0.12899154  0.98635064  0.24636520  1
  O  O270  1  0.13231942  0.99472355  0.74171701  1
  O  O271  1  0.61743224  0.49849139  0.23797737  1
  O  O272  1  0.62050356  0.48884359  0.74154821  1
  O  O273  1  0.63343540  0.99603984  0.24126042  1
  O  O274  1  0.63204030  0.99442337  0.74428952  1
  O  O275  1  0.37237299  -0.00163605  0.26169522  1
  O  O276  1  0.36950116  0.00528012  0.75487520  1
  O  O277  1  0.37253131  0.49110443  0.26317804  1
  O  O278  1  0.38102640  0.51506966  0.75773250  1
  O  O279  1  0.87062439  0.00490684  0.25211768  1
  O  O280  1  0.87159470  0.00875214  0.75239947  1
  O  O281  1  0.87864379  0.52051114  0.24559945  1
  O  O282  1  0.87790412  0.50054013  0.76440723  1
  O  O283  1  0.11864354  0.36880667  0.36905654  1
  O  O284  1  0.11051040  0.37669726  0.88037402  1
  O  O285  1  0.11685953  0.87286638  0.36731080  1
  O  O286  1  0.11015893  0.87524185  0.87236996  1
  O  O287  1  0.60993244  0.36823405  0.38029627  1
  O  O288  1  0.62120788  0.37308976  0.87052874  1
  O  O289  1  0.62462522  0.88343497  0.35978468  1
  O  O290  1  0.61906766  0.87942824  0.86223714  1
  O  O291  1  0.38436709  0.13048718  0.12639161  1
  O  O292  1  0.37343946  0.13249619  0.63418684  1
  O  O293  1  0.36933610  0.63862532  0.12339520  1
  O  O294  1  0.36170808  0.62965846  0.63407810  1
  O  O295  1  0.88197630  0.12703485  0.13536855  1
  O  O296  1  0.87609066  0.13191374  0.63499431  1
  O  O297  1  0.88348225  0.63518469  0.13006751  1
  O  O298  1  0.86881509  0.63430453  0.62661147  1
  O  O299  1  0.25733752  0.25323052  0.12252147  1
  O  O300  1  0.25852444  0.25894486  0.62686808  1
  O  O301  1  0.26006180  0.75863716  0.11754001  1
  O  O302  1  0.24591981  0.76013854  0.61273361  1
  O  O303  1  0.75160732  0.25816515  0.11819767  1
  O  O304  1  0.75798987  0.25695200  0.62018122  1
  O  O305  1  0.76168310  0.74754386  0.11074282  1
  O  O306  1  0.75999330  0.75697677  0.62136185  1
  O  O307  1  0.23947466  0.24428189  0.37625686  1
  O  O308  1  0.24951882  0.24265404  0.88642602  1
  O  O309  1  0.25356368  0.74324187  0.38720211  1
  O  O310  1  0.25565102  0.75743208  0.88830368  1
  O  O311  1  0.75602735  0.24673513  0.39005546  1
  O  O312  1  0.74645542  0.24588839  0.87952640  1
  O  O313  1  0.75306431  0.75774168  0.38944641  1
  O  O314  1  0.75998273  0.73639514  0.88597017  1
  O  O315  1  -0.00712624  0.11030793  -0.00314580  1
  O  O316  1  -0.00480907  0.11242776  0.49984755  1
  O  O317  1  0.00601160  0.62168889  0.00359651  1
  O  O318  1  0.00631320  0.60950269  0.49370073  1
  O  O319  1  0.50661343  0.11846554  0.00295122  1
  O  O320  1  0.50848630  0.12360102  0.50534868  1
  O  O321  1  0.51397573  0.61733987  -0.00668661  1
  O  O322  1  0.47129373  0.64139196  0.52149618  1
  O  O323  1  0.48850649  0.36039402  0.49071375  1
  O  O324  1  0.50756846  0.38548100  0.98822888  1
  O  O325  1  0.48993393  0.87688310  0.49951114  1
  O  O326  1  0.49895326  0.87694692  0.99193011  1
  O  O327  1  1.00027874  0.38619926  0.48720595  1
  O  O328  1  0.99403769  0.38436933  0.99635740  1
  O  O329  1  0.99639157  0.88779609  0.49205506  1
  O  O330  1  0.99092516  0.88077468  0.99070733  1
  O  O331  1  0.48815691  0.47189739  0.37889417  1
  O  O332  1  0.49470483  0.49545683  0.88377518  1
  O  O333  1  0.48949341  0.99537968  0.37737195  1
  O  O334  1  0.49712520  0.98914435  0.87925730  1
  O  O335  1  1.00133152  0.48937160  0.38351256  1
  O  O336  1  0.98665000  0.49584585  0.88315555  1
  O  O337  1  0.99467848  0.99522198  0.37916702  1
  O  O338  1  0.99544761  0.99408824  0.88156894  1
  O  O339  1  -0.00083632  -0.00078938  0.10676801  1
  O  O340  1  0.00917349  0.00262630  0.61633032  1
  O  O341  1  0.00210386  0.51079214  0.11762327  1
  O  O342  1  0.00583225  0.49064712  0.61182564  1
  O  O343  1  0.50738874  0.00414749  0.11747399  1
  O  O344  1  0.51435987  -0.00033007  0.62595185  1
  O  O345  1  0.50639754  0.49269892  0.11476594  1
  O  O346  1  0.50925492  0.49945990  0.62232126  1
  O  O347  1  0.24252715  0.37307585  0.24092856  1
  O  O348  1  0.25360539  0.37235044  0.74084515  1
  O  O349  1  0.24562065  0.87479023  0.24084178  1
  O  O350  1  0.25010355  0.87801394  0.74059265  1
  O  O351  1  0.74725889  0.37389819  0.24257241  1
  O  O352  1  0.73906269  0.36908401  0.74383450  1
  O  O353  1  0.74513273  0.88702344  0.24895027  1
  O  O354  1  0.74365716  0.87819885  0.74665978  1
  O  O355  1  0.25517919  0.12306805  0.26409891  1
  O  O356  1  0.26007038  0.12010547  0.75880853  1
  O  O357  1  0.24400309  0.62649797  0.26466636  1
  O  O358  1  0.25362557  0.63228152  0.75824915  1
  O  O359  1  0.75795013  0.11660865  0.24996239  1
  O  O360  1  0.75717670  0.12242122  0.75404163  1
  O  O361  1  0.76242312  0.62599042  0.24871510  1
  O  O362  1  0.74512579  0.63387945  0.76701469  1
  O  O363  1  0.36855069  0.11590483  0.37529336  1
  O  O364  1  0.36875037  0.11883382  0.86969542  1
  O  O365  1  0.36748380  0.60783537  0.37995548  1
  O  O366  1  0.37465288  0.61393331  0.86996180  1
  O  O367  1  0.87551136  0.11512598  0.36237849  1
  O  O368  1  0.87161034  0.12174185  0.86268368  1
  O  O369  1  0.88222465  0.63547718  0.35724371  1
  O  O370  1  0.86395817  0.61218255  0.88032710  1
  O  O371  1  0.13191155  0.37824898  0.13567097  1
  O  O372  1  0.13997905  0.37571061  0.62720689  1
  O  O373  1  0.13287244  0.87604154  0.12928057  1
  O  O374  1  0.13600481  0.88534858  0.62319172  1
  O  O375  1  0.63699010  0.38278824  0.12496008  1
  O  O376  1  0.62973066  0.37624822  0.63752219  1
  O  O377  1  0.62426828  0.88790758  0.12954004  1
  O  O378  1  0.63544144  0.88305925  0.63454593  1
  O  O379  1  0.11677460  0.26144398  0.25897142  1
  O  O380  1  0.11180677  0.24561071  0.75272910  1
  O  O381  1  0.12890364  0.76405562  0.25258080  1
  O  O382  1  0.10491889  0.75323442  0.73875702  1
  O  O383  1  0.61135577  0.24928286  0.24276963  1
  O  O384  1  0.62147947  0.25726079  0.75856383  1
  O  O385  1  0.61429766  0.76100398  0.23523290  1
  O  O386  1  0.61497472  0.75924809  0.74249374  1
  O  O387  1  0.38589055  0.24731451  0.23761018  1
  O  O388  1  0.37525260  0.24145639  0.74735125  1
  O  O389  1  0.38193067  0.75660200  0.23308205  1
  O  O390  1  0.38492463  0.73733146  0.75122154  1
  O  O391  1  0.88215580  0.24157717  0.24981879  1
  O  O392  1  0.88391907  0.24426638  0.74286333  1
  O  O393  1  0.87085514  0.74404131  0.23717599  1
  O  O394  1  0.88083702  0.75668529  0.73269361  1
  O  O395  1  0.38142922  0.48856494  0.49295681  1
  O  O396  1  0.38638221  0.50728182  0.99240267  1
  O  O397  1  0.37611082  0.99442489  0.49180958  1
  O  O398  1  0.38237943  0.99256402  0.99403669  1
  O  O399  1  0.88764170  0.50407588  0.50591940  1
  O  O400  1  0.88369776  0.49933168  0.99746758  1
  O  O401  1  0.87944147  0.99979521  0.48970067  1
  O  O402  1  0.88129873  0.99268366  0.99346540  1
  O  O403  1  0.10990247  -0.00570500  -0.00147126  1
  O  O404  1  0.11722966  -0.00254342  0.50736287  1
  O  O405  1  0.11238881  0.51034085  0.00192192  1
  O  O406  1  0.11660010  0.50465138  0.50125633  1
  O  O407  1  0.62346574  0.00239909  0.00434538  1
  O  O408  1  0.62644795  0.00682371  0.50856777  1
  O  O409  1  0.61921007  0.50771227  0.01047051  1
  O  O410  1  0.61987175  0.48530431  0.52189865  1
  O  O411  1  0.36726982  0.36644609  0.13037337  1
  O  O412  1  0.36860343  0.37001509  0.62242096  1
  O  O413  1  0.36829021  0.87056061  0.11658616  1
  O  O414  1  0.36217972  0.88562241  0.61341251  1
  O  O415  1  0.86455678  0.37754010  0.12100887  1
  O  O416  1  0.86458352  0.36588375  0.63265930  1
  O  O417  1  0.88055878  0.86714848  0.11442096  1
  O  O418  1  0.86140028  0.88081585  0.62479305  1
  O  O419  1  0.13066980  0.13634865  0.36821250  1
  O  O420  1  0.13788505  0.12498869  0.87041764  1
  O  O421  1  0.13338408  0.62653721  0.38532624  1
  O  O422  1  0.13198537  0.61626793  0.87762949  1
  O  O423  1  0.62575957  0.11862783  0.38781562  1
  O  O424  1  0.62959229  0.13012295  0.87983308  1
  O  O425  1  0.56380901  0.60522409  0.41031887  1
  O  O426  1  0.64114521  0.61679431  0.88508445  1
