# generated using pymatgen
data_V85Zn86O256
_symmetry_space_group_name_H-M   'P 1'
_cell_length_a   16.93723879
_cell_length_b   16.94210193
_cell_length_c   16.94201898
_cell_angle_alpha   89.97339049
_cell_angle_beta   89.96464427
_cell_angle_gamma   90.07391944
_symmetry_Int_Tables_number   1
_chemical_formula_structural   V85Zn86O256
_chemical_formula_sum   'V85 Zn86 O256'
_cell_volume   4861.54794837
_cell_formula_units_Z   1
loop_
 _symmetry_equiv_pos_site_id
 _symmetry_equiv_pos_as_xyz
  1  'x, y, z'
loop_
 _atom_site_type_symbol
 _atom_site_label
 _atom_site_symmetry_multiplicity
 _atom_site_fract_x
 _atom_site_fract_y
 _atom_site_fract_z
 _atom_site_occupancy
  V  V0  1  0.00233174  0.00097301  0.49810301  1
  V  V1  1  0.50370639  0.74892991  0.75217734  1
  V  V2  1  0.74975463  0.74663371  -0.00174043  1
  V  V3  1  0.74521816  0.12144809  0.86780778  1
  V  V4  1  0.50190341  0.12151664  0.12559111  1
  V  V5  1  0.23917125  0.49776434  0.74774827  1
  V  V6  1  -0.00276986  0.50757580  0.50599136  1
  V  V7  1  0.25743302  0.88538792  0.63053371  1
  V  V8  1  0.03352342  0.51326143  0.03411652  1
  V  V9  1  0.00203250  0.74271297  0.74500825  1
  V  V10  1  0.49973112  -0.00274611  0.00219614  1
  V  V11  1  0.37615415  0.37067592  0.50023260  1
  V  V12  1  0.49952986  0.62414664  0.62301578  1
  V  V13  1  0.87702413  0.87601375  0.49891555  1
  V  V14  1  0.38009465  0.25084642  0.64023944  1
  V  V15  1  0.37567778  0.75338998  0.62445317  1
  V  V16  1  0.37691059  0.11312590  0.75447676  1
  V  V17  1  0.37299974  0.74705134  0.12763511  1
  V  V18  1  0.86857332  -0.00327744  0.87043095  1
  V  V19  1  0.75260731  0.25048366  0.49889555  1
  V  V20  1  0.62404791  0.62103815  -0.00195842  1
  V  V21  1  0.62879970  -0.00482129  0.14029006  1
  V  V22  1  0.37366646  0.87286192  0.00253911  1
  V  V23  1  0.00775116  0.13899844  0.11911576  1
  V  V24  1  0.61688891  0.48794569  0.12747435  1
  V  V25  1  0.37495365  -0.00054511  0.37177767  1
  V  V26  1  0.00381434  0.00019731  0.00065334  1
  V  V27  1  0.23478695  0.25024077  -0.00406922  1
  V  V28  1  0.86869039  0.13008555  0.23718486  1
  V  V29  1  0.37359944  0.62649306  0.25724510  1
  V  V30  1  0.62820627  0.75882502  0.36786811  1
  V  V31  1  0.74540161  0.50274750  0.75759800  1
  V  V32  1  0.12800646  0.75238568  0.36593940  1
  V  V33  1  0.37390171  0.62532179  0.75066439  1
  V  V34  1  0.19861542  0.46055068  0.19042780  1
  V  V35  1  0.00447865  0.87780223  0.36061572  1
  V  V36  1  0.87931125  0.49539256  0.88103492  1
  V  V37  1  0.74670266  0.37676328  0.62652603  1
  V  V38  1  0.12565255  0.25160812  0.36504214  1
  V  V39  1  0.75175977  0.75083688  0.49876748  1
  V  V40  1  0.36803390  0.49931412  0.37626815  1
  V  V41  1  0.87336017  0.50037140  0.37281403  1
  V  V42  1  0.87676497  0.37608735  0.49760420  1
  V  V43  1  0.74351725  0.49351213  0.24786869  1
  V  V44  1  0.37818105  0.48811700  0.87388377  1
  V  V45  1  0.62501111  0.62488882  0.49787671  1
  V  V46  1  0.87441715  0.12749342  0.74860841  1
  V  V47  1  0.24929418  0.62447532  0.87798397  1
  V  V48  1  0.62677256  0.25548383  0.36748921  1
  V  V49  1  0.23238329  0.36112538  0.63537440  1
  V  V50  1  -0.00262992  0.87259679  0.87383866  1
  V  V51  1  0.37723395  0.87677607  0.49978366  1
  V  V52  1  0.61076537  0.37183211  0.75152702  1
  V  V53  1  0.23716675  0.87153690  0.12949008  1
  V  V54  1  0.24557424  0.74885869  0.00146113  1
  V  V55  1  0.23452139  0.11784538  0.87596115  1
  V  V56  1  0.61264371  0.25311194  0.87301276  1
  V  V57  1  0.00465684  0.37681862  0.36881202  1
  V  V58  1  0.86983231  0.62535086  0.75438049  1
  V  V59  1  0.37047355  0.24915657  0.11779652  1
  V  V60  1  0.23822168  -0.00301957  0.24941391  1
  V  V61  1  0.50557532  0.75801379  0.24731348  1
  V  V62  1  0.50121745  0.37896813  0.36368821  1
  V  V63  1  0.88288042  0.62293177  0.24478837  1
  V  V64  1  0.87984883  0.74622538  0.12267691  1
  V  V65  1  0.37203374  0.12471418  0.24887877  1
  V  V66  1  0.62602911  0.12322533  0.00051192  1
  V  V67  1  0.87946726  0.74516834  0.62232136  1
  V  V68  1  0.75485304  0.25178004  0.00207565  1
  V  V69  1  0.50581880  0.87297570  0.87581786  1
  V  V70  1  0.50027339  0.25311398  0.24664742  1
  V  V71  1  0.62907355  0.74640597  0.87218733  1
  V  V72  1  0.50363809  0.00367289  0.50115668  1
  V  V73  1  0.49578720  0.49245311  -0.00319008  1
  V  V74  1  0.86815694  0.00270105  0.36714341  1
  V  V75  1  0.12137393  0.63119365  0.50698100  1
  V  V76  1  0.76402641  0.37404840  0.12035573  1
  V  V77  1  0.24782765  0.24782810  0.49334315  1
  V  V78  1  0.00041076  0.12761650  0.62693474  1
  V  V79  1  0.74414683  0.87730174  0.63539684  1
  V  V80  1  0.74709488  0.87488931  0.13709435  1
  V  V81  1  0.74883690  0.62437729  0.37130578  1
  V  V82  1  0.12236066  0.74385572  0.87878421  1
  V  V83  1  0.12942384  0.87838211  0.74892178  1
  V  V84  1  0.62656127  0.12595004  0.50016977  1
  Zn  Zn85  1  0.74998904  0.12326433  0.36751753  1
  Zn  Zn86  1  0.87133302  0.87449775  -0.00071205  1
  Zn  Zn87  1  0.24587072  0.12290597  0.37308449  1
  Zn  Zn88  1  -0.00155855  0.25769302  0.24278299  1
  Zn  Zn89  1  0.24576480  0.62057957  0.38067972  1
  Zn  Zn90  1  0.49796650  0.62210324  0.12577436  1
  Zn  Zn91  1  0.03183590  0.34906764  0.83827102  1
  Zn  Zn92  1  0.91771269  0.34695066  -0.02527839  1
  Zn  Zn93  1  0.88154427  0.25749580  0.63557287  1
  Zn  Zn94  1  0.36795988  -0.00594091  0.87361928  1
  Zn  Zn95  1  0.24960580  0.75119825  0.50039001  1
  Zn  Zn96  1  0.12020058  -0.00087502  0.12455062  1
  Zn  Zn97  1  0.50076701  0.49798475  0.49928380  1
  Zn  Zn98  1  0.00637371  0.74988229  0.24127177  1
  Zn  Zn99  1  0.50643675  0.88022363  0.36964540  1
  Zn  Zn100  1  0.50804365  0.13207127  0.63608531  1
  Zn  Zn101  1  0.64123530  0.00904739  0.64339166  1
  Zn  Zn102  1  0.37478746  0.36607801  -0.00665207  1
  Zn  Zn103  1  0.12744769  0.12324136  0.49964204  1
  Zn  Zn104  1  0.62341627  0.50081293  0.62629748  1
  Zn  Zn105  1  0.12772896  -0.00027535  0.62497547  1
  Zn  Zn106  1  0.12024772  0.50489554  0.62511893  1
  Zn  Zn107  1  0.18684378  0.18935408  0.18457566  1
  Zn  Zn108  1  0.19803925  0.17479912  0.68253788  1
  Zn  Zn109  1  0.18655179  0.67060381  0.19131483  1
  Zn  Zn110  1  0.18977386  0.69178111  0.68571218  1
  Zn  Zn111  1  0.68808343  0.18918382  0.18515034  1
  Zn  Zn112  1  0.68953428  0.19205082  0.68896982  1
  Zn  Zn113  1  0.68858958  0.68155923  0.18350421  1
  Zn  Zn114  1  0.68901582  0.68949691  0.68636316  1
  Zn  Zn115  1  0.30968151  0.31719066  0.30586043  1
  Zn  Zn116  1  0.20996764  0.31142296  0.81261946  1
  Zn  Zn117  1  0.31211208  0.81377491  0.31319831  1
  Zn  Zn118  1  0.31439815  0.81279671  0.81307444  1
  Zn  Zn119  1  0.81380180  0.31199377  0.30819038  1
  Zn  Zn120  1  0.80604856  0.31134669  0.81421197  1
  Zn  Zn121  1  0.81794649  0.81168339  0.31102519  1
  Zn  Zn122  1  0.81080721  0.80996837  0.81193596  1
  Zn  Zn123  1  0.18406072  0.43529610  0.44318698  1
  Zn  Zn124  1  0.18688531  0.43486863  0.94301074  1
  Zn  Zn125  1  0.18805760  0.93509523  0.43712330  1
  Zn  Zn126  1  0.18524102  0.93533904  0.93690577  1
  Zn  Zn127  1  0.68510013  0.43745197  0.43680513  1
  Zn  Zn128  1  0.68750317  0.43495304  0.93562055  1
  Zn  Zn129  1  0.69061327  0.93819624  0.44181248  1
  Zn  Zn130  1  0.68674789  0.93449194  0.94243276  1
  Zn  Zn131  1  0.30704500  0.06336377  0.05979102  1
  Zn  Zn132  1  0.31743173  0.06495806  0.56228688  1
  Zn  Zn133  1  0.27857525  0.56408754  0.07089425  1
  Zn  Zn134  1  0.30849603  0.55949155  0.56096013  1
  Zn  Zn135  1  0.81348610  0.05992312  0.05840890  1
  Zn  Zn136  1  0.81494005  0.06146526  0.56043038  1
  Zn  Zn137  1  0.80776215  0.56342043  0.06284647  1
  Zn  Zn138  1  0.81111358  0.56319517  0.56600667  1
  Zn  Zn139  1  0.40017809  0.44950790  0.17286658  1
  Zn  Zn140  1  0.43001314  0.43883794  0.68553853  1
  Zn  Zn141  1  0.43372407  0.93509752  0.18675509  1
  Zn  Zn142  1  0.47532681  0.95281689  0.70166888  1
  Zn  Zn143  1  0.94384101  0.44374690  0.18200427  1
  Zn  Zn144  1  0.93276465  0.44084550  0.68828595  1
  Zn  Zn145  1  0.93126455  0.94125398  0.18357905  1
  Zn  Zn146  1  0.93587455  0.93650799  0.68789639  1
  Zn  Zn147  1  0.05710721  0.06960403  0.30972945  1
  Zn  Zn148  1  0.05578761  0.05952839  0.80864554  1
  Zn  Zn149  1  0.06486405  0.56271734  0.31530064  1
  Zn  Zn150  1  0.05850237  0.56111865  0.81633646  1
  Zn  Zn151  1  0.56243023  0.06777963  0.31536110  1
  Zn  Zn152  1  0.55839619  0.06461572  0.81402596  1
  Zn  Zn153  1  0.55810903  0.56513600  0.31009164  1
  Zn  Zn154  1  0.56295637  0.56181389  0.81331649  1
  Zn  Zn155  1  0.43917788  0.18884232  0.43404855  1
  Zn  Zn156  1  0.43404606  0.18208459  0.93404525  1
  Zn  Zn157  1  0.44133599  0.69167001  0.43616779  1
  Zn  Zn158  1  0.43746013  0.68293076  0.94080461  1
  Zn  Zn159  1  0.93900955  0.18761718  0.43470945  1
  Zn  Zn160  1  0.94067390  0.18108732  0.93302268  1
  Zn  Zn161  1  0.94074805  0.68901727  0.43119719  1
  Zn  Zn162  1  0.93759372  0.67779000  0.93879097  1
  Zn  Zn163  1  0.07487284  0.33122792  0.06904300  1
  Zn  Zn164  1  0.06361536  0.31118202  0.66295720  1
  Zn  Zn165  1  0.05928714  0.81215401  0.05748152  1
  Zn  Zn166  1  0.06385525  0.81566011  0.56074498  1
  Zn  Zn167  1  0.56191161  0.31097460  0.05858688  1
  Zn  Zn168  1  0.56139769  0.31225908  0.55958660  1
  Zn  Zn169  1  0.56500140  0.81141640  0.06401366  1
  Zn  Zn170  1  0.56324383  0.81201728  0.55996141  1
  O  O171  1  0.10960577  0.12137848  0.12656167  1
  O  O172  1  0.11733322  0.11834946  0.62280008  1
  O  O173  1  0.18788658  0.57030601  0.14455506  1
  O  O174  1  0.12664827  0.62871019  0.61186333  1
  O  O175  1  0.62223410  0.11511423  0.11971688  1
  O  O176  1  0.62584967  0.12572021  0.61715137  1
  O  O177  1  0.62196328  0.61437757  0.11320404  1
  O  O178  1  0.61717410  0.62722431  0.61614969  1
  O  O179  1  0.38170423  0.38120599  0.38117953  1
  O  O180  1  0.37538765  0.39061125  0.86954993  1
  O  O181  1  0.37972329  0.88133615  0.38315912  1
  O  O182  1  0.38201198  0.87348561  0.88591588  1
  O  O183  1  0.87487006  0.38247045  0.38075305  1
  O  O184  1  0.86015107  0.39063897  0.87814392  1
  O  O185  1  0.88306198  0.88211426  0.37802482  1
  O  O186  1  0.87803914  0.88024830  0.87385819  1
  O  O187  1  0.25652247  -0.00089213  0.36601322  1
  O  O188  1  0.25153934  0.01099505  0.88211737  1
  O  O189  1  0.26548524  0.49979601  0.38840165  1
  O  O190  1  0.26061149  0.50895214  0.86771668  1
  O  O191  1  0.76441699  0.00111812  0.37890016  1
  O  O192  1  0.75522617  0.00729603  0.88266239  1
  O  O193  1  0.75155864  0.50318386  0.36596885  1
  O  O194  1  0.75208900  0.50047180  0.86159192  1
  O  O195  1  0.29510712  0.47145633  0.12830017  1
  O  O196  1  0.24899708  0.49135203  0.63374521  1
  O  O197  1  0.24602334  0.99052560  0.13029990  1
  O  O198  1  0.25140327  0.98893341  0.62181698  1
  O  O199  1  0.73957881  0.49280392  0.12916868  1
  O  O200  1  0.74643639  0.49234218  0.63273995  1
  O  O201  1  0.74364852  0.98359102  0.11751421  1
  O  O202  1  0.75271274  0.98350909  0.62010556  1
  O  O203  1  -0.01128155  0.37541133  0.26450031  1
  O  O204  1  -0.00861771  0.35925247  0.73381988  1
  O  O205  1  -0.00505804  0.87534633  0.25808547  1
  O  O206  1  0.00409076  0.86295902  0.75526364  1
  O  O207  1  0.49055690  0.36904946  0.26093048  1
  O  O208  1  0.51229931  0.38100544  0.73998276  1
  O  O209  1  0.49873462  0.86306949  0.24994417  1
  O  O210  1  0.48699600  0.85878079  0.76660125  1
  O  O211  1  0.49198370  0.13136213  0.24536079  1
  O  O212  1  0.48157129  0.13183138  0.75287339  1
  O  O213  1  0.49153027  0.63909587  0.24805697  1
  O  O214  1  0.49350628  0.62902705  0.74295704  1
  O  O215  1  0.99118621  0.12903283  0.23296315  1
  O  O216  1  0.98877488  0.12262637  0.73998581  1
  O  O217  1  0.98518520  0.62729252  0.26016494  1
  O  O218  1  0.99207791  0.63683727  0.75157459  1
  O  O219  1  0.37025847  0.24404643  0.00479004  1
  O  O220  1  0.36955775  0.26000971  0.49408271  1
  O  O221  1  0.36901938  0.75222028  0.00953222  1
  O  O222  1  0.37848134  0.76117998  0.50503099  1
  O  O223  1  0.85693663  0.24650070  -0.00025422  1
  O  O224  1  0.86395102  0.25797177  0.49571180  1
  O  O225  1  0.86667974  0.74567524  0.00433448  1
  O  O226  1  0.87354837  0.75373681  0.50558039  1
  O  O227  1  0.14360953  0.24653882  0.48891126  1
  O  O228  1  0.13659426  0.25456539  1.00786864  1
  O  O229  1  0.12327527  0.74567219  0.49129721  1
  O  O230  1  0.12994856  0.75146122  0.98912055  1
  O  O231  1  0.63459538  0.24587215  0.49219705  1
  O  O232  1  0.63069878  0.24171659  0.99379769  1
  O  O233  1  0.62946080  0.74055857  0.49131952  1
  O  O234  1  0.62883928  0.74095344  0.99501989  1
  O  O235  1  0.49955487  0.23787209  0.12830965  1
  O  O236  1  0.48358121  0.24740547  0.61612913  1
  O  O237  1  0.49209848  0.74824210  0.13000726  1
  O  O238  1  0.49671593  0.74185951  0.62983865  1
  O  O239  1  1.00693291  0.24277885  0.12141835  1
  O  O240  1  0.99538436  0.23143736  0.61134771  1
  O  O241  1  0.98511419  0.75400904  0.12335764  1
  O  O242  1  0.99090981  0.75810178  0.63295228  1
  O  O243  1  0.00830592  0.25948167  0.37539852  1
  O  O244  1  -0.01602859  0.27800798  0.90837260  1
  O  O245  1  0.00681933  0.76214214  0.36989192  1
  O  O246  1  0.00572912  0.75107283  0.86995691  1
  O  O247  1  0.50752965  0.25702917  0.36771568  1
  O  O248  1  0.51373063  0.24582669  0.88277478  1
  O  O249  1  0.51138840  0.75378723  0.36614358  1
  O  O250  1  0.50775475  0.75268169  0.87447117  1
  O  O251  1  0.25373632  0.13262976  0.49357624  1
  O  O252  1  0.25001150  0.13034550  0.98545746  1
  O  O253  1  0.24059821  0.62990705  0.49901821  1
  O  O254  1  0.25747036  0.63380012  0.98472535  1
  O  O255  1  0.74335152  0.13356150  0.49776070  1
  O  O256  1  0.74311079  0.12922932  0.99330573  1
  O  O257  1  0.74350722  0.63080934  0.49467958  1
  O  O258  1  0.73884166  0.63748776  1.00500717  1
  O  O259  1  0.25689265  0.35399278  -0.00851497  1
  O  O260  1  0.25817948  0.36647652  0.50768834  1
  O  O261  1  0.25425930  0.86844092  0.00793880  1
  O  O262  1  0.26480064  0.87680221  0.50687748  1
  O  O263  1  0.74421463  0.36559753  0.00785193  1
  O  O264  1  0.75538178  0.37112272  0.50459367  1
  O  O265  1  0.74979577  0.86018999  0.00740349  1
  O  O266  1  0.75985621  0.86661435  0.50291000  1
  O  O267  1  0.14171143  0.49741252  0.27005122  1
  O  O268  1  0.13592721  0.51130931  0.74457349  1
  O  O269  1  0.13556512  1.00398330  0.25016818  1
  O  O270  1  0.11633339  0.98128552  0.74747295  1
  O  O271  1  0.63104096  0.50706437  0.23951768  1
  O  O272  1  0.63003224  0.49453184  0.74831248  1
  O  O273  1  0.62170087  1.00449193  0.23950858  1
  O  O274  1  0.58199035  0.98976809  0.73561125  1
  O  O275  1  0.36928176  0.00637236  0.25340691  1
  O  O276  1  0.38077139  0.01019590  0.74937535  1
  O  O277  1  0.38725663  0.51526192  0.26566405  1
  O  O278  1  0.37048025  0.51152665  0.75628598  1
  O  O279  1  0.87980061  0.01501080  0.25642251  1
  O  O280  1  0.87772320  0.00759624  0.76266865  1
  O  O281  1  0.86662663  0.50660170  0.25284241  1
  O  O282  1  0.86473890  0.50803256  0.75359745  1
  O  O283  1  0.11290749  0.36637638  0.38468455  1
  O  O284  1  0.13586979  0.38200387  0.86035651  1
  O  O285  1  0.11528126  0.86679246  0.37740061  1
  O  O286  1  0.12070423  0.86294984  0.86754265  1
  O  O287  1  0.61510444  0.36649526  0.37929770  1
  O  O288  1  0.62776772  0.36577638  0.86411255  1
  O  O289  1  0.62730222  0.86229970  0.38059410  1
  O  O290  1  0.61275283  0.86406179  0.88360555  1
  O  O291  1  0.38087917  0.12645782  0.13335680  1
  O  O292  1  0.37313836  0.13451830  0.63755746  1
  O  O293  1  0.37189884  0.63766557  0.13528729  1
  O  O294  1  0.38093569  0.62995039  0.62977264  1
  O  O295  1  0.88109587  0.12091170  0.13334936  1
  O  O296  1  0.87938986  0.12369810  0.63352689  1
  O  O297  1  0.86659660  0.63342281  0.13345091  1
  O  O298  1  0.87043930  0.63870465  0.63254962  1
  O  O299  1  0.25900134  0.23626974  0.10869656  1
  O  O300  1  0.26775211  0.24971661  0.60943438  1
  O  O301  1  0.25337133  0.75348720  0.12387532  1
  O  O302  1  0.26034097  0.76147892  0.62250267  1
  O  O303  1  0.74128508  0.26305789  0.11603741  1
  O  O304  1  0.75287084  0.25906458  0.61515182  1
  O  O305  1  0.75524005  0.75739231  0.11951504  1
  O  O306  1  0.75728479  0.75789410  0.61767157  1
  O  O307  1  0.24503047  0.25007441  0.37558246  1
  O  O308  1  0.24872005  0.23291297  0.88675817  1
  O  O309  1  0.23888510  0.75638732  0.38058965  1
  O  O310  1  0.24251508  0.74355528  0.87820982  1
  O  O311  1  0.74258236  0.25191610  0.38054733  1
  O  O312  1  0.74026728  0.23926540  0.88269717  1
  O  O313  1  0.74639330  0.74490760  0.37797806  1
  O  O314  1  0.73843829  0.75383903  0.88266988  1
  O  O315  1  -0.00891829  0.11637721  0.01418061  1
  O  O316  1  -0.00189525  0.11252067  0.50330793  1
  O  O317  1  -0.00045454  0.60067493  -0.00683848  1
  O  O318  1  0.00549080  0.61856522  0.49484768  1
  O  O319  1  0.50430203  0.11382596  0.00498631  1
  O  O320  1  0.51444959  0.12335200  0.49555100  1
  O  O321  1  0.50502364  0.61308338  0.00362616  1
  O  O322  1  0.50800685  0.62631691  0.50713990  1
  O  O323  1  0.49247426  0.37494525  0.49028377  1
  O  O324  1  0.49788783  0.38810737  0.99874110  1
  O  O325  1  0.49272346  0.88428998  0.49908113  1
  O  O326  1  0.49477958  0.87810200  0.99703047  1
  O  O327  1  0.98205728  0.38433507  0.48930774  1
  O  O328  1  1.00295126  0.40863803  1.02058799  1
  O  O329  1  0.99480008  0.88517910  0.49307790  1
  O  O330  1  0.99297899  0.88027149  0.99085875  1
  O  O331  1  0.49574745  0.49271175  0.37836953  1
  O  O332  1  0.48544893  0.50750995  0.87913267  1
  O  O333  1  0.49581271  0.99987567  0.38312720  1
  O  O334  1  0.49625923  0.98888073  0.88714462  1
  O  O335  1  0.99210708  0.49455091  0.38319853  1
  O  O336  1  0.98123644  0.49176876  0.86436422  1
  O  O337  1  0.99362980  0.99524226  0.37860322  1
  O  O338  1  0.99100631  0.99326806  0.88000107  1
  O  O339  1  -0.00045595  0.00476117  0.11594708  1
  O  O340  1  -0.00171900  0.00602332  0.61501800  1
  O  O341  1  0.01296398  0.51993512  0.13337223  1
  O  O342  1  -0.00312833  0.49887756  0.60948681  1
  O  O343  1  0.50715911  0.00075988  0.12146132  1
  O  O344  1  0.49059246  0.01336625  0.60446189  1
  O  O345  1  0.50018583  0.50033448  0.11720560  1
  O  O346  1  0.49963627  0.51340917  0.62272484  1
  O  O347  1  0.25672710  0.39500863  0.24863454  1
  O  O348  1  0.26421566  0.38991941  0.73995538  1
  O  O349  1  0.25691330  0.88460821  0.23959566  1
  O  O350  1  0.24282539  0.86952042  0.74291030  1
  O  O351  1  0.75370964  0.38728312  0.24172814  1
  O  O352  1  0.74282995  0.38222855  0.74091391  1
  O  O353  1  0.75203815  0.87089061  0.23614073  1
  O  O354  1  0.75057844  0.86955334  0.73422868  1
  O  O355  1  0.25723284  0.11602903  0.24825830  1
  O  O356  1  0.26356117  0.12654276  0.76380164  1
  O  O357  1  0.27114453  0.64064601  0.26785203  1
  O  O358  1  0.25746180  0.62208507  0.75580322  1
  O  O359  1  0.76379828  0.12744251  0.24735129  1
  O  O360  1  0.75101451  0.12196827  0.76178773  1
  O  O361  1  0.75624734  0.61382269  0.25298167  1
  O  O362  1  0.75714432  0.61608764  0.74309476  1
  O  O363  1  0.37515273  0.12020075  0.36139369  1
  O  O364  1  0.36954868  0.11766227  0.86471871  1
  O  O365  1  0.37969589  0.61643331  0.37526157  1
  O  O366  1  0.36777177  0.62454821  0.86518392  1
  O  O367  1  0.87525374  0.11787765  0.36405820  1
  O  O368  1  0.86630457  0.11671537  0.86868980  1
  O  O369  1  0.86608924  0.62035459  0.36815503  1
  O  O370  1  0.87427785  0.61682091  0.86046548  1
  O  O371  1  0.13822183  0.39700049  0.13867961  1
  O  O372  1  0.13624833  0.38577078  0.60538365  1
  O  O373  1  0.13411645  0.87315838  0.12358241  1
  O  O374  1  0.13735340  0.87395482  0.63158079  1
  O  O375  1  0.62743006  0.38631272  0.12151412  1
  O  O376  1  0.63323507  0.37539278  0.62758698  1
  O  O377  1  0.63758379  0.87948945  0.12340145  1
  O  O378  1  0.64195757  0.87304504  0.61649676  1
  O  O379  1  0.12263608  0.24863877  0.26046506  1
  O  O380  1  0.16253201  0.27823628  0.71171583  1
  O  O381  1  0.12311814  0.73876381  0.25954503  1
  O  O382  1  0.11775320  0.75605865  0.75430759  1
  O  O383  1  0.61954927  0.24551568  0.26087998  1
  O  O384  1  0.62800266  0.25947321  0.75907445  1
  O  O385  1  0.61988974  0.74206282  0.25692421  1
  O  O386  1  0.61966948  0.74216202  0.76271207  1
  O  O387  1  0.37706735  0.24083395  0.24227206  1
  O  O388  1  0.37305590  0.24704227  0.73749790  1
  O  O389  1  0.38452517  0.74940245  0.24550775  1
  O  O390  1  0.37949918  0.73882168  0.74569921  1
  O  O391  1  0.87937293  0.23444214  0.25307596  1
  O  O392  1  0.86307686  0.23309562  0.75063844  1
  O  O393  1  0.87552451  0.74061411  0.24008935  1
  O  O394  1  0.88027144  0.74348966  0.74403611  1
  O  O395  1  0.37838119  0.48669068  0.49776545  1
  O  O396  1  0.37900165  0.49914973  0.98322801  1
  O  O397  1  0.38140186  0.99696375  0.49004462  1
  O  O398  1  0.38631497  0.99247334  1.00562433  1
  O  O399  1  0.87616782  0.49683292  0.49383774  1
  O  O400  1  0.86423460  0.50894114  0.97989734  1
  O  O401  1  0.88276330  0.99550026  0.49021373  1
  O  O402  1  0.88225367  0.99731223  0.98739938  1
  O  O403  1  0.10800034  -0.00641655  -0.00054880  1
  O  O404  1  0.11609480  0.00054808  0.50067542  1
  O  O405  1  0.13159332  0.50973815  0.00642274  1
  O  O406  1  0.11372687  0.51276223  0.49785770  1
  O  O407  1  0.61356820  0.00176432  0.00797053  1
  O  O408  1  0.62004802  0.00991828  0.50022643  1
  O  O409  1  0.61722536  0.50428314  0.00294110  1
  O  O410  1  0.62422821  0.51362903  0.50137369  1
  O  O411  1  0.39096582  0.34905127  0.11870862  1
  O  O412  1  0.36886876  0.36376843  0.61912577  1
  O  O413  1  0.36675073  0.86289285  0.12089700  1
  O  O414  1  0.37362718  0.87214183  0.61922964  1
  O  O415  1  0.86485439  0.38321113  0.12004490  1
  O  O416  1  0.86199885  0.37510778  0.61486404  1
  O  O417  1  0.86289311  0.86750027  0.12184468  1
  O  O418  1  0.86778164  0.86546717  0.62009045  1
  O  O419  1  0.12417466  0.13550124  0.37753611  1
  O  O420  1  0.13559703  0.12062524  0.86363433  1
  O  O421  1  0.12489306  0.63686085  0.38610969  1
  O  O422  1  0.13373207  0.63577242  0.86645917  1
  O  O423  1  0.63038317  0.13481376  0.38181086  1
  O  O424  1  0.62954210  0.12777571  0.87962126  1
  O  O425  1  0.62936466  0.63254640  0.38069566  1
  O  O426  1  0.61976953  0.63157663  0.88835654  1
