# generated using pymatgen
data_V85Zn86O256
_symmetry_space_group_name_H-M   'P 1'
_cell_length_a   16.92293393
_cell_length_b   16.91054750
_cell_length_c   16.92033806
_cell_angle_alpha   90.01252754
_cell_angle_beta   90.04450099
_cell_angle_gamma   89.94402222
_symmetry_Int_Tables_number   1
_chemical_formula_structural   V85Zn86O256
_chemical_formula_sum   'V85 Zn86 O256'
_cell_volume   4842.19209613
_cell_formula_units_Z   1
loop_
 _symmetry_equiv_pos_site_id
 _symmetry_equiv_pos_as_xyz
  1  'x, y, z'
loop_
 _atom_site_type_symbol
 _atom_site_label
 _atom_site_symmetry_multiplicity
 _atom_site_fract_x
 _atom_site_fract_y
 _atom_site_fract_z
 _atom_site_occupancy
  V  V0  1  0.87829936  -0.00328428  0.37600131  1
  V  V1  1  0.73947142  0.62736769  0.37827194  1
  V  V2  1  0.49537730  0.25031146  0.24224311  1
  V  V3  1  0.75197138  0.50055823  0.24908342  1
  V  V4  1  0.87766934  0.62821985  0.75175009  1
  V  V5  1  0.62393174  0.12625241  0.49984227  1
  V  V6  1  0.37250892  -0.00662878  0.37470519  1
  V  V7  1  0.50658845  0.87188552  0.37857015  1
  V  V8  1  0.25060604  0.60845285  0.87393654  1
  V  V9  1  0.00447090  0.24726002  0.24389836  1
  V  V10  1  0.37377180  0.38147054  0.48887702  1
  V  V11  1  0.87342851  -0.00214940  0.87032477  1
  V  V12  1  0.87928994  0.12507340  0.24268540  1
  V  V13  1  0.74936448  0.87776879  0.63469690  1
  V  V14  1  0.11973836  0.75493021  0.37508864  1
  V  V15  1  0.62845219  0.25240590  0.87863149  1
  V  V16  1  0.87303620  0.36599161  -0.00071642  1
  V  V17  1  0.37569728  0.75692987  0.62462424  1
  V  V18  1  0.24919869  0.88438127  0.12489877  1
  V  V19  1  0.12104007  0.87628074  0.25280576  1
  V  V20  1  0.00085290  0.62753494  0.62647231  1
  V  V21  1  0.38043021  0.88381855  -0.00499841  1
  V  V22  1  0.00046628  0.13339023  0.62900560  1
  V  V23  1  0.62685622  0.49949658  0.12225987  1
  V  V24  1  0.75112409  0.12344076  0.87406942  1
  V  V25  1  0.31224162  0.30116423  0.06512036  1
  V  V26  1  0.13080810  0.75374612  0.87231212  1
  V  V27  1  0.00117266  0.62207029  0.12616935  1
  V  V28  1  0.01073148  0.36892725  0.37442909  1
  V  V29  1  0.25103101  0.75093815  0.00092058  1
  V  V30  1  0.36866218  0.12793530  0.75493185  1
  V  V31  1  0.37445484  0.61893839  0.25870133  1
  V  V32  1  0.88086178  0.87887972  0.00378177  1
  V  V33  1  0.87713876  0.50180870  0.37245827  1
  V  V34  1  0.37306073  0.25058042  0.61929783  1
  V  V35  1  0.24801290  0.38497243  0.62721297  1
  V  V36  1  0.62534201  0.37767428  0.74900013  1
  V  V37  1  0.12608577  0.62593038  0.49804846  1
  V  V38  1  0.10595464  0.00314784  0.11757561  1
  V  V39  1  0.25439091  0.75586444  0.49726566  1
  V  V40  1  0.50077006  0.75771698  0.75952960  1
  V  V41  1  0.62678157  0.50494240  0.61810253  1
  V  V42  1  0.12870720  0.37598912  0.23098259  1
  V  V43  1  0.75147322  0.62682523  0.87625353  1
  V  V44  1  0.87883809  0.49926473  0.87693051  1
  V  V45  1  0.49832819  0.12114036  0.11711226  1
  V  V46  1  0.12326845  -0.00284615  0.63031177  1
  V  V47  1  0.74959017  0.12519288  0.37562837  1
  V  V48  1  0.63381232  0.12897347  0.00427074  1
  V  V49  1  0.62758447  0.00266879  0.63227998  1
  V  V50  1  -0.00539341  0.75046107  0.24729302  1
  V  V51  1  0.50239654  0.62770722  0.62199165  1
  V  V52  1  0.48827998  0.49766154  -0.00592649  1
  V  V53  1  0.62360616  0.25301151  0.37552778  1
  V  V54  1  0.62568098  0.62619452  -0.00135529  1
  V  V55  1  0.37198520  0.61371524  0.75357070  1
  V  V56  1  0.00938584  0.49594177  0.00273647  1
  V  V57  1  0.12163967  0.13210399  -0.00064689  1
  V  V58  1  0.24472257  0.25161732  0.49104716  1
  V  V59  1  0.24801594  0.00127157  0.75516556  1
  V  V60  1  0.49989157  0.25337793  0.74913867  1
  V  V61  1  0.49895644  0.12697183  0.62229982  1
  V  V62  1  0.50425685  0.75043877  0.25430618  1
  V  V63  1  0.24717650  0.87432673  0.62918899  1
  V  V64  1  0.49839791  0.50437552  0.49208514  1
  V  V65  1  0.87679953  0.13170426  0.75168914  1
  V  V66  1  0.00490558  0.75696861  0.75110227  1
  V  V67  1  0.00095932  -0.00475491  0.49891760  1
  V  V68  1  0.76031633  0.74717268  0.00573124  1
  V  V69  1  0.49380141  -0.00394601  0.50087698  1
  V  V70  1  0.49600454  0.62607253  0.12521440  1
  V  V71  1  0.14073110  0.24431410  0.86417184  1
  V  V72  1  0.37241462  0.12383188  0.24579005  1
  V  V73  1  0.62437224  0.37481741  0.24790555  1
  V  V74  1  0.75114041  0.36590390  0.12079260  1
  V  V75  1  0.24957699  0.49706669  0.24253089  1
  V  V76  1  0.75054385  0.50343502  0.74907426  1
  V  V77  1  0.12341018  0.12729280  0.49251787  1
  V  V78  1  0.87581921  0.87147162  0.50029610  1
  V  V79  1  0.00161244  0.50011060  0.50067329  1
  V  V80  1  -0.00019282  0.36140762  0.86857060  1
  V  V81  1  0.00793547  0.88065762  0.87893990  1
  V  V82  1  0.74731641  -0.00131522  0.25022264  1
  V  V83  1  0.75339885  0.86882746  0.12740304  1
  V  V84  1  0.73321132  0.74845996  0.49865976  1
  Zn  Zn85  1  0.37223494  0.75290826  0.12800651  1
  Zn  Zn86  1  0.13067326  0.61966166  0.00492624  1
  Zn  Zn87  1  0.37813250  0.00330068  0.87393288  1
  Zn  Zn88  1  0.24632649  0.00110243  0.25117663  1
  Zn  Zn89  1  0.48879778  0.39003195  0.87014702  1
  Zn  Zn90  1  0.51060229  -0.00637872  -0.01063221  1
  Zn  Zn91  1  0.87462280  0.37108109  0.50067266  1
  Zn  Zn92  1  0.87602308  0.24226853  0.11979184  1
  Zn  Zn93  1  0.62784835  0.86865896  0.25363154  1
  Zn  Zn94  1  0.87556771  0.25482369  0.62513438  1
  Zn  Zn95  1  0.12945037  0.50652023  0.63521195  1
  Zn  Zn96  1  0.62538131  -0.00335782  0.12444392  1
  Zn  Zn97  1  0.12615934  0.38112278  0.75260399  1
  Zn  Zn98  1  0.75531072  0.37442161  0.62248245  1
  Zn  Zn99  1  0.24735162  0.12516449  0.37210175  1
  Zn  Zn100  1  0.62355565  0.75954757  0.88066878  1
  Zn  Zn101  1  0.75275158  0.25309690  0.50391128  1
  Zn  Zn102  1  0.49489657  0.38118643  0.36814079  1
  Zn  Zn103  1  0.87416888  0.75137421  0.62527397  1
  Zn  Zn104  1  0.62057699  0.88863254  0.76239327  1
  Zn  Zn105  1  0.25361211  0.62054361  0.37533345  1
  Zn  Zn106  1  0.87147157  0.63073406  0.24427662  1
  Zn  Zn107  1  0.18311603  0.18498481  0.18670875  1
  Zn  Zn108  1  0.18665593  0.19018579  0.68288026  1
  Zn  Zn109  1  0.18609900  0.68626532  0.18567755  1
  Zn  Zn110  1  0.18882211  0.68623426  0.68979464  1
  Zn  Zn111  1  0.68754614  0.18697393  0.18947394  1
  Zn  Zn112  1  0.69235147  0.18776264  0.69041753  1
  Zn  Zn113  1  0.68660244  0.68661985  0.18803279  1
  Zn  Zn114  1  0.68605917  0.69070421  0.68638228  1
  Zn  Zn115  1  0.30908654  0.31064931  0.30476635  1
  Zn  Zn116  1  0.31375075  0.32212409  0.80949153  1
  Zn  Zn117  1  0.31439812  0.81176144  0.31120741  1
  Zn  Zn118  1  0.31313179  0.81160084  0.81208998  1
  Zn  Zn119  1  0.81492017  0.31344892  0.31343076  1
  Zn  Zn120  1  0.81003414  0.31161693  0.81084306  1
  Zn  Zn121  1  0.81204696  0.81208151  0.31845880  1
  Zn  Zn122  1  0.81262451  0.81159038  0.81725936  1
  Zn  Zn123  1  0.19077831  0.44233338  0.43181127  1
  Zn  Zn124  1  0.18954722  0.42599257  0.94436700  1
  Zn  Zn125  1  0.18803959  0.93619790  0.43937207  1
  Zn  Zn126  1  0.19074908  0.94615959  0.94332699  1
  Zn  Zn127  1  0.68791562  0.43749569  0.43723862  1
  Zn  Zn128  1  0.68699048  0.43788303  0.93662298  1
  Zn  Zn129  1  0.68607366  0.93803197  0.44205655  1
  Zn  Zn130  1  0.68983333  0.93919130  0.93776112  1
  Zn  Zn131  1  0.31824373  0.10125103  0.04287431  1
  Zn  Zn132  1  0.31028569  0.06264647  0.56224757  1
  Zn  Zn133  1  0.31024421  0.56169940  0.06660685  1
  Zn  Zn134  1  0.31666518  0.56779966  0.56076722  1
  Zn  Zn135  1  0.81241264  0.05747000  0.05933815  1
  Zn  Zn136  1  0.81194526  0.06479977  0.56450067  1
  Zn  Zn137  1  0.82008638  0.55856777  0.06472265  1
  Zn  Zn138  1  0.81514537  0.56423014  0.56163573  1
  Zn  Zn139  1  0.43112161  0.43543060  0.17875515  1
  Zn  Zn140  1  0.43843414  0.43720546  0.67962647  1
  Zn  Zn141  1  0.43747078  0.93883953  0.18555558  1
  Zn  Zn142  1  0.43454512  0.93867600  0.68804407  1
  Zn  Zn143  1  0.93902245  0.43715474  0.18648328  1
  Zn  Zn144  1  0.94013484  0.43908018  0.68755168  1
  Zn  Zn145  1  0.93475474  0.93182688  0.19141731  1
  Zn  Zn146  1  0.93743689  0.93999645  0.68999830  1
  Zn  Zn147  1  0.06037080  0.05894035  0.31131682  1
  Zn  Zn148  1  0.06223308  0.06445946  0.81329081  1
  Zn  Zn149  1  0.06739853  0.56057255  0.31050874  1
  Zn  Zn150  1  0.06676832  0.56157050  0.81600469  1
  Zn  Zn151  1  0.56022746  0.06273282  0.31177922  1
  Zn  Zn152  1  0.55632367  0.06804065  0.81652852  1
  Zn  Zn153  1  0.56413926  0.56397001  0.31036307  1
  Zn  Zn154  1  0.56186763  0.56866980  0.81113760  1
  Zn  Zn155  1  0.43607427  0.18692169  0.43154397  1
  Zn  Zn156  1  0.41475259  0.22790421  0.92098837  1
  Zn  Zn157  1  0.43874576  0.69020627  0.43885057  1
  Zn  Zn158  1  0.43178951  0.68711828  0.93810983  1
  Zn  Zn159  1  0.93739968  0.18638692  0.43565168  1
  Zn  Zn160  1  0.94346048  0.18123069  0.94202883  1
  Zn  Zn161  1  0.93664345  0.68721687  0.43355525  1
  Zn  Zn162  1  0.94205447  0.68898555  0.94025841  1
  Zn  Zn163  1  0.06167335  0.30572044  0.05834855  1
  Zn  Zn164  1  0.06408865  0.31320019  0.56099236  1
  Zn  Zn165  1  0.06429103  0.80902685  0.06492833  1
  Zn  Zn166  1  0.06363267  0.81401896  0.56396786  1
  Zn  Zn167  1  0.55766037  0.31196623  0.06110366  1
  Zn  Zn168  1  0.56321636  0.31791510  0.56083044  1
  Zn  Zn169  1  0.56504299  0.81084337  0.06593960  1
  Zn  Zn170  1  0.56028178  0.81846349  0.56811667  1
  O  O171  1  0.12502156  0.11185227  0.11566807  1
  O  O172  1  0.11791856  0.11801063  0.61549738  1
  O  O173  1  0.10947013  0.62795996  0.12129439  1
  O  O174  1  0.12128292  0.62776456  0.61299570  1
  O  O175  1  0.62271311  0.12413922  0.11836663  1
  O  O176  1  0.62019068  0.12158216  0.61925535  1
  O  O177  1  0.61743785  0.61958820  0.11879732  1
  O  O178  1  0.61411479  0.61759240  0.63067350  1
  O  O179  1  0.37563379  0.36954434  0.38569727  1
  O  O180  1  0.39190555  0.33563069  0.88420195  1
  O  O181  1  0.38459924  0.88695954  0.37057254  1
  O  O182  1  0.36921929  0.87478825  0.89256820  1
  O  O183  1  0.88508257  0.38786221  0.37350960  1
  O  O184  1  0.88255204  0.37658853  0.87964232  1
  O  O185  1  0.86932506  0.88827709  0.38536901  1
  O  O186  1  0.88145782  0.88104961  0.88169904  1
  O  O187  1  0.25902818  0.00099679  0.37582356  1
  O  O188  1  0.25264432  -0.00693377  0.85781514  1
  O  O189  1  0.24514607  0.50608763  0.35686994  1
  O  O190  1  0.24425924  0.50933732  0.88297435  1
  O  O191  1  0.75540949  0.00418714  0.37080374  1
  O  O192  1  0.76246613  0.00957830  0.87950240  1
  O  O193  1  0.75815413  0.50644719  0.37114629  1
  O  O194  1  0.75706635  0.50667920  0.86944747  1
  O  O195  1  0.24545467  0.50601524  0.14023244  1
  O  O196  1  0.25018356  0.48773339  0.61434441  1
  O  O197  1  0.23806748  0.98768157  0.12738243  1
  O  O198  1  0.24305924  0.99164876  0.62727877  1
  O  O199  1  0.74585101  0.49349300  0.13027117  1
  O  O200  1  0.74201896  0.50446054  0.63052427  1
  O  O201  1  0.75051175  0.99093628  0.13517216  1
  O  O202  1  0.73916824  0.99064875  0.61712048  1
  O  O203  1  0.00918926  0.37120206  0.25673572  1
  O  O204  1  0.00041546  0.37818584  0.76633631  1
  O  O205  1  0.01153213  0.86559673  0.24696206  1
  O  O206  1  -0.00508837  0.86305891  0.75864469  1
  O  O207  1  0.50379114  0.36816011  0.24798489  1
  O  O208  1  0.50675895  0.37272803  0.74991454  1
  O  O209  1  0.50152577  0.86694137  0.25646371  1
  O  O210  1  0.49936397  0.86092764  0.74454336  1
  O  O211  1  0.49549229  0.13023952  0.24110997  1
  O  O212  1  0.49135768  0.13434468  0.73841192  1
  O  O213  1  0.49417172  0.62760420  0.24367954  1
  O  O214  1  0.49025723  0.63341222  0.74179336  1
  O  O215  1  0.99172498  0.13483577  0.25832894  1
  O  O216  1  0.99167469  0.11937081  0.74002073  1
  O  O217  1  1.00110874  0.62947244  0.24144269  1
  O  O218  1  0.99593217  0.63572968  0.74869044  1
  O  O219  1  0.35429214  0.21473860  0.01544737  1
  O  O220  1  0.37106008  0.25580635  0.50534944  1
  O  O221  1  0.36527010  0.75917461  0.00260695  1
  O  O222  1  0.36467244  0.74397270  0.51032315  1
  O  O223  1  0.88065500  0.26104841  0.00099255  1
  O  O224  1  0.87280633  0.25039457  0.50145483  1
  O  O225  1  0.86599303  0.75893553  -0.00441559  1
  O  O226  1  0.87635457  0.76353706  0.49973429  1
  O  O227  1  0.13240776  0.24025767  0.50232937  1
  O  O228  1  0.12696359  0.23857107  0.99165778  1
  O  O229  1  0.12953299  0.74600908  0.49354996  1
  O  O230  1  0.13853302  0.74949321  0.99380522  1
  O  O231  1  0.62321776  0.24609768  0.49050574  1
  O  O232  1  0.62092870  0.24013307  0.99217739  1
  O  O233  1  0.63496947  0.75362376  0.50416554  1
  O  O234  1  0.63356949  0.73865809  1.00272644  1
  O  O235  1  0.50747319  0.24034754  0.13661420  1
  O  O236  1  0.49216824  0.24938364  0.62691295  1
  O  O237  1  0.49899808  0.73906462  0.13146748  1
  O  O238  1  0.49301176  0.74518177  0.63020309  1
  O  O239  1  0.99489534  0.25333495  0.13868157  1
  O  O240  1  1.00058538  0.23661807  0.62074707  1
  O  O241  1  1.00231008  0.73934534  0.13529557  1
  O  O242  1  0.99944595  0.74681530  0.63408862  1
  O  O243  1  -0.00604519  0.26443086  0.36553947  1
  O  O244  1  0.00331745  0.25962279  0.87773898  1
  O  O245  1  0.01331294  0.74509663  0.36792228  1
  O  O246  1  0.00955149  0.75682973  0.87023987  1
  O  O247  1  0.51044489  0.25037620  0.36447898  1
  O  O248  1  0.51834358  0.23997375  0.86269014  1
  O  O249  1  0.49563242  0.76028302  0.36942915  1
  O  O250  1  0.49940798  0.74497786  0.86204833  1
  O  O251  1  0.24062857  0.13316322  0.50052105  1
  O  O252  1  0.21894219  0.09439441  0.98978454  1
  O  O253  1  0.24287809  0.63550677  0.49939145  1
  O  O254  1  0.25292119  0.63319065  0.99270570  1
  O  O255  1  0.74123804  0.12490902  0.49218869  1
  O  O256  1  0.74622007  0.12611060  0.99019921  1
  O  O257  1  0.75615928  0.64129968  0.49547035  1
  O  O258  1  0.74684808  0.62970148  0.99956322  1
  O  O259  1  0.25854228  0.36274467  0.00498269  1
  O  O260  1  0.25467923  0.37094748  0.50308585  1
  O  O261  1  0.25712468  0.87061825  0.00712543  1
  O  O262  1  0.24619059  0.86321232  0.51076240  1
  O  O263  1  0.75940410  0.38114913  0.00833586  1
  O  O264  1  0.75399919  0.37406834  0.50203673  1
  O  O265  1  0.75850518  0.86647972  0.00877496  1
  O  O266  1  0.75507932  0.86498471  0.50621696  1
  O  O267  1  0.12827971  0.48343630  0.25030974  1
  O  O268  1  0.12380728  0.49613241  0.74754351  1
  O  O269  1  0.12482897  0.99248396  0.24258469  1
  O  O270  1  0.13182451  1.00647518  0.73792980  1
  O  O271  1  0.62949344  0.49362147  0.24233497  1
  O  O272  1  0.62773468  0.49638297  0.74304706  1
  O  O273  1  0.63897572  0.99950296  0.25140796  1
  O  O274  1  0.61784418  1.00642967  0.73583710  1
  O  O275  1  0.37221726  0.00449639  0.25814238  1
  O  O276  1  0.36632808  0.01066850  0.74655109  1
  O  O277  1  0.36766801  0.50670566  0.24426442  1
  O  O278  1  0.38139625  0.51486345  0.74437718  1
  O  O279  1  0.86737470  0.00284982  0.25833841  1
  O  O280  1  0.87832894  0.00779741  0.76372124  1
  O  O281  1  0.86961170  0.50175108  0.25651589  1
  O  O282  1  0.87254454  0.50996333  0.75678916  1
  O  O283  1  0.11192349  0.37698768  0.37273925  1
  O  O284  1  0.11706303  0.35955137  0.87740771  1
  O  O285  1  0.12838369  0.86747350  0.36710214  1
  O  O286  1  0.12061894  0.86497505  0.88224761  1
  O  O287  1  0.62124821  0.36864638  0.36714255  1
  O  O288  1  0.62224741  0.37069193  0.86511549  1
  O  O289  1  0.61156049  0.88138244  0.37318366  1
  O  O290  1  0.63106246  0.87206036  0.87278908  1
  O  O291  1  0.38367225  0.11276095  0.13777207  1
  O  O292  1  0.37997651  0.13449019  0.62470943  1
  O  O293  1  0.38393421  0.62825120  0.13280229  1
  O  O294  1  0.37872115  0.63551388  0.63559406  1
  O  O295  1  0.86854320  0.12228665  0.13863833  1
  O  O296  1  0.88326948  0.12149406  0.63505343  1
  O  O297  1  0.89156116  0.62445162  0.12684771  1
  O  O298  1  0.88313583  0.62843366  0.63302562  1
  O  O299  1  0.25115200  0.25706157  0.13265322  1
  O  O300  1  0.25632829  0.25950335  0.61256616  1
  O  O301  1  0.24827941  0.75965061  0.11687696  1
  O  O302  1  0.25520738  0.75606640  0.62113313  1
  O  O303  1  0.75306662  0.26268945  0.13026856  1
  O  O304  1  0.75375240  0.25338019  0.62358648  1
  O  O305  1  0.75022155  0.75470118  0.11844858  1
  O  O306  1  0.75188031  0.75654020  0.61378674  1
  O  O307  1  0.25548877  0.24689549  0.38751098  1
  O  O308  1  0.23894047  0.24934121  0.86775847  1
  O  O309  1  0.24225579  0.74929676  0.38277946  1
  O  O310  1  0.24508337  0.74569674  0.88009087  1
  O  O311  1  0.73737587  0.24477723  0.37151788  1
  O  O312  1  0.73659437  0.24443286  0.87088975  1
  O  O313  1  0.75158797  0.74404925  0.38952234  1
  O  O314  1  0.74986245  0.74223735  0.88676695  1
  O  O315  1  0.01961688  0.11670111  -0.00381112  1
  O  O316  1  0.00428746  0.11421378  0.50592532  1
  O  O317  1  0.00160834  0.61635264  0.00848520  1
  O  O318  1  0.00655800  0.62066977  0.50361658  1
  O  O319  1  0.50871341  0.12620921  0.01405118  1
  O  O320  1  0.50525515  0.11999276  0.50281549  1
  O  O321  1  0.50630398  0.62238295  0.00589162  1
  O  O322  1  0.49330199  0.62010539  0.51313476  1
  O  O323  1  0.49087486  0.38567772  0.49823862  1
  O  O324  1  0.51012640  0.39577349  0.99821862  1
  O  O325  1  0.50110674  0.88483692  0.49428155  1
  O  O326  1  0.48408417  0.87474132  1.01060133  1
  O  O327  1  1.00156736  0.38254021  0.48948326  1
  O  O328  1  0.99424594  0.37905671  0.99267655  1
  O  O329  1  0.99184056  0.88693365  0.50709962  1
  O  O330  1  0.99062275  0.86277932  0.99173384  1
  O  O331  1  0.50634487  0.50160935  0.38821139  1
  O  O332  1  0.50268760  0.50627325  0.88872613  1
  O  O333  1  0.49463997  0.99442839  0.38213267  1
  O  O334  1  0.49171874  1.00380987  0.87794992  1
  O  O335  1  0.99584868  0.49349519  0.37929185  1
  O  O336  1  0.99485747  0.49217783  0.88416980  1
  O  O337  1  0.99015349  1.00222267  0.38541194  1
  O  O338  1  0.99763021  0.98501814  0.87010091  1
  O  O339  1  0.00830748  -0.00122227  0.13352483  1
  O  O340  1  0.00694231  0.00552381  0.61985517  1
  O  O341  1  -0.00256970  0.50942053  0.11734265  1
  O  O342  1  0.00364146  0.50829272  0.61519465  1
  O  O343  1  0.50671457  0.00717140  0.12237563  1
  O  O344  1  0.50303936  0.00472131  0.61722539  1
  O  O345  1  0.50589439  0.50983501  0.11627894  1
  O  O346  1  0.50653281  0.50872987  0.61678265  1
  O  O347  1  0.23601056  0.37978480  0.25123036  1
  O  O348  1  0.25217693  0.37421760  0.73038173  1
  O  O349  1  0.23912813  0.87309143  0.24278603  1
  O  O350  1  0.25637197  0.88224442  0.73678706  1
  O  O351  1  0.74560987  0.38139505  0.24315476  1
  O  O352  1  0.74205324  0.38605225  0.74957253  1
  O  O353  1  0.75091998  0.87931945  0.24596857  1
  O  O354  1  0.74985433  0.86713932  0.73703826  1
  O  O355  1  0.25754763  0.12271658  0.25227935  1
  O  O356  1  0.25792296  0.11469202  0.73502350  1
  O  O357  1  0.25854887  0.62159027  0.25001573  1
  O  O358  1  0.26364136  0.62813583  0.75668394  1
  O  O359  1  0.75651416  0.11705398  0.25634619  1
  O  O360  1  0.75839817  0.12463523  0.76450793  1
  O  O361  1  0.75199440  0.62044728  0.25801268  1
  O  O362  1  0.75699584  0.62406868  0.75484514  1
  O  O363  1  0.37671167  0.11296972  0.36349995  1
  O  O364  1  0.37395310  0.13294841  0.85675947  1
  O  O365  1  0.37610470  0.62811502  0.36236702  1
  O  O366  1  0.36731756  0.62789669  0.86145662  1
  O  O367  1  0.86921956  0.11460230  0.36736519  1
  O  O368  1  0.87248161  0.11873605  0.87225639  1
  O  O369  1  0.86953446  0.61377348  0.37238939  1
  O  O370  1  0.87216966  0.62083729  0.87174202  1
  O  O371  1  0.11839644  0.37553113  0.13297372  1
  O  O372  1  0.13921025  0.37658245  0.62222042  1
  O  O373  1  0.12798712  0.88121103  0.13267538  1
  O  O374  1  0.13342612  0.88452261  0.62341860  1
  O  O375  1  0.63242256  0.37921211  0.12701753  1
  O  O376  1  0.62479961  0.38524613  0.63603640  1
  O  O377  1  0.63921721  0.87538382  0.12854778  1
  O  O378  1  0.63154703  0.88530343  0.63103375  1
  O  O379  1  0.11765854  0.26230600  0.24856737  1
  O  O380  1  0.12725483  0.25464084  0.75978433  1
  O  O381  1  0.11888703  0.75573964  0.25727692  1
  O  O382  1  0.11781650  0.74695597  0.75945042  1
  O  O383  1  0.61855270  0.25539474  0.25593673  1
  O  O384  1  0.62186528  0.26148773  0.75270435  1
  O  O385  1  0.60975022  0.74763856  0.24884786  1
  O  O386  1  0.60760789  0.74838175  0.74964758  1
  O  O387  1  0.38553696  0.23875290  0.25700668  1
  O  O388  1  0.37564188  0.24619889  0.73298993  1
  O  O389  1  0.38559297  0.74216333  0.24783637  1
  O  O390  1  0.38484383  0.74492440  0.74420365  1
  O  O391  1  0.88132146  0.24014782  0.24984729  1
  O  O392  1  0.87423467  0.23590385  0.75109032  1
  O  O393  1  0.89068196  0.75046532  0.26088640  1
  O  O394  1  0.88299705  0.74293629  0.75113677  1
  O  O395  1  0.38452500  0.49347860  0.50341885  1
  O  O396  1  0.38991209  0.50635520  1.00346430  1
  O  O397  1  0.38623292  1.00702144  0.49272428  1
  O  O398  1  0.37133282  0.99000946  0.99858169  1
  O  O399  1  0.88873382  0.50227374  0.49232914  1
  O  O400  1  0.88409057  0.48829119  0.99401574  1
  O  O401  1  0.88064499  0.99382344  0.49554684  1
  O  O402  1  0.87498200  0.98656913  0.99066476  1
  O  O403  1  0.11244493  -0.01153636  0.01622334  1
  O  O404  1  0.11790964  0.00334491  0.50880932  1
  O  O405  1  0.11275994  0.49770205  -0.00415776  1
  O  O406  1  0.11621363  0.50937479  0.49879463  1
  O  O407  1  0.62809824  0.01486514  0.00315318  1
  O  O408  1  0.61396328  0.00623795  0.50839078  1
  O  O409  1  0.62384826  0.51327365  0.00379158  1
  O  O410  1  0.61732759  0.49577628  0.51264490  1
  O  O411  1  0.38343094  0.35641258  0.11399197  1
  O  O412  1  0.36594704  0.36989886  0.61373068  1
  O  O413  1  0.36473825  0.87480451  0.11819660  1
  O  O414  1  0.36849826  0.86354547  0.62576243  1
  O  O415  1  0.86783230  0.37457667  0.11664285  1
  O  O416  1  0.87601268  0.37462742  0.62205594  1
  O  O417  1  0.86462070  0.87778181  0.11799434  1
  O  O418  1  0.86685296  0.87728797  0.61779742  1
  O  O419  1  0.12559467  0.11661439  0.38876435  1
  O  O420  1  0.11941931  0.13933031  0.87884367  1
  O  O421  1  0.12608995  0.63262264  0.38557487  1
  O  O422  1  0.13354059  0.63650880  0.88032122  1
  O  O423  1  0.62814331  0.13207260  0.37919411  1
  O  O424  1  0.63495641  0.13082042  0.88097180  1
  O  O425  1  0.63993789  0.61923497  0.37612015  1
  O  O426  1  0.63252384  0.62971978  0.88323587  1
