# generated using pymatgen
data_V85Zn86O256
_symmetry_space_group_name_H-M   'P 1'
_cell_length_a   16.90718718
_cell_length_b   16.91621904
_cell_length_c   16.91553714
_cell_angle_alpha   89.97238886
_cell_angle_beta   89.97298601
_cell_angle_gamma   90.00874186
_symmetry_Int_Tables_number   1
_chemical_formula_structural   V85Zn86O256
_chemical_formula_sum   'V85 Zn86 O256'
_cell_volume   4837.93857274
_cell_formula_units_Z   1
loop_
 _symmetry_equiv_pos_site_id
 _symmetry_equiv_pos_as_xyz
  1  'x, y, z'
loop_
 _atom_site_type_symbol
 _atom_site_label
 _atom_site_symmetry_multiplicity
 _atom_site_fract_x
 _atom_site_fract_y
 _atom_site_fract_z
 _atom_site_occupancy
  V  V0  1  -0.00511609  0.00811311  0.50352457  1
  V  V1  1  0.50323703  0.49756718  0.50098287  1
  V  V2  1  -0.00382328  0.87441208  0.88514181  1
  V  V3  1  0.00014009  0.37655310  0.87218785  1
  V  V4  1  0.87182594  0.62446223  0.75391236  1
  V  V5  1  0.37530385  0.87442993  0.50119874  1
  V  V6  1  0.37371703  0.74498633  0.62866931  1
  V  V7  1  0.50554857  0.12592676  0.62891713  1
  V  V8  1  0.49970563  0.25115370  0.24724652  1
  V  V9  1  0.37396015  0.00307811  0.37445636  1
  V  V10  1  0.73883237  0.50230173  0.74744850  1
  V  V11  1  0.62864308  0.87215792  0.74722351  1
  V  V12  1  0.62607479  0.35271951  0.75411932  1
  V  V13  1  -0.00813517  0.49616686  0.50018903  1
  V  V14  1  0.62508591  0.62284371  0.50465460  1
  V  V15  1  0.49572207  0.74681656  0.24487329  1
  V  V16  1  0.37126206  0.49897500  0.37044955  1
  V  V17  1  0.12802854  0.00962776  0.12117101  1
  V  V18  1  0.50398994  0.12497482  0.12133759  1
  V  V19  1  0.12337491  0.87673061  0.75288763  1
  V  V20  1  0.13168135  0.75211450  0.88416881  1
  V  V21  1  0.88116415  0.25186703  0.62089321  1
  V  V22  1  0.55822589  -0.04325291  0.05808169  1
  V  V23  1  -0.00689941  0.74997820  0.24968377  1
  V  V24  1  0.50153088  0.37532757  0.37327967  1
  V  V25  1  0.25389828  0.37413698  0.10883335  1
  V  V26  1  0.49695175  0.61702053  0.62704703  1
  V  V27  1  0.87075038  0.49897811  0.36803583  1
  V  V28  1  0.87316890  -0.00065894  0.88308541  1
  V  V29  1  0.74148405  -0.00258780  0.23181282  1
  V  V30  1  -0.00500075  0.37380054  0.37544417  1
  V  V31  1  0.50600049  0.48773101  -0.00252041  1
  V  V32  1  0.74967592  0.74768528  0.00066590  1
  V  V33  1  0.86027659  0.00451598  0.37492348  1
  V  V34  1  0.62926671  0.24274675  0.37249115  1
  V  V35  1  0.25106357  0.00215837  0.75264607  1
  V  V36  1  0.12250530  0.62457415  0.49947742  1
  V  V37  1  0.74869931  0.37847793  0.61973131  1
  V  V38  1  0.51868060  0.61674510  0.11815684  1
  V  V39  1  0.50388546  0.87825424  0.87583147  1
  V  V40  1  0.12564813  0.12659403  0.49989803  1
  V  V41  1  0.37820002  0.12984336  0.75236810  1
  V  V42  1  0.63132586  0.73132222  0.87557542  1
  V  V43  1  0.88293408  0.12436433  0.74493645  1
  V  V44  1  0.12342910  0.75217230  0.37603490  1
  V  V45  1  -0.00005818  0.25027054  0.24720481  1
  V  V46  1  0.12731292  0.24825295  0.89258803  1
  V  V47  1  0.49734525  0.35959306  0.87112253  1
  V  V48  1  0.75265016  -0.00468262  0.74786618  1
  V  V49  1  0.13563904  0.37648120  0.25199506  1
  V  V50  1  0.74992920  0.39180959  0.12261643  1
  V  V51  1  0.74758877  0.13524881  0.87384068  1
  V  V52  1  0.37321640  0.25382776  0.11027708  1
  V  V53  1  0.38289959  0.24934936  0.62503909  1
  V  V54  1  0.12814299  0.50037665  0.12954025  1
  V  V55  1  0.62977976  0.38930601  0.24557143  1
  V  V56  1  0.25034378  0.86285239  0.12302592  1
  V  V57  1  0.13609285  0.62943834  0.00436462  1
  V  V58  1  -0.00292142  0.87896891  0.37673372  1
  V  V59  1  0.75406345  0.24691109  0.49593918  1
  V  V60  1  0.62900697  -0.00379327  0.62363396  1
  V  V61  1  0.74823528  0.62262709  0.37103426  1
  V  V62  1  0.87043388  0.87721097  0.50413436  1
  V  V63  1  0.24935270  0.87582308  0.62714571  1
  V  V64  1  0.12587578  0.87847630  0.24914221  1
  V  V65  1  0.24868279  0.62122065  0.36964864  1
  V  V66  1  0.37084743  0.86516327  0.00405232  1
  V  V67  1  0.50202692  0.87156433  0.37358407  1
  V  V68  1  0.24833531  0.13029991  0.88968714  1
  V  V69  1  0.37797016  0.00120183  0.88331830  1
  V  V70  1  0.49506317  0.74311462  0.75407567  1
  V  V71  1  0.25388144  0.37345470  0.62437841  1
  V  V72  1  0.11954280  0.00718160  0.62819787  1
  V  V73  1  0.12820620  0.37037250  0.75045273  1
  V  V74  1  0.86788571  0.12657917  0.24976334  1
  V  V75  1  -0.00142296  0.74958669  0.75301826  1
  V  V76  1  0.37124301  0.62402604  0.23821816  1
  V  V77  1  0.86880712  0.50238472  0.87461695  1
  V  V78  1  0.00260827  0.00908723  0.00079234  1
  V  V79  1  0.62257796  0.13182604  -0.00393968  1
  V  V80  1  0.12460748  0.49770006  0.62457813  1
  V  V81  1  0.87080967  0.76355546  0.11896712  1
  V  V82  1  0.74706745  0.75384645  0.50423010  1
  V  V83  1  0.87135559  0.75473244  0.62736131  1
  V  V84  1  0.00072873  0.50412692  -0.00280679  1
  Zn  Zn85  1  0.25960588  0.62613407  0.86951907  1
  Zn  Zn86  1  0.37961614  0.50989430  0.86904745  1
  Zn  Zn87  1  0.00313074  0.24439407  0.74789324  1
  Zn  Zn88  1  0.25390930  0.24696602  0.49841441  1
  Zn  Zn89  1  0.86925369  0.25125214  0.12286517  1
  Zn  Zn90  1  -0.00486060  0.62493670  0.12595993  1
  Zn  Zn91  1  0.87275686  0.37464902  -0.00017503  1
  Zn  Zn92  1  -0.00093128  0.62518872  0.62556359  1
  Zn  Zn93  1  0.12769919  0.24890771  0.37481731  1
  Zn  Zn94  1  0.62510469  0.87514354  0.23303348  1
  Zn  Zn95  1  0.86388933  0.62445566  0.24409951  1
  Zn  Zn96  1  0.37345880  0.12714222  0.24844777  1
  Zn  Zn97  1  0.24745526  0.74998487  0.50060055  1
  Zn  Zn98  1  0.25118128  0.12896346  0.37237536  1
  Zn  Zn99  1  0.74935106  0.25476311  0.00142366  1
  Zn  Zn100  1  0.26434925  0.50926676  0.74875511  1
  Zn  Zn101  1  0.62724490  0.12217020  0.49518603  1
  Zn  Zn102  1  0.50261108  -0.00031074  0.50011935  1
  Zn  Zn103  1  0.25076649  0.00317857  0.24859767  1
  Zn  Zn104  1  0.37649191  0.37259395  0.49851015  1
  Zn  Zn105  1  0.62559140  0.75093941  0.37139361  1
  Zn  Zn106  1  0.00164358  0.13098290  0.12083038  1
  Zn  Zn107  1  0.19076960  0.19037641  0.18850761  1
  Zn  Zn108  1  0.19244559  0.18817648  0.69033885  1
  Zn  Zn109  1  0.18421478  0.68710067  0.19045155  1
  Zn  Zn110  1  0.18525040  0.68891464  0.68856136  1
  Zn  Zn111  1  0.68795764  0.18951149  0.18344733  1
  Zn  Zn112  1  0.69662278  0.18384242  0.68282972  1
  Zn  Zn113  1  0.68774727  0.69359920  0.18658157  1
  Zn  Zn114  1  0.68615492  0.68428343  0.68713435  1
  Zn  Zn115  1  0.31372671  0.31015694  0.31186900  1
  Zn  Zn116  1  0.31189147  0.31231380  0.81413157  1
  Zn  Zn117  1  0.31194286  0.80990431  0.31177581  1
  Zn  Zn118  1  0.31398902  0.81141006  0.81525749  1
  Zn  Zn119  1  0.81046857  0.31535219  0.30889488  1
  Zn  Zn120  1  0.81483198  0.31475558  0.80824907  1
  Zn  Zn121  1  0.80859685  0.81608924  0.31337035  1
  Zn  Zn122  1  0.81072670  0.81360586  0.81958073  1
  Zn  Zn123  1  0.18611043  0.43629452  0.43862256  1
  Zn  Zn124  1  0.18908422  0.44299053  0.93460742  1
  Zn  Zn125  1  0.18790029  0.94038953  0.43995463  1
  Zn  Zn126  1  0.18963812  0.93958168  0.94096734  1
  Zn  Zn127  1  0.68649159  0.43488532  0.43648548  1
  Zn  Zn128  1  0.68175019  0.44217301  0.93571953  1
  Zn  Zn129  1  0.68569378  0.93496418  0.43716621  1
  Zn  Zn130  1  0.69598794  0.93173732  0.93388866  1
  Zn  Zn131  1  0.31707985  0.05885075  0.06682423  1
  Zn  Zn132  1  0.31210277  0.06214115  0.56305053  1
  Zn  Zn133  1  0.31589633  0.55236573  0.05461158  1
  Zn  Zn134  1  0.31197849  0.56014138  0.55976141  1
  Zn  Zn135  1  0.81259839  0.06615185  0.06193393  1
  Zn  Zn136  1  0.80902626  0.06732849  0.56352106  1
  Zn  Zn137  1  0.81174150  0.57096527  0.05975445  1
  Zn  Zn138  1  0.81286760  0.56413482  0.56447545  1
  Zn  Zn139  1  0.43667622  0.43990984  0.18510765  1
  Zn  Zn140  1  0.44057523  0.43356591  0.69471467  1
  Zn  Zn141  1  0.43057460  0.93280101  0.19244800  1
  Zn  Zn142  1  0.43994691  0.93785907  0.69067224  1
  Zn  Zn143  1  0.93761061  0.43763282  0.18757636  1
  Zn  Zn144  1  0.93542127  0.43568528  0.68802191  1
  Zn  Zn145  1  0.93684340  0.94126460  0.18790589  1
  Zn  Zn146  1  0.93794785  0.93575880  0.68974744  1
  Zn  Zn147  1  0.05859037  0.06425009  0.31405154  1
  Zn  Zn148  1  0.06395505  0.06552489  0.81765608  1
  Zn  Zn149  1  0.05941365  0.56171033  0.31119489  1
  Zn  Zn150  1  0.08568862  0.57199792  0.80348085  1
  Zn  Zn151  1  0.56077551  0.06095408  0.30808932  1
  Zn  Zn152  1  0.56424695  0.06360964  0.81229862  1
  Zn  Zn153  1  0.55972492  0.56659738  0.31561199  1
  Zn  Zn154  1  0.55322132  0.55530727  0.81155323  1
  Zn  Zn155  1  0.44229058  0.18671629  0.44060323  1
  Zn  Zn156  1  0.44175461  0.18527293  0.93941704  1
  Zn  Zn157  1  0.43513214  0.68740651  0.43666120  1
  Zn  Zn158  1  0.43716154  0.68147871  0.93993490  1
  Zn  Zn159  1  0.93547927  0.18767455  0.43468503  1
  Zn  Zn160  1  0.93424801  0.19107649  0.93603058  1
  Zn  Zn161  1  0.93439768  0.68641951  0.43704912  1
  Zn  Zn162  1  0.93656752  0.68558008  0.94070978  1
  Zn  Zn163  1  0.05967360  0.31794952  0.06431054  1
  Zn  Zn164  1  0.06132498  0.31319671  0.56122980  1
  Zn  Zn165  1  0.05935458  0.81672225  0.06476080  1
  Zn  Zn166  1  0.05885753  0.81603493  0.56451055  1
  Zn  Zn167  1  0.56844811  0.31318961  0.06298108  1
  Zn  Zn168  1  0.56769851  0.31297274  0.56468057  1
  Zn  Zn169  1  0.55544111  0.78871047  0.05615798  1
  Zn  Zn170  1  0.56111753  0.81025181  0.56420451  1
  O  O171  1  0.12345642  0.11294579  0.13057332  1
  O  O172  1  0.12970461  0.11309497  0.62189213  1
  O  O173  1  0.12124160  0.61761481  0.12249510  1
  O  O174  1  0.12061400  0.62099906  0.61287311  1
  O  O175  1  0.61227591  0.12570584  0.11662278  1
  O  O176  1  0.61994858  0.11613652  0.62725039  1
  O  O177  1  0.61666050  0.62081268  0.13053389  1
  O  O178  1  0.61331585  0.62965220  0.61261768  1
  O  O179  1  0.38197237  0.38275070  0.37533409  1
  O  O180  1  0.39477468  0.37159427  0.86478604  1
  O  O181  1  0.38235932  0.87780097  0.38248626  1
  O  O182  1  0.38177435  0.87935388  0.88454315  1
  O  O183  1  0.88589872  0.38280637  0.36952448  1
  O  O184  1  0.88387013  0.38373462  0.87361318  1
  O  O185  1  0.87832011  0.88410074  0.38284285  1
  O  O186  1  0.88526505  0.88737820  0.86645340  1
  O  O187  1  0.26396324  -0.00197012  0.37582404  1
  O  O188  1  0.25761777  0.00585480  0.87071783  1
  O  O189  1  0.25836778  0.50818303  0.38108675  1
  O  O190  1  0.25721845  0.50260240  0.87117880  1
  O  O191  1  0.75842992  0.00132864  0.37545917  1
  O  O192  1  0.75879317  0.00588783  0.86697595  1
  O  O193  1  0.76017570  0.50745788  0.38491685  1
  O  O194  1  0.76291868  0.49366130  0.86599844  1
  O  O195  1  0.24224270  0.48646282  0.12074108  1
  O  O196  1  0.24363721  0.49207524  0.62557316  1
  O  O197  1  0.24236263  0.99054349  0.12573402  1
  O  O198  1  0.24327503  0.99442294  0.63215158  1
  O  O199  1  0.75337621  0.49180970  0.12264144  1
  O  O200  1  0.75751765  0.48936298  0.63293511  1
  O  O201  1  0.75183617  0.99652900  0.13322692  1
  O  O202  1  0.73871514  1.00300982  0.63282189  1
  O  O203  1  0.00688962  0.36835619  0.25559394  1
  O  O204  1  0.00449555  0.37180379  0.76068217  1
  O  O205  1  0.00485667  0.86852159  0.25539021  1
  O  O206  1  0.00538392  0.87119057  0.76127009  1
  O  O207  1  0.51016424  0.37019337  0.24996364  1
  O  O208  1  0.51750855  0.37187768  0.75683250  1
  O  O209  1  0.49832298  0.86465984  0.25610230  1
  O  O210  1  0.50580471  0.86370444  0.75701975  1
  O  O211  1  0.49904404  0.13378807  0.24017860  1
  O  O212  1  0.49280243  0.11890923  0.73935758  1
  O  O213  1  0.49287490  0.62738928  0.24222704  1
  O  O214  1  0.50636506  0.63541404  0.74010544  1
  O  O215  1  0.99359612  0.13549694  0.24838418  1
  O  O216  1  0.98727015  0.12375441  0.75348116  1
  O  O217  1  1.00082651  0.64222605  0.25137802  1
  O  O218  1  0.99576454  0.63374911  0.74827809  1
  O  O219  1  0.37998738  0.25089788  0.01095183  1
  O  O220  1  0.37573259  0.25151563  0.51042500  1
  O  O221  1  0.38640864  0.76758465  -0.00002603  1
  O  O222  1  0.37281078  0.76018758  0.50713783  1
  O  O223  1  0.87078632  0.25633880  0.00304592  1
  O  O224  1  0.86786995  0.24693114  0.50639060  1
  O  O225  1  0.87409602  0.75126973  0.01322338  1
  O  O226  1  0.86914092  0.75386117  0.50886612  1
  O  O227  1  0.12317050  0.23513675  0.50308810  1
  O  O228  1  0.11991426  0.25186069  0.99168995  1
  O  O229  1  0.12168281  0.74327392  0.49452483  1
  O  O230  1  0.11787287  0.74393619  0.99595331  1
  O  O231  1  0.63174648  0.24999385  0.48953365  1
  O  O232  1  0.62819425  0.23585720  1.00013489  1
  O  O233  1  0.63167120  0.74409089  0.49912352  1
  O  O234  1  0.63250167  0.74695994  0.98361033  1
  O  O235  1  0.49582669  0.24598457  0.12919821  1
  O  O236  1  0.49185350  0.24235239  0.62395709  1
  O  O237  1  0.49736206  0.72985683  0.13317063  1
  O  O238  1  0.49201820  0.74208587  0.63283496  1
  O  O239  1  0.99573918  0.25269870  0.13533561  1
  O  O240  1  0.98566271  0.25656421  0.62661189  1
  O  O241  1  0.98911301  0.75220319  0.13282417  1
  O  O242  1  0.99107526  0.75138998  0.63425658  1
  O  O243  1  0.00177630  0.25828957  0.36702201  1
  O  O244  1  0.00803495  0.25849709  0.87265029  1
  O  O245  1  0.00211402  0.75812649  0.37015979  1
  O  O246  1  0.00316884  0.75896111  0.87302642  1
  O  O247  1  0.50510660  0.25734157  0.36733383  1
  O  O248  1  0.50325472  0.26017288  0.87736812  1
  O  O249  1  0.49992373  0.75505232  0.36752334  1
  O  O250  1  0.51020264  0.75812076  0.87019959  1
  O  O251  1  0.23962675  0.12337673  0.49834715  1
  O  O252  1  0.25700479  0.12007249  0.98840183  1
  O  O253  1  0.23831560  0.62595609  0.49093560  1
  O  O254  1  0.23842597  0.62242587  1.00058682  1
  O  O255  1  0.74467724  0.14108415  0.50243527  1
  O  O256  1  0.74296953  0.12478236  0.99034204  1
  O  O257  1  0.74184529  0.62961021  0.49571681  1
  O  O258  1  0.76129477  0.64503446  0.98979018  1
  O  O259  1  0.24518775  0.37308025  0.01059692  1
  O  O260  1  0.25172556  0.37379571  0.51322271  1
  O  O261  1  0.26295567  0.87456875  0.00495331  1
  O  O262  1  0.25661827  0.87319489  0.50841611  1
  O  O263  1  0.74571491  0.37838614  0.01149359  1
  O  O264  1  0.74191682  0.36686949  0.51265761  1
  O  O265  1  0.75752714  0.85014979  -0.02065527  1
  O  O266  1  0.75619802  0.86504887  0.49727871  1
  O  O267  1  0.11756236  0.49285117  0.23754743  1
  O  O268  1  0.11575275  0.48004796  0.73937268  1
  O  O269  1  0.12188954  0.98968331  0.24506712  1
  O  O270  1  0.12761156  0.99689616  0.74513548  1
  O  O271  1  0.62045817  0.48691109  0.25775332  1
  O  O272  1  0.63736530  0.50034879  0.75168070  1
  O  O273  1  0.63693658  0.99793051  0.24901085  1
  O  O274  1  0.63299731  0.99173742  0.74529309  1
  O  O275  1  0.37283388  0.00215958  0.26136590  1
  O  O276  1  0.37146434  0.00639139  0.75969556  1
  O  O277  1  0.38104325  0.50767371  0.26360196  1
  O  O278  1  0.37802617  0.50445546  0.75068598  1
  O  O279  1  0.86505412  0.00509350  0.25641885  1
  O  O280  1  0.86895452  0.00516594  0.75375385  1
  O  O281  1  0.88273063  0.50686988  0.26368685  1
  O  O282  1  0.86979302  0.50759981  0.75528129  1
  O  O283  1  0.11500363  0.37691872  0.36724937  1
  O  O284  1  0.12075074  0.36864187  0.86833627  1
  O  O285  1  0.11944151  0.87386519  0.36934260  1
  O  O286  1  0.11790198  0.87123906  0.87415259  1
  O  O287  1  0.62094370  0.36725282  0.36319287  1
  O  O288  1  0.62142027  0.37442597  0.85978797  1
  O  O289  1  0.60939936  0.87379890  0.37560270  1
  O  O290  1  0.61834747  0.87187474  0.86360329  1
  O  O291  1  0.38588691  0.13359477  0.12391533  1
  O  O292  1  0.38206930  0.12829864  0.63236862  1
  O  O293  1  0.37220249  0.61506836  0.13729607  1
  O  O294  1  0.38034395  0.63753076  0.61633974  1
  O  O295  1  0.87918416  0.12551634  0.13733766  1
  O  O296  1  0.86861622  0.13532172  0.63463960  1
  O  O297  1  0.87697954  0.63792110  0.12959948  1
  O  O298  1  0.87870193  0.63644918  0.63285977  1
  O  O299  1  0.25854633  0.26408080  0.12898622  1
  O  O300  1  0.26317620  0.25525333  0.62383106  1
  O  O301  1  0.24410094  0.76311850  0.12906332  1
  O  O302  1  0.25657423  0.75513280  0.62618909  1
  O  O303  1  0.75016650  0.26403399  0.12355505  1
  O  O304  1  0.75796939  0.25711687  0.61647432  1
  O  O305  1  0.75844972  0.75177980  0.11557854  1
  O  O306  1  0.75622417  0.74484552  0.61397657  1
  O  O307  1  0.24633744  0.24940642  0.38050680  1
  O  O308  1  0.24093633  0.24253671  0.87263672  1
  O  O309  1  0.24102189  0.74267232  0.37780829  1
  O  O310  1  0.23456023  0.75087993  0.87176423  1
  O  O311  1  0.74144935  0.25866919  0.38233049  1
  O  O312  1  0.75606746  0.23792464  0.87422893  1
  O  O313  1  0.74992375  0.74280870  0.38777672  1
  O  O314  1  0.73514633  0.74444482  0.87001275  1
  O  O315  1  -0.00366095  0.11343841  -0.00068643  1
  O  O316  1  0.00468407  0.11386793  0.49703397  1
  O  O317  1  0.00564244  0.61422077  0.00319407  1
  O  O318  1  0.00925448  0.61837986  0.49769220  1
  O  O319  1  0.50916680  0.11817593  0.00523513  1
  O  O320  1  0.50410772  0.12060738  0.51529016  1
  O  O321  1  0.50388363  0.62536671  0.01578630  1
  O  O322  1  0.50491344  0.62040433  0.50570752  1
  O  O323  1  0.50156253  0.38299632  0.49570344  1
  O  O324  1  0.50949884  0.37887915  0.98779549  1
  O  O325  1  0.49181058  0.87415239  0.49366018  1
  O  O326  1  0.49763859  0.88190447  0.99609222  1
  O  O327  1  1.00559569  0.38448326  0.48864011  1
  O  O328  1  1.00097136  0.38704823  0.98882599  1
  O  O329  1  0.99219371  0.88688683  0.49681613  1
  O  O330  1  1.00048266  0.88592479  0.98989003  1
  O  O331  1  0.49338765  0.49553611  0.38220005  1
  O  O332  1  0.50049041  0.48516502  0.88192291  1
  O  O333  1  0.49060209  0.99160607  0.37578920  1
  O  O334  1  0.49309523  0.98621095  0.86635428  1
  O  O335  1  0.99361077  0.49415713  0.38055472  1
  O  O336  1  0.99613036  0.49439418  0.87911201  1
  O  O337  1  0.98963056  0.99553492  0.38296603  1
  O  O338  1  0.99502331  0.99519762  0.88143387  1
  O  O339  1  0.00738167  0.00034027  0.11670296  1
  O  O340  1  0.00737725  -0.00441849  0.61696069  1
  O  O341  1  0.00792143  0.49846930  0.11541900  1
  O  O342  1  0.00373244  0.49883246  0.61610893  1
  O  O343  1  0.49438181  0.00748061  0.12615466  1
  O  O344  1  0.51239453  0.00468011  0.62689247  1
  O  O345  1  0.49894745  0.50739753  0.11432048  1
  O  O346  1  0.49405152  0.51084012  0.61712504  1
  O  O347  1  0.23761336  0.37368319  0.24730072  1
  O  O348  1  0.24351521  0.37462855  0.73924961  1
  O  O349  1  0.24186068  0.87681633  0.24432845  1
  O  O350  1  0.24417907  0.88153003  0.74748859  1
  O  O351  1  0.73771592  0.37746733  0.24109444  1
  O  O352  1  0.74069044  0.38009441  0.74472703  1
  O  O353  1  0.74436174  0.89148391  0.25463169  1
  O  O354  1  0.74354924  0.88596103  0.75453246  1
  O  O355  1  0.25470867  0.12175329  0.25319668  1
  O  O356  1  0.26006796  0.11841120  0.75719153  1
  O  O357  1  0.25473060  0.62889968  0.26161055  1
  O  O358  1  0.20444778  0.60970069  0.76359205  1
  O  O359  1  0.75512402  0.11192216  0.24496223  1
  O  O360  1  0.75727296  0.11384366  0.75612935  1
  O  O361  1  0.74445437  0.63190334  0.26720448  1
  O  O362  1  0.76040428  0.61590204  0.74228277  1
  O  O363  1  0.37767967  0.11506575  0.37633238  1
  O  O364  1  0.37342673  0.11883421  0.86998836  1
  O  O365  1  0.36616318  0.61901601  0.36978394  1
  O  O366  1  0.37378899  0.63015053  0.86853770  1
  O  O367  1  0.87919471  0.11646166  0.36136840  1
  O  O368  1  0.86835057  0.11710022  0.86650150  1
  O  O369  1  0.86515319  0.61855099  0.37353495  1
  O  O370  1  0.88175659  0.61824481  0.86172422  1
  O  O371  1  0.13423693  0.38051788  0.13073491  1
  O  O372  1  0.13364810  0.37511603  0.62993269  1
  O  O373  1  0.13024435  0.88224882  0.13242741  1
  O  O374  1  0.12888569  0.88576182  0.63031988  1
  O  O375  1  0.63342559  0.37697374  0.13701593  1
  O  O376  1  0.63463055  0.37010435  0.64076757  1
  O  O377  1  0.60515712  0.88002045  0.11400466  1
  O  O378  1  0.61897740  0.87972044  0.63862492  1
  O  O379  1  0.11650953  0.25887743  0.25082114  1
  O  O380  1  0.12298980  0.25939424  0.75107370  1
  O  O381  1  0.11595248  0.76183817  0.25513995  1
  O  O382  1  0.11550275  0.75947929  0.75824055  1
  O  O383  1  0.61601225  0.25630293  0.25416559  1
  O  O384  1  0.63303243  0.25432607  0.75091586  1
  O  O385  1  0.61300514  0.75564516  0.25073278  1
  O  O386  1  0.61970868  0.75468826  0.75611736  1
  O  O387  1  0.38955055  0.25244288  0.24307827  1
  O  O388  1  0.37203322  0.23567282  0.74393182  1
  O  O389  1  0.38538211  0.73873719  0.25566244  1
  O  O390  1  0.38397873  0.75631297  0.74125359  1
  O  O391  1  0.88020409  0.24282834  0.25034902  1
  O  O392  1  0.87561867  0.24047400  0.74184964  1
  O  O393  1  0.87806294  0.75135054  0.24340271  1
  O  O394  1  0.87619522  0.74449265  0.74642572  1
  O  O395  1  0.38597468  0.49995655  0.48990239  1
  O  O396  1  0.39868072  0.50707899  0.99225531  1
  O  O397  1  0.37768738  0.98780025  0.49757123  1
  O  O398  1  0.37498884  0.99173400  0.98743410  1
  O  O399  1  0.88746068  0.50766858  0.49203798  1
  O  O400  1  0.88231095  0.50066385  0.99040845  1
  O  O401  1  0.87768883  1.00016191  0.49617461  1
  O  O402  1  0.88036234  1.00349592  0.98861831  1
  O  O403  1  0.11636421  -0.00397320  0.00961209  1
  O  O404  1  0.11649240  0.00723753  0.50765656  1
  O  O405  1  0.11900181  0.50747402  0.00853260  1
  O  O406  1  0.11592019  0.50683045  0.50400153  1
  O  O407  1  0.62879915  0.00356699  -0.00243927  1
  O  O408  1  0.62433022  0.00051969  0.50942298  1
  O  O409  1  0.60659968  0.50676160  -0.00636036  1
  O  O410  1  0.61197841  0.50721461  0.49518785  1
  O  O411  1  0.36120883  0.37185294  0.12783036  1
  O  O412  1  0.37174833  0.36539523  0.62578160  1
  O  O413  1  0.36668224  0.88069388  0.11233663  1
  O  O414  1  0.37273072  0.86762214  0.61947298  1
  O  O415  1  0.86081602  0.37729564  0.12574826  1
  O  O416  1  0.86165742  0.36482348  0.63282132  1
  O  O417  1  0.87652020  0.86249567  0.12940891  1
  O  O418  1  0.87641776  0.86296515  0.62200652  1
  O  O419  1  0.12615716  0.12385934  0.38620723  1
  O  O420  1  0.13580212  0.13620192  0.87129311  1
  O  O421  1  0.13004421  0.62835441  0.37903671  1
  O  O422  1  0.11685298  0.63876707  0.89207944  1
  O  O423  1  0.61663316  0.13892629  0.37432190  1
  O  O424  1  0.63538786  0.11804718  0.88182369  1
  O  O425  1  0.62905346  0.62781419  0.38754798  1
  O  O426  1  0.61913805  0.63452994  0.86741801  1
