# generated using pymatgen
data_V85Zn86O256
_symmetry_space_group_name_H-M   'P 1'
_cell_length_a   16.96339478
_cell_length_b   16.97066331
_cell_length_c   16.98282094
_cell_angle_alpha   90.08365584
_cell_angle_beta   89.98530071
_cell_angle_gamma   89.99140725
_symmetry_Int_Tables_number   1
_chemical_formula_structural   V85Zn86O256
_chemical_formula_sum   'V85 Zn86 O256'
_cell_volume   4889.01010683
_cell_formula_units_Z   1
loop_
 _symmetry_equiv_pos_site_id
 _symmetry_equiv_pos_as_xyz
  1  'x, y, z'
loop_
 _atom_site_type_symbol
 _atom_site_label
 _atom_site_symmetry_multiplicity
 _atom_site_fract_x
 _atom_site_fract_y
 _atom_site_fract_z
 _atom_site_occupancy
  V  V0  1  0.74282379  0.11831799  0.37545014  1
  V  V1  1  0.12492103  0.24762397  0.87437398  1
  V  V2  1  0.12321229  0.36984039  0.74366085  1
  V  V3  1  0.50203458  0.37596667  0.37491191  1
  V  V4  1  0.37782848  -0.00067811  0.37676227  1
  V  V5  1  0.36412326  0.62817683  0.24913033  1
  V  V6  1  0.38094284  0.87231933  -0.00537571  1
  V  V7  1  0.62822781  0.12438558  -0.01201793  1
  V  V8  1  0.36857552  0.50224855  0.37563491  1
  V  V9  1  0.75273984  0.74891669  0.50190419  1
  V  V10  1  0.75198585  0.88212647  0.13163012  1
  V  V11  1  0.25248470  0.00023423  0.24953283  1
  V  V12  1  0.87791512  0.74873312  0.12924561  1
  V  V13  1  0.24084506  0.74326781  -0.00484643  1
  V  V14  1  0.25090792  0.24944148  0.50498075  1
  V  V15  1  0.50438583  -0.00386985  -0.00221325  1
  V  V16  1  0.37345042  0.25787709  0.12611862  1
  V  V17  1  0.00293363  0.24199997  0.74749252  1
  V  V18  1  0.62175026  0.87729050  0.76256276  1
  V  V19  1  -0.00233356  0.12008947  0.12127244  1
  V  V20  1  0.12462229  0.86922134  0.25640131  1
  V  V21  1  0.74861120  0.38788553  0.13037329  1
  V  V22  1  0.88120394  0.62814335  0.74797372  1
  V  V23  1  0.12605449  0.12280171  0.00161087  1
  V  V24  1  0.25481151  0.12393209  0.87677746  1
  V  V25  1  0.24882370  0.26092983  0.00560701  1
  V  V26  1  0.75133048  0.75418378  0.00300973  1
  V  V27  1  0.50359668  0.12668479  0.12333353  1
  V  V28  1  0.75181111  0.24856903  -0.00300763  1
  V  V29  1  0.24913611  0.50094344  0.74759086  1
  V  V30  1  0.62769065  0.62106671  0.00711384  1
  V  V31  1  0.25084832  0.12628077  0.37352730  1
  V  V32  1  0.00301000  0.74444684  0.25955879  1
  V  V33  1  0.12362046  0.49785582  0.11708823  1
  V  V34  1  0.50972590  0.13623793  0.62000112  1
  V  V35  1  0.10735043  0.50431189  0.61468522  1
  V  V36  1  0.62133790  0.50605991  0.62914557  1
  V  V37  1  0.37330442  0.37412662  0.49960679  1
  V  V38  1  0.12292671  0.24894387  0.37474862  1
  V  V39  1  0.00339998  0.61958946  0.11277510  1
  V  V40  1  0.12133449  -0.00300333  0.12205128  1
  V  V41  1  0.25216484  0.37333235  0.62155357  1
  V  V42  1  0.87046620  0.49699538  0.36950568  1
  V  V43  1  0.87673210  0.37954630  0.50184415  1
  V  V44  1  0.01344524  0.75510764  0.75704139  1
  V  V45  1  0.74938004  0.61939891  0.36739608  1
  V  V46  1  0.63055981  0.62674888  0.50446205  1
  V  V47  1  0.24878110  0.49491210  0.24492904  1
  V  V48  1  0.49922009  0.87662687  0.39048627  1
  V  V49  1  0.50541889  0.49552265  -0.00608628  1
  V  V50  1  0.86852940  0.11542339  0.24996014  1
  V  V51  1  0.75135102  0.62775848  0.87730889  1
  V  V52  1  0.12569141  0.37294309  0.24454603  1
  V  V53  1  0.49745186  0.50137308  0.50443401  1
  V  V54  1  -0.00409211  0.37787654  0.87776542  1
  V  V55  1  0.37956554  0.37461678  -0.00737140  1
  V  V56  1  0.74878952  0.37669422  0.62654705  1
  V  V57  1  0.62725634  0.88362920  0.25223281  1
  V  V58  1  0.87969576  -0.00151571  0.37944154  1
  V  V59  1  0.45317041  0.67984158  0.57970175  1
  V  V60  1  0.37699482  0.13483382  0.74251448  1
  V  V61  1  0.62380217  0.74892444  0.37779658  1
  V  V62  1  0.86825642  0.12298828  0.75956637  1
  V  V63  1  0.75251343  0.50278540  0.75301480  1
  V  V64  1  0.74167097  0.24527823  0.49995615  1
  V  V65  1  0.50322448  0.61689076  0.12709963  1
  V  V66  1  0.88406202  0.74842857  0.62590013  1
  V  V67  1  0.11235518  0.62747253  0.47862412  1
  V  V68  1  0.87208817  0.24912446  0.12771010  1
  V  V69  1  0.62357186  0.26389240  0.87781975  1
  V  V70  1  0.62826520  0.39128106  0.24969600  1
  V  V71  1  0.87367528  0.24823135  0.62439836  1
  V  V72  1  -0.00178511  0.11085037  0.61774171  1
  V  V73  1  0.50524161  0.25290304  0.24952111  1
  V  V74  1  0.50019242  0.75313669  0.24679295  1
  V  V75  1  -0.00010056  0.37848969  0.37840067  1
  V  V76  1  0.37837544  0.62700286  0.75199573  1
  V  V77  1  0.25399924  0.87361291  0.12344043  1
  V  V78  1  0.51063042  0.00989505  0.50159822  1
  V  V79  1  0.88538184  0.87768506  0.50427303  1
  V  V80  1  0.73867898  0.87568461  0.62464873  1
  V  V81  1  0.87511349  -0.00873158  0.88233990  1
  V  V82  1  0.50182260  0.74735550  0.76383022  1
  V  V83  1  0.37909457  0.00327568  0.87476302  1
  V  V84  1  0.49909329  0.26034997  0.75388105  1
  Zn  Zn85  1  0.74552168  0.00350058  0.75295417  1
  Zn  Zn86  1  0.23951878  0.73860848  0.48337087  1
  Zn  Zn87  1  0.37755288  0.74780492  0.11974371  1
  Zn  Zn88  1  0.88441839  0.50842253  0.88160230  1
  Zn  Zn89  1  0.63065719  0.00406487  0.12702525  1
  Zn  Zn90  1  0.11232200  0.11558654  0.49407748  1
  Zn  Zn91  1  0.62281491  0.75486177  0.88312475  1
  Zn  Zn92  1  0.23891900  0.63570465  0.86796275  1
  Zn  Zn93  1  -0.00330872  0.24795198  0.25103517  1
  Zn  Zn94  1  0.88575846  0.88056902  0.00817690  1
  Zn  Zn95  1  0.62444179  0.24833010  0.37791371  1
  Zn  Zn96  1  0.37722116  0.12699923  0.24736586  1
  Zn  Zn97  1  0.13470514  -0.02294084  0.60811528  1
  Zn  Zn98  1  0.62839202  0.00720167  0.62500948  1
  Zn  Zn99  1  0.62111340  0.38345687  0.75710989  1
  Zn  Zn100  1  0.14747017  0.88925101  0.74674553  1
  Zn  Zn101  1  0.87287513  0.61783272  0.24764986  1
  Zn  Zn102  1  0.01624463  0.87383345  0.88729630  1
  Zn  Zn103  1  0.00708907  0.87522945  0.38301459  1
  Zn  Zn104  1  0.37740024  0.49679892  0.87232934  1
  Zn  Zn105  1  0.87885003  0.38021216  0.00433601  1
  Zn  Zn106  1  0.26927021  0.84162782  0.60676302  1
  Zn  Zn107  1  0.18734713  0.18764092  0.18820384  1
  Zn  Zn108  1  0.18567315  0.10298316  0.69208123  1
  Zn  Zn109  1  0.18449215  0.68734975  0.18249445  1
  Zn  Zn110  1  0.18826048  0.68463428  0.67420269  1
  Zn  Zn111  1  0.68789815  0.18953059  0.18818049  1
  Zn  Zn112  1  0.68703265  0.19328332  0.69277630  1
  Zn  Zn113  1  0.68655707  0.69070227  0.18796146  1
  Zn  Zn114  1  0.68815988  0.69194577  0.68991265  1
  Zn  Zn115  1  0.31190679  0.31466607  0.31161405  1
  Zn  Zn116  1  0.30886091  0.31278399  0.81392193  1
  Zn  Zn117  1  0.30729607  0.81742953  0.31821286  1
  Zn  Zn118  1  0.31620445  0.81092686  0.81380902  1
  Zn  Zn119  1  0.81036039  0.30805179  0.31215078  1
  Zn  Zn120  1  0.81100725  0.31051910  0.81257581  1
  Zn  Zn121  1  0.81394108  0.81156020  0.31528326  1
  Zn  Zn122  1  0.81034393  0.81378472  0.81138107  1
  Zn  Zn123  1  0.18593066  0.44345644  0.43524828  1
  Zn  Zn124  1  0.16185621  0.47211638  0.91263837  1
  Zn  Zn125  1  0.19220177  0.93385834  0.44584613  1
  Zn  Zn126  1  0.19379531  0.93621218  0.93834822  1
  Zn  Zn127  1  0.68720057  0.43706459  0.43886915  1
  Zn  Zn128  1  0.69594359  0.44068179  0.94415177  1
  Zn  Zn129  1  0.69172249  0.93758004  0.43869445  1
  Zn  Zn130  1  0.69704720  0.94132725  0.93707729  1
  Zn  Zn131  1  0.31530187  0.06513392  0.06149117  1
  Zn  Zn132  1  0.32114538  0.06493212  0.55493123  1
  Zn  Zn133  1  0.31326620  0.55917306  0.06424124  1
  Zn  Zn134  1  0.29761398  0.57036369  0.56248121  1
  Zn  Zn135  1  0.81027795  0.06315089  0.06001271  1
  Zn  Zn136  1  0.81268941  0.06100265  0.56281158  1
  Zn  Zn137  1  0.81888963  0.56248047  0.06048986  1
  Zn  Zn138  1  0.81680423  0.56206251  0.56322723  1
  Zn  Zn139  1  0.43842958  0.43790233  0.18410615  1
  Zn  Zn140  1  0.43475820  0.43821196  0.68456853  1
  Zn  Zn141  1  0.43932837  0.93874042  0.18691794  1
  Zn  Zn142  1  0.32139172  0.96031749  0.69553466  1
  Zn  Zn143  1  0.93923774  0.43602792  0.18946278  1
  Zn  Zn144  1  0.93391833  0.43300589  0.69435164  1
  Zn  Zn145  1  0.93985162  0.93636349  0.19116115  1
  Zn  Zn146  1  0.93660485  0.93473898  0.69170810  1
  Zn  Zn147  1  0.06069590  0.06037033  0.30866347  1
  Zn  Zn148  1  0.07835272  0.03115706  0.82455632  1
  Zn  Zn149  1  0.05458167  0.55580565  0.30557725  1
  Zn  Zn150  1  0.06491718  0.56505718  0.80187013  1
  Zn  Zn151  1  0.56355744  0.06448989  0.31122581  1
  Zn  Zn152  1  0.55976353  0.06490284  0.80991471  1
  Zn  Zn153  1  0.55620793  0.56503941  0.31713243  1
  Zn  Zn154  1  0.56342386  0.56817309  0.81796917  1
  Zn  Zn155  1  0.43505217  0.18925023  0.43584952  1
  Zn  Zn156  1  0.44185812  0.19139310  0.93786903  1
  Zn  Zn157  1  0.40109130  0.70996991  0.40860288  1
  Zn  Zn158  1  0.43222577  0.68159309  0.93635447  1
  Zn  Zn159  1  0.93051293  0.19125213  0.43705271  1
  Zn  Zn160  1  0.93885676  0.18785766  0.93929769  1
  Zn  Zn161  1  0.94116092  0.68163034  0.44156772  1
  Zn  Zn162  1  0.93796100  0.69394626  0.93676857  1
  Zn  Zn163  1  0.06027268  0.31072291  0.06166720  1
  Zn  Zn164  1  0.06259944  0.30818678  0.56117300  1
  Zn  Zn165  1  0.06230669  0.81079184  0.06649237  1
  Zn  Zn166  1  0.07118036  0.80472956  0.56676471  1
  Zn  Zn167  1  0.56676536  0.31593071  0.06503704  1
  Zn  Zn168  1  0.56300321  0.31767262  0.56631773  1
  Zn  Zn169  1  0.56482337  0.81235656  0.06554218  1
  Zn  Zn170  1  0.47383201  0.86271500  0.62513622  1
  O  O171  1  0.11720567  0.11840578  0.12352728  1
  O  O172  1  0.10142881  0.13558812  0.61724687  1
  O  O173  1  0.11215542  0.61470552  0.12642456  1
  O  O174  1  0.11752372  0.60477650  0.62459613  1
  O  O175  1  0.61598907  0.12609662  0.11876408  1
  O  O176  1  0.61317264  0.12849033  0.63098541  1
  O  O177  1  0.61959057  0.62945686  0.11558078  1
  O  O178  1  0.63568942  0.61482312  0.61867034  1
  O  O179  1  0.38130626  0.38605778  0.37678725  1
  O  O180  1  0.37791631  0.37064280  0.88981502  1
  O  O181  1  0.38895389  0.88879512  0.36615294  1
  O  O182  1  0.37373307  0.88762761  0.88764736  1
  O  O183  1  0.87824496  0.37720757  0.38115816  1
  O  O184  1  0.88899445  0.37001760  0.87278433  1
  O  O185  1  0.87363710  0.88202820  0.38580034  1
  O  O186  1  0.87470879  0.88514052  0.87672101  1
  O  O187  1  0.25997134  0.00794954  0.37004485  1
  O  O188  1  0.26573007  0.01512678  0.88595178  1
  O  O189  1  0.25906189  0.49630272  0.36139017  1
  O  O190  1  0.26016616  0.47607752  0.84969411  1
  O  O191  1  0.76130704  0.00925264  0.37904116  1
  O  O192  1  0.76669650  0.00219305  0.86947758  1
  O  O193  1  0.75629517  0.50791991  0.37949128  1
  O  O194  1  0.74827612  0.50678198  0.86302413  1
  O  O195  1  0.24141084  0.50405070  0.13717857  1
  O  O196  1  0.24305629  0.48964250  0.63158620  1
  O  O197  1  0.24880575  0.99102403  0.12949140  1
  O  O198  1  0.24965158  1.02663429  0.63000575  1
  O  O199  1  0.75623984  0.48586992  0.12760292  1
  O  O200  1  0.74590946  0.49832203  0.63707958  1
  O  O201  1  0.75033915  0.98598765  0.12301650  1
  O  O202  1  0.74676091  0.99153903  0.62770921  1
  O  O203  1  0.00579880  0.36934260  0.25977707  1
  O  O204  1  0.00000819  0.35866427  0.75599661  1
  O  O205  1  0.00958128  0.86408481  0.24880316  1
  O  O206  1  0.00235196  0.85972909  0.75043311  1
  O  O207  1  0.50766419  0.37094109  0.25245357  1
  O  O208  1  0.50158058  0.36463570  0.74392708  1
  O  O209  1  0.50801029  0.86821691  0.25324661  1
  O  O210  1  0.51454679  0.86037276  0.73859713  1
  O  O211  1  0.50143889  0.13485662  0.24148157  1
  O  O212  1  0.49717464  0.13867795  0.74221151  1
  O  O213  1  0.49697104  0.63191327  0.24222509  1
  O  O214  1  0.49331418  0.63239942  0.75250579  1
  O  O215  1  0.99227977  0.12696185  0.23764870  1
  O  O216  1  0.98767178  0.13393419  0.73790811  1
  O  O217  1  0.99498862  0.63124183  0.24141080  1
  O  O218  1  0.98769370  0.63507539  0.75378116  1
  O  O219  1  0.37242472  0.25521135  0.00771353  1
  O  O220  1  0.36346822  0.26313584  0.48812423  1
  O  O221  1  0.37354371  0.75995513  0.00088132  1
  O  O222  1  0.40637378  0.74158305  0.51848735  1
  O  O223  1  0.86678963  0.25136565  0.00790013  1
  O  O224  1  0.86294512  0.26098092  0.50463634  1
  O  O225  1  0.86614872  0.74946442  0.01395447  1
  O  O226  1  0.87112854  0.75301155  0.50856195  1
  O  O227  1  0.13072895  0.24698060  0.48543002  1
  O  O228  1  0.13293604  0.24365334  0.99785978  1
  O  O229  1  0.11641025  0.73255207  0.49039210  1
  O  O230  1  0.14305356  0.75179659  1.00752739  1
  O  O231  1  0.63812134  0.25831171  0.49964798  1
  O  O232  1  0.63033231  0.24533222  0.99533237  1
  O  O233  1  0.63117619  0.73445509  0.49479048  1
  O  O234  1  0.63603300  0.74511027  1.00273385  1
  O  O235  1  0.49634851  0.24539505  0.13051173  1
  O  O236  1  0.50504273  0.24346235  0.63326678  1
  O  O237  1  0.50079203  0.74035183  0.13241621  1
  O  O238  1  0.50642003  0.74546220  0.63813451  1
  O  O239  1  0.98569538  0.24380357  0.12571564  1
  O  O240  1  0.98962791  0.25024631  0.63270614  1
  O  O241  1  0.99441397  0.73856448  0.13319787  1
  O  O242  1  0.98752079  0.75279699  0.63568695  1
  O  O243  1  0.00633179  0.25614034  0.37327556  1
  O  O244  1  0.00620805  0.25163874  0.86719441  1
  O  O245  1  -0.01203508  0.75303794  0.36124143  1
  O  O246  1  0.00064029  0.75333599  0.86121323  1
  O  O247  1  0.50182419  0.25649772  0.36603256  1
  O  O248  1  0.51209392  0.24906439  0.86727449  1
  O  O249  1  0.50165407  0.76041021  0.36818001  1
  O  O250  1  0.50186720  0.74703527  0.86778265  1
  O  O251  1  0.25322581  0.13454828  0.48425109  1
  O  O252  1  0.24875246  0.13559709  0.99410994  1
  O  O253  1  0.22053577  0.61367100  0.49471758  1
  O  O254  1  0.26003826  0.64231569  1.00425339  1
  O  O255  1  0.75702136  0.13446563  0.49063314  1
  O  O256  1  0.73903122  0.13601571  1.00754756  1
  O  O257  1  0.74585129  0.62731168  0.49224665  1
  O  O258  1  0.74416329  0.63304778  1.00069593  1
  O  O259  1  0.26116363  0.36142980  0.00215212  1
  O  O260  1  0.25286740  0.37073833  0.50147327  1
  O  O261  1  0.25964112  0.86832198  0.00694159  1
  O  O262  1  0.25201206  0.85394570  0.48945509  1
  O  O263  1  0.74956925  0.36593790  0.01636933  1
  O  O264  1  0.75521602  0.36971491  0.50764563  1
  O  O265  1  0.75333642  0.86681098  0.01115189  1
  O  O266  1  0.75670079  0.86717394  0.50718641  1
  O  O267  1  0.13055652  0.49087596  0.24323204  1
  O  O268  1  0.13142830  0.48802144  0.73509663  1
  O  O269  1  0.13306995  0.99461564  0.23940380  1
  O  O270  1  0.12433492  1.00951351  0.72531489  1
  O  O271  1  0.61883022  0.49033766  0.25459581  1
  O  O272  1  0.63069799  0.50378674  0.74496317  1
  O  O273  1  0.62109926  0.98691859  0.24763511  1
  O  O274  1  0.62415946  0.99194608  0.74915364  1
  O  O275  1  0.37108131  0.00426055  0.25640232  1
  O  O276  1  0.38659758  0.01937899  0.76921042  1
  O  O277  1  0.36684446  0.50330570  0.25150320  1
  O  O278  1  0.37066044  0.51005830  0.74697101  1
  O  O279  1  0.87481580  0.01000761  0.25508423  1
  O  O280  1  0.87203916  0.01134143  0.75497281  1
  O  O281  1  0.87532582  0.49758019  0.26514161  1
  O  O282  1  0.86777286  0.50970778  0.75269671  1
  O  O283  1  0.11698156  0.36945133  0.36853385  1
  O  O284  1  0.11336228  0.37029785  0.86435220  1
  O  O285  1  0.12434677  0.88225411  0.35850768  1
  O  O286  1  0.12012663  0.91428777  0.85837564  1
  O  O287  1  0.61991834  0.37303070  0.36765151  1
  O  O288  1  0.62963885  0.36736976  0.87857251  1
  O  O289  1  0.61923531  0.86901054  0.37057463  1
  O  O290  1  0.62998702  0.87531319  0.86644426  1
  O  O291  1  0.38839129  0.13532697  0.12457711  1
  O  O292  1  0.38906279  0.12638045  0.63898553  1
  O  O293  1  0.38488225  0.62569296  0.13380771  1
  O  O294  1  0.38464487  0.61780061  0.62782504  1
  O  O295  1  0.87877056  0.12743538  0.13035295  1
  O  O296  1  0.88128926  0.12954144  0.63223249  1
  O  O297  1  0.88379494  0.63030061  0.12863892  1
  O  O298  1  0.86761756  0.63588704  0.63513027  1
  O  O299  1  0.26178269  0.24180549  0.11872107  1
  O  O300  1  0.24493960  0.25616338  0.60570112  1
  O  O301  1  0.25466394  0.76151038  0.11983478  1
  O  O302  1  0.25889417  0.72727121  0.60205583  1
  O  O303  1  0.75971978  0.25315191  0.11913022  1
  O  O304  1  0.75413766  0.25550411  0.61958726  1
  O  O305  1  0.75809149  0.75669515  0.12160783  1
  O  O306  1  0.75745562  0.75715507  0.61987140  1
  O  O307  1  0.24185261  0.24432403  0.37600222  1
  O  O308  1  0.24236418  0.24567037  0.88558043  1
  O  O309  1  0.29274680  0.72811495  0.37933444  1
  O  O310  1  0.25058913  0.75109843  0.88987414  1
  O  O311  1  0.74915744  0.24105161  0.38415093  1
  O  O312  1  0.74360006  0.25538114  0.88956613  1
  O  O313  1  0.74459277  0.74268434  0.38360173  1
  O  O314  1  0.75157454  0.74622457  0.88835892  1
  O  O315  1  0.00675182  0.12978307  0.01400069  1
  O  O316  1  -0.00931664  0.13104509  0.51444512  1
  O  O317  1  -0.00365441  0.63009607  0.01438881  1
  O  O318  1  0.01094613  0.61566719  0.49946052  1
  O  O319  1  0.50885306  0.12109271  0.00747635  1
  O  O320  1  0.49803758  0.12957757  0.51299430  1
  O  O321  1  0.50698570  0.61982761  0.00763871  1
  O  O322  1  0.51024456  0.62039714  0.51130230  1
  O  O323  1  0.49315097  0.38064659  0.49614581  1
  O  O324  1  0.49470735  0.38519316  1.00910583  1
  O  O325  1  0.50311195  0.88897693  0.49181603  1
  O  O326  1  0.49458511  0.88483023  1.00750076  1
  O  O327  1  0.98827423  0.36491822  0.49091356  1
  O  O328  1  0.99871346  0.36504047  0.98147693  1
  O  O329  1  0.98815963  0.86536414  0.50142627  1
  O  O330  1  0.99730532  0.86719514  0.99853858  1
  O  O331  1  0.49491479  0.49254090  0.38528390  1
  O  O332  1  0.49778039  0.50445163  0.88994207  1
  O  O333  1  0.49684712  0.99659939  0.37681835  1
  O  O334  1  0.49550998  1.00932450  0.89105310  1
  O  O335  1  0.99001132  0.48425446  0.37287626  1
  O  O336  1  0.99878085  0.48019251  0.86076279  1
  O  O337  1  0.98492714  0.99628976  0.36798416  1
  O  O338  1  0.97806392  1.00199884  0.86979491  1
  O  O339  1  0.00970990  0.00706413  0.12954238  1
  O  O340  1  -0.00725084  0.01069112  0.62336952  1
  O  O341  1  0.00514974  0.51177404  0.13012588  1
  O  O342  1  0.01025298  0.48654964  0.62914359  1
  O  O343  1  0.50274133  0.00981680  0.11566320  1
  O  O344  1  0.50747980  0.01832476  0.61338982  1
  O  O345  1  0.49801345  0.51199400  0.11677640  1
  O  O346  1  0.51136309  0.49490303  0.61821465  1
  O  O347  1  0.23893527  0.38215625  0.25218621  1
  O  O348  1  0.24475217  0.37200895  0.73605756  1
  O  O349  1  0.24636430  0.87863810  0.24237323  1
  O  O350  1  0.26173462  0.87240321  0.73969820  1
  O  O351  1  0.74263613  0.36889366  0.23915444  1
  O  O352  1  0.74938520  0.38533378  0.74517083  1
  O  O353  1  0.73890318  0.86499078  0.24398309  1
  O  O354  1  0.73899986  0.87466836  0.74269361  1
  O  O355  1  0.25145447  0.12028862  0.25886704  1
  O  O356  1  0.26393862  0.13890875  0.76669064  1
  O  O357  1  0.26111729  0.62022923  0.24278328  1
  O  O358  1  0.25725931  0.61493507  0.74700122  1
  O  O359  1  0.75781702  0.12925163  0.25921603  1
  O  O360  1  0.76485725  0.12608014  0.74514139  1
  O  O361  1  0.75033860  0.63145670  0.26396944  1
  O  O362  1  0.75796311  0.62104354  0.75653697  1
  O  O363  1  0.36768770  0.12197990  0.36744274  1
  O  O364  1  0.37143260  0.12334739  0.87510914  1
  O  O365  1  0.39414441  0.60543846  0.35819679  1
  O  O366  1  0.36495495  0.61767581  0.86527821  1
  O  O367  1  0.86907728  0.11872829  0.36764166  1
  O  O368  1  0.87869256  0.12413196  0.86210564  1
  O  O369  1  0.86642709  0.61394210  0.37625803  1
  O  O370  1  0.86883748  0.62731653  0.86754104  1
  O  O371  1  0.11330124  0.37605120  0.14027567  1
  O  O372  1  0.13378478  0.37619061  0.62508775  1
  O  O373  1  0.13439221  0.88136429  0.13281334  1
  O  O374  1  0.14227969  0.86455853  0.62943462  1
  O  O375  1  0.64023936  0.37326456  0.13409975  1
  O  O376  1  0.63295754  0.39015587  0.62746628  1
  O  O377  1  0.63389938  0.87520616  0.13553616  1
  O  O378  1  0.63657196  0.87613855  0.63015639  1
  O  O379  1  0.12387145  0.25542411  0.25916932  1
  O  O380  1  0.11448207  0.25300598  0.75689766  1
  O  O381  1  0.11644957  0.75694242  0.24465795  1
  O  O382  1  0.11249060  0.74005578  0.74569500  1
  O  O383  1  0.61388872  0.25815991  0.24954170  1
  O  O384  1  0.62064914  0.25686709  0.76201299  1
  O  O385  1  0.61413461  0.75486451  0.25755980  1
  O  O386  1  0.62024575  0.75428495  0.75881062  1
  O  O387  1  0.38673965  0.25304776  0.24321657  1
  O  O388  1  0.38615614  0.24439810  0.76070893  1
  O  O389  1  0.38780431  0.74383273  0.24521024  1
  O  O390  1  0.38510489  0.73596069  0.75421969  1
  O  O391  1  0.87458177  0.23762608  0.24302513  1
  O  O392  1  0.87810402  0.23976375  0.74576453  1
  O  O393  1  0.88043923  0.74790808  0.24007320  1
  O  O394  1  0.87865557  0.74485788  0.74397433  1
  O  O395  1  0.37473062  0.49719154  0.49141913  1
  O  O396  1  0.38216756  0.49017706  1.00015712  1
  O  O397  1  0.39237282  1.01384226  0.48173890  1
  O  O398  1  0.38538036  0.99602992  0.99541489  1
  O  O399  1  0.86883042  0.48528093  0.49265922  1
  O  O400  1  0.86688226  0.49179779  0.99091246  1
  O  O401  1  0.87172947  0.98869834  0.49288863  1
  O  O402  1  0.87088149  0.99973632  0.98725436  1
  O  O403  1  0.13636094  0.00675036  0.01668619  1
  O  O404  1  0.12450038  0.00393716  0.49886035  1
  O  O405  1  0.12963057  0.47659060  0.02075520  1
  O  O406  1  0.12004507  0.49691239  0.51059712  1
  O  O407  1  0.62200450  0.00762582  0.00144068  1
  O  O408  1  0.61450397  0.00270444  0.49611820  1
  O  O409  1  0.61957731  0.50924098  -0.00017431  1
  O  O410  1  0.62095709  0.50992172  0.50669371  1
  O  O411  1  0.37965844  0.36246154  0.11767407  1
  O  O412  1  0.36028266  0.37913376  0.61570289  1
  O  O413  1  0.36927301  0.87608349  0.11535607  1
  O  O414  1  0.37154818  0.89872751  0.61499770  1
  O  O415  1  0.86689501  0.36603839  0.12860600  1
  O  O416  1  0.86816549  0.36986820  0.61955970  1
  O  O417  1  0.86906827  0.86709401  0.12911199  1
  O  O418  1  0.86663888  0.86840056  0.62065606  1
  O  O419  1  0.13009995  0.13223253  0.37238472  1
  O  O420  1  0.13466150  0.12413077  0.88273934  1
  O  O421  1  0.11455696  0.61598932  0.37888458  1
  O  O422  1  0.14175447  0.58118799  0.87967800  1
  O  O423  1  0.63841714  0.12825431  0.36955539  1
  O  O424  1  0.62200478  0.13442398  0.88558961  1
  O  O425  1  0.63037988  0.62761458  0.38313007  1
  O  O426  1  0.63334054  0.62951741  0.89020834  1
