# generated using pymatgen
data_V85Zn86O256
_symmetry_space_group_name_H-M   'P 1'
_cell_length_a   16.95659443
_cell_length_b   16.95287927
_cell_length_c   16.95098245
_cell_angle_alpha   90.01624877
_cell_angle_beta   90.07744596
_cell_angle_gamma   90.10153364
_symmetry_Int_Tables_number   1
_chemical_formula_structural   V85Zn86O256
_chemical_formula_sum   'V85 Zn86 O256'
_cell_volume   4872.76963130
_cell_formula_units_Z   1
loop_
 _symmetry_equiv_pos_site_id
 _symmetry_equiv_pos_as_xyz
  1  'x, y, z'
loop_
 _atom_site_type_symbol
 _atom_site_label
 _atom_site_symmetry_multiplicity
 _atom_site_fract_x
 _atom_site_fract_y
 _atom_site_fract_z
 _atom_site_occupancy
  V  V0  1  0.75323762  0.50181441  0.24864944  1
  V  V1  1  0.62597454  0.50374565  0.12183239  1
  V  V2  1  0.12682631  0.49728396  0.62265835  1
  V  V3  1  0.25143975  0.24978591  -0.00526315  1
  V  V4  1  0.88344482  0.49594582  0.87427230  1
  V  V5  1  0.61758893  0.00330629  0.61749209  1
  V  V6  1  0.50565583  0.50253561  0.49864651  1
  V  V7  1  0.38423143  0.88613762  0.49606126  1
  V  V8  1  0.62678137  0.87632658  0.74858332  1
  V  V9  1  0.25706502  0.62945810  0.37753552  1
  V  V10  1  0.49360046  0.74459046  0.75030342  1
  V  V11  1  0.00525532  0.11869496  0.12589623  1
  V  V12  1  0.50294664  0.88922700  0.37075358  1
  V  V13  1  0.11951230  0.62815186  0.00696288  1
  V  V14  1  0.13164607  0.75253213  0.37834653  1
  V  V15  1  0.11545018  0.37946146  0.75956806  1
  V  V16  1  0.62209186  0.74973482  0.38048804  1
  V  V17  1  0.12385378  -0.00359590  0.62942344  1
  V  V18  1  0.87426051  0.24309443  0.63231498  1
  V  V19  1  0.12922658  0.11988916  -0.00319978  1
  V  V20  1  0.37684739  0.50493528  0.36911674  1
  V  V21  1  0.00377831  0.74871362  0.24474453  1
  V  V22  1  0.75622239  0.25097304  0.49839220  1
  V  V23  1  0.25227308  0.86971620  0.61989582  1
  V  V24  1  0.87172158  0.00173858  0.86740776  1
  V  V25  1  0.74701112  0.75100050  -0.00089896  1
  V  V26  1  0.87500516  0.62513907  0.74912908  1
  V  V27  1  0.75140968  0.12312999  0.37569616  1
  V  V28  1  0.49876111  0.88244884  0.87380588  1
  V  V29  1  0.25563226  0.12608413  0.38006994  1
  V  V30  1  -0.00539943  0.12158848  0.63651741  1
  V  V31  1  0.74461035  -0.00932206  0.24818346  1
  V  V32  1  0.63166843  0.26383877  0.89524635  1
  V  V33  1  0.37772119  0.87939179  -0.00431058  1
  V  V34  1  0.88434869  0.50146923  0.37810015  1
  V  V35  1  0.00236261  -0.00348315  0.00247405  1
  V  V36  1  0.37343859  0.74837025  0.13555538  1
  V  V37  1  0.87575359  0.37054702  -0.00298755  1
  V  V38  1  0.74753130  0.63139605  0.38648397  1
  V  V39  1  0.75373335  0.13702446  0.87673331  1
  V  V40  1  0.25151497  0.50740991  0.24853627  1
  V  V41  1  0.26312886  0.36510760  0.64189510  1
  V  V42  1  0.62853990  0.25210916  0.37356145  1
  V  V43  1  0.74769092  0.49714273  0.74885491  1
  V  V44  1  0.30358488  0.21094284  0.56660155  1
  V  V45  1  0.37412826  0.25582776  0.12479199  1
  V  V46  1  0.00020909  0.75046076  0.74777547  1
  V  V47  1  0.36934205  0.52375919  0.87776405  1
  V  V48  1  0.62800195  0.37724224  0.25034622  1
  V  V49  1  -0.00168018  0.87358042  0.87418304  1
  V  V50  1  0.49699057  0.61781101  0.62841713  1
  V  V51  1  0.00236445  0.87467915  0.37616236  1
  V  V52  1  -0.00161620  0.50188281  0.00921656  1
  V  V53  1  0.74590993  0.62338042  0.87351673  1
  V  V54  1  0.11390587  0.25366288  0.88125773  1
  V  V55  1  0.59881099  0.35316774  0.72259172  1
  V  V56  1  0.50018092  0.25286369  0.25109025  1
  V  V57  1  0.62053939  -0.00995815  0.12004127  1
  V  V58  1  0.12261169  0.12978726  0.50497326  1
  V  V59  1  0.48656777  0.37369845  0.88346202  1
  V  V60  1  0.12645156  0.37613216  0.24994044  1
  V  V61  1  0.50336912  0.12244958  0.12522611  1
  V  V62  1  0.88006418  0.62537276  0.24680213  1
  V  V63  1  0.00251923  0.62243653  0.61880761  1
  V  V64  1  0.36608387  0.38065002  0.49857020  1
  V  V65  1  0.12820398  0.24962228  0.37763486  1
  V  V66  1  0.87616454  0.74864690  0.12227438  1
  V  V67  1  0.37378674  0.74241092  0.61403875  1
  V  V68  1  0.49559215  0.62586313  0.13251995  1
  V  V69  1  0.62861489  0.50452279  0.61907293  1
  V  V70  1  0.00071994  0.24973591  0.25045413  1
  V  V71  1  0.12971581  0.74526722  0.87351553  1
  V  V72  1  0.87524396  -0.00167244  0.37574934  1
  V  V73  1  0.24410955  0.00308272  0.25062171  1
  V  V74  1  0.86996641  0.24739950  0.12236178  1
  V  V75  1  0.25377885  0.51270192  0.75745780  1
  V  V76  1  0.75563078  0.37486131  0.62349323  1
  V  V77  1  0.88936569  0.37684857  0.50020056  1
  V  V78  1  0.37612001  0.12138268  0.25510124  1
  V  V79  1  0.12943651  0.62361416  0.49902649  1
  V  V80  1  0.25032947  0.37769354  0.12031817  1
  V  V81  1  0.24659239  0.88128079  0.12449091  1
  V  V82  1  0.26510649  0.00877580  0.75776779  1
  V  V83  1  0.74891732  0.86833371  0.61468702  1
  V  V84  1  0.25312547  0.74621401  -0.00383899  1
  Zn  Zn85  1  0.48636515  0.50226534  0.00470323  1
  Zn  Zn86  1  0.75096257  0.00248099  0.74782563  1
  Zn  Zn87  1  0.12121606  0.50624811  0.12798383  1
  Zn  Zn88  1  0.62981178  0.12626324  0.00276963  1
  Zn  Zn89  1  -0.00286527  -0.00116450  0.50251150  1
  Zn  Zn90  1  0.74428826  0.87015597  0.12864813  1
  Zn  Zn91  1  0.50789866  0.75414021  0.24959054  1
  Zn  Zn92  1  0.87032320  0.86441635  0.49451960  1
  Zn  Zn93  1  0.13254580  0.87384532  0.75047331  1
  Zn  Zn94  1  0.62244182  0.74838769  0.87268740  1
  Zn  Zn95  1  0.86789756  0.74479330  0.61711058  1
  Zn  Zn96  1  0.46108611  0.03974787  -0.04124515  1
  Zn  Zn97  1  0.87614733  0.12245554  0.24846159  1
  Zn  Zn98  1  -0.00603441  0.25067704  0.75789960  1
  Zn  Zn99  1  0.49970362  0.37830110  0.37514697  1
  Zn  Zn100  1  0.74854359  0.36740145  0.12112696  1
  Zn  Zn101  1  0.47906982  0.12513945  0.62430229  1
  Zn  Zn102  1  0.00657749  0.37948721  0.37837272  1
  Zn  Zn103  1  0.12545992  0.88038036  0.24715360  1
  Zn  Zn104  1  0.61739602  0.12080698  0.49929559  1
  Zn  Zn105  1  0.62091438  0.62463892  -0.00112079  1
  Zn  Zn106  1  0.87222400  0.87621427  0.00027307  1
  Zn  Zn107  1  0.18661106  0.18704429  0.18578471  1
  Zn  Zn108  1  0.17861020  0.18285259  0.70066122  1
  Zn  Zn109  1  0.18993596  0.69042526  0.18765245  1
  Zn  Zn110  1  0.18902078  0.68956751  0.68549714  1
  Zn  Zn111  1  0.68901578  0.18122493  0.19093241  1
  Zn  Zn112  1  0.62337103  0.14999951  0.74082361  1
  Zn  Zn113  1  0.68690692  0.68861347  0.19285823  1
  Zn  Zn114  1  0.68308386  0.68812132  0.68686743  1
  Zn  Zn115  1  0.31031688  0.31331122  0.31207015  1
  Zn  Zn116  1  0.30193611  0.31239028  0.81162949  1
  Zn  Zn117  1  0.31544777  0.81686724  0.31434235  1
  Zn  Zn118  1  0.31548391  0.81334484  0.80823933  1
  Zn  Zn119  1  0.81690624  0.31448234  0.31020257  1
  Zn  Zn120  1  0.81139900  0.31404334  0.81142369  1
  Zn  Zn121  1  0.81249039  0.80985054  0.31346135  1
  Zn  Zn122  1  0.81207078  0.81246672  0.80963020  1
  Zn  Zn123  1  0.19021614  0.43768629  0.44034283  1
  Zn  Zn124  1  0.18710680  0.43999144  0.93872295  1
  Zn  Zn125  1  0.19093126  0.94088327  0.44003170  1
  Zn  Zn126  1  0.18686105  0.93362329  0.93498085  1
  Zn  Zn127  1  0.69426378  0.43858700  0.43745240  1
  Zn  Zn128  1  0.69291292  0.43786870  0.94028725  1
  Zn  Zn129  1  0.68254262  0.93524453  0.43708826  1
  Zn  Zn130  1  0.68381025  0.93949127  0.93755706  1
  Zn  Zn131  1  0.31198146  0.06551230  0.06570630  1
  Zn  Zn132  1  0.30754826  0.04477976  0.56036311  1
  Zn  Zn133  1  0.31029709  0.56717154  0.06015475  1
  Zn  Zn134  1  0.31252687  0.55673413  0.56471735  1
  Zn  Zn135  1  0.81298077  0.06122630  0.05846412  1
  Zn  Zn136  1  0.80729095  0.05771430  0.56155759  1
  Zn  Zn137  1  0.81340988  0.56510291  0.06153417  1
  Zn  Zn138  1  0.81895440  0.56104838  0.56048385  1
  Zn  Zn139  1  0.43813900  0.43865004  0.18922626  1
  Zn  Zn140  1  0.43073883  0.35530942  0.69133817  1
  Zn  Zn141  1  0.43286985  0.93923531  0.18822988  1
  Zn  Zn142  1  0.44145433  0.93202139  0.68335594  1
  Zn  Zn143  1  0.93811749  0.43401526  0.18620006  1
  Zn  Zn144  1  0.93926299  0.44007451  0.68672059  1
  Zn  Zn145  1  0.93470857  0.93482748  0.18886408  1
  Zn  Zn146  1  0.93348724  0.93366524  0.68700107  1
  Zn  Zn147  1  0.06415404  0.06355777  0.31519421  1
  Zn  Zn148  1  0.06655097  0.06116228  0.81608820  1
  Zn  Zn149  1  0.06488220  0.56559054  0.31151579  1
  Zn  Zn150  1  0.06397415  0.56633005  0.81481327  1
  Zn  Zn151  1  0.56710120  0.06297975  0.30803946  1
  Zn  Zn152  1  0.44236098  0.08380379  0.79634004  1
  Zn  Zn153  1  0.56534043  0.56738035  0.31053810  1
  Zn  Zn154  1  0.55944524  0.55004329  0.80662772  1
  Zn  Zn155  1  0.44154834  0.18856170  0.43842967  1
  Zn  Zn156  1  0.43785747  0.20395966  0.93942125  1
  Zn  Zn157  1  0.44227423  0.68821818  0.43988445  1
  Zn  Zn158  1  0.44164555  0.69204346  0.94427534  1
  Zn  Zn159  1  0.94074496  0.18535679  0.44055274  1
  Zn  Zn160  1  0.93503061  0.18267451  0.94007554  1
  Zn  Zn161  1  0.94148149  0.68677752  0.43706084  1
  Zn  Zn162  1  0.93695832  0.68479952  0.93641528  1
  Zn  Zn163  1  0.05908640  0.31505137  0.06330486  1
  Zn  Zn164  1  0.06674694  0.30981985  0.57030394  1
  Zn  Zn165  1  0.06422695  0.81414501  0.06317238  1
  Zn  Zn166  1  0.06206213  0.80939199  0.55881561  1
  Zn  Zn167  1  0.55814433  0.32008786  0.06428846  1
  Zn  Zn168  1  0.54668215  0.29008257  0.54599745  1
  Zn  Zn169  1  0.56118193  0.81041165  0.05945245  1
  Zn  Zn170  1  0.56343058  0.80718329  0.55879266  1
  O  O171  1  0.11212604  0.12972896  0.11525256  1
  O  O172  1  0.11642967  0.11720740  0.62230766  1
  O  O173  1  0.12857386  0.62682804  0.11196996  1
  O  O174  1  0.12357658  0.61967413  0.61710613  1
  O  O175  1  0.61786698  0.11983746  0.12531605  1
  O  O176  1  0.63740797  0.10459049  0.62568867  1
  O  O177  1  0.61890193  0.61808468  0.12642199  1
  O  O178  1  0.62114874  0.61056458  0.62710134  1
  O  O179  1  0.37202102  0.38517133  0.38092225  1
  O  O180  1  0.38624322  0.36575672  0.87369478  1
  O  O181  1  0.38517578  0.87016598  0.38886425  1
  O  O182  1  0.38393849  0.86869937  0.88413687  1
  O  O183  1  0.87887634  0.38327145  0.38215712  1
  O  O184  1  0.87251101  0.38448399  0.88199206  1
  O  O185  1  0.88465723  0.88003691  0.37365175  1
  O  O186  1  0.88108705  0.88126800  0.87674153  1
  O  O187  1  0.24840868  0.01723204  0.37139531  1
  O  O188  1  0.24758197  -0.01122554  0.85448419  1
  O  O189  1  0.25644093  0.50783505  0.36825373  1
  O  O190  1  0.25654775  0.50132288  0.86857912  1
  O  O191  1  0.75348675  0.00387118  0.36966793  1
  O  O192  1  0.75832254  0.00404861  0.87466200  1
  O  O193  1  0.75934461  0.50856782  0.36488367  1
  O  O194  1  0.75933581  0.50619383  0.86984519  1
  O  O195  1  0.25019122  0.49516119  0.13182348  1
  O  O196  1  0.24391200  0.49344330  0.64041855  1
  O  O197  1  0.25429947  0.99304699  0.13609495  1
  O  O198  1  0.24118538  0.99109533  0.63505390  1
  O  O199  1  0.74542977  0.50485915  0.13671503  1
  O  O200  1  0.74778351  0.49636936  0.62679882  1
  O  O201  1  0.74363272  0.99807183  0.13142080  1
  O  O202  1  0.74325254  0.98582159  0.62731149  1
  O  O203  1  0.00772112  0.36643897  0.25212858  1
  O  O204  1  0.01169552  0.37329017  0.74503755  1
  O  O205  1  0.00433098  0.86936243  0.25941824  1
  O  O206  1  0.00142726  0.86169935  0.75137787  1
  O  O207  1  0.50871816  0.37021642  0.25325906  1
  O  O208  1  0.50570935  0.38933151  0.77337297  1
  O  O209  1  0.48778382  0.87413003  0.26779661  1
  O  O210  1  0.50569192  0.86484958  0.75401925  1
  O  O211  1  0.49407781  0.13263872  0.24534771  1
  O  O212  1  0.51183702  0.13698912  0.73071494  1
  O  O213  1  0.50044582  0.62686203  0.23686395  1
  O  O214  1  0.50509785  0.62772525  0.73693483  1
  O  O215  1  1.00116086  0.13011122  0.24290025  1
  O  O216  1  1.00578306  0.12658405  0.73939697  1
  O  O217  1  0.98913834  0.63375213  0.25499466  1
  O  O218  1  0.99758990  0.63458009  0.74443424  1
  O  O219  1  0.36339721  0.25128406  0.01343685  1
  O  O220  1  0.37022799  0.26359980  0.50129539  1
  O  O221  1  0.36742872  0.75896411  0.00757879  1
  O  O222  1  0.37893450  0.75730243  0.51075119  1
  O  O223  1  0.88415711  0.25792380  0.01039611  1
  O  O224  1  0.87366092  0.25740521  0.50507962  1
  O  O225  1  0.86905702  0.74852534  0.00739615  1
  O  O226  1  0.88540974  0.75235724  0.50545159  1
  O  O227  1  0.11631304  0.23725713  0.49365854  1
  O  O228  1  0.12881832  0.24487744  0.99764762  1
  O  O229  1  0.12434083  0.74171345  0.48555580  1
  O  O230  1  0.13016927  0.74639094  0.99389103  1
  O  O231  1  0.63973789  0.26032556  0.48274724  1
  O  O232  1  0.63170824  0.25933468  0.99781059  1
  O  O233  1  0.62303007  0.74675120  0.48262080  1
  O  O234  1  0.63344364  0.74441661  0.99521729  1
  O  O235  1  0.49260419  0.24825934  0.13192649  1
  O  O236  1  0.52547762  0.30235497  0.65582078  1
  O  O237  1  0.49217414  0.74494122  0.12799919  1
  O  O238  1  0.49552674  0.73756775  0.62713988  1
  O  O239  1  0.99489682  0.24304697  0.13531835  1
  O  O240  1  0.99222973  0.23932586  0.62782307  1
  O  O241  1  0.99477724  0.75588321  0.13764707  1
  O  O242  1  1.00635634  0.73772538  0.63241699  1
  O  O243  1  0.00709218  0.24775056  0.36363412  1
  O  O244  1  0.00946250  0.24589036  0.87707983  1
  O  O245  1  0.00874594  0.75637920  0.36430107  1
  O  O246  1  0.00394773  0.75344197  0.86658717  1
  O  O247  1  0.51194899  0.25441261  0.36877078  1
  O  O248  1  0.51491148  0.26830458  0.88336584  1
  O  O249  1  0.50827867  0.75167779  0.37122110  1
  O  O250  1  0.50168982  0.75231551  0.86458433  1
  O  O251  1  0.24788765  0.13340174  0.49991389  1
  O  O252  1  0.23919595  0.13570336  1.01074285  1
  O  O253  1  0.23994283  0.61887451  0.49174816  1
  O  O254  1  0.24163339  0.64093166  1.00106621  1
  O  O255  1  0.74804441  0.13004818  0.48784177  1
  O  O256  1  0.74716489  0.11976798  0.98317727  1
  O  O257  1  0.75591441  0.61917077  0.48422534  1
  O  O258  1  0.74954659  0.63390813  0.99045744  1
  O  O259  1  0.24240296  0.36866958  0.01471597  1
  O  O260  1  0.25932024  0.37790711  0.51164559  1
  O  O261  1  0.25527081  0.86853183  0.00608941  1
  O  O262  1  0.26360416  0.88265152  0.51074131  1
  O  O263  1  0.76974737  0.38336127  0.00665587  1
  O  O264  1  0.76570024  0.37329776  0.50630149  1
  O  O265  1  0.75062176  0.86078278  -0.00147742  1
  O  O266  1  0.74878582  0.87463001  0.51119609  1
  O  O267  1  0.13287288  0.49532428  0.24887744  1
  O  O268  1  0.12892033  0.49728967  0.74710965  1
  O  O269  1  0.13940221  1.00172974  0.25395883  1
  O  O270  1  0.12814673  0.99598693  0.73935702  1
  O  O271  1  0.63423403  0.49775083  0.24313887  1
  O  O272  1  0.63003662  0.48283403  0.73757591  1
  O  O273  1  0.63529185  1.00482210  0.23719289  1
  O  O274  1  0.62647857  0.98167377  0.73437894  1
  O  O275  1  0.36615370  0.01638758  0.24821734  1
  O  O276  1  0.37008324  0.00172718  0.74327831  1
  O  O277  1  0.36780876  0.49719061  0.26175035  1
  O  O278  1  0.35721002  0.49810713  0.76650362  1
  O  O279  1  0.86865777  0.00134990  0.26046196  1
  O  O280  1  0.87465091  -0.00239770  0.76318717  1
  O  O281  1  0.87113961  0.50611482  0.25295064  1
  O  O282  1  0.87080438  0.50502821  0.75668207  1
  O  O283  1  0.12679567  0.36894482  0.37050717  1
  O  O284  1  0.12431528  0.36844049  0.87163878  1
  O  O285  1  0.12296905  0.86887673  0.37373613  1
  O  O286  1  0.11602647  0.86312026  0.87254932  1
  O  O287  1  0.62886772  0.37024455  0.36662851  1
  O  O288  1  0.62300750  0.37184355  0.87750745  1
  O  O289  1  0.61003550  0.86747898  0.37831593  1
  O  O290  1  0.61959079  0.87108145  0.86484968  1
  O  O291  1  0.38214868  0.13532571  0.13401736  1
  O  O292  1  0.36191712  0.13504702  0.61139062  1
  O  O293  1  0.38120708  0.63615082  0.11963115  1
  O  O294  1  0.38348042  0.62909872  0.62033900  1
  O  O295  1  0.88679005  0.12987517  0.12394485  1
  O  O296  1  0.88120861  0.13148899  0.61739461  1
  O  O297  1  0.87211914  0.63740856  0.13363517  1
  O  O298  1  0.88618326  0.62273036  0.63059008  1
  O  O299  1  0.25538558  0.25789327  0.12113469  1
  O  O300  1  0.22116166  0.25656109  0.61583520  1
  O  O301  1  0.25713892  0.75668030  0.11823236  1
  O  O302  1  0.26022598  0.75738880  0.62781382  1
  O  O303  1  0.76634725  0.24600909  0.13423007  1
  O  O304  1  0.76124148  0.26098645  0.61456346  1
  O  O305  1  0.75592426  0.74888785  0.11688125  1
  O  O306  1  0.74789619  0.76338840  0.62857523  1
  O  O307  1  0.24006471  0.23822073  0.36881939  1
  O  O308  1  0.24015062  0.25551584  0.89026881  1
  O  O309  1  0.24372451  0.74162968  0.36702572  1
  O  O310  1  0.24143307  0.75886501  0.88245446  1
  O  O311  1  0.74865360  0.24208440  0.37444266  1
  O  O312  1  0.74841858  0.24613331  0.87924640  1
  O  O313  1  0.74600189  0.73733788  0.37289222  1
  O  O314  1  0.74907453  0.73982741  0.87934964  1
  O  O315  1  0.00705962  0.11593327  0.00685409  1
  O  O316  1  0.00817661  0.11933341  0.51017454  1
  O  O317  1  0.00736091  0.61746841  -0.00205180  1
  O  O318  1  0.01618869  0.62492789  0.50645322  1
  O  O319  1  0.50563771  0.13242234  0.01714758  1
  O  O320  1  0.51411163  0.17112782  0.52439142  1
  O  O321  1  0.50285464  0.62131839  0.01307008  1
  O  O322  1  0.49644918  0.60977035  0.50881004  1
  O  O323  1  0.48647069  0.38448866  0.49563533  1
  O  O324  1  0.50067546  0.38616129  0.98874364  1
  O  O325  1  0.49035802  0.87060065  0.48996810  1
  O  O326  1  0.49090803  0.86781294  0.98752443  1
  O  O327  1  0.99313407  0.36982683  0.49969694  1
  O  O328  1  0.98856800  0.38672763  1.00386392  1
  O  O329  1  1.00403632  0.87854524  0.48565507  1
  O  O330  1  0.99900024  0.88153530  0.99507468  1
  O  O331  1  0.49384594  0.50288896  0.37855478  1
  O  O332  1  0.48090137  0.49771211  0.87791452  1
  O  O333  1  0.50730741  0.98869984  0.37355693  1
  O  O334  1  0.50555179  0.98403418  0.86755851  1
  O  O335  1  0.98836900  0.49964002  0.36826690  1
  O  O336  1  0.98722005  0.50768804  0.88196299  1
  O  O337  1  0.99306830  0.99286909  0.37452610  1
  O  O338  1  0.99473503  0.99413311  0.88046610  1
  O  O339  1  -0.00518003  0.00608330  0.11676550  1
  O  O340  1  0.00500320  0.00254026  0.62477379  1
  O  O341  1  0.00029522  0.50067032  0.11433543  1
  O  O342  1  0.01168758  0.51418312  0.63212697  1
  O  O343  1  0.50717787  0.01050088  0.13365974  1
  O  O344  1  0.51338022  0.00120802  0.62275404  1
  O  O345  1  0.50690188  0.50590296  0.12508649  1
  O  O346  1  0.51150970  0.50444277  0.61545185  1
  O  O347  1  0.24525890  0.38525946  0.24223396  1
  O  O348  1  0.23229755  0.38974357  0.75154244  1
  O  O349  1  0.25267777  0.88663397  0.24486138  1
  O  O350  1  0.25316257  0.88106277  0.73482527  1
  O  O351  1  0.74806600  0.38580776  0.24699196  1
  O  O352  1  0.75806081  0.38221563  0.73369658  1
  O  O353  1  0.75403719  0.88688296  0.25020999  1
  O  O354  1  0.74139072  0.87436481  0.74145974  1
  O  O355  1  0.25624398  0.12237873  0.25690782  1
  O  O356  1  0.24873227  0.10802418  0.74929174  1
  O  O357  1  0.24493388  0.61323351  0.25752974  1
  O  O358  1  0.24259361  0.61127741  0.74976737  1
  O  O359  1  0.75375515  0.11475665  0.26249788  1
  O  O360  1  0.73285815  0.11871137  0.77410195  1
  O  O361  1  0.76342205  0.61951896  0.25760680  1
  O  O362  1  0.75349108  0.61855619  0.75442225  1
  O  O363  1  0.36875980  0.13372995  0.36942459  1
  O  O364  1  0.39769267  0.11229472  0.89302507  1
  O  O365  1  0.36428817  0.62108848  0.38027597  1
  O  O366  1  0.37534142  0.62189384  0.87571824  1
  O  O367  1  0.86925319  0.11672718  0.37488467  1
  O  O368  1  0.86217449  0.12073373  0.87553481  1
  O  O369  1  0.86938063  0.61928007  0.36853231  1
  O  O370  1  0.86435558  0.61865319  0.86847320  1
  O  O371  1  0.13240464  0.37772913  0.13319470  1
  O  O372  1  0.13292277  0.38317674  0.63418666  1
  O  O373  1  0.14191556  0.86935020  0.12818961  1
  O  O374  1  0.13350673  0.87968884  0.62219129  1
  O  O375  1  0.62884178  0.38386977  0.13260732  1
  O  O376  1  0.64333063  0.38539956  0.62100766  1
  O  O377  1  0.62379023  0.88463715  0.12286921  1
  O  O378  1  0.63161485  0.87780047  0.62505053  1
  O  O379  1  0.11899113  0.25451711  0.25512665  1
  O  O380  1  0.12315388  0.25968442  0.76488998  1
  O  O381  1  0.11870694  0.75028535  0.25881483  1
  O  O382  1  0.11935861  0.75041834  0.75696733  1
  O  O383  1  0.62460284  0.25521077  0.25812299  1
  O  O384  1  0.63730012  0.26901819  0.76556036  1
  O  O385  1  0.62521995  0.74689766  0.26723767  1
  O  O386  1  0.61257217  0.75830075  0.74722642  1
  O  O387  1  0.37794021  0.24236900  0.24518933  1
  O  O388  1  0.33448364  0.29331951  0.70268608  1
  O  O389  1  0.37368460  0.75260053  0.23756360  1
  O  O390  1  0.38839507  0.75464961  0.73557047  1
  O  O391  1  0.88603140  0.24689563  0.24460990  1
  O  O392  1  0.87602199  0.25383992  0.73617091  1
  O  O393  1  0.88207402  0.74346641  0.24460105  1
  O  O394  1  0.88343881  0.74260155  0.74439561  1
  O  O395  1  0.37919240  0.49729415  0.48567473  1
  O  O396  1  0.36635576  0.50323625  0.98224135  1
  O  O397  1  0.38327911  0.98586400  0.50099516  1
  O  O398  1  0.37525683  0.98411200  1.01257610  1
  O  O399  1  0.87616311  0.49057250  0.48953642  1
  O  O400  1  0.88215676  0.49817854  0.99394954  1
  O  O401  1  0.87419542  0.99390037  0.48596100  1
  O  O402  1  0.88679183  0.99858395  0.98962283  1
  O  O403  1  0.11457784  0.00635118  -0.00666039  1
  O  O404  1  0.12793335  0.01134901  0.51307062  1
  O  O405  1  0.11657206  0.50994703  0.00013049  1
  O  O406  1  0.13077867  0.50474208  0.51462875  1
  O  O407  1  0.62304447  0.00417484  0.01234771  1
  O  O408  1  0.62656450  0.00221398  0.51190257  1
  O  O409  1  0.62999827  0.50256495  0.01515360  1
  O  O410  1  0.61708650  0.49233135  0.50484607  1
  O  O411  1  0.36645903  0.36472779  0.13393071  1
  O  O412  1  0.36406734  0.40338722  0.61006727  1
  O  O413  1  0.36668507  0.86746078  0.11983338  1
  O  O414  1  0.37320854  0.86752847  0.61279297  1
  O  O415  1  0.87498485  0.36371916  0.11946763  1
  O  O416  1  0.87542862  0.37059961  0.61694183  1
  O  O417  1  0.87076552  0.86136915  0.12340782  1
  O  O418  1  0.85951560  0.87333591  0.62276964  1
  O  O419  1  0.13168705  0.12858366  0.38729046  1
  O  O420  1  0.12242584  0.13383094  0.88943235  1
  O  O421  1  0.13435927  0.63006230  0.38068811  1
  O  O422  1  0.12074274  0.63920171  0.88582054  1
  O  O423  1  0.63210766  0.13388877  0.37709802  1
  O  O424  1  0.63160204  0.15338680  0.88252956  1
  O  O425  1  0.64131943  0.62808364  0.37290939  1
  O  O426  1  0.63619933  0.61862096  0.87206130  1
