# generated using pymatgen
data_V85Zn86O256
_symmetry_space_group_name_H-M   'P 1'
_cell_length_a   16.93369417
_cell_length_b   16.93662173
_cell_length_c   16.92499776
_cell_angle_alpha   89.98317752
_cell_angle_beta   89.91053351
_cell_angle_gamma   90.02505603
_symmetry_Int_Tables_number   1
_chemical_formula_structural   V85Zn86O256
_chemical_formula_sum   'V85 Zn86 O256'
_cell_volume   4854.07552996
_cell_formula_units_Z   1
loop_
 _symmetry_equiv_pos_site_id
 _symmetry_equiv_pos_as_xyz
  1  'x, y, z'
loop_
 _atom_site_type_symbol
 _atom_site_label
 _atom_site_symmetry_multiplicity
 _atom_site_fract_x
 _atom_site_fract_y
 _atom_site_fract_z
 _atom_site_occupancy
  V  V0  1  0.12595963  0.00726991  0.62069531  1
  V  V1  1  0.62638046  0.49518815  0.12309918  1
  V  V2  1  0.37510181  0.37621703  -0.00228582  1
  V  V3  1  0.75394110  0.49140707  0.24469676  1
  V  V4  1  0.00124908  0.37868746  0.87817515  1
  V  V5  1  0.46797569  -0.00319365  0.47319991  1
  V  V6  1  0.37266052  0.38174677  0.49667944  1
  V  V7  1  0.87305592  0.38069020  0.00337893  1
  V  V8  1  0.37055406  0.12715964  0.25636115  1
  V  V9  1  0.37891433  0.12373023  0.74762897  1
  V  V10  1  0.75741992  0.50302834  0.75034183  1
  V  V11  1  0.73510580  0.74755531  0.49971009  1
  V  V12  1  0.87357598  0.62415985  0.25277850  1
  V  V13  1  0.87435401  0.87620405  -0.00262484  1
  V  V14  1  0.25857607  0.75444584  0.49648903  1
  V  V15  1  0.25246223  -0.00209262  0.74891982  1
  V  V16  1  0.37354327  0.63080209  0.74940245  1
  V  V17  1  -0.00231897  0.63002996  0.63725513  1
  V  V18  1  0.75946144  0.37576773  0.61348947  1
  V  V19  1  0.62793179  0.24696360  0.39102613  1
  V  V20  1  0.50319550  0.75704902  0.74844307  1
  V  V21  1  0.12202879  0.37295226  0.25066719  1
  V  V22  1  0.50162988  0.37699936  0.87220890  1
  V  V23  1  0.24769865  0.37457918  0.12462649  1
  V  V24  1  0.37500642  0.24975015  0.62339625  1
  V  V25  1  0.12561901  0.50192444  0.62690209  1
  V  V26  1  0.50409261  0.50428687  0.49846821  1
  V  V27  1  0.50594824  -0.00183715  0.00427197  1
  V  V28  1  0.13503594  0.74974410  0.87255126  1
  V  V29  1  0.25153043  0.50387100  0.75348249  1
  V  V30  1  0.74824145  0.01831795  0.75505355  1
  V  V31  1  0.50114207  0.24860659  0.25072829  1
  V  V32  1  0.87402945  0.86923746  0.50394621  1
  V  V33  1  0.24132196  0.24594102  0.50066978  1
  V  V34  1  0.00001235  0.86881746  0.86896529  1
  V  V35  1  0.26768998  -0.02883292  0.26622328  1
  V  V36  1  0.87395791  0.74811626  0.12334407  1
  V  V37  1  0.74537992  0.87590418  0.63818324  1
  V  V38  1  0.12527003  0.62656968  0.49728862  1
  V  V39  1  0.63099290  0.36691323  0.24489152  1
  V  V40  1  0.87921222  0.74877597  0.63848859  1
  V  V41  1  0.12542148  0.61807573  -0.00801368  1
  V  V42  1  -0.00022312  0.86984355  0.37523990  1
  V  V43  1  0.25042496  0.37609733  0.62598962  1
  V  V44  1  0.63019413  0.37822637  0.74865186  1
  V  V45  1  0.87329376  0.24574016  0.61453232  1
  V  V46  1  0.24905644  0.49968921  0.25690851  1
  V  V47  1  0.88063444  0.50722006  0.87877834  1
  V  V48  1  0.24987186  0.12636378  0.87718745  1
  V  V49  1  -0.00699708  0.24254954  0.75393857  1
  V  V50  1  0.13778916  -0.00369754  0.12664635  1
  V  V51  1  0.11996712  0.86891609  0.24073129  1
  V  V52  1  0.37308360  0.75544081  0.13122644  1
  V  V53  1  0.86353688  0.11992625  0.24924908  1
  V  V54  1  0.11601706  0.49949789  0.12182488  1
  V  V55  1  0.37553969  0.24991147  0.12247636  1
  V  V56  1  0.63122717  0.24200460  0.87143126  1
  V  V57  1  0.74801685  0.12740783  0.39270926  1
  V  V58  1  0.62646228  0.75189772  0.87045014  1
  V  V59  1  0.23723068  0.12454320  0.37345638  1
  V  V60  1  0.37596327  0.50864588  0.87638252  1
  V  V61  1  0.87033489  0.49900331  0.38276054  1
  V  V62  1  0.00149950  -0.00136728  -0.00090233  1
  V  V63  1  0.75263160  0.24543598  -0.00540648  1
  V  V64  1  0.86813953  0.25285195  0.12548112  1
  V  V65  1  -0.00716983  0.37320937  0.38079231  1
  V  V66  1  0.50128081  0.25034909  0.74792782  1
  V  V67  1  0.50851782  0.62891679  0.62068892  1
  V  V68  1  0.75002303  0.88041810  0.13843559  1
  V  V69  1  0.74512675  0.75354210  0.00212698  1
  V  V70  1  0.87552326  0.01246519  0.86866933  1
  V  V71  1  -0.00439590  0.49802920  0.50494229  1
  V  V72  1  0.62355477  0.00636493  0.61798665  1
  V  V73  1  0.75336527  0.62704598  0.87136397  1
  V  V74  1  0.57195825  0.81224428  0.31634587  1
  V  V75  1  0.00265199  0.00506027  0.49936037  1
  V  V76  1  0.00034486  0.12082748  0.12742194  1
  V  V77  1  0.86697552  -0.00413091  0.37177367  1
  V  V78  1  0.50485274  0.87733517  0.87883570  1
  V  V79  1  0.12394978  0.87085736  0.74467264  1
  V  V80  1  0.49593603  0.37481044  0.37500121  1
  V  V81  1  0.36846187  0.87446929  0.00434321  1
  V  V82  1  0.38221101  0.61747520  0.25001421  1
  V  V83  1  -0.00165642  0.24686660  0.25166612  1
  V  V84  1  0.62992274  0.00311915  0.13703794  1
  Zn  Zn85  1  0.11669763  0.24702802  0.38274068  1
  Zn  Zn86  1  0.63138014  0.50545761  0.61937462  1
  Zn  Zn87  1  0.12754932  0.12546634  0.00103727  1
  Zn  Zn88  1  0.63008947  0.12272116  -0.00344541  1
  Zn  Zn89  1  0.12455517  0.74542946  0.37097527  1
  Zn  Zn90  1  0.12534172  0.25138827  0.87551050  1
  Zn  Zn91  1  0.24680482  0.24938292  -0.00113677  1
  Zn  Zn92  1  0.25195552  0.74494234  0.00042271  1
  Zn  Zn93  1  0.50726223  0.12627573  0.61013696  1
  Zn  Zn94  1  -0.00180052  0.74432389  0.24875183  1
  Zn  Zn95  1  0.73363451  0.62165454  0.38844513  1
  Zn  Zn96  1  0.38140518  0.75762627  0.61582342  1
  Zn  Zn97  1  0.25645148  0.61840294  0.37772216  1
  Zn  Zn98  1  0.50105999  0.62499731  0.12120731  1
  Zn  Zn99  1  0.37765185  0.00037046  0.87910514  1
  Zn  Zn100  1  0.62690390  0.62346514  0.00385372  1
  Zn  Zn101  1  0.25867298  0.88059113  0.61421355  1
  Zn  Zn102  1  0.50125918  0.50004198  0.00067685  1
  Zn  Zn103  1  0.50220677  0.12453414  0.12377158  1
  Zn  Zn104  1  0.12491011  0.37398594  0.75227282  1
  Zn  Zn105  1  -0.00376072  0.62037920  0.11826972  1
  Zn  Zn106  1  -0.00183116  0.12386970  0.62661402  1
  Zn  Zn107  1  0.18664993  0.18740609  0.18837943  1
  Zn  Zn108  1  0.18430225  0.18805368  0.69103599  1
  Zn  Zn109  1  0.18954418  0.68477881  0.18305361  1
  Zn  Zn110  1  0.18960843  0.68929527  0.68283973  1
  Zn  Zn111  1  0.68858028  0.18532738  0.18778399  1
  Zn  Zn112  1  0.69088469  0.18948011  0.68255393  1
  Zn  Zn113  1  0.66146120  0.66106591  0.22842359  1
  Zn  Zn114  1  0.68964939  0.68960371  0.68844239  1
  Zn  Zn115  1  0.30977679  0.31053170  0.31398113  1
  Zn  Zn116  1  0.31296009  0.31389470  0.81246669  1
  Zn  Zn117  1  0.30533612  0.79927600  0.30689644  1
  Zn  Zn118  1  0.31647808  0.81679663  0.81233978  1
  Zn  Zn119  1  0.81276316  0.30840820  0.31790268  1
  Zn  Zn120  1  0.81628762  0.31444694  0.81165632  1
  Zn  Zn121  1  0.80777071  0.80801858  0.31534521  1
  Zn  Zn122  1  0.81473594  0.81636737  0.81364172  1
  Zn  Zn123  1  0.18140569  0.43499157  0.43840106  1
  Zn  Zn124  1  0.18948855  0.43894572  0.93664817  1
  Zn  Zn125  1  0.18450944  0.93429113  0.43393763  1
  Zn  Zn126  1  0.18759442  0.93937930  0.93541000  1
  Zn  Zn127  1  0.68337520  0.43530410  0.43406160  1
  Zn  Zn128  1  0.69406289  0.43235021  0.93680055  1
  Zn  Zn129  1  0.68919495  0.93593739  0.44258841  1
  Zn  Zn130  1  0.68814823  0.93838432  0.93617568  1
  Zn  Zn131  1  0.31562509  0.06034100  0.06667620  1
  Zn  Zn132  1  0.31269653  0.06452384  0.55996309  1
  Zn  Zn133  1  0.30700303  0.56409628  0.06559041  1
  Zn  Zn134  1  0.31679642  0.56706245  0.56490567  1
  Zn  Zn135  1  0.81245100  0.06252128  0.05818087  1
  Zn  Zn136  1  0.81656149  0.05892556  0.56699861  1
  Zn  Zn137  1  0.80823864  0.56340796  0.06289777  1
  Zn  Zn138  1  0.81350444  0.56796636  0.56512007  1
  Zn  Zn139  1  0.43874977  0.43718573  0.18807009  1
  Zn  Zn140  1  0.43884898  0.44099207  0.68463177  1
  Zn  Zn141  1  0.43644547  0.94193189  0.28527773  1
  Zn  Zn142  1  0.43942348  0.93586689  0.68446302  1
  Zn  Zn143  1  0.93703000  0.43449923  0.18991159  1
  Zn  Zn144  1  0.93703933  0.43576741  0.69236682  1
  Zn  Zn145  1  0.93636880  0.93631004  0.18787727  1
  Zn  Zn146  1  0.93666683  0.93834216  0.68872636  1
  Zn  Zn147  1  0.06239085  0.05634450  0.31047078  1
  Zn  Zn148  1  0.06423311  0.06033791  0.81111572  1
  Zn  Zn149  1  0.05902328  0.56018921  0.31218626  1
  Zn  Zn150  1  0.06404672  0.56240412  0.81478325  1
  Zn  Zn151  1  0.56565362  0.06833958  0.31421057  1
  Zn  Zn152  1  0.56446747  0.05909558  0.80789883  1
  Zn  Zn153  1  0.56067921  0.55350374  0.31465875  1
  Zn  Zn154  1  0.56488827  0.56631829  0.81090122  1
  Zn  Zn155  1  0.43411931  0.18617714  0.43842409  1
  Zn  Zn156  1  0.43945887  0.18617796  0.93615357  1
  Zn  Zn157  1  0.44282168  0.68578449  0.42861072  1
  Zn  Zn158  1  0.44321944  0.68820535  0.94480695  1
  Zn  Zn159  1  0.93334518  0.18484722  0.43925524  1
  Zn  Zn160  1  0.94074954  0.18831560  0.94109180  1
  Zn  Zn161  1  0.93399312  0.68519101  0.44230198  1
  Zn  Zn162  1  0.94273825  0.68844209  0.93688476  1
  Zn  Zn163  1  0.05999870  0.30921094  0.05967359  1
  Zn  Zn164  1  0.06008602  0.31523011  0.56826471  1
  Zn  Zn165  1  0.06135925  0.80818806  0.05734919  1
  Zn  Zn166  1  0.06535351  0.81267883  0.56282351  1
  Zn  Zn167  1  0.56252841  0.31225725  0.05991064  1
  Zn  Zn168  1  0.56269703  0.31782328  0.56652827  1
  Zn  Zn169  1  0.55341647  0.82169333  0.14735556  1
  Zn  Zn170  1  0.55986296  0.82744636  0.56235154  1
  O  O171  1  0.11671783  0.11475696  0.12815412  1
  O  O172  1  0.12123716  0.11135932  0.62949901  1
  O  O173  1  0.12083387  0.61555935  0.11599557  1
  O  O174  1  0.11903089  0.62129494  0.61506334  1
  O  O175  1  0.62718331  0.11634155  0.11958120  1
  O  O176  1  0.62595305  0.11405739  0.62821723  1
  O  O177  1  0.62500726  0.60914677  0.12910177  1
  O  O178  1  0.61285846  0.62396088  0.63138686  1
  O  O179  1  0.38359889  0.36700693  0.38412015  1
  O  O180  1  0.38093666  0.38566240  0.87689122  1
  O  O181  1  0.33682013  0.90567197  0.32589824  1
  O  O182  1  0.38789033  0.87588785  0.88400124  1
  O  O183  1  0.88460981  0.38226906  0.37370147  1
  O  O184  1  0.88027903  0.38619735  0.88207767  1
  O  O185  1  0.87744185  0.88002030  0.38161733  1
  O  O186  1  0.88441775  0.88106202  0.87865378  1
  O  O187  1  0.23632773  0.01055404  0.36421562  1
  O  O188  1  0.25399670  0.00724520  0.86543267  1
  O  O189  1  0.24320593  0.49641853  0.36130326  1
  O  O190  1  0.26004742  0.49655412  0.86113954  1
  O  O191  1  0.76060908  0.00933234  0.38209610  1
  O  O192  1  0.75864133  -0.00356810  0.86220949  1
  O  O193  1  0.75605062  0.49999711  0.36931169  1
  O  O194  1  0.75702794  0.50795011  0.87004889  1
  O  O195  1  0.23777769  0.49209751  0.13355796  1
  O  O196  1  0.24881873  0.49768594  0.63452534  1
  O  O197  1  0.23972620  1.00131318  0.13570230  1
  O  O198  1  0.24362869  1.00105803  0.63082073  1
  O  O199  1  0.74734432  0.49648305  0.13810791  1
  O  O200  1  0.75305902  0.49316795  0.63227358  1
  O  O201  1  0.74095562  0.99438430  0.11813129  1
  O  O202  1  0.74781446  0.99606569  0.63661062  1
  O  O203  1  0.00180616  0.36682488  0.25986195  1
  O  O204  1  0.00032362  0.36784712  0.76232736  1
  O  O205  1  0.00321329  0.87150072  0.25817026  1
  O  O206  1  0.01210471  0.88095740  0.75640966  1
  O  O207  1  0.50562699  0.36855647  0.25848149  1
  O  O208  1  0.50988300  0.37143326  0.75006455  1
  O  O209  1  0.51248383  0.86933689  0.24984827  1
  O  O210  1  0.49669875  0.86255915  0.76006667  1
  O  O211  1  0.49012915  0.13252441  0.24863894  1
  O  O212  1  0.48827198  0.13070554  0.75318140  1
  O  O213  1  0.48452186  0.60952679  0.24321965  1
  O  O214  1  0.49453696  0.63602233  0.74427822  1
  O  O215  1  0.99112758  0.12772222  0.24577055  1
  O  O216  1  1.00182373  0.13895569  0.75048753  1
  O  O217  1  0.98615143  0.62244608  0.24616966  1
  O  O218  1  1.00677798  0.62257198  0.73615434  1
  O  O219  1  0.37489965  0.25683463  0.00647866  1
  O  O220  1  0.36586289  0.25946879  0.50533746  1
  O  O221  1  0.37178588  0.75679337  0.00412169  1
  O  O222  1  0.36160614  0.74175514  0.49450436  1
  O  O223  1  0.87123199  0.25519378  0.00661575  1
  O  O224  1  0.88277616  0.25535885  0.51596976  1
  O  O225  1  0.86731102  0.75428669  0.00321115  1
  O  O226  1  0.87189966  0.76040710  0.50865391  1
  O  O227  1  0.13701693  0.25675257  0.50343465  1
  O  O228  1  0.12754021  0.24382430  0.99565207  1
  O  O229  1  0.13186658  0.74059000  0.49723017  1
  O  O230  1  0.12987327  0.74295736  0.99085743  1
  O  O231  1  0.61967292  0.25397895  0.49016881  1
  O  O232  1  0.63463841  0.25218948  0.98986422  1
  O  O233  1  0.63710304  0.75857428  0.50766044  1
  O  O234  1  0.64051869  0.74917712  0.98830715  1
  O  O235  1  0.49281739  0.24837663  0.13018412  1
  O  O236  1  0.49589416  0.24606781  0.63005344  1
  O  O237  1  0.48057629  0.74179240  0.11740220  1
  O  O238  1  0.50319098  0.74860052  0.63125884  1
  O  O239  1  0.99068148  0.23679321  0.12813042  1
  O  O240  1  0.99034757  0.25130546  0.63511800  1
  O  O241  1  0.98360859  0.75042624  0.12412473  1
  O  O242  1  0.99225635  0.74213951  0.61942143  1
  O  O243  1  -0.00342684  0.25664084  0.37392395  1
  O  O244  1  -0.00192254  0.25633217  0.86572707  1
  O  O245  1  -0.00370895  0.76016552  0.37558636  1
  O  O246  1  0.01057537  0.76340520  0.87707537  1
  O  O247  1  0.50653120  0.25564812  0.37249371  1
  O  O248  1  0.50732158  0.25808266  0.86740594  1
  O  O249  1  0.50858027  0.75899668  0.37408371  1
  O  O250  1  0.50968146  0.75507731  0.87122319  1
  O  O251  1  0.25450344  0.13547536  0.48855618  1
  O  O252  1  0.25221082  0.12378728  0.99032261  1
  O  O253  1  0.24257275  0.62836544  0.49812782  1
  O  O254  1  0.23202206  0.62447421  1.00072603  1
  O  O255  1  0.75908919  0.12534454  0.49083224  1
  O  O256  1  0.75213845  0.14025887  0.99838123  1
  O  O257  1  0.74738270  0.64084876  0.50511334  1
  O  O258  1  0.74888036  0.63337757  0.98955613  1
  O  O259  1  0.25781716  0.37409682  0.00631856  1
  O  O260  1  0.25605759  0.37165894  0.50452816  1
  O  O261  1  0.26561582  0.87825874  -0.00532818  1
  O  O262  1  0.24464125  0.85791590  0.49506618  1
  O  O263  1  0.76558119  0.36330287  -0.00272485  1
  O  O264  1  0.74649366  0.38173096  0.51548613  1
  O  O265  1  0.75814904  0.86874037  0.00069988  1
  O  O266  1  0.75769929  0.86758491  0.51180274  1
  O  O267  1  0.12843503  0.49338756  0.24297199  1
  O  O268  1  0.13637193  0.50140992  0.74564061  1
  O  O269  1  0.12990205  0.98723735  0.24389688  1
  O  O270  1  0.13313904  0.99214076  0.74291740  1
  O  O271  1  0.63385599  0.48588652  0.24184747  1
  O  O272  1  0.63780003  0.49397632  0.74916872  1
  O  O273  1  0.62682582  1.00800722  0.23582229  1
  O  O274  1  0.64287688  1.00309382  0.74518403  1
  O  O275  1  0.36452755  0.01787123  0.23152569  1
  O  O276  1  0.36901355  0.00846157  0.75113779  1
  O  O277  1  0.36300534  0.50744851  0.24193373  1
  O  O278  1  0.37163484  0.50862426  0.75471364  1
  O  O279  1  0.88051353  0.00736170  0.26144939  1
  O  O280  1  0.86277824  -0.00330529  0.75620713  1
  O  O281  1  0.87009795  0.50087457  0.25932391  1
  O  O282  1  0.86416401  0.49658726  0.76099081  1
  O  O283  1  0.10946042  0.37339622  0.37003396  1
  O  O284  1  0.11524118  0.37594489  0.87447186  1
  O  O285  1  0.11365459  0.87049711  0.36420216  1
  O  O286  1  0.11979560  0.87013773  0.86740990  1
  O  O287  1  0.61858836  0.36504414  0.36611452  1
  O  O288  1  0.62314356  0.37059198  0.86336141  1
  O  O289  1  0.63247654  0.87332852  0.36859835  1
  O  O290  1  0.61376643  0.86673796  0.88042044  1
  O  O291  1  0.37352491  0.13990379  0.13099260  1
  O  O292  1  0.37764266  0.13080462  0.63230467  1
  O  O293  1  0.37559102  0.62773869  0.13315595  1
  O  O294  1  0.38867058  0.63149949  0.63366791  1
  O  O295  1  0.88032406  0.12729041  0.13240969  1
  O  O296  1  0.87708844  0.14062898  0.62346133  1
  O  O297  1  0.87528065  0.63211584  0.12939891  1
  O  O298  1  0.88537876  0.63610798  0.62260356  1
  O  O299  1  0.25728118  0.25711054  0.12444067  1
  O  O300  1  0.25382406  0.25400662  0.61978591  1
  O  O301  1  0.26614321  0.74269054  0.11897138  1
  O  O302  1  0.25205044  0.74925642  0.60642160  1
  O  O303  1  0.76340379  0.24611450  0.11939052  1
  O  O304  1  0.76398974  0.26236101  0.62977140  1
  O  O305  1  0.76120150  0.76109770  0.11453603  1
  O  O306  1  0.75627943  0.75736879  0.62035996  1
  O  O307  1  0.24287459  0.24471036  0.38345964  1
  O  O308  1  0.24894609  0.24109670  0.87438382  1
  O  O309  1  0.24400429  0.74032391  0.38407424  1
  O  O310  1  0.23838190  0.75608331  0.87562289  1
  O  O311  1  0.74443770  0.23710718  0.37733855  1
  O  O312  1  0.74313182  0.25672528  0.88022667  1
  O  O313  1  0.75479322  0.74851958  0.39632497  1
  O  O314  1  0.74721983  0.74517210  0.87718337  1
  O  O315  1  0.00201515  0.11737904  0.01054808  1
  O  O316  1  -0.00470869  0.10866514  0.49960054  1
  O  O317  1  0.01775732  0.62979264  0.00198464  1
  O  O318  1  0.00593491  0.61447385  0.50597969  1
  O  O319  1  0.50039500  0.11238387  0.00026962  1
  O  O320  1  0.48815263  0.10174385  0.49716973  1
  O  O321  1  0.50987560  0.61640395  0.00149698  1
  O  O322  1  0.49325007  0.61584522  0.50613551  1
  O  O323  1  0.49173201  0.37978792  0.49526481  1
  O  O324  1  0.49339371  0.37763779  0.99064721  1
  O  O325  1  0.50146025  0.90572537  0.50328742  1
  O  O326  1  0.49182082  0.88783452  0.99370827  1
  O  O327  1  1.00409960  0.38929350  0.49580689  1
  O  O328  1  0.98803071  0.36763006  0.98674268  1
  O  O329  1  0.99370019  0.88020526  0.49355667  1
  O  O330  1  0.99494776  0.88069518  0.99068994  1
  O  O331  1  0.50132674  0.48358428  0.38212754  1
  O  O332  1  0.49372431  0.49393679  0.87197620  1
  O  O333  1  0.49062350  1.00155025  0.37010947  1
  O  O334  1  0.50068293  0.99234864  0.87915770  1
  O  O335  1  0.99060390  0.49335978  0.38330449  1
  O  O336  1  0.99055678  0.49333250  0.87087959  1
  O  O337  1  0.99160629  0.98893179  0.38069805  1
  O  O338  1  0.99604881  0.99095229  0.87707888  1
  O  O339  1  0.00329777  0.00960475  0.12287353  1
  O  O340  1  0.00584191  0.00008890  0.61729895  1
  O  O341  1  0.01217699  0.49706143  0.12812024  1
  O  O342  1  0.00196555  0.50487251  0.62065129  1
  O  O343  1  0.51921214  0.00256511  0.11651171  1
  O  O344  1  0.51867631  0.00508148  0.63658482  1
  O  O345  1  0.51289769  0.49453111  0.12194317  1
  O  O346  1  0.50351182  0.50941425  0.61704924  1
  O  O347  1  0.24297146  0.37864939  0.24477809  1
  O  O348  1  0.25113210  0.38443849  0.74267163  1
  O  O349  1  0.22785446  0.86878527  0.23850215  1
  O  O350  1  0.24506500  0.88849352  0.75217356  1
  O  O351  1  0.74293349  0.37845307  0.25733684  1
  O  O352  1  0.74588849  0.38345587  0.74450997  1
  O  O353  1  0.76070030  0.87663041  0.23745817  1
  O  O354  1  0.75199781  0.87890104  0.74029019  1
  O  O355  1  0.25450623  0.12549966  0.25883300  1
  O  O356  1  0.25860749  0.11767435  0.75376972  1
  O  O357  1  0.25502462  0.61353818  0.25086345  1
  O  O358  1  0.26448460  0.61985457  0.74270101  1
  O  O359  1  0.76158300  0.12756044  0.25849080  1
  O  O360  1  0.75305998  0.11687857  0.75045654  1
  O  O361  1  0.76574300  0.61035450  0.24821809  1
  O  O362  1  0.74869658  0.61875957  0.76176523  1
  O  O363  1  0.36225317  0.13445109  0.36154727  1
  O  O364  1  0.36597598  0.12473681  0.86627236  1
  O  O365  1  0.37436684  0.62554031  0.35552429  1
  O  O366  1  0.38247592  0.61436890  0.86772427  1
  O  O367  1  0.86627355  0.11827567  0.37000284  1
  O  O368  1  0.88354897  0.11124307  0.87793363  1
  O  O369  1  0.87196560  0.61545990  0.36963256  1
  O  O370  1  0.87089328  0.61579981  0.88060412  1
  O  O371  1  0.12678710  0.37915877  0.12867593  1
  O  O372  1  0.13203609  0.38507384  0.62864293  1
  O  O373  1  0.10971087  0.88510831  0.12992025  1
  O  O374  1  0.13058327  0.88317256  0.63133033  1
  O  O375  1  0.62304345  0.37341754  0.13872809  1
  O  O376  1  0.63771603  0.37673668  0.63528040  1
  O  O377  1  0.63716447  0.89268833  0.11807503  1
  O  O378  1  0.63518444  0.89069719  0.62639509  1
  O  O379  1  0.11506286  0.25663231  0.25061649  1
  O  O380  1  0.11032758  0.25404553  0.75142870  1
  O  O381  1  0.11763622  0.75215901  0.24801445  1
  O  O382  1  0.13307704  0.76268052  0.75359782  1
  O  O383  1  0.62066394  0.25172761  0.25696349  1
  O  O384  1  0.62367265  0.25798702  0.75348685  1
  O  O385  1  0.62106464  0.76612589  0.23473369  1
  O  O386  1  0.61938228  0.74773056  0.76209775  1
  O  O387  1  0.37958917  0.24700644  0.24199514  1
  O  O388  1  0.38005615  0.24422552  0.74349851  1
  O  O389  1  0.37088276  0.73424133  0.23896232  1
  O  O390  1  0.38393227  0.74227957  0.75381313  1
  O  O391  1  0.87899547  0.24247587  0.24360530  1
  O  O392  1  0.88832975  0.25563457  0.74213678  1
  O  O393  1  0.87255306  0.74007981  0.24263292  1
  O  O394  1  0.87440156  0.75442805  0.73811520  1
  O  O395  1  0.38254856  0.48776338  0.50531244  1
  O  O396  1  0.37267249  0.49563834  0.99112372  1
  O  O397  1  0.36902196  0.99436698  0.48818497  1
  O  O398  1  0.38426539  0.99263365  1.00356763  1
  O  O399  1  0.88043235  0.50549108  0.49130658  1
  O  O400  1  0.86947177  0.49232103  0.99335474  1
  O  O401  1  0.88072183  0.98704976  0.49589885  1
  O  O402  1  0.88132076  0.99454141  0.99166145  1
  O  O403  1  0.12012044  0.00079979  0.00903644  1
  O  O404  1  0.11541644  -0.00862396  0.50829245  1
  O  O405  1  0.12691621  0.50889751  0.00496943  1
  O  O406  1  0.11768330  0.50630070  0.50749584  1
  O  O407  1  0.62007515  0.00448107  0.00036618  1
  O  O408  1  0.63383948  0.00340670  0.51777684  1
  O  O409  1  0.63407017  0.49276255  0.01463621  1
  O  O410  1  0.60989766  0.49436448  0.50128049  1
  O  O411  1  0.37082368  0.36620443  0.12058227  1
  O  O412  1  0.37036113  0.36988259  0.61819979  1
  O  O413  1  0.37709466  0.85815198  0.11925620  1
  O  O414  1  0.37015594  0.86918268  0.63063949  1
  O  O415  1  0.88344908  0.36420418  0.11673876  1
  O  O416  1  0.86487112  0.36974908  0.62793658  1
  O  O417  1  0.87008697  0.87135347  0.11698049  1
  O  O418  1  0.86931814  0.87035601  0.61961375  1
  O  O419  1  0.13178252  0.12923738  0.36931441  1
  O  O420  1  0.13922331  0.12332783  0.87363906  1
  O  O421  1  0.12190941  0.62199680  0.38747744  1
  O  O422  1  0.12246635  0.63337246  0.88276250  1
  O  O423  1  0.64020398  0.13062435  0.37499156  1
  O  O424  1  0.62117923  0.13957729  0.87310730  1
  O  O425  1  0.63346043  0.63192426  0.33852655  1
  O  O426  1  0.63531311  0.63279331  0.87682625  1
