# generated using pymatgen
data_V85Zn86O256
_symmetry_space_group_name_H-M   'P 1'
_cell_length_a   16.93697620
_cell_length_b   16.95777916
_cell_length_c   16.94426647
_cell_angle_alpha   89.96527155
_cell_angle_beta   90.02295191
_cell_angle_gamma   90.08097063
_symmetry_Int_Tables_number   1
_chemical_formula_structural   V85Zn86O256
_chemical_formula_sum   'V85 Zn86 O256'
_cell_volume   4866.61596959
_cell_formula_units_Z   1
loop_
 _symmetry_equiv_pos_site_id
 _symmetry_equiv_pos_as_xyz
  1  'x, y, z'
loop_
 _atom_site_type_symbol
 _atom_site_label
 _atom_site_symmetry_multiplicity
 _atom_site_fract_x
 _atom_site_fract_y
 _atom_site_fract_z
 _atom_site_occupancy
  V  V0  1  0.49853335  0.25655292  0.25823072  1
  V  V1  1  0.86923934  0.37012279  0.49529928  1
  V  V2  1  0.24488986  0.24005472  0.00450509  1
  V  V3  1  0.24661005  0.75036391  -0.00168801  1
  V  V4  1  0.62081047  0.37659959  0.74657566  1
  V  V5  1  0.11085334  0.75075876  0.86360938  1
  V  V6  1  0.76279618  0.12961990  0.37796583  1
  V  V7  1  0.63466060  0.13090347  0.00121098  1
  V  V8  1  0.12326453  0.00468154  0.11749883  1
  V  V9  1  0.74675900  0.36657396  0.11585580  1
  V  V10  1  0.62677244  0.74898872  0.37629713  1
  V  V11  1  0.24838850  0.62538058  0.87536305  1
  V  V12  1  0.75696717  0.62871790  0.87320165  1
  V  V13  1  0.37138142  0.62650953  0.25605544  1
  V  V14  1  0.12327424  0.87572126  0.24887072  1
  V  V15  1  0.75920271  0.75491118  0.00191519  1
  V  V16  1  0.88294443  0.88897432  -0.01379468  1
  V  V17  1  0.62705646  0.37827782  0.25382673  1
  V  V18  1  0.75238730  0.62363322  0.37686486  1
  V  V19  1  0.00009900  0.37694653  0.87485239  1
  V  V20  1  0.01228126  0.37443553  0.36600829  1
  V  V21  1  0.00317807  0.12519192  0.11966159  1
  V  V22  1  0.12512190  0.24496230  0.87839403  1
  V  V23  1  0.49760915  0.37259758  0.87506729  1
  V  V24  1  0.38632692  0.49988373  0.37688690  1
  V  V25  1  -0.00063752  0.50200694  0.49787275  1
  V  V26  1  0.75845583  0.75382159  0.50381602  1
  V  V27  1  0.62590840  0.61829541  0.50903450  1
  V  V28  1  0.74309677  0.37657808  0.61925726  1
  V  V29  1  0.75962845  0.88215892  0.63034598  1
  V  V30  1  0.11906011  0.62681034  0.00492082  1
  V  V31  1  0.62534138  0.00190390  0.12904815  1
  V  V32  1  0.24737265  0.50040978  0.25900823  1
  V  V33  1  0.37135407  0.24996359  0.12943808  1
  V  V34  1  0.87074629  0.24218435  0.12632979  1
  V  V35  1  0.37714651  0.62862326  0.74912266  1
  V  V36  1  0.62481447  0.62912989  0.00086520  1
  V  V37  1  0.76523469  0.00554287  0.25720080  1
  V  V38  1  0.86626942  0.24878305  0.62342525  1
  V  V39  1  0.50494181  0.61843331  0.62650713  1
  V  V40  1  0.12589326  0.37795571  0.74992327  1
  V  V41  1  0.37104101  0.37462910  0.00216056  1
  V  V42  1  0.49826656  0.12591362  0.12641635  1
  V  V43  1  -0.00708622  0.87708542  0.37320902  1
  V  V44  1  0.76225026  0.87762435  0.12572493  1
  V  V45  1  0.12681431  0.74769929  0.37209909  1
  V  V46  1  0.62071719  0.49797478  0.12376464  1
  V  V47  1  -0.00339268  0.25218615  0.74975132  1
  V  V48  1  0.49722590  0.50144305  0.00150786  1
  V  V49  1  0.87394976  0.49919664  0.36703371  1
  V  V50  1  -0.01464392  0.62848988  0.63017275  1
  V  V51  1  0.25280217  0.37400918  0.61916992  1
  V  V52  1  0.25230942  0.87116391  0.62917761  1
  V  V53  1  0.87100329  0.11813911  0.74880461  1
  V  V54  1  0.01076988  0.24554018  0.25180036  1
  V  V55  1  0.62923891  0.87401231  0.25009606  1
  V  V56  1  0.24420408  0.37450499  0.13229105  1
  V  V57  1  0.61964131  0.75736986  0.87421921  1
  V  V58  1  0.12056695  0.49932011  0.13057465  1
  V  V59  1  0.38081796  0.36554302  0.49325843  1
  V  V60  1  0.50244827  0.87614422  0.37853310  1
  V  V61  1  -0.00393525  0.50307265  0.00503286  1
  V  V62  1  0.38606575  -0.00179793  0.86589128  1
  V  V63  1  0.13006709  -0.00166617  0.61780313  1
  V  V64  1  0.74748915  0.50051568  0.74629585  1
  V  V65  1  0.25005403  0.50041711  0.74905350  1
  V  V66  1  0.12740463  0.62416542  0.49670958  1
  V  V67  1  0.37350850  0.50065732  0.87636670  1
  V  V68  1  0.62796001  0.24922030  0.38016009  1
  V  V69  1  0.49965346  0.12187184  0.63333110  1
  V  V70  1  0.37512142  0.74960481  0.12476393  1
  V  V71  1  -0.01221578  0.73768690  0.23610835  1
  V  V72  1  0.36994067  -0.00033479  0.37625507  1
  V  V73  1  0.49896432  -0.00730799  0.00118359  1
  V  V74  1  0.63725785  0.25280151  0.88297460  1
  V  V75  1  0.87390335  0.49892151  0.87035433  1
  V  V76  1  0.25698744  0.12515774  0.86381735  1
  V  V77  1  0.37405531  0.24313157  0.63227902  1
  V  V78  1  0.62796828  0.00122289  0.62247552  1
  V  V79  1  0.25264569  0.74639338  0.49674279  1
  V  V80  1  0.24845595  0.87611878  0.12019234  1
  V  V81  1  0.76308238  0.52232571  0.22762814  1
  V  V82  1  -0.00368150  0.00298154  0.49539789  1
  V  V83  1  0.62122615  0.87729206  0.74936653  1
  V  V84  1  0.03085560  0.14943223  0.60060937  1
  Zn  Zn85  1  0.25043330  0.00250237  0.24777957  1
  Zn  Zn86  1  0.76578431  0.11432668  0.87823726  1
  Zn  Zn87  1  0.86903667  0.36849589  -0.00237629  1
  Zn  Zn88  1  0.24847418  0.13537756  0.37054944  1
  Zn  Zn89  1  0.16107406  0.19987190  0.45705392  1
  Zn  Zn90  1  0.37746548  0.87211603  0.50109900  1
  Zn  Zn91  1  0.37660024  0.87424755  -0.00512959  1
  Zn  Zn92  1  0.37738465  0.12339845  0.25208790  1
  Zn  Zn93  1  0.50657497  0.49354922  0.50056616  1
  Zn  Zn94  1  0.38051343  0.74932111  0.62102145  1
  Zn  Zn95  1  0.87735054  0.87459242  0.49940007  1
  Zn  Zn96  1  0.50050403  0.62765156  0.12686440  1
  Zn  Zn97  1  0.10843301  0.87700014  0.75044461  1
  Zn  Zn98  1  0.25412390  0.00277820  0.74425935  1
  Zn  Zn99  1  0.50142531  0.00494927  0.49888096  1
  Zn  Zn100  1  0.62940846  0.12893500  0.50108507  1
  Zn  Zn101  1  0.94579172  0.76531734  0.72742496  1
  Zn  Zn102  1  0.12433988  0.50357302  0.62510974  1
  Zn  Zn103  1  0.50191654  0.74855523  0.24831644  1
  Zn  Zn104  1  0.49844550  0.23889946  0.75736733  1
  Zn  Zn105  1  -0.00266157  0.01295687  -0.02533052  1
  Zn  Zn106  1  0.50498136  0.74886863  0.74912412  1
  Zn  Zn107  1  0.18260695  0.18264789  0.20292380  1
  Zn  Zn108  1  0.19010882  0.19401772  0.68557035  1
  Zn  Zn109  1  0.18630810  0.68575768  0.18857160  1
  Zn  Zn110  1  0.18657268  0.68438960  0.68107061  1
  Zn  Zn111  1  0.68632560  0.18650477  0.19441036  1
  Zn  Zn112  1  0.68582179  0.18975848  0.69077145  1
  Zn  Zn113  1  0.70771753  0.68400450  0.18051606  1
  Zn  Zn114  1  0.73873165  0.70904391  0.70876454  1
  Zn  Zn115  1  0.30233901  0.30841426  0.31775919  1
  Zn  Zn116  1  0.31235036  0.31174788  0.81068319  1
  Zn  Zn117  1  0.31039518  0.81447879  0.31156723  1
  Zn  Zn118  1  0.31119709  0.81415167  0.81412631  1
  Zn  Zn119  1  0.81314931  0.31375870  0.30283141  1
  Zn  Zn120  1  0.81052112  0.31230589  0.81052556  1
  Zn  Zn121  1  0.81465446  0.81071223  0.31110022  1
  Zn  Zn122  1  0.80649344  0.82344290  0.81625995  1
  Zn  Zn123  1  0.19198060  0.43439874  0.43828634  1
  Zn  Zn124  1  0.18535184  0.43563134  0.94117437  1
  Zn  Zn125  1  0.18649909  0.93531005  0.44042964  1
  Zn  Zn126  1  0.15272577  0.96083518  0.90895858  1
  Zn  Zn127  1  0.68915585  0.43863377  0.43221175  1
  Zn  Zn128  1  0.68544857  0.43889729  0.93781494  1
  Zn  Zn129  1  0.69102992  0.94123360  0.43910348  1
  Zn  Zn130  1  0.68879362  0.94213750  0.93750298  1
  Zn  Zn131  1  0.31246820  0.06121226  0.05994474  1
  Zn  Zn132  1  0.31059447  0.06689831  0.55361974  1
  Zn  Zn133  1  0.30810238  0.56404529  0.06627670  1
  Zn  Zn134  1  0.31506350  0.56196610  0.56083608  1
  Zn  Zn135  1  0.81521859  0.06255722  0.06671474  1
  Zn  Zn136  1  0.81624067  0.06371285  0.55900965  1
  Zn  Zn137  1  0.81108036  0.56029793  0.05897376  1
  Zn  Zn138  1  0.81035809  0.55609620  0.55873913  1
  Zn  Zn139  1  0.43588543  0.43640603  0.19046124  1
  Zn  Zn140  1  0.43724786  0.43841886  0.68533685  1
  Zn  Zn141  1  0.43854662  0.93431732  0.19132883  1
  Zn  Zn142  1  0.44081286  0.93545955  0.68591598  1
  Zn  Zn143  1  0.93615992  0.43037734  0.18444146  1
  Zn  Zn144  1  0.93338277  0.44014928  0.68513249  1
  Zn  Zn145  1  0.94207590  0.93633663  0.18628527  1
  Zn  Zn146  1  0.94596143  0.94713066  0.68170042  1
  Zn  Zn147  1  0.06606423  0.06448232  0.31516379  1
  Zn  Zn148  1  0.06199179  0.06774155  0.79495292  1
  Zn  Zn149  1  0.06178876  0.56458077  0.31200616  1
  Zn  Zn150  1  0.06032853  0.56689266  0.81133001  1
  Zn  Zn151  1  0.56511948  0.06346807  0.31402748  1
  Zn  Zn152  1  0.59088531  0.05506111  0.82127021  1
  Zn  Zn153  1  0.56435765  0.56534894  0.31060892  1
  Zn  Zn154  1  0.56592814  0.56230855  0.81429213  1
  Zn  Zn155  1  0.43991805  0.18406425  0.44261894  1
  Zn  Zn156  1  0.43739687  0.18362452  0.94091167  1
  Zn  Zn157  1  0.44064280  0.68518944  0.43572984  1
  Zn  Zn158  1  0.43729254  0.68940837  0.93827282  1
  Zn  Zn159  1  0.93902654  0.19259449  0.43328040  1
  Zn  Zn160  1  0.93617398  0.18951369  0.93964756  1
  Zn  Zn161  1  0.93963349  0.68672889  0.42995810  1
  Zn  Zn162  1  0.93610231  0.68908383  0.93817338  1
  Zn  Zn163  1  0.06053600  0.31443315  0.06337922  1
  Zn  Zn164  1  0.05526385  0.32666329  0.56632832  1
  Zn  Zn165  1  0.05930159  0.81417026  0.06074591  1
  Zn  Zn166  1  0.06096194  0.81138248  0.56418435  1
  Zn  Zn167  1  0.55894010  0.31093413  0.06497818  1
  Zn  Zn168  1  0.55806939  0.30821051  0.56424470  1
  Zn  Zn169  1  0.56636673  0.81324492  0.06609196  1
  Zn  Zn170  1  0.56802398  0.80765730  0.56530526  1
  O  O171  1  0.11762763  0.11595543  0.13036872  1
  O  O172  1  0.12788060  0.11255658  0.63449634  1
  O  O173  1  0.13070542  0.61465822  0.11233054  1
  O  O174  1  0.11465714  0.62277717  0.61055986  1
  O  O175  1  0.61846774  0.12337198  0.12071515  1
  O  O176  1  0.62453802  0.11889692  0.62274395  1
  O  O177  1  0.62655688  0.62174445  0.11295465  1
  O  O178  1  0.62294103  0.62823771  0.61069463  1
  O  O179  1  0.37180679  0.38068154  0.38935218  1
  O  O180  1  0.37868577  0.38151139  0.88015013  1
  O  O181  1  0.38610092  0.88067908  0.37368520  1
  O  O182  1  0.36901255  0.89324651  0.87798089  1
  O  O183  1  0.87693577  0.38037941  0.37965799  1
  O  O184  1  0.87840673  0.38116223  0.87835906  1
  O  O185  1  0.88943963  0.87197237  0.37463364  1
  O  O186  1  0.86767776  0.88619085  0.88744708  1
  O  O187  1  0.26524483  -0.01355498  0.37099066  1
  O  O188  1  0.25287040  0.01195361  0.87091141  1
  O  O189  1  0.25818606  0.49308985  0.36229023  1
  O  O190  1  0.25317391  0.50496998  0.87024944  1
  O  O191  1  0.74838579  0.01097021  0.36429521  1
  O  O192  1  0.69819557  0.02582097  0.86661910  1
  O  O193  1  0.75831787  0.50690191  0.36496492  1
  O  O194  1  0.75600517  0.50545089  0.87193790  1
  O  O195  1  0.24277605  0.49286604  0.13339403  1
  O  O196  1  0.25116179  0.49401050  0.63323813  1
  O  O197  1  0.24452989  0.99233268  0.12568674  1
  O  O198  1  0.24830244  0.98948105  0.62168442  1
  O  O199  1  0.73702592  0.48360256  0.12016990  1
  O  O200  1  0.75322199  0.48922073  0.63456587  1
  O  O201  1  0.74567805  0.99744486  0.13745984  1
  O  O202  1  0.74441621  0.98930729  0.61593543  1
  O  O203  1  -0.00175969  0.36965770  0.25942988  1
  O  O204  1  0.00374888  0.37272690  0.75466300  1
  O  O205  1  0.00763684  0.86723115  0.25440289  1
  O  O206  1  -0.00259654  0.86344779  0.73224278  1
  O  O207  1  0.51092591  0.36692342  0.24474437  1
  O  O208  1  0.50528940  0.37693316  0.75876148  1
  O  O209  1  0.51171169  0.87130103  0.26041029  1
  O  O210  1  0.51587574  0.86697572  0.74280550  1
  O  O211  1  0.50149136  0.13179645  0.23944114  1
  O  O212  1  0.51313822  0.12233525  0.73697938  1
  O  O213  1  0.48820558  0.62715244  0.24672402  1
  O  O214  1  0.49569718  0.62376230  0.74522254  1
  O  O215  1  1.00167663  0.14060969  0.24004165  1
  O  O216  1  0.99616171  0.13897524  0.73113682  1
  O  O217  1  1.00083985  0.63892329  0.25247210  1
  O  O218  1  0.99861187  0.62051975  0.73097115  1
  O  O219  1  0.36605695  0.25556276  0.00842543  1
  O  O220  1  0.38141851  0.26197580  0.50910565  1
  O  O221  1  0.36878860  0.75266522  0.00708365  1
  O  O222  1  0.36612554  0.74884040  0.49636994  1
  O  O223  1  0.87989471  0.25282105  0.01854262  1
  O  O224  1  0.87838644  0.26369122  0.50593339  1
  O  O225  1  0.86392376  0.76174488  -0.00655344  1
  O  O226  1  0.86142509  0.74906348  0.49075115  1
  O  O227  1  0.09685141  0.22510413  0.54517070  1
  O  O228  1  0.13385945  0.25896165  0.99071130  1
  O  O229  1  0.12928293  0.74304619  0.49179081  1
  O  O230  1  0.12496022  0.74223865  0.99211541  1
  O  O231  1  0.62224513  0.25612218  0.48303268  1
  O  O232  1  0.62217495  0.24433052  0.99653352  1
  O  O233  1  0.63579581  0.74158694  0.49235962  1
  O  O234  1  0.63213486  0.74617103  0.99559888  1
  O  O235  1  0.49314586  0.24345076  0.13456452  1
  O  O236  1  0.49228476  0.24167246  0.63147159  1
  O  O237  1  0.49029312  0.75031637  0.12705355  1
  O  O238  1  0.50044827  0.73509712  0.62725023  1
  O  O239  1  0.99395018  0.24615723  0.13037110  1
  O  O240  1  0.98316212  0.25335546  0.63065250  1
  O  O241  1  1.00400076  0.74943716  0.13699833  1
  O  O242  1  0.99463414  0.73317513  0.61939675  1
  O  O243  1  -0.00488240  0.25988961  0.35949083  1
  O  O244  1  0.00792080  0.25659282  0.87165777  1
  O  O245  1  0.01055442  0.75735443  0.36869424  1
  O  O246  1  0.00961452  0.74341820  0.86912423  1
  O  O247  1  0.50705927  0.24310966  0.36312051  1
  O  O248  1  0.49638882  0.26395419  0.87695530  1
  O  O249  1  0.51358874  0.75430251  0.37191590  1
  O  O250  1  0.51567978  0.74326711  0.87332958  1
  O  O251  1  0.24166563  0.11691074  0.48450356  1
  O  O252  1  0.25225389  0.13761402  0.99301458  1
  O  O253  1  0.24138774  0.63550356  0.50527331  1
  O  O254  1  0.24005668  0.62894644  0.99487037  1
  O  O255  1  0.74939355  0.12172723  0.48244757  1
  O  O256  1  0.73818016  0.12187872  1.00098050  1
  O  O257  1  0.74185468  0.62887893  0.49510120  1
  O  O258  1  0.74550199  0.63538128  0.99408573  1
  O  O259  1  0.25420629  0.36921825  0.01094411  1
  O  O260  1  0.26342876  0.38318685  0.51265959  1
  O  O261  1  0.25001549  0.86743573  0.01369669  1
  O  O262  1  0.25036026  0.86085399  0.50789823  1
  O  O263  1  0.74503553  0.37294451  0.01136189  1
  O  O264  1  0.75635820  0.38271631  0.50782262  1
  O  O265  1  0.75535174  0.87450787  0.00621136  1
  O  O266  1  0.75417441  0.86942487  0.50537641  1
  O  O267  1  0.13325556  0.50749190  0.24164999  1
  O  O268  1  0.13219012  0.49648299  0.75025791  1
  O  O269  1  0.12592953  0.98675086  0.24187209  1
  O  O270  1  0.13229979  0.99347958  0.73212081  1
  O  O271  1  0.63223505  0.49601363  0.24128010  1
  O  O272  1  0.63179582  0.48437571  0.75869919  1
  O  O273  1  0.63153903  0.98900903  0.24793606  1
  O  O274  1  0.61912304  0.98993477  0.73065076  1
  O  O275  1  0.37599984  -0.00155097  0.26255814  1
  O  O276  1  0.37617793  -0.00204744  0.76243276  1
  O  O277  1  0.36911700  0.50553648  0.25667345  1
  O  O278  1  0.37092590  0.50968666  0.75619357  1
  O  O279  1  0.86316337  -0.00356342  0.24920853  1
  O  O280  1  0.88121565  0.02013370  0.74169778  1
  O  O281  1  0.86873654  0.49241702  0.25766195  1
  O  O282  1  0.86413695  0.49425561  0.76231923  1
  O  O283  1  0.11031639  0.37743605  0.38264487  1
  O  O284  1  0.12120120  0.36865895  0.86897753  1
  O  O285  1  0.11881784  0.86804286  0.36578309  1
  O  O286  1  0.13439594  0.85200835  0.86761635  1
  O  O287  1  0.63420783  0.36873489  0.36030195  1
  O  O288  1  0.61610763  0.36893342  0.87318058  1
  O  O289  1  0.62421363  0.86894234  0.36976489  1
  O  O290  1  0.63228616  0.86691986  0.86476500  1
  O  O291  1  0.38214731  0.13166767  0.12619406  1
  O  O292  1  0.38255598  0.13370466  0.61983713  1
  O  O293  1  0.37418178  0.63695206  0.13018551  1
  O  O294  1  0.38352629  0.62590920  0.63376722  1
  O  O295  1  0.88171150  0.13599442  0.12646652  1
  O  O296  1  0.87431491  0.13806170  0.62916399  1
  O  O297  1  0.80437602  0.60186997  0.16356369  1
  O  O298  1  0.88641904  0.61762990  0.61745948  1
  O  O299  1  0.24914502  0.25605560  0.12152397  1
  O  O300  1  0.26031879  0.26240693  0.62776248  1
  O  O301  1  0.25486524  0.75412650  0.11898735  1
  O  O302  1  0.25292415  0.75398239  0.61596849  1
  O  O303  1  0.76140972  0.25173832  0.13431337  1
  O  O304  1  0.75688829  0.26327598  0.62932928  1
  O  O305  1  0.74634538  0.76581950  0.11344095  1
  O  O306  1  0.74439667  0.76977227  0.61379841  1
  O  O307  1  0.24442088  0.25292742  0.39100511  1
  O  O308  1  0.24654053  0.24747535  0.88360692  1
  O  O309  1  0.23595398  0.75558912  0.38065224  1
  O  O310  1  0.24829782  0.74061263  0.88234896  1
  O  O311  1  0.74344406  0.23717199  0.36066584  1
  O  O312  1  0.73911367  0.24486218  0.87472474  1
  O  O313  1  0.74265478  0.74452291  0.37970021  1
  O  O314  1  0.73964363  0.74365756  0.88498879  1
  O  O315  1  -0.00188628  0.12555646  0.01347550  1
  O  O316  1  -0.00632170  0.11950708  0.50248307  1
  O  O317  1  0.00443055  0.61344468  -0.00324146  1
  O  O318  1  0.00322114  0.61454468  0.50116983  1
  O  O319  1  0.50429459  0.11943354  0.01447004  1
  O  O320  1  0.50853851  0.12556911  0.51424773  1
  O  O321  1  0.50826859  0.62040085  0.00163321  1
  O  O322  1  0.51196618  0.62311676  0.50601672  1
  O  O323  1  0.48512240  0.37823980  0.50608828  1
  O  O324  1  0.49156345  0.38046683  0.99524883  1
  O  O325  1  0.50395656  0.87003308  0.48629059  1
  O  O326  1  0.50088620  0.88921067  1.00686158  1
  O  O327  1  0.99071834  0.38659170  0.49191693  1
  O  O328  1  0.99933505  0.38819953  0.99180293  1
  O  O329  1  0.99920789  0.88013352  0.49104848  1
  O  O330  1  0.98368312  0.87659857  1.00061813  1
  O  O331  1  0.48983165  0.50007918  0.37403278  1
  O  O332  1  0.49552924  0.49057972  0.88174407  1
  O  O333  1  0.49506579  0.99136451  0.37558148  1
  O  O334  1  0.49085782  1.00637890  0.88345280  1
  O  O335  1  0.99260239  0.49346176  0.37706011  1
  O  O336  1  0.99057285  0.49815777  0.87909046  1
  O  O337  1  1.00876331  0.98951928  0.38143157  1
  O  O338  1  1.04655522  0.99544715  0.87613491  1
  O  O339  1  0.00745018  0.01135767  0.12930735  1
  O  O340  1  0.01276738  0.01697883  0.61295006  1
  O  O341  1  0.00620100  0.49543083  0.11727417  1
  O  O342  1  0.00004733  0.50465747  0.61290387  1
  O  O343  1  0.50310971  0.00700922  0.12257095  1
  O  O344  1  0.50626296  0.00531956  0.62001619  1
  O  O345  1  0.50342573  0.50197861  0.11894086  1
  O  O346  1  0.49906710  0.51321223  0.62271446  1
  O  O347  1  0.25456863  0.38253569  0.23814255  1
  O  O348  1  0.24736140  0.38230920  0.74228804  1
  O  O349  1  0.24026510  0.87283716  0.23761069  1
  O  O350  1  0.24985740  0.87220611  0.73560632  1
  O  O351  1  0.74396192  0.38626934  0.23635148  1
  O  O352  1  0.74160566  0.38276725  0.74428223  1
  O  O353  1  0.74804711  0.88400926  0.24579032  1
  O  O354  1  0.74102751  0.87882830  0.73554962  1
  O  O355  1  0.26013441  0.11991173  0.25393686  1
  O  O356  1  0.25353805  0.12950707  0.76095413  1
  O  O357  1  0.26220750  0.61501764  0.24439652  1
  O  O358  1  0.25748597  0.61885096  0.75292786  1
  O  O359  1  0.74691013  0.11095580  0.25783440  1
  O  O360  1  0.76796907  0.13206280  0.74881925  1
  O  O361  1  0.72162219  0.62030257  0.27518216  1
  O  O362  1  0.73623186  0.60737019  0.76126097  1
  O  O363  1  0.38133887  0.10802914  0.37489396  1
  O  O364  1  0.36872720  0.11115733  0.88082147  1
  O  O365  1  0.37693896  0.61536906  0.36707853  1
  O  O366  1  0.37029208  0.61865006  0.87032948  1
  O  O367  1  0.86171000  0.13215316  0.37231645  1
  O  O368  1  0.88011393  0.13137555  0.85726975  1
  O  O369  1  0.86396209  0.61370476  0.37861653  1
  O  O370  1  0.86201821  0.61626318  0.88251128  1
  O  O371  1  0.13221932  0.39013755  0.11834103  1
  O  O372  1  0.13487255  0.38185239  0.63035657  1
  O  O373  1  0.12983877  0.87817648  0.13111727  1
  O  O374  1  0.13456383  0.87900358  0.62376622  1
  O  O375  1  0.62852450  0.37539544  0.13338806  1
  O  O376  1  0.63083542  0.36864384  0.63370024  1
  O  O377  1  0.63495758  0.88163550  0.13350258  1
  O  O378  1  0.63352723  0.88155125  0.62812422  1
  O  O379  1  0.10779887  0.26295246  0.23581118  1
  O  O380  1  0.11832796  0.25989910  0.75488620  1
  O  O381  1  0.12087768  0.75555388  0.25563385  1
  O  O382  1  0.12778708  0.74023768  0.76245234  1
  O  O383  1  0.61826493  0.25906495  0.25610884  1
  O  O384  1  0.62159177  0.26169578  0.76212786  1
  O  O385  1  0.63129681  0.76141361  0.25572467  1
  O  O386  1  0.63399826  0.75668484  0.76007564  1
  O  O387  1  0.38223865  0.25269932  0.24687910  1
  O  O388  1  0.38006848  0.25544412  0.73719952  1
  O  O389  1  0.37409779  0.74253624  0.24462018  1
  O  O390  1  0.37764356  0.73632097  0.75400544  1
  O  O391  1  0.88836139  0.25888671  0.23236144  1
  O  O392  1  0.87977288  0.25031428  0.74106673  1
  O  O393  1  0.88800620  0.75163823  0.24886470  1
  O  O394  1  0.84320599  0.73623311  0.75727458  1
  O  O395  1  0.37815869  0.49325375  0.49128987  1
  O  O396  1  0.37685853  0.49633936  0.99660428  1
  O  O397  1  0.38084639  0.99229246  0.48719536  1
  O  O398  1  0.38396125  0.99805432  0.99363600  1
  O  O399  1  0.87978550  0.49101086  0.48772277  1
  O  O400  1  0.87967323  0.49796522  0.99213845  1
  O  O401  1  0.89199899  0.99608381  0.50363503  1
  O  O402  1  0.88074869  0.99470393  0.99921496  1
  O  O403  1  0.12246965  -0.00713065  0.01683007  1
  O  O404  1  0.11583401  -0.00695160  0.50990340  1
  O  O405  1  0.11649337  0.50765410  0.00547441  1
  O  O406  1  0.11742285  0.50669186  0.49779035  1
  O  O407  1  0.61550027  0.00898499  0.01217541  1
  O  O408  1  0.62245407  0.00062614  0.50974772  1
  O  O409  1  0.61830818  0.50864930  0.00383753  1
  O  O410  1  0.62557925  0.51407521  0.49280338  1
  O  O411  1  0.36609591  0.36982234  0.12126649  1
  O  O412  1  0.36998649  0.36976747  0.61765923  1
  O  O413  1  0.36762928  0.86424770  0.12695355  1
  O  O414  1  0.36955647  0.86928157  0.62144903  1
  O  O415  1  0.86316823  0.36667245  0.11978614  1
  O  O416  1  0.86552634  0.37144952  0.61580120  1
  O  O417  1  0.86498782  0.88280889  0.11558449  1
  O  O418  1  0.86213096  0.88120843  0.62329620  1
  O  O419  1  0.12758968  0.14312753  0.36018609  1
  O  O420  1  0.13504556  0.14258293  0.86667019  1
  O  O421  1  0.12011051  0.63259134  0.38706252  1
  O  O422  1  0.12810830  0.63160896  0.88416279  1
  O  O423  1  0.63350404  0.13430259  0.37523382  1
  O  O424  1  0.60303481  0.14692189  0.89166382  1
  O  O425  1  0.62547599  0.63342230  0.38789331  1
  O  O426  1  0.63452223  0.62834543  0.88670050  1
