# generated using pymatgen
data_V85Zn86O256
_symmetry_space_group_name_H-M   'P 1'
_cell_length_a   16.92974842
_cell_length_b   16.92572789
_cell_length_c   16.92794786
_cell_angle_alpha   89.97087663
_cell_angle_beta   90.01048626
_cell_angle_gamma   90.11254301
_symmetry_Int_Tables_number   1
_chemical_formula_structural   V85Zn86O256
_chemical_formula_sum   'V85 Zn86 O256'
_cell_volume   4850.66486863
_cell_formula_units_Z   1
loop_
 _symmetry_equiv_pos_site_id
 _symmetry_equiv_pos_as_xyz
  1  'x, y, z'
loop_
 _atom_site_type_symbol
 _atom_site_label
 _atom_site_symmetry_multiplicity
 _atom_site_fract_x
 _atom_site_fract_y
 _atom_site_fract_z
 _atom_site_occupancy
  V  V0  1  0.12662530  0.12425410  0.50249790  1
  V  V1  1  0.24616229  -0.01556896  0.75039994  1
  V  V2  1  0.24991117  0.37589419  0.12736458  1
  V  V3  1  0.74954740  0.13035176  0.37693047  1
  V  V4  1  0.62124576  0.76360825  0.86890228  1
  V  V5  1  0.49983085  0.25059277  0.75019652  1
  V  V6  1  0.87017518  0.86936145  0.49775371  1
  V  V7  1  0.75138746  0.12795802  0.87688820  1
  V  V8  1  0.37583391  0.37649858  0.00066242  1
  V  V9  1  0.62823315  0.13061817  0.49979231  1
  V  V10  1  0.62250558  0.87466574  0.25692678  1
  V  V11  1  0.74482274  0.00314481  0.24537572  1
  V  V12  1  0.50239702  0.76402133  0.74789375  1
  V  V13  1  0.00282694  0.62251254  0.62322527  1
  V  V14  1  0.74879126  -0.00348721  0.75026218  1
  V  V15  1  0.75451236  0.26052631  -0.00107984  1
  V  V16  1  0.49981324  0.73685945  0.25005402  1
  V  V17  1  0.00412243  -0.00305285  0.00677234  1
  V  V18  1  0.12878901  0.74644363  0.37562862  1
  V  V19  1  0.24919277  0.24980703  -0.00073306  1
  V  V20  1  0.50074250  0.87406481  0.38092932  1
  V  V21  1  0.12339185  0.38121727  0.25537912  1
  V  V22  1  0.87729573  -0.00341330  0.88246357  1
  V  V23  1  0.25590719  0.25171308  0.50086329  1
  V  V24  1  0.25992920  0.62253925  0.37567680  1
  V  V25  1  0.56394036  -0.04905591  0.06920149  1
  V  V26  1  0.12779276  0.12124389  0.00785748  1
  V  V27  1  0.50188796  0.25153170  0.25672243  1
  V  V28  1  0.26837885  0.50393174  0.25280468  1
  V  V29  1  0.50826850  0.12760264  0.12317137  1
  V  V30  1  0.37307417  0.11688329  0.25063354  1
  V  V31  1  0.25217074  0.75028443  0.00395089  1
  V  V32  1  0.37658851  0.25007988  0.12802385  1
  V  V33  1  0.00576418  0.37545551  0.87765337  1
  V  V34  1  0.00036425  -0.00200674  0.50212658  1
  V  V35  1  0.61768066  0.62460566  -0.00474876  1
  V  V36  1  0.62072788  0.50741702  0.61228964  1
  V  V37  1  0.25023575  0.12171428  0.87229509  1
  V  V38  1  0.38682962  -0.00849743  0.87910371  1
  V  V39  1  0.49745715  0.12558264  0.62488852  1
  V  V40  1  0.63608869  0.37677748  0.24918728  1
  V  V41  1  0.86160703  0.62247986  0.24636510  1
  V  V42  1  0.37586732  0.73473843  0.13011277  1
  V  V43  1  0.87434329  0.62551080  0.75044963  1
  V  V44  1  0.62269227  -0.00354177  0.62957285  1
  V  V45  1  0.75641638  0.63931573  0.39331158  1
  V  V46  1  0.74685729  0.87131440  0.62314324  1
  V  V47  1  0.37779174  0.39165818  0.49620295  1
  V  V48  1  0.87309952  -0.00039535  0.37436148  1
  V  V49  1  0.00080736  0.25290501  0.25089874  1
  V  V50  1  0.57830329  0.69360878  0.43778081  1
  V  V51  1  0.87422881  0.36840909  0.49716667  1
  V  V52  1  0.87391473  0.75367264  0.11613128  1
  V  V53  1  0.49896965  0.39010354  0.37683354  1
  V  V54  1  0.12783057  -0.01534414  0.62965008  1
  V  V55  1  0.00247168  0.12362925  0.62656618  1
  V  V56  1  0.00669397  0.75423226  0.74939850  1
  V  V57  1  0.87475536  0.49492059  0.88040210  1
  V  V58  1  0.00757374  0.25688087  0.74663791  1
  V  V59  1  0.86937287  0.49666790  0.37171564  1
  V  V60  1  0.87920843  0.25516702  0.11960908  1
  V  V61  1  -0.00011694  0.62214396  0.12393431  1
  V  V62  1  0.24999290  0.11940676  0.37165760  1
  V  V63  1  -0.00010645  0.75067682  0.24667295  1
  V  V64  1  0.12839850  0.88814973  0.24613669  1
  V  V65  1  0.50150565  0.37973013  0.87532935  1
  V  V66  1  0.87136327  0.75062716  0.62339479  1
  V  V67  1  0.24898693  0.38119723  0.63631755  1
  V  V68  1  0.25023994  0.61642943  0.87423616  1
  V  V69  1  0.25088074  0.88629246  0.12807595  1
  V  V70  1  0.00036683  0.87388702  0.37255432  1
  V  V71  1  0.35252990  0.75066462  0.62897598  1
  V  V72  1  -0.00074168  0.87390265  0.87727232  1
  V  V73  1  0.74702015  0.62698470  0.87353287  1
  V  V74  1  -0.00039701  0.49569639  0.49509241  1
  V  V75  1  0.49603116  -0.00121537  0.50073267  1
  V  V76  1  0.87793249  0.12605188  0.74994089  1
  V  V77  1  0.62591886  0.25125582  0.87696723  1
  V  V78  1  0.62809783  0.50892773  0.12846482  1
  V  V79  1  0.37925227  0.61710882  0.75050022  1
  V  V80  1  0.12209803  0.25572699  0.37718387  1
  V  V81  1  0.75551677  0.88071655  0.11895731  1
  V  V82  1  0.35709489  0.87121718  0.50497142  1
  V  V83  1  0.74664487  0.36805032  0.62038406  1
  V  V84  1  0.12866859  0.75434889  0.87498461  1
  Zn  Zn85  1  0.75703455  0.38251026  0.12387204  1
  Zn  Zn86  1  0.87645339  0.12565537  0.24865642  1
  Zn  Zn87  1  0.12901149  0.62272785  0.49493191  1
  Zn  Zn88  1  0.74669351  0.49861232  0.74745373  1
  Zn  Zn89  1  0.12139960  0.48748193  0.63278728  1
  Zn  Zn90  1  0.75207917  0.75707942  -0.00593285  1
  Zn  Zn91  1  0.87127104  0.24605382  0.61889177  1
  Zn  Zn92  1  0.50215846  0.62558320  0.61699015  1
  Zn  Zn93  1  0.49660271  0.50613197  0.00444381  1
  Zn  Zn94  1  0.00321726  0.12323789  0.12685107  1
  Zn  Zn95  1  0.12432996  0.50125474  0.12597502  1
  Zn  Zn96  1  -0.00133408  0.49289356  0.00583857  1
  Zn  Zn97  1  0.12391308  0.62258277  0.00155558  1
  Zn  Zn98  1  0.62522948  0.37941798  0.74773937  1
  Zn  Zn99  1  0.37063418  0.49606631  0.87033552  1
  Zn  Zn100  1  0.36853448  -0.00680359  0.37466916  1
  Zn  Zn101  1  0.38475312  0.87542283  0.00225196  1
  Zn  Zn102  1  0.37340512  0.12161270  0.75002152  1
  Zn  Zn103  1  0.62292361  0.12575976  0.00220298  1
  Zn  Zn104  1  0.37541224  0.25150312  0.62503464  1
  Zn  Zn105  1  0.62939618  0.25657704  0.38037707  1
  Zn  Zn106  1  0.13004165  0.25414001  0.87020726  1
  Zn  Zn107  1  0.18795763  0.18851064  0.18905112  1
  Zn  Zn108  1  0.18927215  0.18548333  0.68613914  1
  Zn  Zn109  1  0.18703488  0.68853213  0.19098048  1
  Zn  Zn110  1  0.17686440  0.65440328  0.69895840  1
  Zn  Zn111  1  0.68951093  0.19234804  0.18728509  1
  Zn  Zn112  1  0.68584923  0.18770021  0.68885529  1
  Zn  Zn113  1  0.68678443  0.69107429  0.18729476  1
  Zn  Zn114  1  0.68392825  0.68677325  0.68613617  1
  Zn  Zn115  1  0.31271573  0.31263117  0.31591897  1
  Zn  Zn116  1  0.31710991  0.30867099  0.81314557  1
  Zn  Zn117  1  0.31270156  0.80906138  0.30983862  1
  Zn  Zn118  1  0.31569191  0.80977258  0.81437303  1
  Zn  Zn119  1  0.81630146  0.31046831  0.31286444  1
  Zn  Zn120  1  0.81621466  0.31439845  0.80747465  1
  Zn  Zn121  1  0.81166621  0.81200413  0.30556540  1
  Zn  Zn122  1  0.81403988  0.81375348  0.81151673  1
  Zn  Zn123  1  0.18865987  0.44115930  0.44043102  1
  Zn  Zn124  1  0.18160736  0.43814200  0.93993592  1
  Zn  Zn125  1  0.18218447  0.93783649  0.43488561  1
  Zn  Zn126  1  0.18820055  0.93515653  0.93865608  1
  Zn  Zn127  1  0.69260343  0.44029017  0.43587062  1
  Zn  Zn128  1  0.68707676  0.44056063  0.93746516  1
  Zn  Zn129  1  0.68528523  0.94031607  0.43869474  1
  Zn  Zn130  1  0.69156907  0.93831061  0.93319218  1
  Zn  Zn131  1  0.32020468  0.06299559  0.05932378  1
  Zn  Zn132  1  0.31066937  0.05933714  0.56434809  1
  Zn  Zn133  1  0.30952693  0.56018392  0.06196378  1
  Zn  Zn134  1  0.31167898  0.56476508  0.56420824  1
  Zn  Zn135  1  0.81477072  0.07125596  0.06278071  1
  Zn  Zn136  1  0.81236584  0.05997036  0.56191501  1
  Zn  Zn137  1  0.80904641  0.56429274  0.05809781  1
  Zn  Zn138  1  0.81266866  0.55568759  0.56365424  1
  Zn  Zn139  1  0.44673348  0.43905692  0.18561468  1
  Zn  Zn140  1  0.44008524  0.43805355  0.68130846  1
  Zn  Zn141  1  0.42850259  0.92838508  0.19530106  1
  Zn  Zn142  1  0.42864489  0.93636101  0.68732426  1
  Zn  Zn143  1  0.93697688  0.43614468  0.19251337  1
  Zn  Zn144  1  0.93354524  0.43733037  0.68803987  1
  Zn  Zn145  1  0.93581827  0.93862114  0.18885332  1
  Zn  Zn146  1  0.93766577  0.93657864  0.69011738  1
  Zn  Zn147  1  0.06216702  0.06557728  0.31396066  1
  Zn  Zn148  1  0.06657583  0.06268708  0.81504567  1
  Zn  Zn149  1  0.05655693  0.56348532  0.31205569  1
  Zn  Zn150  1  0.06438064  0.56089005  0.81185634  1
  Zn  Zn151  1  0.56173442  0.05987573  0.31266206  1
  Zn  Zn152  1  0.56490014  0.06421437  0.81205323  1
  Zn  Zn153  1  0.57313495  0.55794740  0.31255028  1
  Zn  Zn154  1  0.56281145  0.56223414  0.80543673  1
  Zn  Zn155  1  0.43794022  0.18873773  0.43620349  1
  Zn  Zn156  1  0.43636528  0.18619050  0.93768853  1
  Zn  Zn157  1  0.41454016  0.68985864  0.44133978  1
  Zn  Zn158  1  0.43636584  0.69255639  0.93324328  1
  Zn  Zn159  1  0.93940679  0.18624333  0.43564222  1
  Zn  Zn160  1  0.94077562  0.18859575  0.93761737  1
  Zn  Zn161  1  0.93814016  0.68692935  0.43625903  1
  Zn  Zn162  1  0.93716373  0.68614216  0.93827141  1
  Zn  Zn163  1  0.06535256  0.31233156  0.06170543  1
  Zn  Zn164  1  0.06334758  0.31390138  0.56289374  1
  Zn  Zn165  1  0.06600506  0.81332666  0.06136565  1
  Zn  Zn166  1  0.06215296  0.80710925  0.56027161  1
  Zn  Zn167  1  0.56607135  0.31521220  0.06416295  1
  Zn  Zn168  1  0.56170217  0.31505377  0.56108553  1
  Zn  Zn169  1  0.56586854  0.78699182  0.06762824  1
  Zn  Zn170  1  0.55487776  0.81663595  0.57194043  1
  O  O171  1  0.12638094  0.12808441  0.11242565  1
  O  O172  1  0.12062817  0.11683012  0.61894692  1
  O  O173  1  0.11320513  0.62522201  0.12751006  1
  O  O174  1  0.10339910  0.64946162  0.60770935  1
  O  O175  1  0.61251971  0.12659831  0.12857325  1
  O  O176  1  0.61736531  0.11713610  0.62034824  1
  O  O177  1  0.63194218  0.61765369  0.11402463  1
  O  O178  1  0.62580391  0.61282318  0.62203125  1
  O  O179  1  0.38184403  0.37261364  0.38754979  1
  O  O180  1  0.38185673  0.37593286  0.88297500  1
  O  O181  1  0.38086436  0.87113355  0.38386333  1
  O  O182  1  0.37486506  0.88656323  0.87911915  1
  O  O183  1  0.86714243  0.38439152  0.38300475  1
  O  O184  1  0.88666238  0.38531962  0.86713548  1
  O  O185  1  0.87695187  0.87886069  0.37947755  1
  O  O186  1  0.88229659  0.88550820  0.87399244  1
  O  O187  1  0.24940899  0.01516258  0.37993335  1
  O  O188  1  0.25378063  0.00292623  0.86617725  1
  O  O189  1  0.24641156  0.50895888  0.36160157  1
  O  O190  1  0.24935744  0.51280150  0.88009296  1
  O  O191  1  0.75269310  0.00611144  0.36438263  1
  O  O192  1  0.75884058  0.00520869  0.86840092  1
  O  O193  1  0.76243011  0.51575655  0.38037684  1
  O  O194  1  0.75723715  0.50697421  0.87069432  1
  O  O195  1  0.24813023  0.49480354  0.13838966  1
  O  O196  1  0.25052933  0.48405616  0.62007970  1
  O  O197  1  0.25711860  0.98496981  0.11991212  1
  O  O198  1  0.24321440  1.00278118  0.64096616  1
  O  O199  1  0.73574847  0.49758592  0.11595482  1
  O  O200  1  0.74187996  0.48938600  0.62595854  1
  O  O201  1  0.75866550  0.99735217  0.13707009  1
  O  O202  1  0.74317819  0.99415569  0.63187929  1
  O  O203  1  0.00966402  0.36282339  0.24975166  1
  O  O204  1  -0.00400476  0.36599365  0.75557955  1
  O  O205  1  0.00613838  0.87082115  0.25370030  1
  O  O206  1  -0.00559361  0.86652003  0.76341437  1
  O  O207  1  0.50790277  0.36850823  0.25801059  1
  O  O208  1  0.49897211  0.36740376  0.75666278  1
  O  O209  1  0.50277585  0.86864094  0.26505000  1
  O  O210  1  0.49822918  0.86325533  0.74363398  1
  O  O211  1  0.49379813  0.13232682  0.24732359  1
  O  O212  1  0.49977814  0.13163930  0.74120755  1
  O  O213  1  0.51284053  0.63848427  0.25990426  1
  O  O214  1  0.48855658  0.63386599  0.74929177  1
  O  O215  1  1.00353832  0.13816684  0.24771417  1
  O  O216  1  0.99389737  0.12799363  0.74718263  1
  O  O217  1  0.98897720  0.63101025  0.23986566  1
  O  O218  1  0.98999145  0.63407879  0.74333631  1
  O  O219  1  0.36994248  0.25946799  0.00548453  1
  O  O220  1  0.36368655  0.25112146  0.50021464  1
  O  O221  1  0.37038879  0.75522684  0.00731816  1
  O  O222  1  0.36863545  0.75565829  0.51959527  1
  O  O223  1  0.86891632  0.24560180  0.00756589  1
  O  O224  1  0.88283828  0.26352900  0.49876442  1
  O  O225  1  0.87133330  0.74746898  0.01179087  1
  O  O226  1  0.88040938  0.76326951  0.50490754  1
  O  O227  1  0.13385138  0.24723009  0.49411914  1
  O  O228  1  0.13303526  0.24232615  0.99508095  1
  O  O229  1  0.11867236  0.75042353  0.47921198  1
  O  O230  1  0.13430204  0.74666051  0.99353151  1
  O  O231  1  0.61993050  0.23481343  0.49941599  1
  O  O232  1  0.63398505  0.24985610  0.99401085  1
  O  O233  1  0.62545207  0.75416553  0.49970722  1
  O  O234  1  0.63039754  0.74207851  0.98827798  1
  O  O235  1  0.49669506  0.24582901  0.13681801  1
  O  O236  1  0.50071043  0.24284372  0.63236641  1
  O  O237  1  0.48882331  0.75014542  0.13779221  1
  O  O238  1  0.49572883  0.74451062  0.63748887  1
  O  O239  1  0.99649743  0.24951645  0.13164162  1
  O  O240  1  0.99799139  0.24335924  0.63088081  1
  O  O241  1  0.99265391  0.74687921  0.12795551  1
  O  O242  1  0.98908970  0.74982311  0.63331882  1
  O  O243  1  0.01461730  0.24535906  0.36899302  1
  O  O244  1  0.00015208  0.26154422  0.86696010  1
  O  O245  1  0.00352455  0.75501437  0.36567722  1
  O  O246  1  0.00515487  0.75546618  0.87163601  1
  O  O247  1  0.50309711  0.25511359  0.36540293  1
  O  O248  1  0.50331167  0.25806790  0.86942625  1
  O  O249  1  0.50656681  0.75115288  0.37855253  1
  O  O250  1  0.50616956  0.75054623  0.85973738  1
  O  O251  1  0.24594392  0.13266255  0.49611770  1
  O  O252  1  0.24669923  0.12827252  0.99479641  1
  O  O253  1  0.24879384  0.61731118  0.48142737  1
  O  O254  1  0.25119068  0.63568076  0.99324826  1
  O  O255  1  0.74041550  0.11531453  0.49082097  1
  O  O256  1  0.74665909  0.13498516  0.99261815  1
  O  O257  1  0.76310209  0.63309725  0.49244712  1
  O  O258  1  0.74235374  0.62832541  0.98471214  1
  O  O259  1  0.25639084  0.37080353  0.00459493  1
  O  O260  1  0.26216940  0.36962648  0.50157101  1
  O  O261  1  0.24953201  0.86472957  0.01116597  1
  O  O262  1  0.25817571  0.87784852  0.49467761  1
  O  O263  1  0.74963532  0.36399246  -0.00158459  1
  O  O264  1  0.75785730  0.37562659  0.51082923  1
  O  O265  1  0.74622467  0.87880749  0.01490550  1
  O  O266  1  0.75847638  0.88413362  0.51019237  1
  O  O267  1  0.12324213  0.48803714  0.25140766  1
  O  O268  1  0.13325718  0.54783612  0.72667907  1
  O  O269  1  0.12042625  0.98769231  0.25310366  1
  O  O270  1  0.13702703  1.00146735  0.74514637  1
  O  O271  1  0.62856404  0.49412659  0.23698338  1
  O  O272  1  0.62773725  0.49733023  0.73739969  1
  O  O273  1  0.63146009  0.98822231  0.25149031  1
  O  O274  1  0.63656622  1.00624553  0.74208054  1
  O  O275  1  0.37804613  0.01291198  0.25439963  1
  O  O276  1  0.36308822  0.00029700  0.75864295  1
  O  O277  1  0.36652669  0.49599567  0.24759168  1
  O  O278  1  0.37965221  0.51288218  0.74853145  1
  O  O279  1  0.86697898  0.00241142  0.25826854  1
  O  O280  1  0.87143679  0.01011806  0.75739825  1
  O  O281  1  0.87765859  0.50964497  0.25901703  1
  O  O282  1  0.87399840  0.51330697  0.75701885  1
  O  O283  1  0.13278979  0.36604430  0.36965781  1
  O  O284  1  0.11164076  0.37513911  0.86998193  1
  O  O285  1  0.12123557  0.86848843  0.36525354  1
  O  O286  1  0.11887064  0.86178292  0.87704658  1
  O  O287  1  0.62044844  0.37608233  0.36920877  1
  O  O288  1  0.61753530  0.36979522  0.87298081  1
  O  O289  1  0.61575415  0.87734828  0.36974464  1
  O  O290  1  0.63050341  0.86305175  0.87465364  1
  O  O291  1  0.38341638  0.13004795  0.13270114  1
  O  O292  1  0.38748097  0.12491700  0.62516563  1
  O  O293  1  0.37171101  0.63517381  0.12212403  1
  O  O294  1  0.37649428  0.63424529  0.63221601  1
  O  O295  1  0.88068497  0.13874438  0.12935905  1
  O  O296  1  0.88117021  0.12406978  0.63152746  1
  O  O297  1  0.87619973  0.63117825  0.12994038  1
  O  O298  1  0.88062445  0.62934204  0.63118445  1
  O  O299  1  0.25781675  0.25630320  0.12106779  1
  O  O300  1  0.25290799  0.25702173  0.61657195  1
  O  O301  1  0.25631613  0.75272749  0.12018781  1
  O  O302  1  0.25577661  0.73994784  0.63792720  1
  O  O303  1  0.75881323  0.25205273  0.11564056  1
  O  O304  1  0.74983229  0.26223605  0.62686963  1
  O  O305  1  0.75626308  0.76131377  0.12318696  1
  O  O306  1  0.75331460  0.76484152  0.63405254  1
  O  O307  1  0.24219526  0.24214264  0.38208772  1
  O  O308  1  0.25145853  0.24078706  0.88030924  1
  O  O309  1  0.24234034  0.73273696  0.36272219  1
  O  O310  1  0.24500452  0.74740229  0.88387617  1
  O  O311  1  0.74868737  0.23437023  0.37090347  1
  O  O312  1  0.74834782  0.24790055  0.87896956  1
  O  O313  1  0.75525404  0.73819396  0.37342398  1
  O  O314  1  0.74325954  0.74441278  0.87213768  1
  O  O315  1  0.01154090  0.11675884  -0.00200852  1
  O  O316  1  0.00572414  0.11789925  0.50544575  1
  O  O317  1  -0.00109806  0.62600812  0.01442443  1
  O  O318  1  -0.00774162  0.61241114  0.50656334  1
  O  O319  1  0.50184184  0.13177066  0.01443748  1
  O  O320  1  0.50428545  0.11971086  0.50675218  1
  O  O321  1  0.51323439  0.62702622  -0.00796931  1
  O  O322  1  0.50914593  0.64025246  0.49219639  1
  O  O323  1  0.48562477  0.36795114  0.49215106  1
  O  O324  1  0.49203061  0.37283017  0.99239841  1
  O  O325  1  0.49171961  0.87734316  0.49370410  1
  O  O326  1  0.50910006  0.88274650  1.01718495  1
  O  O327  1  0.99187148  0.38753408  0.50750872  1
  O  O328  1  1.00205299  0.37293551  0.98286107  1
  O  O329  1  0.99263569  0.87973171  0.49255915  1
  O  O330  1  1.00507102  0.88188790  0.98811759  1
  O  O331  1  0.50346432  0.48960666  0.37180169  1
  O  O332  1  0.49985335  0.48757922  0.87631320  1
  O  O333  1  0.49510505  0.99067193  0.38239285  1
  O  O334  1  0.48501629  1.00419451  0.86754286  1
  O  O335  1  0.98427953  0.50679316  0.38392899  1
  O  O336  1  0.99532038  0.49016531  0.87212024  1
  O  O337  1  0.99442237  0.99409698  0.38047422  1
  O  O338  1  0.99543298  0.99273600  0.87966425  1
  O  O339  1  -0.00688481  0.00062836  0.11032370  1
  O  O340  1  0.00664089  0.00397379  0.62318660  1
  O  O341  1  -0.00192969  0.50831369  0.12569502  1
  O  O342  1  -0.00082657  0.50835552  0.61975859  1
  O  O343  1  0.49844880  0.00461738  0.12890270  1
  O  O344  1  0.50530728  0.00501602  0.62437011  1
  O  O345  1  0.52003931  0.49749903  0.12043341  1
  O  O346  1  0.51445881  0.50408445  0.62304322  1
  O  O347  1  0.24580107  0.38566479  0.24961714  1
  O  O348  1  0.26003908  0.37029843  0.73481449  1
  O  O349  1  0.24425146  0.87324521  0.23779384  1
  O  O350  1  0.24939119  0.88588895  0.75492215  1
  O  O351  1  0.73883676  0.36911779  0.24986726  1
  O  O352  1  0.74990003  0.37626600  0.73530561  1
  O  O353  1  0.74055620  0.88120798  0.24102626  1
  O  O354  1  0.75881540  0.89002639  0.74150254  1
  O  O355  1  0.25989561  0.13269748  0.25928230  1
  O  O356  1  0.25235111  0.11908505  0.75909179  1
  O  O357  1  0.24566182  0.60884977  0.25520474  1
  O  O358  1  0.26967695  0.63863281  0.76488202  1
  O  O359  1  0.74865152  0.11757795  0.25627737  1
  O  O360  1  0.75830901  0.11797069  0.75364642  1
  O  O361  1  0.75936901  0.63018564  0.25453248  1
  O  O362  1  0.75647346  0.62621332  0.75824024  1
  O  O363  1  0.36750395  0.12462975  0.36804342  1
  O  O364  1  0.36462145  0.11458325  0.87650646  1
  O  O365  1  0.35953056  0.62570345  0.36806927  1
  O  O366  1  0.37040360  0.62127266  0.86867274  1
  O  O367  1  0.86716790  0.11750910  0.37508489  1
  O  O368  1  0.87236779  0.11953579  0.86700086  1
  O  O369  1  0.86694729  0.62313120  0.36739661  1
  O  O370  1  0.86840881  0.62223201  0.86748849  1
  O  O371  1  0.13376836  0.37393758  0.13567487  1
  O  O372  1  0.14312519  0.37213142  0.62345851  1
  O  O373  1  0.13980840  0.86982099  0.13239216  1
  O  O374  1  0.11889259  0.88549883  0.62157477  1
  O  O375  1  0.62960787  0.38352500  0.13306192  1
  O  O376  1  0.63370425  0.38046072  0.62314092  1
  O  O377  1  0.62432578  0.88439437  0.12687603  1
  O  O378  1  0.63150252  0.88861419  0.62079710  1
  O  O379  1  0.12296957  0.25949932  0.25797361  1
  O  O380  1  0.11128187  0.24041750  0.75225309  1
  O  O381  1  0.11747591  0.75750030  0.25696128  1
  O  O382  1  0.11158721  0.74321903  0.75765620  1
  O  O383  1  0.61753006  0.25860680  0.25224220  1
  O  O384  1  0.61464185  0.25200734  0.75672184  1
  O  O385  1  0.61688854  0.76687114  0.24043841  1
  O  O386  1  0.61114661  0.74709173  0.75422733  1
  O  O387  1  0.38279611  0.24400201  0.24747972  1
  O  O388  1  0.38832387  0.24384830  0.74828247  1
  O  O389  1  0.38585033  0.75146133  0.24227444  1
  O  O390  1  0.38370884  0.74722588  0.74254416  1
  O  O391  1  0.88643602  0.24795653  0.24622157  1
  O  O392  1  0.88393195  0.23744590  0.74739175  1
  O  O393  1  0.88014796  0.74313489  0.23866444  1
  O  O394  1  0.88221365  0.74144842  0.74675961  1
  O  O395  1  0.37643663  0.49008484  0.50025714  1
  O  O396  1  0.37695902  0.48787016  0.99992222  1
  O  O397  1  0.37950632  0.98993698  0.50170105  1
  O  O398  1  0.37475112  0.99520958  0.98462262  1
  O  O399  1  0.87958340  0.48923221  0.49394126  1
  O  O400  1  0.87897342  0.50723491  0.98424112  1
  O  O401  1  0.88060222  0.99015135  0.49499577  1
  O  O402  1  0.88295684  1.00943323  0.98723849  1
  O  O403  1  0.11638238  0.00741206  -0.00585169  1
  O  O404  1  0.11965222  0.00401174  0.50807988  1
  O  O405  1  0.11843878  0.50421204  0.00719699  1
  O  O406  1  0.11438478  0.50238701  0.50488176  1
  O  O407  1  0.62214245  0.00336956  0.00230122  1
  O  O408  1  0.61653748  0.00885665  0.50892187  1
  O  O409  1  0.62228705  0.50843156  0.00568541  1
  O  O410  1  0.62923846  0.49702799  0.51325930  1
  O  O411  1  0.37265717  0.37015886  0.11965221  1
  O  O412  1  0.36953309  0.37277208  0.61223256  1
  O  O413  1  0.36311313  0.86595053  0.12426123  1
  O  O414  1  0.37068049  0.86058136  0.62050124  1
  O  O415  1  0.87380179  0.36183011  0.13094953  1
  O  O416  1  0.86340863  0.37363828  0.61767615  1
  O  O417  1  0.86573583  0.86661232  0.13143670  1
  O  O418  1  0.86732347  0.87313849  0.61749201  1
  O  O419  1  0.13216316  0.13208301  0.38189792  1
  O  O420  1  0.13805791  0.12524389  0.88427759  1
  O  O421  1  0.13025201  0.63116467  0.37240713  1
  O  O422  1  0.13282455  0.63687686  0.87833379  1
  O  O423  1  0.63125959  0.12324032  0.38344967  1
  O  O424  1  0.63272872  0.13316703  0.87645365  1
  O  O425  1  0.63913939  0.62721254  0.38222963  1
  O  O426  1  0.63143859  0.63018614  0.87677359  1
