# generated using pymatgen
data_V85Zn86O256
_symmetry_space_group_name_H-M   'P 1'
_cell_length_a   16.96711591
_cell_length_b   16.96599583
_cell_length_c   16.95788862
_cell_angle_alpha   89.85152253
_cell_angle_beta   90.08397630
_cell_angle_gamma   89.87928535
_symmetry_Int_Tables_number   1
_chemical_formula_structural   V85Zn86O256
_chemical_formula_sum   'V85 Zn86 O256'
_cell_volume   4881.53344522
_cell_formula_units_Z   1
loop_
 _symmetry_equiv_pos_site_id
 _symmetry_equiv_pos_as_xyz
  1  'x, y, z'
loop_
 _atom_site_type_symbol
 _atom_site_label
 _atom_site_symmetry_multiplicity
 _atom_site_fract_x
 _atom_site_fract_y
 _atom_site_fract_z
 _atom_site_occupancy
  V  V0  1  0.49951564  0.01750834  -0.00646832  1
  V  V1  1  0.12661073  0.38515875  0.24016971  1
  V  V2  1  0.87218416  -0.01675568  0.36965592  1
  V  V3  1  -0.01170710  0.75432538  0.74604372  1
  V  V4  1  0.50070778  0.24904149  0.74901508  1
  V  V5  1  -0.00391701  0.00252446  -0.00665938  1
  V  V6  1  0.12204371  0.74984953  0.87423025  1
  V  V7  1  0.25521386  0.87597283  0.62062185  1
  V  V8  1  0.25329758  0.25066845  0.49724427  1
  V  V9  1  -0.00757254  0.62967877  0.62444982  1
  V  V10  1  0.87253690  0.37637578  0.00270363  1
  V  V11  1  0.00016050  0.50258278  0.00641057  1
  V  V12  1  0.24949502  0.62584830  0.87433920  1
  V  V13  1  0.37475808  -0.00588772  0.38246805  1
  V  V14  1  0.48559832  0.74634553  0.24633830  1
  V  V15  1  0.25246288  0.12425674  0.37069696  1
  V  V16  1  0.50553056  0.62689274  0.62263251  1
  V  V17  1  -0.00182805  0.12383946  0.12343965  1
  V  V18  1  0.50075820  0.75223000  0.76105464  1
  V  V19  1  0.74921225  0.62684355  0.87495488  1
  V  V20  1  0.75458553  0.00329042  0.74599459  1
  V  V21  1  0.76827748  0.74414909  0.50870695  1
  V  V22  1  0.61360077  0.00914516  0.12938758  1
  V  V23  1  0.87611448  0.36500741  0.50359567  1
  V  V24  1  0.74060118  0.38089730  0.13113976  1
  V  V25  1  0.37786146  0.24966232  0.62406180  1
  V  V26  1  0.12418328  0.25081187  0.87393561  1
  V  V27  1  0.62517701  0.23913435  0.87809087  1
  V  V28  1  0.12640066  0.25140495  0.37116943  1
  V  V29  1  0.12619788  0.62517751  0.49936972  1
  V  V30  1  -0.00039201  0.24899561  0.24819624  1
  V  V31  1  0.50927667  0.49661363  0.01028072  1
  V  V32  1  -0.00055486  0.37593093  0.37334087  1
  V  V33  1  -0.00219895  0.50021018  0.49927887  1
  V  V34  1  0.50194387  0.50008063  0.49505213  1
  V  V35  1  0.12439472  0.37298371  0.74994120  1
  V  V36  1  0.86746238  0.12221293  0.25303909  1
  V  V37  1  0.37415648  0.12068244  0.75394136  1
  V  V38  1  0.12588372  0.00162602  0.62182699  1
  V  V39  1  0.62090717  0.88282798  0.74122800  1
  V  V40  1  0.11588542  0.86999195  0.25179834  1
  V  V41  1  0.25261824  -0.00241102  0.75794670  1
  V  V42  1  0.12295141  0.12447953  -0.00019818  1
  V  V43  1  0.12848410  -0.00381604  0.12578286  1
  V  V44  1  0.25748528  0.62179720  0.36805986  1
  V  V45  1  0.62546403  0.24880767  0.38536158  1
  V  V46  1  0.62389360  0.75746216  0.87753752  1
  V  V47  1  0.63101039  0.73633097  0.38595719  1
  V  V48  1  0.11458976  0.75108144  0.37216453  1
  V  V49  1  0.86277073  0.50024384  0.37414362  1
  V  V50  1  0.87615264  0.75369040  0.13254636  1
  V  V51  1  0.50759814  -0.00183964  0.50504372  1
  V  V52  1  0.37560249  0.75069156  0.62533742  1
  V  V53  1  0.75467202  0.36286869  0.62664215  1
  V  V54  1  0.38875116  0.87859956  -0.00628430  1
  V  V55  1  0.00067439  -0.01320976  0.49017332  1
  V  V56  1  0.86571203  0.62601461  0.25204230  1
  V  V57  1  0.50486215  0.37451267  0.87398375  1
  V  V58  1  0.50472294  0.25251930  0.24833199  1
  V  V59  1  0.74665629  0.88221533  0.13126157  1
  V  V60  1  0.75184779  0.50088751  0.74875339  1
  V  V61  1  0.25071585  0.24730776  0.00408310  1
  V  V62  1  0.12397288  0.87509327  0.74865878  1
  V  V63  1  0.25114542  0.37678351  0.62418724  1
  V  V64  1  0.00123085  0.62864870  0.13358103  1
  V  V65  1  0.38119227  0.37624170  0.49119513  1
  V  V66  1  0.37732220  0.49823734  0.87312781  1
  V  V67  1  0.12445764  0.50082014  0.62523336  1
  V  V68  1  0.49606215  0.87060080  0.38088663  1
  V  V69  1  0.74503991  0.24653154  0.00293544  1
  V  V70  1  0.62850881  0.50112601  0.61990204  1
  V  V71  1  -0.00561013  0.87833310  0.87382645  1
  V  V72  1  0.25367965  0.75410483  0.00660639  1
  V  V73  1  0.37624184  0.37223256  0.00097846  1
  V  V74  1  0.12503754  0.12533489  0.49818667  1
  V  V75  1  0.25526149  0.75214072  0.49722054  1
  V  V76  1  0.75675390  0.11254921  0.88571470  1
  V  V77  1  -0.00707427  0.13295842  0.62637314  1
  V  V78  1  -0.00182389  0.37878878  0.87003707  1
  V  V79  1  0.62493388  0.87517020  0.25500870  1
  V  V80  1  0.37645049  0.62686198  0.75301092  1
  V  V81  1  0.38526413  0.12097336  0.24589642  1
  V  V82  1  0.12501812  0.62239612  0.00431263  1
  V  V83  1  0.62551758  0.62171853  0.01027154  1
  V  V84  1  0.87106185  0.87862894  -0.00148438  1
  Zn  Zn85  1  0.38252316  0.50042268  0.36329421  1
  Zn  Zn86  1  0.38320529  0.24177244  0.12229344  1
  Zn  Zn87  1  0.73786521  0.50835742  0.24856254  1
  Zn  Zn88  1  0.62762338  0.37311197  0.75000360  1
  Zn  Zn89  1  0.25791632  0.86886021  0.12802960  1
  Zn  Zn90  1  0.86977795  0.63231098  0.74576394  1
  Zn  Zn91  1  0.25074527  0.50068391  0.74940666  1
  Zn  Zn92  1  0.50306223  0.11612211  0.62619706  1
  Zn  Zn93  1  0.87479688  0.50569396  0.87518531  1
  Zn  Zn94  1  0.87309639  0.24742262  0.12475762  1
  Zn  Zn95  1  0.75995229  0.23357186  0.50716680  1
  Zn  Zn96  1  0.74762603  0.75200708  0.00285388  1
  Zn  Zn97  1  0.76380426  0.86732733  0.62253657  1
  Zn  Zn98  1  0.61658553  0.38186750  0.25934476  1
  Zn  Zn99  1  0.48945447  0.61964540  0.13833323  1
  Zn  Zn100  1  0.25104008  0.12150195  0.87706707  1
  Zn  Zn101  1  0.75150469  0.11605593  0.38186516  1
  Zn  Zn102  1  0.64141752  0.11120046  0.51418866  1
  Zn  Zn103  1  0.25696364  0.50978980  0.23245721  1
  Zn  Zn104  1  0.24754739  0.38204783  0.11997206  1
  Zn  Zn105  1  0.87662786  0.13287240  0.74601017  1
  Zn  Zn106  1  0.25305050  -0.00514876  0.24992926  1
  Zn  Zn107  1  0.18804884  0.18762519  0.18645121  1
  Zn  Zn108  1  0.18706524  0.18778832  0.68695549  1
  Zn  Zn109  1  0.18482334  0.68886351  0.18766686  1
  Zn  Zn110  1  0.18343603  0.68949961  0.68751651  1
  Zn  Zn111  1  0.68724381  0.19030258  0.19042309  1
  Zn  Zn112  1  0.68505383  0.18068455  0.69181310  1
  Zn  Zn113  1  0.68293005  0.69601659  0.18874432  1
  Zn  Zn114  1  0.68738359  0.69028105  0.68362172  1
  Zn  Zn115  1  0.31493337  0.31377396  0.30694527  1
  Zn  Zn116  1  0.31102545  0.31058995  0.81301087  1
  Zn  Zn117  1  0.30730475  0.81451232  0.31259479  1
  Zn  Zn118  1  0.31612422  0.81554154  0.82075116  1
  Zn  Zn119  1  0.80983484  0.30672369  0.31680082  1
  Zn  Zn120  1  0.81253863  0.30997098  0.81131066  1
  Zn  Zn121  1  0.80693224  0.80875819  0.31443360  1
  Zn  Zn122  1  0.80775229  0.81816801  0.81542355  1
  Zn  Zn123  1  0.18774705  0.43801128  0.43494401  1
  Zn  Zn124  1  0.18900313  0.44108015  0.94017816  1
  Zn  Zn125  1  0.18662789  0.93550323  0.43457070  1
  Zn  Zn126  1  0.18492423  0.93461181  0.93800372  1
  Zn  Zn127  1  0.68650480  0.43090860  0.44082258  1
  Zn  Zn128  1  0.68787976  0.43595815  0.93673729  1
  Zn  Zn129  1  0.69102167  0.92761496  0.43878129  1
  Zn  Zn130  1  0.67765233  0.93776315  0.94419931  1
  Zn  Zn131  1  0.31607004  0.05863123  0.06192771  1
  Zn  Zn132  1  0.31624722  0.06225066  0.56236815  1
  Zn  Zn133  1  0.31864329  0.55935656  0.06847895  1
  Zn  Zn134  1  0.31515833  0.56383859  0.56068193  1
  Zn  Zn135  1  0.80896029  0.06115314  0.06585054  1
  Zn  Zn136  1  0.82009242  0.03758255  0.56619448  1
  Zn  Zn137  1  0.81283339  0.56303227  0.06338965  1
  Zn  Zn138  1  0.80986522  0.56322698  0.55764774  1
  Zn  Zn139  1  0.43474876  0.43280018  0.18824269  1
  Zn  Zn140  1  0.43865066  0.43782831  0.68534304  1
  Zn  Zn141  1  0.43627458  0.93179299  0.18618961  1
  Zn  Zn142  1  0.43577709  0.93408662  0.69088559  1
  Zn  Zn143  1  0.93367355  0.43961154  0.18712098  1
  Zn  Zn144  1  0.93513927  0.44025431  0.68718585  1
  Zn  Zn145  1  0.93872055  0.93903708  0.18677000  1
  Zn  Zn146  1  0.93490700  0.94470824  0.68409953  1
  Zn  Zn147  1  0.06225957  0.06070449  0.30966302  1
  Zn  Zn148  1  0.06428373  0.06307677  0.81037162  1
  Zn  Zn149  1  0.06077082  0.56362213  0.31489906  1
  Zn  Zn150  1  0.06059988  0.56262849  0.81171172  1
  Zn  Zn151  1  0.56576755  0.06252991  0.31836801  1
  Zn  Zn152  1  0.56194003  0.06377312  0.81301001  1
  Zn  Zn153  1  0.56393049  0.56378609  0.30956741  1
  Zn  Zn154  1  0.56700258  0.56376296  0.81303818  1
  Zn  Zn155  1  0.44296343  0.18370460  0.43368480  1
  Zn  Zn156  1  0.43641911  0.18532301  0.93418743  1
  Zn  Zn157  1  0.43937760  0.68842504  0.43862840  1
  Zn  Zn158  1  0.42528541  0.67366582  0.96965398  1
  Zn  Zn159  1  0.93936894  0.18086929  0.43562232  1
  Zn  Zn160  1  0.92028132  0.20696599  0.90560530  1
  Zn  Zn161  1  0.93422897  0.68553945  0.43492740  1
  Zn  Zn162  1  0.93440392  0.69244173  0.94013873  1
  Zn  Zn163  1  0.05885170  0.31078141  0.06074504  1
  Zn  Zn164  1  0.06321397  0.31125474  0.56085162  1
  Zn  Zn165  1  0.06154618  0.81167203  0.06412247  1
  Zn  Zn166  1  0.06684514  0.81003908  0.56319774  1
  Zn  Zn167  1  0.56315207  0.30630715  0.06586437  1
  Zn  Zn168  1  0.56549526  0.31224293  0.56295180  1
  Zn  Zn169  1  0.56107531  0.81283326  0.06565461  1
  Zn  Zn170  1  0.56423763  0.81393500  0.56237123  1
  O  O171  1  0.11804123  0.11763903  0.12079507  1
  O  O172  1  0.12574381  0.11864490  0.61590609  1
  O  O173  1  0.11402728  0.63165012  0.11552340  1
  O  O174  1  0.11715205  0.61997466  0.61998107  1
  O  O175  1  0.62990268  0.10639915  0.13601528  1
  O  O176  1  0.61256837  0.13786306  0.62081516  1
  O  O177  1  0.61757368  0.63260567  0.11204307  1
  O  O178  1  0.61538868  0.61520384  0.63188750  1
  O  O179  1  0.36873389  0.37641688  0.38884633  1
  O  O180  1  0.38379393  0.37458979  0.88225768  1
  O  O181  1  0.38157431  0.88289900  0.37207670  1
  O  O182  1  0.36486643  0.88708283  0.89443372  1
  O  O183  1  0.88080786  0.38103186  0.38012320  1
  O  O184  1  0.88297134  0.37953455  0.88671807  1
  O  O185  1  0.88007235  0.88480695  0.36267119  1
  O  O186  1  0.88056165  0.87229058  0.88725075  1
  O  O187  1  0.25692195  0.00744931  0.37436336  1
  O  O188  1  0.23922890  0.00176048  0.86065682  1
  O  O189  1  0.24940043  0.51669024  0.37810747  1
  O  O190  1  0.25757554  0.50896999  0.87398252  1
  O  O191  1  0.76811050  -0.00593821  0.37906773  1
  O  O192  1  0.73638349  0.01102349  0.87447370  1
  O  O193  1  0.76064792  0.49393217  0.37589569  1
  O  O194  1  0.74910877  0.50756645  0.86604573  1
  O  O195  1  0.24604587  0.49682846  0.11909942  1
  O  O196  1  0.24258674  0.49571267  0.62526539  1
  O  O197  1  0.23549981  1.00185607  0.12428696  1
  O  O198  1  0.24550913  0.99264052  0.62764377  1
  O  O199  1  0.75571119  0.48355370  0.12542337  1
  O  O200  1  0.74464825  0.49510304  0.63017159  1
  O  O201  1  0.73752763  0.98753259  0.12101803  1
  O  O202  1  0.73376140  1.02028464  0.65067410  1
  O  O203  1  0.00779056  0.37051186  0.25194921  1
  O  O204  1  0.00584893  0.38270374  0.76277107  1
  O  O205  1  0.01694732  0.87610129  0.24368797  1
  O  O206  1  0.00107812  0.87343699  0.75073757  1
  O  O207  1  0.49916821  0.35677544  0.25049199  1
  O  O208  1  0.50003790  0.36786148  0.75809541  1
  O  O209  1  0.50331081  0.86626337  0.26124886  1
  O  O210  1  0.51081177  0.86769341  0.74848952  1
  O  O211  1  0.49215856  0.13313661  0.25881907  1
  O  O212  1  0.49101758  0.12987493  0.74876499  1
  O  O213  1  0.49828817  0.64049333  0.25236185  1
  O  O214  1  0.49660445  0.63144657  0.74350443  1
  O  O215  1  0.99719558  0.13114281  0.24184002  1
  O  O216  1  1.00244883  0.11397234  0.73012955  1
  O  O217  1  0.99199822  0.61737682  0.23698330  1
  O  O218  1  0.99769825  0.63569649  0.74344888  1
  O  O219  1  0.36768913  0.25320346  -0.00097975  1
  O  O220  1  0.37455670  0.25518916  0.50505089  1
  O  O221  1  0.36335674  0.76787348  -0.01189388  1
  O  O222  1  0.36227250  0.74510007  0.50778672  1
  O  O223  1  0.86229441  0.25885287  -0.00263790  1
  O  O224  1  0.87852836  0.26204597  0.49359425  1
  O  O225  1  0.87348284  0.76287120  0.01209542  1
  O  O226  1  0.86772435  0.75205165  0.49647521  1
  O  O227  1  0.13359948  0.24600058  0.49122769  1
  O  O228  1  0.13206290  0.24455385  0.99583189  1
  O  O229  1  0.13572602  0.74461571  0.49380042  1
  O  O230  1  0.12756057  0.74102437  0.99271011  1
  O  O231  1  0.62823993  0.24764068  0.49189130  1
  O  O232  1  0.63704580  0.25543154  0.99380372  1
  O  O233  1  0.61548976  0.74602163  0.48655108  1
  O  O234  1  0.62314964  0.74276497  0.99226572  1
  O  O235  1  0.50278366  0.24472116  0.14173619  1
  O  O236  1  0.48683530  0.25578885  0.62969380  1
  O  O237  1  0.50311083  0.75320197  0.14457770  1
  O  O238  1  0.49604858  0.74345166  0.63272502  1
  O  O239  1  0.99626390  0.24149223  0.12945126  1
  O  O240  1  1.00881256  0.23173583  0.62096467  1
  O  O241  1  0.98886192  0.74064050  0.12007215  1
  O  O242  1  1.00648713  0.74245836  0.63401098  1
  O  O243  1  0.00649417  0.25543155  0.36814893  1
  O  O244  1  0.01856172  0.26705865  0.88933529  1
  O  O245  1  0.01588418  0.74393123  0.38006808  1
  O  O246  1  0.00310799  0.75628999  0.86687552  1
  O  O247  1  0.51530594  0.24413867  0.36794426  1
  O  O248  1  0.50613346  0.25757615  0.87255295  1
  O  O249  1  0.50433614  0.75516502  0.37034111  1
  O  O250  1  0.50736738  0.74142388  0.86328557  1
  O  O251  1  0.24788915  0.13046825  0.48928360  1
  O  O252  1  0.24495051  0.13082324  0.99749476  1
  O  O253  1  0.24345776  0.63187651  0.49476371  1
  O  O254  1  0.24096161  0.63166897  0.98792915  1
  O  O255  1  0.75752968  0.11709312  0.50318273  1
  O  O256  1  0.74702669  0.13148605  0.99539336  1
  O  O257  1  0.75018951  0.64279886  0.50408020  1
  O  O258  1  0.74215943  0.62598752  0.99395883  1
  O  O259  1  0.25944781  0.36701212  -0.00317769  1
  O  O260  1  0.25526922  0.36900991  0.50552708  1
  O  O261  1  0.24722795  0.86574190  0.00352212  1
  O  O262  1  0.24397549  0.86513191  0.50876729  1
  O  O263  1  0.75605725  0.37018374  0.00808924  1
  O  O264  1  0.76055183  0.37046121  0.51083570  1
  O  O265  1  0.75660484  0.87521822  0.00692919  1
  O  O266  1  0.73639057  0.85055902  0.50705221  1
  O  O267  1  0.12618640  0.48622575  0.25505696  1
  O  O268  1  0.12633406  0.48959546  0.74520566  1
  O  O269  1  0.12676242  0.98999831  0.24250415  1
  O  O270  1  0.13242213  0.99393873  0.74102066  1
  O  O271  1  0.62696912  0.49351384  0.25405917  1
  O  O272  1  0.63653777  0.49739724  0.74175472  1
  O  O273  1  0.61434033  0.98585442  0.24267753  1
  O  O274  1  0.62746755  0.98531308  0.75982871  1
  O  O275  1  0.37599395  0.00589505  0.26048408  1
  O  O276  1  0.36503057  0.00802611  0.74367908  1
  O  O277  1  0.36820833  0.49267435  0.25220280  1
  O  O278  1  0.37420657  0.50735842  0.75558576  1
  O  O279  1  0.88734713  0.00828739  0.26215619  1
  O  O280  1  0.85753969  0.00821047  0.75623388  1
  O  O281  1  0.86978843  0.50687345  0.25726267  1
  O  O282  1  0.86283977  0.50477298  0.75275677  1
  O  O283  1  0.11952261  0.36980681  0.36635259  1
  O  O284  1  0.12100560  0.37386622  0.86808605  1
  O  O285  1  0.13036428  0.86643893  0.36092761  1
  O  O286  1  0.11503229  0.86992496  0.86801900  1
  O  O287  1  0.63202529  0.35496161  0.37476129  1
  O  O288  1  0.61896691  0.36540315  0.87283306  1
  O  O289  1  0.61510761  0.86942993  0.36896959  1
  O  O290  1  0.63114222  0.86121627  0.86763222  1
  O  O291  1  0.36583870  0.12509569  0.14247009  1
  O  O292  1  0.37791538  0.13387778  0.63276150  1
  O  O293  1  0.39609887  0.63444360  0.07667413  1
  O  O294  1  0.37974697  0.63115023  0.63565611  1
  O  O295  1  0.88232179  0.12261712  0.13255159  1
  O  O296  1  0.89004513  0.12201209  0.62487191  1
  O  O297  1  0.88055559  0.63396485  0.12892031  1
  O  O298  1  0.88985964  0.61803208  0.62560472  1
  O  O299  1  0.25026698  0.25340389  0.11197433  1
  O  O300  1  0.26067030  0.25434408  0.61890328  1
  O  O301  1  0.24668835  0.74577936  0.10941830  1
  O  O302  1  0.25260114  0.75611547  0.61884681  1
  O  O303  1  0.75238757  0.25736002  0.11827175  1
  O  O304  1  0.75051620  0.26019852  0.63030205  1
  O  O305  1  0.75604437  0.76251641  0.12276466  1
  O  O306  1  0.75693256  0.75006935  0.61726104  1
  O  O307  1  0.24754679  0.24310326  0.37764402  1
  O  O308  1  0.23889809  0.25083115  0.88534488  1
  O  O309  1  0.24459661  0.74045073  0.38192350  1
  O  O310  1  0.24178351  0.74362497  0.88000276  1
  O  O311  1  0.74047043  0.24124934  0.38044133  1
  O  O312  1  0.74198798  0.23982193  0.88426279  1
  O  O313  1  0.73739593  0.75193043  0.38653153  1
  O  O314  1  0.74234897  0.74388735  0.87835371  1
  O  O315  1  0.00371146  0.11707244  0.00591257  1
  O  O316  1  0.00879616  0.11822993  0.50680262  1
  O  O317  1  0.00496914  0.62061654  0.00506874  1
  O  O318  1  0.00607391  0.62093939  0.50676038  1
  O  O319  1  0.49626588  0.11729965  0.00352615  1
  O  O320  1  0.49736225  0.10515657  0.49945336  1
  O  O321  1  0.51802465  0.60629957  -0.02052794  1
  O  O322  1  0.49082360  0.61761892  0.51696512  1
  O  O323  1  0.49147328  0.38613264  0.50810263  1
  O  O324  1  0.49800621  0.37712745  0.99349345  1
  O  O325  1  0.50096795  0.88188291  0.48959558  1
  O  O326  1  0.49146826  0.87655943  0.99825464  1
  O  O327  1  0.99486223  0.38046406  0.49589332  1
  O  O328  1  0.99436000  0.38458311  0.99543034  1
  O  O329  1  1.01073954  0.88877524  0.50204831  1
  O  O330  1  0.99360919  0.88242516  0.99561616  1
  O  O331  1  0.49922459  0.51078432  0.39218338  1
  O  O332  1  0.49946795  0.48591816  0.87458274  1
  O  O333  1  0.49324352  0.99059193  0.38291737  1
  O  O334  1  0.50879647  1.00518494  0.89460412  1
  O  O335  1  0.99322400  0.49319595  0.38090936  1
  O  O336  1  0.99790275  0.49531418  0.88520454  1
  O  O337  1  1.00104553  1.00008012  0.38464469  1
  O  O338  1  1.00553006  0.99647681  0.88706953  1
  O  O339  1  0.01058078  0.00331514  0.11568287  1
  O  O340  1  0.01179556  0.00690108  0.61069240  1
  O  O341  1  -0.00641410  0.50913306  0.11230913  1
  O  O342  1  0.00673750  0.50683635  0.62049162  1
  O  O343  1  0.50936425  -0.00197662  0.12131539  1
  O  O344  1  0.49101850  -0.00633134  0.60774778  1
  O  O345  1  0.49910053  0.49821939  0.11270244  1
  O  O346  1  0.50921093  0.50697158  0.62193569  1
  O  O347  1  0.23442856  0.37136093  0.24602279  1
  O  O348  1  0.24270368  0.37709696  0.74329758  1
  O  O349  1  0.24010505  0.87692190  0.24410688  1
  O  O350  1  0.24614809  0.88067976  0.74439161  1
  O  O351  1  0.75504781  0.37140397  0.23506328  1
  O  O352  1  0.75305053  0.38252942  0.74484570  1
  O  O353  1  0.73785499  0.87093016  0.24351562  1
  O  O354  1  0.74282069  0.88821652  0.74807506  1
  O  O355  1  0.25437264  0.12418472  0.26126776  1
  O  O356  1  0.25532783  0.11512341  0.74826946  1
  O  O357  1  0.24327956  0.62552972  0.26431752  1
  O  O358  1  0.25260322  0.62724056  0.76155603  1
  O  O359  1  0.76558868  0.12762335  0.25007608  1
  O  O360  1  0.75045421  0.11927432  0.76919025  1
  O  O361  1  0.76171552  0.62536872  0.23924567  1
  O  O362  1  0.75063322  0.61948916  0.75621035  1
  O  O363  1  0.36805654  0.11853566  0.36782329  1
  O  O364  1  0.36838053  0.13237351  0.85821099  1
  O  O365  1  0.35946387  0.62422220  0.38176974  1
  O  O366  1  0.36681606  0.62054558  0.87321989  1
  O  O367  1  0.87674569  0.11520527  0.36548428  1
  O  O368  1  0.85682645  0.10990988  0.89123777  1
  O  O369  1  0.88190287  0.61380104  0.36231208  1
  O  O370  1  0.86099814  0.62809079  0.87547326  1
  O  O371  1  0.12134561  0.37168677  0.13769372  1
  O  O372  1  0.12886815  0.37851257  0.63219030  1
  O  O373  1  0.12726174  0.87982896  0.13265244  1
  O  O374  1  0.13598373  0.87984546  0.63073913  1
  O  O375  1  0.63919494  0.36995816  0.12803972  1
  O  O376  1  0.63612478  0.38202544  0.62847861  1
  O  O377  1  0.63011099  0.87835319  0.13432212  1
  O  O378  1  0.62912782  0.87089524  0.64038594  1
  O  O379  1  0.11783772  0.25619272  0.25354720  1
  O  O380  1  0.13020978  0.26324355  0.75808183  1
  O  O381  1  0.12702682  0.76101482  0.25691788  1
  O  O382  1  0.11538777  0.75753816  0.75542883  1
  O  O383  1  0.61658470  0.24975698  0.25937977  1
  O  O384  1  0.61727967  0.25210303  0.76050017  1
  O  O385  1  0.61845245  0.75961285  0.26212894  1
  O  O386  1  0.61972536  0.75918867  0.75574017  1
  O  O387  1  0.38798539  0.24194835  0.25203478  1
  O  O388  1  0.37801400  0.24494308  0.74156911  1
  O  O389  1  0.38690785  0.75462411  0.25431193  1
  O  O390  1  0.38268173  0.74745386  0.74904235  1
  O  O391  1  0.88490401  0.24175534  0.25063591  1
  O  O392  1  0.89029352  0.23364280  0.79500744  1
  O  O393  1  0.87198017  0.74327537  0.24065218  1
  O  O394  1  0.88486071  0.75420535  0.75182202  1
  O  O395  1  0.38397064  0.49111987  0.50169335  1
  O  O396  1  0.38700941  0.48688282  0.98875404  1
  O  O397  1  0.38091874  1.00165582  0.48734495  1
  O  O398  1  0.39150534  0.99630605  1.00280873  1
  O  O399  1  0.88014347  0.49312478  0.49222970  1
  O  O400  1  0.88151045  0.49431243  0.99714931  1
  O  O401  1  0.89445666  1.00304681  0.47871783  1
  O  O402  1  0.88400110  0.98704534  1.01127432  1
  O  O403  1  0.11782413  0.00490344  0.00580765  1
  O  O404  1  0.12038923  0.00631261  0.50047710  1
  O  O405  1  0.11628154  0.51473803  -0.00603390  1
  O  O406  1  0.11797393  0.50446546  0.50459446  1
  O  O407  1  0.60992517  -0.00575566  0.01756643  1
  O  O408  1  0.61096964  -0.00384296  0.49406039  1
  O  O409  1  0.62066466  0.50628447  -0.00265976  1
  O  O410  1  0.61895078  0.49443041  0.51221505  1
  O  O411  1  0.37686482  0.36599530  0.10899460  1
  O  O412  1  0.36830480  0.36906859  0.61822234  1
  O  O413  1  0.37027022  0.88298577  0.10498279  1
  O  O414  1  0.36158054  0.86700476  0.63054310  1
  O  O415  1  0.87184800  0.37145364  0.11316366  1
  O  O416  1  0.86844535  0.37988502  0.61566455  1
  O  O417  1  0.86797759  0.87062455  0.12431469  1
  O  O418  1  0.85518357  0.93119140  0.60955035  1
  O  O419  1  0.13316902  0.13017903  0.37767812  1
  O  O420  1  0.12506905  0.13563345  0.87921863  1
  O  O421  1  0.13186021  0.63120457  0.38066047  1
  O  O422  1  0.13051546  0.62976238  0.87899082  1
  O  O423  1  0.63180819  0.13257368  0.38140677  1
  O  O424  1  0.63027933  0.13592683  0.87534098  1
  O  O425  1  0.62444596  0.63914884  0.37309081  1
  O  O426  1  0.63694858  0.63428772  0.87667934  1
