# generated using pymatgen
data_V85Zn86O256
_symmetry_space_group_name_H-M   'P 1'
_cell_length_a   16.92980404
_cell_length_b   16.93866635
_cell_length_c   16.95141060
_cell_angle_alpha   90.04751401
_cell_angle_beta   90.00903103
_cell_angle_gamma   90.06292274
_symmetry_Int_Tables_number   1
_chemical_formula_structural   V85Zn86O256
_chemical_formula_sum   'V85 Zn86 O256'
_cell_volume   4861.12256942
_cell_formula_units_Z   1
loop_
 _symmetry_equiv_pos_site_id
 _symmetry_equiv_pos_as_xyz
  1  'x, y, z'
loop_
 _atom_site_type_symbol
 _atom_site_label
 _atom_site_symmetry_multiplicity
 _atom_site_fract_x
 _atom_site_fract_y
 _atom_site_fract_z
 _atom_site_occupancy
  V  V0  1  0.86085538  0.75157413  0.12328181  1
  V  V1  1  0.75095289  0.37732041  0.62748490  1
  V  V2  1  0.37722676  0.87049575  0.50170906  1
  V  V3  1  0.74956975  0.62747436  0.37733096  1
  V  V4  1  0.61747647  0.25225731  0.37663052  1
  V  V5  1  0.50502331  0.12230044  0.62648001  1
  V  V6  1  0.24901225  0.37752243  0.62447121  1
  V  V7  1  0.74778770  0.89342780  0.62498210  1
  V  V8  1  0.62337331  0.12530412  0.00523892  1
  V  V9  1  0.12060949  0.13236667  -0.00120309  1
  V  V10  1  0.75003364  0.25183715  0.49891603  1
  V  V11  1  0.87871661  0.38258311  0.50273058  1
  V  V12  1  0.63286738  0.87437199  0.24363695  1
  V  V13  1  0.00051884  0.38081057  0.37661676  1
  V  V14  1  0.87617314  0.00267143  0.36687264  1
  V  V15  1  0.37546322  0.24944832  0.62417139  1
  V  V16  1  0.62918134  0.89585694  0.75220502  1
  V  V17  1  0.00419585  0.62717950  0.60910233  1
  V  V18  1  0.62317953  0.62853969  0.49676144  1
  V  V19  1  0.12352614  0.25185464  0.37305626  1
  V  V20  1  0.62472166  0.50071834  0.62641132  1
  V  V21  1  0.85766223  0.87178596  0.00295651  1
  V  V22  1  0.74973355  0.50135963  0.24965781  1
  V  V23  1  0.37848419  0.49449103  0.37423164  1
  V  V24  1  0.50259156  0.62331756  0.12508210  1
  V  V25  1  0.24412722  0.12875152  0.87130031  1
  V  V26  1  0.01794170  0.75298455  0.25235510  1
  V  V27  1  0.50429046  0.49878766  -0.00631652  1
  V  V28  1  0.75151371  0.37267726  0.12353770  1
  V  V29  1  -0.01088640  0.24756351  0.25048015  1
  V  V30  1  0.75325883  0.50274582  0.75721916  1
  V  V31  1  0.36745066  0.87182349  -0.00239049  1
  V  V32  1  0.37581205  0.62222067  0.25275809  1
  V  V33  1  0.51367124  0.74994330  0.74975348  1
  V  V34  1  0.61619150  0.37507080  0.25212153  1
  V  V35  1  0.50897135  -0.00174062  0.50393064  1
  V  V36  1  0.12198629  0.50157739  0.11070882  1
  V  V37  1  0.50307561  0.74786768  0.25569259  1
  V  V38  1  0.37211446  -0.00231985  0.86531193  1
  V  V39  1  0.12563171  0.37300378  0.75372410  1
  V  V40  1  0.25112291  0.24904883  0.49921914  1
  V  V41  1  0.12157327  0.50582368  0.61400005  1
  V  V42  1  -0.00023731  -0.01140661  0.00384699  1
  V  V43  1  0.12541784  0.12652833  0.50753764  1
  V  V44  1  0.13375736  -0.00476845  0.12391505  1
  V  V45  1  0.24797031  0.50866522  0.74930122  1
  V  V46  1  0.23678186  0.62503662  0.37906900  1
  V  V47  1  0.88046537  0.37946521  0.00145114  1
  V  V48  1  0.87752483  0.87491435  0.49747802  1
  V  V49  1  0.00499565  0.38295402  0.88060551  1
  V  V50  1  0.62606825  0.24912470  0.87602749  1
  V  V51  1  0.24840770  0.49749905  0.24970904  1
  V  V52  1  0.00351803  0.62466559  0.11186183  1
  V  V53  1  0.36933482  0.74888644  0.12118672  1
  V  V54  1  0.23443383  0.74536105  0.49936553  1
  V  V55  1  0.19123560  -0.05877566  0.30020365  1
  V  V56  1  0.50250688  0.49343949  0.49728366  1
  V  V57  1  0.37807826  0.49888763  0.87236841  1
  V  V58  1  0.74657429  0.75099029  0.49921944  1
  V  V59  1  0.75257985  0.12650792  0.36496187  1
  V  V60  1  0.11938469  0.74138687  0.88196402  1
  V  V61  1  0.87907212  0.62880800  0.25026661  1
  V  V62  1  0.87788684  0.50247611  0.37770935  1
  V  V63  1  0.37966019  0.37181993  -0.00456370  1
  V  V64  1  -0.00939816  0.12144075  0.12780266  1
  V  V65  1  0.74682668  0.64579949  0.87480726  1
  V  V66  1  0.37259599  0.74806896  0.62772665  1
  V  V67  1  0.62469277  0.50023992  0.12208525  1
  V  V68  1  0.37834836  0.37381261  0.49708193  1
  V  V69  1  0.49967089  0.23877825  0.24684996  1
  V  V70  1  0.24837893  0.37192413  0.12393466  1
  V  V71  1  0.00189845  0.00296835  0.50142627  1
  V  V72  1  0.49592555  0.25326220  0.75549744  1
  V  V73  1  0.50950513  0.86913905  0.37700436  1
  V  V74  1  0.49367329  0.00599869  0.00800749  1
  V  V75  1  0.88817231  0.62836645  0.75196219  1
  V  V76  1  0.37703051  0.24201931  0.12278055  1
  V  V77  1  0.87713077  0.75430606  0.63081366  1
  V  V78  1  0.23957558  0.88078299  0.63369772  1
  V  V79  1  0.37799184  -0.00399656  0.36863510  1
  V  V80  1  0.61953822  0.37837076  0.75877030  1
  V  V81  1  0.00648270  0.86953200  0.86589711  1
  V  V82  1  -0.00650372  0.25108315  0.75637546  1
  V  V83  1  0.25308019  0.63016476  0.89670402  1
  V  V84  1  0.24899214  0.12615414  0.36563681  1
  Zn  Zn85  1  0.21289730  -0.00059488  0.74836970  1
  Zn  Zn86  1  0.01143372  0.87297127  0.37124183  1
  Zn  Zn87  1  0.24447402  0.86819578  0.12542084  1
  Zn  Zn88  1  0.88043193  0.50685744  0.88397766  1
  Zn  Zn89  1  0.49863698  0.62454651  0.62519699  1
  Zn  Zn90  1  0.85269755  0.09303021  0.73564673  1
  Zn  Zn91  1  0.87471544  -0.00068696  0.86668377  1
  Zn  Zn92  1  0.36781979  0.12073632  0.74524002  1
  Zn  Zn93  1  0.62596928  0.00208311  0.12520610  1
  Zn  Zn94  1  0.87482383  0.24896598  0.62786979  1
  Zn  Zn95  1  0.75382602  0.24662893  -0.00129706  1
  Zn  Zn96  1  0.37751711  0.63018138  0.75522091  1
  Zn  Zn97  1  0.37394904  0.11538755  0.24091216  1
  Zn  Zn98  1  0.75951522  -0.00068713  0.23900289  1
  Zn  Zn99  1  0.12139420  0.37519618  0.24664141  1
  Zn  Zn100  1  0.75306178  0.11319598  0.87001642  1
  Zn  Zn101  1  0.64857150  0.65568503  0.00834280  1
  Zn  Zn102  1  0.87203068  0.24499591  0.12507872  1
  Zn  Zn103  1  0.50573984  0.87514429  0.87773230  1
  Zn  Zn104  1  0.00012627  0.12808422  0.62913047  1
  Zn  Zn105  1  0.63040118  0.11889155  0.50206524  1
  Zn  Zn106  1  0.24635105  0.25064165  -0.00697292  1
  Zn  Zn107  1  0.18062088  0.18765448  0.18546635  1
  Zn  Zn108  1  0.18550756  0.19001338  0.69125430  1
  Zn  Zn109  1  0.18908878  0.68035656  0.18399980  1
  Zn  Zn110  1  0.18214651  0.69386190  0.69344244  1
  Zn  Zn111  1  0.68585219  0.18602864  0.18426387  1
  Zn  Zn112  1  0.68640091  0.18817694  0.68662857  1
  Zn  Zn113  1  0.68426141  0.68810379  0.19343613  1
  Zn  Zn114  1  0.69243953  0.68657638  0.68449315  1
  Zn  Zn115  1  0.31481358  0.31145580  0.30956805  1
  Zn  Zn116  1  0.31098563  0.31393864  0.81174172  1
  Zn  Zn117  1  0.31758856  0.80336094  0.31781270  1
  Zn  Zn118  1  0.30985485  0.81030896  0.81183782  1
  Zn  Zn119  1  0.81008066  0.31496030  0.31254971  1
  Zn  Zn120  1  0.81282842  0.31399860  0.81749680  1
  Zn  Zn121  1  0.81477452  0.81022067  0.31480399  1
  Zn  Zn122  1  0.81674825  0.82790782  0.80836361  1
  Zn  Zn123  1  0.18858385  0.43760304  0.43655395  1
  Zn  Zn124  1  0.19199678  0.43677195  0.93546802  1
  Zn  Zn125  1  0.18963745  0.93809104  0.46497861  1
  Zn  Zn126  1  0.18565052  0.93819848  0.93578371  1
  Zn  Zn127  1  0.68845003  0.43735282  0.43538169  1
  Zn  Zn128  1  0.68947535  0.43791739  0.93726124  1
  Zn  Zn129  1  0.69089987  0.93716477  0.43210765  1
  Zn  Zn130  1  0.68562851  0.94215977  0.93484261  1
  Zn  Zn131  1  0.30764666  0.06127564  0.05685597  1
  Zn  Zn132  1  0.31595029  0.05999312  0.56018522  1
  Zn  Zn133  1  0.31949084  0.55670243  0.06561055  1
  Zn  Zn134  1  0.31186449  0.56436768  0.56164597  1
  Zn  Zn135  1  0.80667605  0.05719750  0.05608502  1
  Zn  Zn136  1  0.82045398  0.06848236  0.55511981  1
  Zn  Zn137  1  0.81417371  0.56467745  0.06114174  1
  Zn  Zn138  1  0.81438842  0.56396025  0.56655721  1
  Zn  Zn139  1  0.43803387  0.43169769  0.18525117  1
  Zn  Zn140  1  0.43730080  0.43829963  0.68621732  1
  Zn  Zn141  1  0.43771963  0.93219944  0.18645954  1
  Zn  Zn142  1  0.43918134  0.93370718  0.68610681  1
  Zn  Zn143  1  0.93859636  0.43991326  0.18726586  1
  Zn  Zn144  1  0.94030186  0.44212780  0.68871155  1
  Zn  Zn145  1  0.94044236  0.93048559  0.18373805  1
  Zn  Zn146  1  0.99997619  0.95973233  0.70883129  1
  Zn  Zn147  1  0.05524483  0.06843993  0.31667500  1
  Zn  Zn148  1  0.05448613  0.06625991  0.82207576  1
  Zn  Zn149  1  0.06254964  0.55988746  0.30489419  1
  Zn  Zn150  1  0.06798641  0.56307983  0.81518033  1
  Zn  Zn151  1  0.56535289  0.06080864  0.31588058  1
  Zn  Zn152  1  0.55719817  0.06623623  0.81741741  1
  Zn  Zn153  1  0.56313831  0.56065908  0.31598402  1
  Zn  Zn154  1  0.56499161  0.56884902  0.81589715  1
  Zn  Zn155  1  0.43823051  0.18277136  0.43599876  1
  Zn  Zn156  1  0.43464610  0.18383608  0.93262907  1
  Zn  Zn157  1  0.43401124  0.68323722  0.43849751  1
  Zn  Zn158  1  0.47621765  0.70507022  0.95220032  1
  Zn  Zn159  1  0.93480279  0.19011573  0.43701399  1
  Zn  Zn160  1  0.93284700  0.18813915  0.93435049  1
  Zn  Zn161  1  0.94030776  0.69351241  0.43456531  1
  Zn  Zn162  1  0.93133812  0.69231189  0.93788124  1
  Zn  Zn163  1  0.05916831  0.31148257  0.06382362  1
  Zn  Zn164  1  0.06178951  0.31394430  0.56532357  1
  Zn  Zn165  1  0.06876898  0.80598007  0.06101383  1
  Zn  Zn166  1  0.05839275  0.81221469  0.56407034  1
  Zn  Zn167  1  0.56041489  0.31170572  0.06308546  1
  Zn  Zn168  1  0.56427395  0.31268540  0.56732367  1
  Zn  Zn169  1  0.55448906  0.81849612  0.06650491  1
  Zn  Zn170  1  0.56628471  0.81235732  0.56896944  1
  O  O171  1  0.11538544  0.11658605  0.11868981  1
  O  O172  1  0.12331909  0.13469181  0.61030624  1
  O  O173  1  0.11257170  0.61813771  0.12471592  1
  O  O174  1  0.11129451  0.62370517  0.63046535  1
  O  O175  1  0.61982327  0.12905956  0.10950595  1
  O  O176  1  0.60904626  0.13426316  0.61858722  1
  O  O177  1  0.62126832  0.61900134  0.12171460  1
  O  O178  1  0.62595520  0.61752952  0.61327584  1
  O  O179  1  0.37012864  0.38630474  0.38020163  1
  O  O180  1  0.36793192  0.38722741  0.88238297  1
  O  O181  1  0.38447439  0.87778541  0.38231586  1
  O  O182  1  0.37360885  0.88166063  0.88057341  1
  O  O183  1  0.88032930  0.38188756  0.38119171  1
  O  O184  1  0.88366472  0.38009561  0.88472996  1
  O  O185  1  0.87345978  0.87979401  0.38705832  1
  O  O186  1  0.88888362  0.86651395  0.89062234  1
  O  O187  1  0.25196403  0.00039928  0.36922842  1
  O  O188  1  0.25368362  0.00694852  0.86882741  1
  O  O189  1  0.25787821  0.50366527  0.36994583  1
  O  O190  1  0.25449278  0.50914551  0.86779963  1
  O  O191  1  0.75735857  0.00937046  0.37090221  1
  O  O192  1  0.75979893  -0.00317115  0.87444643  1
  O  O193  1  0.75732819  0.50593725  0.36820772  1
  O  O194  1  0.75400042  0.50148473  0.86381308  1
  O  O195  1  0.24709256  0.48894829  0.12891814  1
  O  O196  1  0.24584826  0.49735775  0.63158261  1
  O  O197  1  0.23722767  1.00157144  0.12701946  1
  O  O198  1  0.25331766  0.98440592  0.62210977  1
  O  O199  1  0.74385065  0.49609960  0.13085787  1
  O  O200  1  0.74482141  0.49837887  0.63716793  1
  O  O201  1  0.73993976  1.00716484  0.12975810  1
  O  O202  1  0.75323425  0.99112793  0.61397234  1
  O  O203  1  -0.00032068  0.36841857  0.25819653  1
  O  O204  1  0.00850180  0.37370009  0.75594430  1
  O  O205  1  0.00029656  0.85689970  0.24988833  1
  O  O206  1  -0.00375229  0.85852614  0.76889587  1
  O  O207  1  0.51164762  0.36575184  0.24736982  1
  O  O208  1  0.50826872  0.36676200  0.74316978  1
  O  O209  1  0.50476019  0.86572574  0.25879655  1
  O  O210  1  0.51732470  0.86797902  0.74158905  1
  O  O211  1  0.49724314  0.13501489  0.25555168  1
  O  O212  1  0.49547287  0.13369080  0.74209377  1
  O  O213  1  0.49856209  0.62944299  0.24697907  1
  O  O214  1  0.50019227  0.63694805  0.74686191  1
  O  O215  1  1.00185288  0.13439896  0.24117000  1
  O  O216  1  1.00806242  0.14855921  0.75175272  1
  O  O217  1  0.99343991  0.63417362  0.24557024  1
  O  O218  1  0.99017425  0.62341592  0.74898804  1
  O  O219  1  0.37528558  0.25563287  0.00452707  1
  O  O220  1  0.37223609  0.25448156  0.50244558  1
  O  O221  1  0.38710495  0.75922985  0.01001093  1
  O  O222  1  0.37377798  0.75851418  0.50613503  1
  O  O223  1  0.87365424  0.26312928  0.00342655  1
  O  O224  1  0.86328439  0.26283231  0.49781854  1
  O  O225  1  0.87822173  0.76300367  0.01064529  1
  O  O226  1  0.87066370  0.75761516  0.50623555  1
  O  O227  1  0.13106527  0.24770885  0.49226498  1
  O  O228  1  0.12552636  0.23613129  1.00669842  1
  O  O229  1  0.13544204  0.75467274  0.49923712  1
  O  O230  1  0.13519149  0.75281038  0.98368159  1
  O  O231  1  0.63486795  0.25597427  0.49210594  1
  O  O232  1  0.61941801  0.24492175  0.99096621  1
  O  O233  1  0.63264158  0.74053071  0.50523663  1
  O  O234  1  0.58012011  0.74018351  0.99349848  1
  O  O235  1  0.48913909  0.25393871  0.13440091  1
  O  O236  1  0.49353049  0.24501612  0.63258009  1
  O  O237  1  0.48895491  0.74516851  0.14094046  1
  O  O238  1  0.49224043  0.74918620  0.63361669  1
  O  O239  1  0.99849144  0.24086706  0.13443467  1
  O  O240  1  0.99768183  0.25464207  0.63932033  1
  O  O241  1  0.99713089  0.73849816  0.13406651  1
  O  O242  1  0.99160214  0.73966349  0.62238805  1
  O  O243  1  0.00207156  0.25933473  0.36888598  1
  O  O244  1  -0.00114095  0.26582281  0.86341366  1
  O  O245  1  0.00073140  0.75271084  0.35852982  1
  O  O246  1  0.01120699  0.75395195  0.88233707  1
  O  O247  1  0.51148261  0.24722245  0.37028926  1
  O  O248  1  0.50505599  0.24723183  0.86190449  1
  O  O249  1  0.49256074  0.75460952  0.36555910  1
  O  O250  1  0.49082997  0.75885358  0.85110827  1
  O  O251  1  0.24473407  0.12843775  0.49070388  1
  O  O252  1  0.23900480  0.12620187  0.99093056  1
  O  O253  1  0.25382495  0.63363207  0.49184560  1
  O  O254  1  0.25494941  0.61940540  0.99443940  1
  O  O255  1  0.74862973  0.13680010  0.49113303  1
  O  O256  1  0.73833223  0.12896551  0.99294106  1
  O  O257  1  0.74444286  0.63090694  0.49805492  1
  O  O258  1  0.75616472  0.62645478  0.98222614  1
  O  O259  1  0.26059139  0.37137504  0.00558407  1
  O  O260  1  0.25701336  0.36837377  0.50437086  1
  O  O261  1  0.26404121  0.88352014  0.00310616  1
  O  O262  1  0.26101620  0.86455505  0.50870231  1
  O  O263  1  0.75406878  0.37444950  0.01229545  1
  O  O264  1  0.75634992  0.37157722  0.50480851  1
  O  O265  1  0.75938598  0.87304427  -0.00236386  1
  O  O266  1  0.75297413  0.86950265  0.50595680  1
  O  O267  1  0.13437419  0.49633409  0.23880787  1
  O  O268  1  0.13282626  0.49449967  0.74198075  1
  O  O269  1  0.12586356  1.00102742  0.24673634  1
  O  O270  1  0.10073106  0.99926252  0.74539527  1
  O  O271  1  0.62851714  0.49221426  0.24567261  1
  O  O272  1  0.63006948  0.49608186  0.74786749  1
  O  O273  1  0.62039518  0.98368051  0.25134149  1
  O  O274  1  0.61755210  0.99361462  0.74690710  1
  O  O275  1  0.38174629  -0.00119745  0.26276461  1
  O  O276  1  0.37931562  -0.00148829  0.76062393  1
  O  O277  1  0.37152217  0.50018707  0.25620141  1
  O  O278  1  0.36848375  0.50063858  0.75654813  1
  O  O279  1  0.87719395  -0.01157452  0.26304184  1
  O  O280  1  0.89982893  -0.00726118  0.75196731  1
  O  O281  1  0.87087290  0.51241312  0.25401262  1
  O  O282  1  0.86762758  0.51117774  0.74990815  1
  O  O283  1  0.11653869  0.37083888  0.37422424  1
  O  O284  1  0.12004358  0.38101300  0.86590589  1
  O  O285  1  0.13597143  0.88910029  0.36809211  1
  O  O286  1  0.11154175  0.86655164  0.88204074  1
  O  O287  1  0.63279141  0.36566506  0.36287743  1
  O  O288  1  0.62425406  0.37214076  0.86418875  1
  O  O289  1  0.61323273  0.87462695  0.36944073  1
  O  O290  1  0.62453879  0.87885470  0.85546710  1
  O  O291  1  0.36521371  0.13792452  0.12418382  1
  O  O292  1  0.38260017  0.13231562  0.62361214  1
  O  O293  1  0.38237091  0.62750078  0.13360816  1
  O  O294  1  0.37615689  0.63743477  0.62555956  1
  O  O295  1  0.88778139  0.12349137  0.11621550  1
  O  O296  1  0.88097459  0.13198664  0.62609198  1
  O  O297  1  0.88457162  0.62892345  0.13191350  1
  O  O298  1  0.88554468  0.63192842  0.63033843  1
  O  O299  1  0.25381482  0.26011472  0.12441581  1
  O  O300  1  0.25592486  0.25580235  0.61962560  1
  O  O301  1  0.26493259  0.74691891  0.13019909  1
  O  O302  1  0.25517679  0.75583495  0.62006883  1
  O  O303  1  0.75185179  0.25964176  0.12421074  1
  O  O304  1  0.74952884  0.26003528  0.61446338  1
  O  O305  1  0.76141860  0.73799368  0.12533874  1
  O  O306  1  0.75908671  0.75176526  0.61327011  1
  O  O307  1  0.24721543  0.24302075  0.37954559  1
  O  O308  1  0.25472802  0.23420420  0.87309344  1
  O  O309  1  0.25559876  0.73742664  0.38653880  1
  O  O310  1  0.25840896  0.73164731  0.87968699  1
  O  O311  1  0.74243239  0.24608554  0.37928334  1
  O  O312  1  0.73315461  0.25772982  0.87851522  1
  O  O313  1  0.75620136  0.74345327  0.39066914  1
  O  O314  1  0.75402086  0.74380937  0.86685550  1
  O  O315  1  0.00499277  0.11460867  0.00483970  1
  O  O316  1  0.00894005  0.12223376  0.49531488  1
  O  O317  1  -0.00764829  0.62653392  0.01380217  1
  O  O318  1  -0.00338249  0.62642967  0.51064223  1
  O  O319  1  0.50101431  0.11192809  -0.00534214  1
  O  O320  1  0.50065127  0.11409860  0.50566510  1
  O  O321  1  0.48927089  0.60533248  0.01083174  1
  O  O322  1  0.50736133  0.61536370  0.50042681  1
  O  O323  1  0.49644897  0.38579595  0.50544772  1
  O  O324  1  0.48785194  0.38364270  1.00444295  1
  O  O325  1  0.49645629  0.87690366  0.49642759  1
  O  O326  1  0.48753783  0.88983520  0.99775751  1
  O  O327  1  0.98989066  0.37011431  0.49037729  1
  O  O328  1  0.99467962  0.37319441  0.99261179  1
  O  O329  1  0.99328045  0.88115105  0.49492029  1
  O  O330  1  0.99875718  0.88187790  1.00299337  1
  O  O331  1  0.49162827  0.50063160  0.38436474  1
  O  O332  1  0.49181957  0.50490023  0.88155245  1
  O  O333  1  0.49346587  0.99116705  0.38302895  1
  O  O334  1  0.48849659  0.99714937  0.88284020  1
  O  O335  1  0.99505559  0.48838361  0.36850468  1
  O  O336  1  0.99853271  0.48874203  0.86974362  1
  O  O337  1  0.99369020  0.99550253  0.38152027  1
  O  O338  1  0.99942436  0.98303119  0.88842486  1
  O  O339  1  0.00752884  0.00418765  0.12203347  1
  O  O340  1  -0.00318356  0.00630052  0.60379819  1
  O  O341  1  0.00791747  0.51458038  0.13128528  1
  O  O342  1  0.00732840  0.51638392  0.62758354  1
  O  O343  1  0.49863463  -0.00117817  0.11146967  1
  O  O344  1  0.49085728  0.00883139  0.61476492  1
  O  O345  1  0.50693576  0.50132500  0.12026501  1
  O  O346  1  0.50610052  0.50319387  0.61684800  1
  O  O347  1  0.24905965  0.37920151  0.24077689  1
  O  O348  1  0.24405137  0.38547066  0.74556333  1
  O  O349  1  0.25222014  0.87562543  0.25084705  1
  O  O350  1  0.25284806  0.87983413  0.73659912  1
  O  O351  1  0.74331478  0.38061980  0.23995757  1
  O  O352  1  0.74384126  0.38353722  0.74696153  1
  O  O353  1  0.73468120  0.87275183  0.25886723  1
  O  O354  1  0.74087087  0.87663194  0.73496051  1
  O  O355  1  0.25126666  0.13060174  0.26194209  1
  O  O356  1  0.24674425  0.11723336  0.75434629  1
  O  O357  1  0.25706278  0.61646003  0.25650850  1
  O  O358  1  0.25264233  0.61443207  0.74951191  1
  O  O359  1  0.74584214  0.12653366  0.26207209  1
  O  O360  1  0.75143409  0.13675216  0.75648192  1
  O  O361  1  0.75611157  0.62114640  0.25757403  1
  O  O362  1  0.75835542  0.62069961  0.75758102  1
  O  O363  1  0.36513390  0.11224076  0.37628305  1
  O  O364  1  0.36390323  0.11456932  0.87127231  1
  O  O365  1  0.36941040  0.61128290  0.37082499  1
  O  O366  1  0.36435090  0.61120793  0.87488747  1
  O  O367  1  0.86619346  0.11578536  0.37915795  1
  O  O368  1  0.87502336  0.12024908  0.86782412  1
  O  O369  1  0.87236423  0.62169463  0.36880365  1
  O  O370  1  0.86775852  0.62597229  0.86739708  1
  O  O371  1  0.13226576  0.38006881  0.12462218  1
  O  O372  1  0.13063627  0.38533631  0.63083181  1
  O  O373  1  0.12812219  0.88498153  0.12258432  1
  O  O374  1  0.14055180  0.87212682  0.61929259  1
  O  O375  1  0.63183201  0.37935146  0.13166830  1
  O  O376  1  0.63134594  0.38159402  0.63620177  1
  O  O377  1  0.61928903  0.87590037  0.14076738  1
  O  O378  1  0.64119242  0.87566874  0.63056572  1
  O  O379  1  0.11403278  0.25304252  0.25721244  1
  O  O380  1  0.11823615  0.26792096  0.74509327  1
  O  O381  1  0.11645213  0.74563029  0.24677969  1
  O  O382  1  0.14261430  0.75252259  0.78117007  1
  O  O383  1  0.61755125  0.25495409  0.25513944  1
  O  O384  1  0.61578592  0.25979062  0.75601677  1
  O  O385  1  0.61558870  0.76057371  0.25044373  1
  O  O386  1  0.61567393  0.75308660  0.74072418  1
  O  O387  1  0.38382455  0.24810154  0.24220118  1
  O  O388  1  0.38071950  0.25032407  0.74311124  1
  O  O389  1  0.38266456  0.74045838  0.24617824  1
  O  O390  1  0.38170111  0.75129413  0.73990390  1
  O  O391  1  0.88512810  0.25403424  0.24916228  1
  O  O392  1  0.88952342  0.26367162  0.74815542  1
  O  O393  1  0.87686197  0.74037302  0.24395320  1
  O  O394  1  0.86731546  0.74441485  0.73652126  1
  O  O395  1  0.38286041  0.49578700  0.49384425  1
  O  O396  1  0.38098878  0.48958236  0.99256448  1
  O  O397  1  0.38001796  0.98651934  0.48979178  1
  O  O398  1  0.38054182  0.99717071  0.99210558  1
  O  O399  1  0.86911163  0.49015475  0.49482587  1
  O  O400  1  0.87089125  0.48559831  1.00121985  1
  O  O401  1  0.88060328  0.99303297  0.48793273  1
  O  O402  1  0.88276515  0.98336011  1.00255107  1
  O  O403  1  0.11755779  0.00604925  0.00793521  1
  O  O404  1  0.11595716  0.01494460  0.49276644  1
  O  O405  1  0.13035405  0.49611201  0.01193547  1
  O  O406  1  0.13118246  0.49780631  0.51497526  1
  O  O407  1  0.60951545  0.00611893  -0.00105146  1
  O  O408  1  0.61239046  -0.00190958  0.49427769  1
  O  O409  1  0.61609197  0.49656741  0.00467008  1
  O  O410  1  0.61880199  0.50306443  0.50362137  1
  O  O411  1  0.36721872  0.36599739  0.11703296  1
  O  O412  1  0.36828738  0.37024438  0.61782743  1
  O  O413  1  0.37118616  0.86555625  0.11917820  1
  O  O414  1  0.36949518  0.86531321  0.61836638  1
  O  O415  1  0.86775669  0.37506180  0.12167032  1
  O  O416  1  0.86994204  0.37816476  0.61729966  1
  O  O417  1  0.87440197  0.86491449  0.11429116  1
  O  O418  1  0.86186413  0.86758661  0.61212575  1
  O  O419  1  0.13232139  0.13281107  0.38081670  1
  O  O420  1  0.13053241  0.12152874  0.88750732  1
  O  O421  1  0.13786586  0.61501003  0.37166746  1
  O  O422  1  0.13938673  0.62984481  0.87851176  1
  O  O423  1  0.63198897  0.13420530  0.37997186  1
  O  O424  1  0.62197678  0.13519414  0.88432341  1
  O  O425  1  0.63238574  0.61870416  0.38895288  1
  O  O426  1  0.64454915  0.62589045  0.87574032  1
