# generated using pymatgen
data_V85Zn86O256
_symmetry_space_group_name_H-M   'P 1'
_cell_length_a   16.94505368
_cell_length_b   16.93770541
_cell_length_c   16.94909065
_cell_angle_alpha   89.97647855
_cell_angle_beta   90.07487323
_cell_angle_gamma   90.02458999
_symmetry_Int_Tables_number   1
_chemical_formula_structural   V85Zn86O256
_chemical_formula_sum   'V85 Zn86 O256'
_cell_volume   4864.55904604
_cell_formula_units_Z   1
loop_
 _symmetry_equiv_pos_site_id
 _symmetry_equiv_pos_as_xyz
  1  'x, y, z'
loop_
 _atom_site_type_symbol
 _atom_site_label
 _atom_site_symmetry_multiplicity
 _atom_site_fract_x
 _atom_site_fract_y
 _atom_site_fract_z
 _atom_site_occupancy
  V  V0  1  0.75721432  0.13279794  0.87559999  1
  V  V1  1  0.87304819  0.62031676  0.25147699  1
  V  V2  1  0.00647166  0.36690803  0.87332759  1
  V  V3  1  0.74520851  0.49893184  0.74487426  1
  V  V4  1  0.37459867  0.87557667  0.50092856  1
  V  V5  1  0.62721442  0.13010821  -0.00312577  1
  V  V6  1  0.12080592  0.87760085  0.75655903  1
  V  V7  1  0.63182441  0.37603590  0.25009987  1
  V  V8  1  0.12390927  0.12213947  0.48916813  1
  V  V9  1  0.24898879  0.87489142  0.62513949  1
  V  V10  1  -0.00075083  0.13202223  0.12342041  1
  V  V11  1  0.24870378  0.13836727  0.87395094  1
  V  V12  1  0.00600729  0.49466050  -0.00067323  1
  V  V13  1  0.49965633  0.12894105  0.62843306  1
  V  V14  1  0.37881076  0.75200760  0.63277446  1
  V  V15  1  0.50426050  0.62481983  0.63362234  1
  V  V16  1  -0.00449788  0.12400652  0.62305740  1
  V  V17  1  0.12366677  0.75068716  0.87693565  1
  V  V18  1  0.12329483  0.63305569  0.49516425  1
  V  V19  1  0.38130201  0.49137174  0.87672965  1
  V  V20  1  0.63503541  0.50091420  0.12662567  1
  V  V21  1  0.62622471  0.00121162  0.62669692  1
  V  V22  1  0.25098799  0.62201910  0.87770240  1
  V  V23  1  0.25086046  0.87380417  0.12920350  1
  V  V24  1  0.75708491  0.00477139  0.75008187  1
  V  V25  1  0.25313874  0.37743165  0.61471360  1
  V  V26  1  0.87369490  0.75220696  0.62458980  1
  V  V27  1  0.00879964  0.74809376  0.25424748  1
  V  V28  1  0.25124939  0.24845241  0.48988693  1
  V  V29  1  -0.00756848  0.24592210  0.74814221  1
  V  V30  1  0.62205205  0.25131003  0.37751547  1
  V  V31  1  0.88285597  0.00027529  0.37333692  1
  V  V32  1  0.75348867  0.87589451  0.12416531  1
  V  V33  1  0.25232839  0.74592499  0.00238894  1
  V  V34  1  0.50362915  0.87573789  0.36909715  1
  V  V35  1  0.62368630  -0.00018935  0.12616858  1
  V  V36  1  0.24957227  0.00195478  0.75103876  1
  V  V37  1  0.24894478  0.50047473  0.74955652  1
  V  V38  1  0.37728122  0.25637605  0.61955239  1
  V  V39  1  0.50042286  -0.00010990  0.50047944  1
  V  V40  1  0.00099770  0.62391034  0.62356180  1
  V  V41  1  0.37179762  0.00858883  0.37652045  1
  V  V42  1  0.62279460  0.87107729  0.74881076  1
  V  V43  1  0.75103599  0.62536811  0.87388691  1
  V  V44  1  0.75430654  -0.00104127  0.24545427  1
  V  V45  1  0.12857002  0.36507877  0.74943679  1
  V  V46  1  0.74866419  0.35703454  0.11201099  1
  V  V47  1  -0.00424528  0.48839780  0.49695460  1
  V  V48  1  0.62282252  0.62700110  -0.00041779  1
  V  V49  1  0.75086469  0.12320032  0.37448926  1
  V  V50  1  0.37561879  0.87161670  0.00156179  1
  V  V51  1  0.50061954  -0.00055564  -0.00023308  1
  V  V52  1  0.12628784  0.12423804  -0.00182769  1
  V  V53  1  0.61865308  0.37411510  0.75055645  1
  V  V54  1  0.24791537  0.00441295  0.25388245  1
  V  V55  1  0.25276989  0.63387007  0.36950207  1
  V  V56  1  0.00641493  0.87167883  0.37702155  1
  V  V57  1  0.36895048  0.49209549  0.38338108  1
  V  V58  1  0.87807280  0.87908379  0.49893528  1
  V  V59  1  0.49539637  0.25265818  0.24279307  1
  V  V60  1  0.50222059  0.49194406  -0.00074323  1
  V  V61  1  0.25591136  0.49220400  0.24363314  1
  V  V62  1  0.88026136  0.74927737  0.12565840  1
  V  V63  1  0.74968086  0.62550784  0.37226858  1
  V  V64  1  0.37385390  0.00116807  0.87481026  1
  V  V65  1  0.12811335  0.62005888  0.00879931  1
  V  V66  1  0.49871824  0.86498569  0.87113959  1
  V  V67  1  0.38180823  0.73855754  0.13924143  1
  V  V68  1  0.56580318  0.70624772  0.31659239  1
  V  V69  1  0.62726012  0.12611639  0.50084228  1
  V  V70  1  0.07654427  0.43740011  0.18241663  1
  V  V71  1  0.87621761  0.62434522  0.75042873  1
  V  V72  1  0.37223421  0.12905243  0.24338635  1
  V  V73  1  0.25463485  0.25252347  0.01952543  1
  V  V74  1  -0.00141501  0.75317267  0.75603549  1
  V  V75  1  0.88065929  -0.00633890  0.88031947  1
  V  V76  1  0.12049848  0.00262784  0.62191896  1
  V  V77  1  0.75153140  0.75309475  -0.00315391  1
  V  V78  1  0.87664568  0.49568657  0.87702729  1
  V  V79  1  0.88105541  0.13776948  0.24417228  1
  V  V80  1  0.11077127  0.26576792  0.36782642  1
  V  V81  1  0.75433970  0.37564844  0.61948551  1
  V  V82  1  0.74463712  0.75133666  0.49686627  1
  V  V83  1  0.61968043  0.62327965  0.50206060  1
  V  V84  1  0.87160925  0.49033372  0.37809412  1
  Zn  Zn85  1  0.37912391  0.36270280  0.01331638  1
  Zn  Zn86  1  0.12201540  -0.00189715  0.12762403  1
  Zn  Zn87  1  0.49656539  0.49275251  0.50623290  1
  Zn  Zn88  1  0.75619015  0.25780149  0.49525235  1
  Zn  Zn89  1  0.89092966  0.86741259  -0.00868022  1
  Zn  Zn90  1  0.87626535  0.35554679  -0.00077049  1
  Zn  Zn91  1  0.49581366  0.12876827  0.12133245  1
  Zn  Zn92  1  0.62112418  0.74788992  0.87013438  1
  Zn  Zn93  1  0.00234464  0.61681789  0.12993519  1
  Zn  Zn94  1  0.62602642  0.87415544  0.25418955  1
  Zn  Zn95  1  0.87752371  0.25269264  0.61639064  1
  Zn  Zn96  1  0.12442439  0.49904345  0.62302978  1
  Zn  Zn97  1  0.61937415  0.25540552  0.87898991  1
  Zn  Zn98  1  0.00605716  -0.00721684  0.00020379  1
  Zn  Zn99  1  0.49512920  0.25717475  0.75759923  1
  Zn  Zn100  1  0.12855319  0.87181759  0.25679990  1
  Zn  Zn101  1  0.49089752  0.37074961  0.38363248  1
  Zn  Zn102  1  0.50484511  0.62750367  0.13868336  1
  Zn  Zn103  1  0.24403132  0.75301833  0.49881605  1
  Zn  Zn104  1  0.74936706  0.87757556  0.62394823  1
  Zn  Zn105  1  0.37503320  0.12867564  0.74980358  1
  Zn  Zn106  1  0.37827853  0.63003334  0.75288555  1
  Zn  Zn107  1  0.18278141  0.18568969  0.19055013  1
  Zn  Zn108  1  0.18881249  0.18793681  0.68291933  1
  Zn  Zn109  1  0.19137878  0.68376605  0.18817052  1
  Zn  Zn110  1  0.18703819  0.68829741  0.68641807  1
  Zn  Zn111  1  0.68183157  0.18303415  0.19251481  1
  Zn  Zn112  1  0.68948254  0.19219093  0.68985939  1
  Zn  Zn113  1  0.69574817  0.68520631  0.18277666  1
  Zn  Zn114  1  0.68714486  0.68936230  0.68519303  1
  Zn  Zn115  1  0.30583114  0.31431624  0.30622597  1
  Zn  Zn116  1  0.31793482  0.31543538  0.80963196  1
  Zn  Zn117  1  0.31612662  0.81500264  0.31476049  1
  Zn  Zn118  1  0.30927977  0.81305640  0.81278316  1
  Zn  Zn119  1  0.80611747  0.31096151  0.30991115  1
  Zn  Zn120  1  0.81387710  0.31282915  0.81065219  1
  Zn  Zn121  1  0.81483016  0.81036015  0.31234074  1
  Zn  Zn122  1  0.80886702  0.81590988  0.80973434  1
  Zn  Zn123  1  0.18261109  0.44293193  0.43555322  1
  Zn  Zn124  1  0.18910482  0.43199512  0.93923878  1
  Zn  Zn125  1  0.18807637  0.94038904  0.43837221  1
  Zn  Zn126  1  0.18838243  0.93788204  0.93968596  1
  Zn  Zn127  1  0.68463401  0.44105377  0.43741900  1
  Zn  Zn128  1  0.68680527  0.43803301  0.93477050  1
  Zn  Zn129  1  0.68854421  0.93809681  0.43559568  1
  Zn  Zn130  1  0.68950741  0.94013969  0.93595467  1
  Zn  Zn131  1  0.31008759  0.06155177  0.06298178  1
  Zn  Zn132  1  0.30967736  0.06642172  0.56254779  1
  Zn  Zn133  1  0.33502012  0.52980177  0.08547293  1
  Zn  Zn134  1  0.31230405  0.56768219  0.56233104  1
  Zn  Zn135  1  0.81391154  0.18003192  0.05898757  1
  Zn  Zn136  1  0.81372141  0.06349737  0.55972156  1
  Zn  Zn137  1  0.81430923  0.56051478  0.06103324  1
  Zn  Zn138  1  0.81183003  0.56170562  0.56102527  1
  Zn  Zn139  1  0.44169416  0.43973276  0.19299660  1
  Zn  Zn140  1  0.43429863  0.44249882  0.68481586  1
  Zn  Zn141  1  0.43512387  0.93693151  0.18875576  1
  Zn  Zn142  1  0.43871353  0.93950136  0.68927093  1
  Zn  Zn143  1  0.91325933  0.42996645  0.19325358  1
  Zn  Zn144  1  0.93666913  0.43676910  0.68727193  1
  Zn  Zn145  1  0.94054325  0.93876975  0.18411839  1
  Zn  Zn146  1  0.93787634  0.93922782  0.68848934  1
  Zn  Zn147  1  0.06110333  0.06263367  0.30944616  1
  Zn  Zn148  1  0.06365142  0.06703120  0.81185617  1
  Zn  Zn149  1  0.06220762  0.56328743  0.32034440  1
  Zn  Zn150  1  0.06607147  0.56006023  0.81313395  1
  Zn  Zn151  1  0.55944434  0.06381692  0.31067523  1
  Zn  Zn152  1  0.56437758  0.06203465  0.81318824  1
  Zn  Zn153  1  0.56216545  0.54281392  0.31627709  1
  Zn  Zn154  1  0.56397116  0.56073862  0.81217305  1
  Zn  Zn155  1  0.43820141  0.18901566  0.43812261  1
  Zn  Zn156  1  0.43740039  0.18888551  0.93693182  1
  Zn  Zn157  1  0.42744734  0.68464618  0.44596200  1
  Zn  Zn158  1  0.43478079  0.68228151  0.94241537  1
  Zn  Zn159  1  0.93907164  0.18998118  0.43805173  1
  Zn  Zn160  1  0.94316013  0.18087671  0.93065253  1
  Zn  Zn161  1  0.93459097  0.68783595  0.43753061  1
  Zn  Zn162  1  0.94038178  0.68295671  0.93931184  1
  Zn  Zn163  1  0.06577011  0.30354903  0.05574283  1
  Zn  Zn164  1  0.06768066  0.30880271  0.56183280  1
  Zn  Zn165  1  0.06418780  0.81297517  0.06377148  1
  Zn  Zn166  1  0.05947701  0.81393473  0.56599679  1
  Zn  Zn167  1  0.56286062  0.31235406  0.06239538  1
  Zn  Zn168  1  0.56840149  0.31817799  0.56602073  1
  Zn  Zn169  1  0.56246959  0.81309660  0.06372722  1
  Zn  Zn170  1  0.56104218  0.81072122  0.56161428  1
  O  O171  1  0.11797851  0.12152998  0.11893608  1
  O  O172  1  0.12019126  0.11843229  0.61711774  1
  O  O173  1  0.12172872  0.63119503  0.11130094  1
  O  O174  1  0.11310169  0.62265179  0.62202837  1
  O  O175  1  0.62436123  0.11252198  0.11835117  1
  O  O176  1  0.61964669  0.12269084  0.62040479  1
  O  O177  1  0.62800575  0.61932678  0.11728068  1
  O  O178  1  0.61208518  0.63148508  0.61883704  1
  O  O179  1  0.36997819  0.38835006  0.37375026  1
  O  O180  1  0.36983210  0.38919638  0.88394859  1
  O  O181  1  0.38287593  0.88422782  0.38225843  1
  O  O182  1  0.37998433  0.88052662  0.87891357  1
  O  O183  1  0.86105896  0.39125397  0.36719895  1
  O  O184  1  0.88512972  0.38147180  0.87492912  1
  O  O185  1  0.88167349  0.88095301  0.38021877  1
  O  O186  1  0.87014103  0.88847173  0.87299990  1
  O  O187  1  0.26086542  -0.00547899  0.36718610  1
  O  O188  1  0.26154650  0.00283161  0.87184079  1
  O  O189  1  0.25459014  0.50741578  0.36986271  1
  O  O190  1  0.25479750  0.50569846  0.87027131  1
  O  O191  1  0.75693961  0.00330205  0.36317298  1
  O  O192  1  0.75715186  0.00665158  0.86748949  1
  O  O193  1  0.75610926  0.51697406  0.38422304  1
  O  O194  1  0.76007516  0.50541586  0.87049896  1
  O  O195  1  0.24122850  0.52205296  0.14805923  1
  O  O196  1  0.25097453  0.49487343  0.63239550  1
  O  O197  1  0.25205806  0.98910340  0.13466861  1
  O  O198  1  0.24056490  0.99629532  0.63094822  1
  O  O199  1  0.73906710  0.49215237  0.11673187  1
  O  O200  1  0.75594946  0.49249002  0.63478716  1
  O  O201  1  0.74316011  0.99386068  0.13708917  1
  O  O202  1  0.74378150  1.00166715  0.63225212  1
  O  O203  1  0.00976711  0.38373892  0.23368398  1
  O  O204  1  0.00866600  0.36979115  0.75341085  1
  O  O205  1  0.00041455  0.86631393  0.25845767  1
  O  O206  1  0.00866506  0.86515918  0.74535666  1
  O  O207  1  0.50960128  0.36892536  0.25591445  1
  O  O208  1  0.51574976  0.38230697  0.74200076  1
  O  O209  1  0.50073454  0.87847571  0.26435262  1
  O  O210  1  0.50881231  0.88168976  0.76005438  1
  O  O211  1  0.49186656  0.13385893  0.24724361  1
  O  O212  1  0.50065514  0.12196539  0.73593078  1
  O  O213  1  0.51570973  0.63497082  0.25908828  1
  O  O214  1  0.50100766  0.62588756  0.73806958  1
  O  O215  1  0.98707043  0.12092938  0.24230359  1
  O  O216  1  1.01133274  0.13692918  0.73805644  1
  O  O217  1  0.99341290  0.63085882  0.25103863  1
  O  O218  1  0.99640473  0.62844283  0.74318354  1
  O  O219  1  0.36117450  0.24685991  0.00247632  1
  O  O220  1  0.36684879  0.24365395  0.51046755  1
  O  O221  1  0.36856754  0.75414237  0.00658902  1
  O  O222  1  0.36956834  0.75998472  0.51264852  1
  O  O223  1  0.87431687  0.24368065  -0.00885745  1
  O  O224  1  0.86711627  0.24114145  0.50311420  1
  O  O225  1  0.87012533  0.74762405  0.00637514  1
  O  O226  1  0.86530339  0.75598194  0.50539471  1
  O  O227  1  0.13138171  0.24118389  0.49049476  1
  O  O228  1  0.14062341  0.23405571  0.99997906  1
  O  O229  1  0.12325373  0.73774610  0.50784173  1
  O  O230  1  0.13144769  0.74101857  0.99430389  1
  O  O231  1  0.63026871  0.24354345  0.49228277  1
  O  O232  1  0.62006844  0.23416285  1.00061688  1
  O  O233  1  0.63788218  0.74382368  0.50367826  1
  O  O234  1  0.63419408  0.74406951  0.99915247  1
  O  O235  1  0.50143326  0.25037734  0.13834194  1
  O  O236  1  0.49380528  0.24442516  0.62585955  1
  O  O237  1  0.48674981  0.74918059  0.12251350  1
  O  O238  1  0.49082019  0.73959224  0.62153397  1
  O  O239  1  1.00096802  0.23278860  0.11754312  1
  O  O240  1  1.00094878  0.24216200  0.62958398  1
  O  O241  1  0.99027624  0.74695012  0.13180467  1
  O  O242  1  0.99445867  0.74298429  0.63625866  1
  O  O243  1  0.01204430  0.24879155  0.37456949  1
  O  O244  1  0.00205856  0.25707672  0.86342121  1
  O  O245  1  -0.00867472  0.75871341  0.36549916  1
  O  O246  1  0.00548360  0.74136885  0.86251740  1
  O  O247  1  0.50988187  0.24993284  0.36810392  1
  O  O248  1  0.50514240  0.24342114  0.86931684  1
  O  O249  1  0.49668274  0.75621188  0.37897980  1
  O  O250  1  0.49834384  0.76173092  0.87971120  1
  O  O251  1  0.23544609  0.13581845  0.50667552  1
  O  O252  1  0.24833529  0.13224042  0.99365093  1
  O  O253  1  0.23908506  0.62705072  0.49368737  1
  O  O254  1  0.24329016  0.62703111  0.99194312  1
  O  O255  1  0.74064171  0.12040526  0.49041285  1
  O  O256  1  0.74245752  0.12124603  0.98469584  1
  O  O257  1  0.74234858  0.63296850  0.49631432  1
  O  O258  1  0.74353907  0.63387001  0.99613405  1
  O  O259  1  0.24855819  0.35428842  -0.00332536  1
  O  O260  1  0.24167249  0.37012920  0.51100203  1
  O  O261  1  0.25606805  0.86751850  0.00843214  1
  O  O262  1  0.25587333  0.87549968  0.50723863  1
  O  O263  1  0.74557966  0.37146756  0.00937009  1
  O  O264  1  0.74111326  0.37839444  0.51605634  1
  O  O265  1  0.75147043  0.86306998  0.00287998  1
  O  O266  1  0.75890220  0.86828456  0.49860099  1
  O  O267  1  0.12913769  0.49857426  0.25082406  1
  O  O268  1  0.13634098  0.49185687  0.74817104  1
  O  O269  1  0.13476121  0.99536709  0.25023519  1
  O  O270  1  0.12923593  0.99316700  0.74511280  1
  O  O271  1  0.62613138  0.48830697  0.24096252  1
  O  O272  1  0.63892265  0.49364924  0.75447545  1
  O  O273  1  0.63226038  1.00067259  0.24280849  1
  O  O274  1  0.63237623  0.99165854  0.74516657  1
  O  O275  1  0.37007760  0.00643959  0.25859205  1
  O  O276  1  0.36818773  0.00201886  0.75801126  1
  O  O277  1  0.36272377  0.50309918  0.26363491  1
  O  O278  1  0.36448202  0.50270309  0.75873717  1
  O  O279  1  0.86820785  0.00356261  0.25545372  1
  O  O280  1  0.86138189  -0.00500074  0.75424636  1
  O  O281  1  0.87655231  0.51356357  0.25957490  1
  O  O282  1  0.86993238  0.50397379  0.76072130  1
  O  O283  1  0.12187754  0.36538532  0.38006727  1
  O  O284  1  0.11422969  0.37982087  0.86490262  1
  O  O285  1  0.11036150  0.87811717  0.37930692  1
  O  O286  1  0.13232286  0.87006184  0.86276834  1
  O  O287  1  0.63022956  0.36725220  0.36528168  1
  O  O288  1  0.63482793  0.37342835  0.85682205  1
  O  O289  1  0.61265285  0.87712772  0.37513064  1
  O  O290  1  0.61555287  0.87545258  0.86842092  1
  O  O291  1  0.37783990  0.11695274  0.13969978  1
  O  O292  1  0.38370908  0.13167791  0.62603091  1
  O  O293  1  0.38262109  0.63504542  0.12532552  1
  O  O294  1  0.38245968  0.63522677  0.62809080  1
  O  O295  1  0.87883138  0.12272292  0.13789891  1
  O  O296  1  0.89261976  0.11845755  0.62145019  1
  O  O297  1  0.87698877  0.62945767  0.13290123  1
  O  O298  1  0.88398194  0.63033902  0.62996290  1
  O  O299  1  0.25137662  0.24558540  0.11803453  1
  O  O300  1  0.25705879  0.25834266  0.61669041  1
  O  O301  1  0.26151095  0.75248532  0.12271681  1
  O  O302  1  0.25520044  0.75880937  0.62434403  1
  O  O303  1  0.74313606  0.25332244  0.12220191  1
  O  O304  1  0.75348851  0.26345018  0.62586081  1
  O  O305  1  0.76247906  0.75349230  0.11649645  1
  O  O306  1  0.75769108  0.75323036  0.61749297  1
  O  O307  1  0.24879517  0.25525881  0.38837807  1
  O  O308  1  0.25589861  0.23928962  0.87206762  1
  O  O309  1  0.25528730  0.73900040  0.37833076  1
  O  O310  1  0.24430987  0.74201248  0.88002056  1
  O  O311  1  0.73687303  0.24129805  0.37238469  1
  O  O312  1  0.74670477  0.23515042  0.86560665  1
  O  O313  1  0.75688362  0.73885978  0.38470029  1
  O  O314  1  0.75049691  0.74411875  0.88198386  1
  O  O315  1  0.01146430  0.11786752  0.00243101  1
  O  O316  1  0.01659684  0.12786390  0.50822694  1
  O  O317  1  0.00860692  0.61274562  0.00269604  1
  O  O318  1  0.00345194  0.62291785  0.50763597  1
  O  O319  1  0.50638112  0.11494387  0.00259496  1
  O  O320  1  0.50702679  0.12117358  0.50950506  1
  O  O321  1  0.51616367  0.62295350  -0.00000401  1
  O  O322  1  0.50587690  0.62727926  0.50948892  1
  O  O323  1  0.51171714  0.38058241  0.49474912  1
  O  O324  1  0.50130489  0.38790950  1.00142663  1
  O  O325  1  0.49384381  0.88089657  0.49371987  1
  O  O326  1  0.49526745  0.88035967  0.99213149  1
  O  O327  1  1.00339314  0.39065289  0.50932599  1
  O  O328  1  1.00065646  0.37787075  0.99002804  1
  O  O329  1  0.98636823  0.86738603  0.49329025  1
  O  O330  1  1.00398328  0.87818102  0.99810665  1
  O  O331  1  0.47953571  0.49986501  0.37845490  1
  O  O332  1  0.49230244  0.50573987  0.88214892  1
  O  O333  1  0.49369071  0.99439618  0.38163122  1
  O  O334  1  0.48880275  0.99455236  0.87897578  1
  O  O335  1  0.98962044  0.50389161  0.38980359  1
  O  O336  1  0.99484032  0.49248151  0.87977574  1
  O  O337  1  0.98829066  0.99098764  0.36903498  1
  O  O338  1  0.98273587  1.00822335  0.86839843  1
  O  O339  1  0.00303299  0.00996170  0.12200969  1
  O  O340  1  0.01365459  0.00587512  0.63096101  1
  O  O341  1  0.00464850  0.49437967  0.12014216  1
  O  O342  1  -0.00211310  0.50852776  0.61683908  1
  O  O343  1  0.50829600  -0.00287234  0.11936111  1
  O  O344  1  0.50525380  0.00754726  0.61873535  1
  O  O345  1  0.51694616  0.50787940  0.11795683  1
  O  O346  1  0.49140667  0.52027147  0.62206929  1
  O  O347  1  0.24862051  0.39237047  0.24612777  1
  O  O348  1  0.24495286  0.38128547  0.74342606  1
  O  O349  1  0.25139096  0.88296821  0.24596065  1
  O  O350  1  0.24134854  0.88141361  0.74408724  1
  O  O351  1  0.73750470  0.36626063  0.23345812  1
  O  O352  1  0.74636148  0.38296443  0.74344324  1
  O  O353  1  0.75039640  0.88156120  0.24507293  1
  O  O354  1  0.74046084  0.88530987  0.74668399  1
  O  O355  1  0.25692673  0.11244533  0.24743492  1
  O  O356  1  0.24907131  0.11912179  0.75681341  1
  O  O357  1  0.24312291  0.62013098  0.26775343  1
  O  O358  1  0.24779728  0.61655784  0.75747061  1
  O  O359  1  0.75969888  0.11743847  0.25352775  1
  O  O360  1  0.74080745  0.11530085  0.76194478  1
  O  O361  1  0.75987700  0.63099752  0.26001565  1
  O  O362  1  0.75560703  0.61859686  0.75215327  1
  O  O363  1  0.38184038  0.11296407  0.36832033  1
  O  O364  1  0.36695246  0.11521738  0.87279427  1
  O  O365  1  0.35776459  0.61702957  0.38155250  1
  O  O366  1  0.36265570  0.62314444  0.87117080  1
  O  O367  1  0.87363796  0.11617673  0.36404379  1
  O  O368  1  0.86135837  0.11380901  0.87240293  1
  O  O369  1  0.86724745  0.62003423  0.36907078  1
  O  O370  1  0.87149777  0.61689005  0.86950322  1
  O  O371  1  0.12651025  0.37745546  0.12064240  1
  O  O372  1  0.13425855  0.37819750  0.63214663  1
  O  O373  1  0.14183909  0.87117497  0.12943148  1
  O  O374  1  0.12766191  0.88316248  0.63224010  1
  O  O375  1  0.63354809  0.37969809  0.12771186  1
  O  O376  1  0.64034198  0.37546147  0.64001969  1
  O  O377  1  0.63227777  0.88472839  0.12592498  1
  O  O378  1  0.62381180  0.88265610  0.63100353  1
  O  O379  1  0.13433851  0.24581490  0.27149319  1
  O  O380  1  0.12075915  0.26173832  0.74356057  1
  O  O381  1  0.11219827  0.74972367  0.24579934  1
  O  O382  1  0.11803749  0.75733107  0.75466810  1
  O  O383  1  0.61565312  0.25369509  0.25724255  1
  O  O384  1  0.62117627  0.26462104  0.74985138  1
  O  O385  1  0.62906296  0.75440156  0.24995403  1
  O  O386  1  0.63153959  0.76600358  0.75147596  1
  O  O387  1  0.38173493  0.24088217  0.25951269  1
  O  O388  1  0.37700850  0.24898414  0.73564866  1
  O  O389  1  0.37388250  0.75158145  0.23729970  1
  O  O390  1  0.37015410  0.75168501  0.73755714  1
  O  O391  1  0.87215553  0.23577946  0.25341389  1
  O  O392  1  0.88938254  0.25352271  0.74357745  1
  O  O393  1  0.88180277  0.74092523  0.24224354  1
  O  O394  1  0.88094291  0.74650957  0.74626756  1
  O  O395  1  0.37076142  0.50237838  0.48724134  1
  O  O396  1  0.39226297  0.51915485  0.98699137  1
  O  O397  1  0.37846835  0.99750112  0.49469035  1
  O  O398  1  0.37860062  0.99243061  0.99375906  1
  O  O399  1  0.88705123  0.50542457  0.49366320  1
  O  O400  1  0.88676414  0.49880633  0.98996591  1
  O  O401  1  0.86858667  0.98994311  0.48691138  1
  O  O402  1  0.87652832  0.99503009  0.98162344  1
  O  O403  1  0.13139559  0.01083251  0.00531780  1
  O  O404  1  0.13065973  0.01225525  0.50825519  1
  O  O405  1  0.11468370  0.50519781  -0.00746287  1
  O  O406  1  0.11125481  0.51185100  0.50186211  1
  O  O407  1  0.62129075  0.00577228  0.00674462  1
  O  O408  1  0.62048610  0.00544187  0.50625726  1
  O  O409  1  0.62121424  0.50804367  0.00268596  1
  O  O410  1  0.62160432  0.52017138  0.49223412  1
  O  O411  1  0.37133408  0.42050068  0.10999007  1
  O  O412  1  0.36621726  0.36845374  0.62732990  1
  O  O413  1  0.36729810  0.86641765  0.12193502  1
  O  O414  1  0.37143580  0.87237577  0.62076548  1
  O  O415  1  0.85299258  0.37506201  0.11746018  1
  O  O416  1  0.85932279  0.37502721  0.63011129  1
  O  O417  1  0.86992131  0.86504124  0.12286589  1
  O  O418  1  0.87430521  0.87206666  0.61568025  1
  O  O419  1  0.12183038  0.12333806  0.38760865  1
  O  O420  1  0.13879660  0.11617081  0.88375902  1
  O  O421  1  0.13712785  0.62304474  0.38514290  1
  O  O422  1  0.13403073  0.62845339  0.88166543  1
  O  O423  1  0.62751514  0.13113998  0.37960511  1
  O  O424  1  0.63555588  0.12073049  0.88303814  1
  O  O425  1  0.62650953  0.63296659  0.37640413  1
  O  O426  1  0.63300455  0.62788708  0.88103224  1
