# generated using pymatgen
data_V85Zn86O256
_symmetry_space_group_name_H-M   'P 1'
_cell_length_a   16.97097510
_cell_length_b   16.99334655
_cell_length_c   16.95851639
_cell_angle_alpha   90.05804405
_cell_angle_beta   89.91503083
_cell_angle_gamma   90.05485290
_symmetry_Int_Tables_number   1
_chemical_formula_structural   V85Zn86O256
_chemical_formula_sum   'V85 Zn86 O256'
_cell_volume   4890.71850726
_cell_formula_units_Z   1
loop_
 _symmetry_equiv_pos_site_id
 _symmetry_equiv_pos_as_xyz
  1  'x, y, z'
loop_
 _atom_site_type_symbol
 _atom_site_label
 _atom_site_symmetry_multiplicity
 _atom_site_fract_x
 _atom_site_fract_y
 _atom_site_fract_z
 _atom_site_occupancy
  V  V0  1  0.34144639  0.64745297  0.25843949  1
  V  V1  1  0.00210989  0.36741680  0.35457564  1
  V  V2  1  0.34957007  0.52774000  0.38966236  1
  V  V3  1  0.37773212  0.37287591  0.00349794  1
  V  V4  1  0.12295774  0.37221639  0.74336873  1
  V  V5  1  0.87653127  0.13518991  0.24971202  1
  V  V6  1  0.75009419  0.00220955  0.24853173  1
  V  V7  1  0.74747460  0.75003046  0.50058352  1
  V  V8  1  0.50210640  0.50246960  0.00660865  1
  V  V9  1  0.50961904  0.74573672  0.24659348  1
  V  V10  1  0.87518636  0.74474034  0.62300943  1
  V  V11  1  0.49092325  0.37529383  0.37403435  1
  V  V12  1  0.37953902  0.87689378  -0.01887217  1
  V  V13  1  -0.00310780  0.74615526  0.74505409  1
  V  V14  1  0.04052799  0.71472134  0.30053012  1
  V  V15  1  -0.00053543  0.13215575  0.12750560  1
  V  V16  1  0.86891458  0.24140654  0.62686588  1
  V  V17  1  0.62741609  0.12573582  -0.00043566  1
  V  V18  1  0.62197664  0.75124444  0.37601209  1
  V  V19  1  0.62362049  -0.00094536  0.12333720  1
  V  V20  1  0.88946229  0.37556871  0.50499242  1
  V  V21  1  0.37206918  0.12289360  0.76438275  1
  V  V22  1  0.62655953  0.25342192  0.38361998  1
  V  V23  1  0.50007202  0.25104991  0.25013296  1
  V  V24  1  0.36599841  0.25182073  0.62097014  1
  V  V25  1  0.12151635  0.24770832  0.37258989  1
  V  V26  1  -0.00210969  0.87451116  0.87472709  1
  V  V27  1  0.62541409  0.73478510  0.87467527  1
  V  V28  1  0.37588780  0.50383744  0.87873762  1
  V  V29  1  -0.01011332  0.23923097  0.74805658  1
  V  V30  1  0.86495980  0.50875389  0.87772314  1
  V  V31  1  0.88094739  0.75019063  0.12937661  1
  V  V32  1  0.24403733  0.48556909  0.23957128  1
  V  V33  1  0.36732554  0.74969325  0.62556797  1
  V  V34  1  0.12408840  0.87592503  0.74614015  1
  V  V35  1  0.24403205  0.12790906  0.39516374  1
  V  V36  1  0.12626226  -0.00097474  0.12563134  1
  V  V37  1  0.62278784  0.11837204  0.50008414  1
  V  V38  1  0.75423427  0.12768283  0.86934437  1
  V  V39  1  0.38034791  0.00183075  0.38576822  1
  V  V40  1  0.20616417  0.58303936  0.90649326  1
  V  V41  1  0.24894940  0.87698903  0.61768802  1
  V  V42  1  0.06287441  0.55457847  0.57835095  1
  V  V43  1  0.87499006  0.87176445  0.49751420  1
  V  V44  1  0.74837543  0.37514473  0.60983267  1
  V  V45  1  0.74648568  0.88318731  0.62458915  1
  V  V46  1  0.12771643  0.12141055  -0.00434128  1
  V  V47  1  0.87417660  0.00313498  0.86446192  1
  V  V48  1  0.49997761  0.12270116  0.12519722  1
  V  V49  1  0.49335778  0.62516194  0.63208371  1
  V  V50  1  0.12604093  0.74715738  0.87517542  1
  V  V51  1  0.50243019  0.37398743  0.87395459  1
  V  V52  1  0.12094659  0.01614247  0.62466105  1
  V  V53  1  0.62989348  0.37359926  0.74769274  1
  V  V54  1  0.24968949  0.74832001  -0.00397755  1
  V  V55  1  0.25450878  0.23787083  -0.00642995  1
  V  V56  1  0.25267311  0.00556114  0.25011947  1
  V  V57  1  0.49783552  -0.00307226  -0.01540659  1
  V  V58  1  0.37250689  0.25023955  0.12768821  1
  V  V59  1  0.75219064  0.25426631  0.00814868  1
  V  V60  1  0.61938505  0.62455003  0.50038946  1
  V  V61  1  0.62288876  0.50014530  0.62360555  1
  V  V62  1  0.75083263  0.62365990  0.37501142  1
  V  V63  1  0.12516356  0.24344860  0.87203931  1
  V  V64  1  0.87460097  0.38033412  0.00567341  1
  V  V65  1  0.50009329  0.24883644  0.74885515  1
  V  V66  1  0.87703803  0.62810653  0.25360392  1
  V  V67  1  0.61996023  0.88078104  0.75992587  1
  V  V68  1  0.88207062  0.50090644  0.38245481  1
  V  V69  1  0.87519090  0.87612126  0.00032678  1
  V  V70  1  0.62728903  0.87547367  0.24944275  1
  V  V71  1  -0.00222565  0.38565198  0.87271805  1
  V  V72  1  -0.00115158  0.00163800  -0.00058253  1
  V  V73  1  0.25164783  0.00343728  0.76557404  1
  V  V74  1  0.75263909  0.49561057  0.24494983  1
  V  V75  1  0.62849410  0.37506487  0.24554245  1
  V  V76  1  0.49435343  0.49255787  0.49950157  1
  V  V77  1  0.24738398  0.49807003  0.74982608  1
  V  V78  1  0.01413299  0.62680745  0.11474640  1
  V  V79  1  0.75289172  0.87366118  0.12406681  1
  V  V80  1  0.00719702  0.88000715  0.37141305  1
  V  V81  1  0.87673067  0.00494394  0.37639291  1
  V  V82  1  0.75043013  0.13069941  0.37996951  1
  V  V83  1  0.49776862  0.11931096  0.62211685  1
  V  V84  1  0.38277306  0.75538068  0.11967562  1
  Zn  Zn85  1  0.00991774  0.01177996  0.50326552  1
  Zn  Zn86  1  0.25279825  0.87685220  0.12387309  1
  Zn  Zn87  1  0.22463772  0.36956369  0.12491459  1
  Zn  Zn88  1  0.75126329  0.00755538  0.74175994  1
  Zn  Zn89  1  0.50509878  0.88212318  0.38340950  1
  Zn  Zn90  1  0.61629475  -0.00675335  0.61910408  1
  Zn  Zn91  1  0.75649162  0.74327119  -0.01041336  1
  Zn  Zn92  1  0.35153581  0.36317870  0.48810285  1
  Zn  Zn93  1  0.62936463  0.25050386  0.87513343  1
  Zn  Zn94  1  0.24293304  0.37721067  0.61792073  1
  Zn  Zn95  1  0.05568243  0.48121961  0.03271096  1
  Zn  Zn96  1  0.74547242  0.50977904  0.75088792  1
  Zn  Zn97  1  0.86520391  0.62928335  0.75228356  1
  Zn  Zn98  1  0.12689756  0.87868918  0.25384454  1
  Zn  Zn99  1  0.87718507  0.26037269  0.12953305  1
  Zn  Zn100  1  0.38419723  0.87732247  0.50558050  1
  Zn  Zn101  1  0.50385529  0.62224404  0.12732625  1
  Zn  Zn102  1  0.37514060  0.12419459  0.25342142  1
  Zn  Zn103  1  0.62873343  0.49923202  0.12604703  1
  Zn  Zn104  1  0.49386039  0.76006121  0.75592116  1
  Zn  Zn105  1  0.36374998  0.62780351  0.75732921  1
  Zn  Zn106  1  0.64064925  0.61652180  0.00122135  1
  Zn  Zn107  1  0.18606486  0.18622741  0.19047955  1
  Zn  Zn108  1  0.18964526  0.18606499  0.69454595  1
  Zn  Zn109  1  0.19296887  0.69609380  0.19471122  1
  Zn  Zn110  1  0.16010189  0.70571986  0.63893296  1
  Zn  Zn111  1  0.68773281  0.18929896  0.18932181  1
  Zn  Zn112  1  0.68901888  0.18831043  0.68338608  1
  Zn  Zn113  1  0.69184036  0.68318886  0.18009538  1
  Zn  Zn114  1  0.68621297  0.69242297  0.68930844  1
  Zn  Zn115  1  0.30425560  0.30608763  0.31190714  1
  Zn  Zn116  1  0.31258834  0.31323327  0.81317015  1
  Zn  Zn117  1  0.31745389  0.82188738  0.30712363  1
  Zn  Zn118  1  0.30669437  0.81026109  0.80690280  1
  Zn  Zn119  1  0.81310585  0.31380530  0.31826382  1
  Zn  Zn120  1  0.81079784  0.31722067  0.81546540  1
  Zn  Zn121  1  0.81524209  0.81122915  0.31272193  1
  Zn  Zn122  1  0.80671299  0.81528188  0.80972534  1
  Zn  Zn123  1  0.17578284  0.44056071  0.44329652  1
  Zn  Zn124  1  0.18327701  0.41390420  0.95107102  1
  Zn  Zn125  1  0.18967427  0.94492521  0.44190329  1
  Zn  Zn126  1  0.18760077  0.93014866  0.93961404  1
  Zn  Zn127  1  0.68712732  0.43871508  0.43349892  1
  Zn  Zn128  1  0.68867765  0.43459667  0.93893660  1
  Zn  Zn129  1  0.69016688  0.93954200  0.43698062  1
  Zn  Zn130  1  0.69087855  0.93859758  0.93792361  1
  Zn  Zn131  1  0.31690972  0.05985908  0.05998928  1
  Zn  Zn132  1  0.31078430  0.06207145  0.57306223  1
  Zn  Zn133  1  0.31355931  0.56506825  0.07259651  1
  Zn  Zn134  1  0.30997933  0.55756425  0.56297873  1
  Zn  Zn135  1  0.81352092  0.06466561  0.05988244  1
  Zn  Zn136  1  0.83709668  0.07777521  0.54503351  1
  Zn  Zn137  1  0.81643187  0.56504965  0.06378937  1
  Zn  Zn138  1  0.81163073  0.56219854  0.56265075  1
  Zn  Zn139  1  0.42724516  0.44397852  0.19565925  1
  Zn  Zn140  1  0.43430247  0.43487365  0.68886542  1
  Zn  Zn141  1  0.43917746  0.93583729  0.18969472  1
  Zn  Zn142  1  0.43417775  0.93980740  0.69267220  1
  Zn  Zn143  1  0.93860430  0.44594753  0.18559390  1
  Zn  Zn144  1  0.93261248  0.43503632  0.69423767  1
  Zn  Zn145  1  0.93904810  0.94307201  0.18960215  1
  Zn  Zn146  1  0.93873650  0.93484028  0.68440328  1
  Zn  Zn147  1  0.06327158  0.06704599  0.31135305  1
  Zn  Zn148  1  0.06072367  0.06226674  0.80973546  1
  Zn  Zn149  1  0.06400553  0.54466303  0.30583435  1
  Zn  Zn150  1  0.06003313  0.56411322  0.78857561  1
  Zn  Zn151  1  0.56251772  0.06518788  0.31129307  1
  Zn  Zn152  1  0.56821973  0.06516188  0.80882383  1
  Zn  Zn153  1  0.55970698  0.56014867  0.31544980  1
  Zn  Zn154  1  0.56078991  0.55869927  0.81215421  1
  Zn  Zn155  1  0.43748493  0.18488766  0.43865509  1
  Zn  Zn156  1  0.44401449  0.18634973  0.93794154  1
  Zn  Zn157  1  0.41215505  0.67671381  0.45092998  1
  Zn  Zn158  1  0.44492554  0.68848505  0.93589129  1
  Zn  Zn159  1  0.97193474  0.19889005  0.46165941  1
  Zn  Zn160  1  0.93656493  0.18970704  0.93681148  1
  Zn  Zn161  1  1.09862937  0.66040921  0.46493849  1
  Zn  Zn162  1  0.94024158  0.68761002  0.94055473  1
  Zn  Zn163  1  0.05920635  0.30751437  0.05508239  1
  Zn  Zn164  1  0.06437986  0.30552888  0.56140892  1
  Zn  Zn165  1  0.06394632  0.81120654  0.06283336  1
  Zn  Zn166  1  0.05792585  0.81973115  0.55721011  1
  Zn  Zn167  1  0.56330634  0.31226574  0.06433649  1
  Zn  Zn168  1  0.55917081  0.30831810  0.56242689  1
  Zn  Zn169  1  0.56480046  0.81406356  0.05465535  1
  Zn  Zn170  1  0.55618423  0.81278687  0.56468911  1
  O  O171  1  0.11899913  0.11618118  0.11879210  1
  O  O172  1  0.12477016  0.11465177  0.63314892  1
  O  O173  1  0.11147610  0.63882111  0.12749574  1
  O  O174  1  0.11365153  0.60472134  0.65478607  1
  O  O175  1  0.62053147  0.11984711  0.11947402  1
  O  O176  1  0.61795649  0.12602298  0.61575723  1
  O  O177  1  0.62304203  0.61794258  0.11966260  1
  O  O178  1  0.61315478  0.62160308  0.61862376  1
  O  O179  1  0.38609643  0.36417206  0.37391744  1
  O  O180  1  0.38393667  0.37917479  0.88345438  1
  O  O181  1  0.37369316  0.89072220  0.37790558  1
  O  O182  1  0.37410021  0.86847066  0.88242292  1
  O  O183  1  0.88326012  0.37969948  0.38288530  1
  O  O184  1  0.88066442  0.38345340  0.88254056  1
  O  O185  1  0.88254924  0.88215889  0.37772751  1
  O  O186  1  0.87678881  0.88228851  0.88151582  1
  O  O187  1  0.25708018  0.01062501  0.37067171  1
  O  O188  1  0.24142412  -0.00275451  0.86442745  1
  O  O189  1  0.25599088  0.48860626  0.36448185  1
  O  O190  1  0.26117333  0.48633020  0.87985719  1
  O  O191  1  0.75314644  0.00891032  0.36528971  1
  O  O192  1  0.75919491  0.00927889  0.87505471  1
  O  O193  1  0.75763381  0.50624736  0.36824370  1
  O  O194  1  0.76219404  0.49554271  0.87290283  1
  O  O195  1  0.26540594  0.48195622  0.13363766  1
  O  O196  1  0.25723942  0.49861075  0.64565214  1
  O  O197  1  0.24342933  1.00182450  0.13078242  1
  O  O198  1  0.23903933  0.99536730  0.63676751  1
  O  O199  1  0.75386211  0.50139265  0.14185050  1
  O  O200  1  0.73972576  0.49130987  0.62345894  1
  O  O201  1  0.74571271  0.99464870  0.12915604  1
  O  O202  1  0.75040385  0.98839238  0.62082645  1
  O  O203  1  -0.00428542  0.37461196  0.25590748  1
  O  O204  1  0.00624793  0.36529894  0.75670669  1
  O  O205  1  0.00160706  0.88388228  0.26662748  1
  O  O206  1  0.00628092  0.87065773  0.75718957  1
  O  O207  1  0.50473692  0.37230972  0.25855955  1
  O  O208  1  0.50941845  0.36775706  0.75132564  1
  O  O209  1  0.51228579  0.86620622  0.25339130  1
  O  O210  1  0.51585130  0.87775146  0.74418380  1
  O  O211  1  0.49915504  0.13310555  0.24211686  1
  O  O212  1  0.49602573  0.13320922  0.74465598  1
  O  O213  1  0.51660301  0.64140896  0.24626817  1
  O  O214  1  0.49473023  0.61715245  0.73756492  1
  O  O215  1  0.98792335  0.11753276  0.24011020  1
  O  O216  1  0.99498650  0.14093461  0.75647985  1
  O  O217  1  0.99385447  0.62786228  0.24570900  1
  O  O218  1  0.98586426  0.64313454  0.75273233  1
  O  O219  1  0.37306161  0.25132609  0.00503690  1
  O  O220  1  0.38169252  0.25053279  0.51695855  1
  O  O221  1  0.37356397  0.75468892  0.00263841  1
  O  O222  1  0.37419434  0.75650447  0.52042594  1
  O  O223  1  0.86944448  0.26012493  0.00233544  1
  O  O224  1  0.88004995  0.25957623  0.52041784  1
  O  O225  1  0.87668511  0.76103632  0.00688183  1
  O  O226  1  0.86642042  0.76414517  0.50551774  1
  O  O227  1  0.08844060  0.23240681  0.47845049  1
  O  O228  1  0.13447934  0.23957918  0.99138517  1
  O  O229  1  0.13304882  0.74208690  0.53143958  1
  O  O230  1  0.13580602  0.75681715  0.98811380  1
  O  O231  1  0.62163854  0.24256743  0.48820003  1
  O  O232  1  0.63320436  0.24571352  0.99929977  1
  O  O233  1  0.62688231  0.74350415  0.49308668  1
  O  O234  1  0.62642985  0.74909622  0.98348336  1
  O  O235  1  0.49452093  0.24218736  0.12966586  1
  O  O236  1  0.49315041  0.24299259  0.63518872  1
  O  O237  1  0.49872027  0.74978649  0.12762876  1
  O  O238  1  0.49139027  0.73904584  0.63208669  1
  O  O239  1  0.99883134  0.23624681  0.11952573  1
  O  O240  1  0.98521750  0.25232596  0.63985423  1
  O  O241  1  0.98889958  0.74381949  0.12097075  1
  O  O242  1  0.98592604  0.76666764  0.63490005  1
  O  O243  1  -0.00704670  0.26299852  0.36639939  1
  O  O244  1  0.00128712  0.25804763  0.86574067  1
  O  O245  1  -0.00412961  0.76978429  0.37775939  1
  O  O246  1  0.00478512  0.75736817  0.86951212  1
  O  O247  1  0.50635469  0.25543231  0.36988334  1
  O  O248  1  0.50358930  0.25493897  0.86343926  1
  O  O249  1  0.51576871  0.75138954  0.36669517  1
  O  O250  1  0.51706453  0.74874469  0.87073816  1
  O  O251  1  0.25126880  0.12265317  0.49298939  1
  O  O252  1  0.24878825  0.13262265  1.00093345  1
  O  O253  1  0.31186576  0.60511840  0.46112251  1
  O  O254  1  0.25645050  0.62928642  0.99083090  1
  O  O255  1  0.74428559  0.12486838  0.48493186  1
  O  O256  1  0.74543312  0.13108114  0.99205007  1
  O  O257  1  0.74256614  0.63092907  0.49417459  1
  O  O258  1  0.75319637  0.63120543  1.00274977  1
  O  O259  1  0.27043389  0.35680153  0.00017468  1
  O  O260  1  0.24117143  0.37459624  0.50528952  1
  O  O261  1  0.26130179  0.86647405  0.00175624  1
  O  O262  1  0.25430902  0.88329950  0.51530655  1
  O  O263  1  0.75991272  0.36524599  -0.00351777  1
  O  O264  1  0.75492605  0.37719877  0.50660580  1
  O  O265  1  0.75852992  0.87360242  0.00829678  1
  O  O266  1  0.75048234  0.86641943  0.50460349  1
  O  O267  1  0.14415843  0.48992348  0.24899934  1
  O  O268  1  0.13748189  0.48330845  0.76445376  1
  O  O269  1  0.13193024  1.00208608  0.24094738  1
  O  O270  1  0.12976660  0.99502805  0.74560704  1
  O  O271  1  0.63373694  0.49127962  0.25452931  1
  O  O272  1  0.62249664  0.48966563  0.74120782  1
  O  O273  1  0.62980128  0.99510226  0.24403878  1
  O  O274  1  0.62907523  0.99182271  0.74369269  1
  O  O275  1  0.36814471  0.00227252  0.25765909  1
  O  O276  1  0.36333299  0.00998074  0.74917508  1
  O  O277  1  0.36131461  0.51160797  0.26454582  1
  O  O278  1  0.36464529  0.49399261  0.76241963  1
  O  O279  1  0.86879301  0.00690194  0.25939776  1
  O  O280  1  0.87281965  -0.00594042  0.76114160  1
  O  O281  1  0.86946205  0.50574058  0.25890882  1
  O  O282  1  0.86902451  0.50004414  0.76431098  1
  O  O283  1  0.10733133  0.36634806  0.37813311  1
  O  O284  1  0.11460276  0.35928544  0.86957179  1
  O  O285  1  0.11119675  0.88597237  0.37864716  1
  O  O286  1  0.12034057  0.86581591  0.86475393  1
  O  O287  1  0.61551278  0.36881355  0.36919238  1
  O  O288  1  0.62062365  0.37282371  0.86456871  1
  O  O289  1  0.62861313  0.86830921  0.36758183  1
  O  O290  1  0.62759385  0.87885263  0.86138929  1
  O  O291  1  0.38195000  0.13555250  0.12416413  1
  O  O292  1  0.38103343  0.13509784  0.63303034  1
  O  O293  1  0.37737254  0.64085400  0.13977539  1
  O  O294  1  0.37536386  0.63101808  0.63162266  1
  O  O295  1  0.88348295  0.12330022  0.13228591  1
  O  O296  1  0.85370254  0.14408156  0.63758204  1
  O  O297  1  0.88299012  0.63266869  0.13707482  1
  O  O298  1  0.86898214  0.64275369  0.62108284  1
  O  O299  1  0.25607685  0.25019657  0.11761553  1
  O  O300  1  0.26431621  0.24893833  0.63315778  1
  O  O301  1  0.25938143  0.75209851  0.11085410  1
  O  O302  1  0.25720010  0.76521961  0.64160893  1
  O  O303  1  0.75412470  0.24306073  0.11187082  1
  O  O304  1  0.76018059  0.26346493  0.63184139  1
  O  O305  1  0.76566788  0.75824154  0.12735508  1
  O  O306  1  0.75474317  0.76256521  0.61914650  1
  O  O307  1  0.24084974  0.23545619  0.37787797  1
  O  O308  1  0.23907868  0.25281564  0.88173817  1
  O  O309  1  0.26966443  0.71933946  0.29778140  1
  O  O310  1  0.24159517  0.74984882  0.88391862  1
  O  O311  1  0.73901447  0.24194920  0.36970605  1
  O  O312  1  0.75186365  0.24339023  0.88472939  1
  O  O313  1  0.74092085  0.74424837  0.37872676  1
  O  O314  1  0.73067101  0.75872452  0.87356152  1
  O  O315  1  0.00479402  0.11887532  0.00576949  1
  O  O316  1  -0.05561354  0.10152416  0.50314918  1
  O  O317  1  0.00168076  0.62455369  0.01400317  1
  O  O318  1  0.00695765  0.61953249  0.52596800  1
  O  O319  1  0.50761255  0.11890808  0.00721677  1
  O  O320  1  0.50987775  0.13070273  0.50958501  1
  O  O321  1  0.49929923  0.60876059  0.00243532  1
  O  O322  1  0.49638250  0.61213558  0.51069989  1
  O  O323  1  0.50473164  0.38243111  0.49109666  1
  O  O324  1  0.49381019  0.37916889  0.99638031  1
  O  O325  1  0.49833456  0.87744966  0.49668686  1
  O  O326  1  0.49215984  0.88613711  1.00131580  1
  O  O327  1  0.99020406  0.37383498  0.49662277  1
  O  O328  1  0.99134078  0.38064178  0.98821992  1
  O  O329  1  0.98925613  0.88652729  0.49095260  1
  O  O330  1  0.99511385  0.88156968  0.99405145  1
  O  O331  1  0.48896786  0.49347675  0.38286919  1
  O  O332  1  0.49515081  0.49112472  0.88343589  1
  O  O333  1  0.48326522  1.00403044  0.36850022  1
  O  O334  1  0.50477079  1.00777678  0.88629674  1
  O  O335  1  0.99074068  0.48436481  0.37014783  1
  O  O336  1  0.99167990  0.48854113  0.86222086  1
  O  O337  1  0.99122206  0.99615220  0.37747101  1
  O  O338  1  0.99290094  0.99516263  0.87906135  1
  O  O339  1  0.00713488  0.00872528  0.11912564  1
  O  O340  1  0.01732311  -0.00288528  0.62959822  1
  O  O341  1  0.00330947  0.51936088  0.12706821  1
  O  O342  1  0.00356000  0.48554322  0.62276877  1
  O  O343  1  0.50548412  0.00711414  0.12241687  1
  O  O344  1  0.49780250  0.01606308  0.63018837  1
  O  O345  1  0.49754518  0.49921465  0.11969825  1
  O  O346  1  0.50091111  0.50130664  0.61706021  1
  O  O347  1  0.25515741  0.37852762  0.24025661  1
  O  O348  1  0.24133680  0.38067886  0.75048887  1
  O  O349  1  0.24638306  0.89145262  0.24626926  1
  O  O350  1  0.24021161  0.88517301  0.74629509  1
  O  O351  1  0.74100625  0.38376342  0.26003414  1
  O  O352  1  0.73730108  0.37671836  0.74354348  1
  O  O353  1  0.74656211  0.88159412  0.24424780  1
  O  O354  1  0.73817411  0.88003645  0.74043386  1
  O  O355  1  0.25308731  0.11451010  0.25376762  1
  O  O356  1  0.25932408  0.11544200  0.75125260  1
  O  O357  1  0.24921340  0.60012075  0.22563060  1
  O  O358  1  0.24691498  0.59779010  0.78401574  1
  O  O359  1  0.75436020  0.11972042  0.25577683  1
  O  O360  1  0.74146398  0.12542511  0.76543290  1
  O  O361  1  0.75832993  0.61935260  0.25646664  1
  O  O362  1  0.75266633  0.62281091  0.74283912  1
  O  O363  1  0.36433474  0.11857321  0.37590279  1
  O  O364  1  0.37927922  0.13089656  0.86330064  1
  O  O365  1  0.39740402  0.62688802  0.34742650  1
  O  O366  1  0.38450468  0.60747804  0.87608543  1
  O  O367  1  0.86439183  0.11818334  0.36429420  1
  O  O368  1  0.86700965  0.11451165  0.88230242  1
  O  O369  1  0.87250370  0.61510727  0.36391021  1
  O  O370  1  0.88165237  0.61019887  0.87750688  1
  O  O371  1  0.12952766  0.39415397  0.06546457  1
  O  O372  1  0.12518194  0.36186673  0.63978407  1
  O  O373  1  0.12523125  0.89049984  0.12279867  1
  O  O374  1  0.13053375  0.88239427  0.63613705  1
  O  O375  1  0.62125856  0.37570168  0.14200594  1
  O  O376  1  0.62976083  0.37733957  0.62778331  1
  O  O377  1  0.63238506  0.87908167  0.12898613  1
  O  O378  1  0.63168724  0.87425503  0.63249606  1
  O  O379  1  0.12233651  0.23800466  0.26980630  1
  O  O380  1  0.11413327  0.25168308  0.75600787  1
  O  O381  1  0.11095323  0.76324011  0.24090636  1
  O  O382  1  0.11482411  0.76068170  0.74934687  1
  O  O383  1  0.61987805  0.25656809  0.25894359  1
  O  O384  1  0.61673261  0.25661398  0.74872179  1
  O  O385  1  0.62885785  0.75737351  0.25485828  1
  O  O386  1  0.62138650  0.76221538  0.75965665  1
  O  O387  1  0.38011723  0.24614572  0.24229538  1
  O  O388  1  0.38257736  0.24516903  0.74445202  1
  O  O389  1  0.39539098  0.75344445  0.23865688  1
  O  O390  1  0.37719949  0.74493329  0.74493438  1
  O  O391  1  0.86631943  0.23846046  0.24635375  1
  O  O392  1  0.88352424  0.26016334  0.74357925  1
  O  O393  1  0.87853659  0.74073154  0.24575624  1
  O  O394  1  0.87889424  0.75694517  0.74046955  1
  O  O395  1  0.38212982  0.48067556  0.49407975  1
  O  O396  1  0.38100581  0.48950083  0.99841976  1
  O  O397  1  0.36975854  1.00296330  0.48812745  1
  O  O398  1  0.38539768  0.98897986  1.00221291  1
  O  O399  1  0.86850684  0.49271830  0.48819999  1
  O  O400  1  0.87279501  0.49306421  0.98873788  1
  O  O401  1  0.85290389  0.98147028  0.48140050  1
  O  O402  1  0.88035840  0.99245040  0.99416943  1
  O  O403  1  0.12118557  0.00429020  0.00417617  1
  O  O404  1  0.12572035  0.00237866  0.51920265  1
  O  O405  1  0.13517333  0.51978816  -0.04364469  1
  O  O406  1  0.13187265  0.52792195  0.50325590  1
  O  O407  1  0.61911312  0.00414959  0.00600523  1
  O  O408  1  0.62794192  0.01442171  0.49909854  1
  O  O409  1  0.61619746  0.49500004  0.00382176  1
  O  O410  1  0.61509090  0.50519264  0.50256394  1
  O  O411  1  0.38482897  0.35908364  0.11879958  1
  O  O412  1  0.37396115  0.35817993  0.62774835  1
  O  O413  1  0.37643100  0.86398785  0.12028636  1
  O  O414  1  0.36542830  0.86999854  0.63042474  1
  O  O415  1  0.88353405  0.37762642  0.11085278  1
  O  O416  1  0.86473605  0.37401785  0.61959809  1
  O  O417  1  0.87505468  0.87030286  0.12207999  1
  O  O418  1  0.86680494  0.87321086  0.61485428  1
  O  O419  1  0.13888020  0.12296816  0.37741291  1
  O  O420  1  0.11699829  0.13590210  0.87952981  1
  O  O421  1  0.10145617  0.64316921  0.35469628  1
  O  O422  1  0.11912766  0.64085673  0.86276214  1
  O  O423  1  0.62954159  0.13279946  0.37958510  1
  O  O424  1  0.63329502  0.12794105  0.88384023  1
  O  O425  1  0.62859144  0.63106125  0.38177605  1
  O  O426  1  0.62395104  0.63200040  0.87550164  1
