# generated using pymatgen
data_V85Zn86O256
_symmetry_space_group_name_H-M   'P 1'
_cell_length_a   16.92843402
_cell_length_b   16.92210297
_cell_length_c   16.92497676
_cell_angle_alpha   89.96453933
_cell_angle_beta   90.03223222
_cell_angle_gamma   89.98488576
_symmetry_Int_Tables_number   1
_chemical_formula_structural   V85Zn86O256
_chemical_formula_sum   'V85 Zn86 O256'
_cell_volume   4848.40658331
_cell_formula_units_Z   1
loop_
 _symmetry_equiv_pos_site_id
 _symmetry_equiv_pos_as_xyz
  1  'x, y, z'
loop_
 _atom_site_type_symbol
 _atom_site_label
 _atom_site_symmetry_multiplicity
 _atom_site_fract_x
 _atom_site_fract_y
 _atom_site_fract_z
 _atom_site_occupancy
  V  V0  1  0.88056763  0.62291488  0.24698364  1
  V  V1  1  0.01728972  -0.00317557  0.49950297  1
  V  V2  1  0.12448903  0.87934620  0.24564761  1
  V  V3  1  0.50070390  0.62391841  0.12576868  1
  V  V4  1  0.24978806  0.00254288  0.24480618  1
  V  V5  1  0.37714561  0.62390853  0.25592263  1
  V  V6  1  0.00673130  0.00272493  0.00292172  1
  V  V7  1  0.25605184  0.49945467  0.25684697  1
  V  V8  1  0.12339250  0.37257234  0.24951505  1
  V  V9  1  0.00459955  0.12528779  0.61421504  1
  V  V10  1  0.49638414  0.88381287  0.87492610  1
  V  V11  1  0.75989926  0.01390729  0.24741664  1
  V  V12  1  0.25608260  0.62555822  0.38367454  1
  V  V13  1  0.00537962  0.12465246  0.13208152  1
  V  V14  1  0.37117560  0.75157539  0.61735717  1
  V  V15  1  0.86581782  0.01455433  0.86343359  1
  V  V16  1  0.75472412  0.37249328  0.61871454  1
  V  V17  1  0.12553559  0.88732882  0.74638264  1
  V  V18  1  0.87540576  0.87838479  -0.00068845  1
  V  V19  1  0.75058201  0.74973096  0.00116736  1
  V  V20  1  0.62553483  0.62643245  0.49931909  1
  V  V21  1  0.87392216  0.49964701  0.87624926  1
  V  V22  1  0.49301542  0.37875456  0.37189710  1
  V  V23  1  0.12162081  0.37398277  0.74869737  1
  V  V24  1  0.48815066  0.50045290  -0.00450785  1
  V  V25  1  0.49824830  0.74834414  0.75153283  1
  V  V26  1  0.87639486  0.49880575  0.37638997  1
  V  V27  1  0.62371367  0.74827364  0.87663547  1
  V  V28  1  0.62182062  0.49823342  0.62051998  1
  V  V29  1  0.00042858  0.37223424  0.87837595  1
  V  V30  1  0.49839565  0.62472228  0.62428932  1
  V  V31  1  0.24336873  0.49929752  0.74762044  1
  V  V32  1  0.24622008  0.87856416  0.61741782  1
  V  V33  1  0.37501340  0.75083190  0.12625735  1
  V  V34  1  0.62784453  0.75336692  0.37406660  1
  V  V35  1  0.62343263  0.36814636  0.24715784  1
  V  V36  1  0.50581023  -0.00196862  0.01496875  1
  V  V37  1  0.74973998  0.88177489  0.62359576  1
  V  V38  1  0.00005230  0.37362861  0.37851364  1
  V  V39  1  0.59975942  0.11913946  0.49338421  1
  V  V40  1  0.24623863  0.24141567  0.50311961  1
  V  V41  1  0.37667009  0.13754730  0.24232992  1
  V  V42  1  0.86779450  0.24664661  0.13199021  1
  V  V43  1  0.00317827  0.74501249  0.24506334  1
  V  V44  1  0.50290978  0.75297338  0.25083125  1
  V  V45  1  0.75254483  0.49161163  0.24555694  1
  V  V46  1  0.37274883  0.61974530  0.75302250  1
  V  V47  1  0.75118696  0.62306928  0.37319765  1
  V  V48  1  0.86535288  0.37302436  0.00542797  1
  V  V49  1  0.75532278  0.23495149  0.49996599  1
  V  V50  1  0.37894679  0.24627718  0.62936492  1
  V  V51  1  0.00340566  0.49888912  0.50934148  1
  V  V52  1  0.74875171  0.49910250  0.74800095  1
  V  V53  1  0.87687742  0.62471805  0.74893316  1
  V  V54  1  0.38199873  0.88267586  0.49984387  1
  V  V55  1  0.62458399  0.62294806  0.00058066  1
  V  V56  1  -0.00065456  0.87795659  0.87380218  1
  V  V57  1  -0.01414583  0.24159250  0.74732432  1
  V  V58  1  0.62791135  0.24223936  0.87550812  1
  V  V59  1  0.00188249  0.75112987  0.74931023  1
  V  V60  1  0.26278045  0.12170834  0.87194234  1
  V  V61  1  0.12314063  0.24120009  0.38078856  1
  V  V62  1  0.63123861  0.87808965  0.75021516  1
  V  V63  1  0.62921234  0.49356055  0.12188642  1
  V  V64  1  0.87550418  0.75038414  0.62167634  1
  V  V65  1  0.62403120  0.24782888  0.37249821  1
  V  V66  1  0.50348448  0.14494277  0.12521017  1
  V  V67  1  0.24980999  0.75024706  -0.00088783  1
  V  V68  1  -0.00078516  0.50440831  0.00616400  1
  V  V69  1  0.12627583  0.75027400  0.87423530  1
  V  V70  1  0.12211882  0.50610960  0.12837248  1
  V  V71  1  0.63099909  0.88361175  0.24465399  1
  V  V72  1  0.25396922  0.24632881  0.00215398  1
  V  V73  1  0.24475851  0.37628747  0.62323016  1
  V  V74  1  0.37308551  0.88195004  -0.00378796  1
  V  V75  1  0.12654307  0.62436172  0.50548458  1
  V  V76  1  0.27172402  0.00262103  0.74992159  1
  V  V77  1  0.87194814  0.01249483  0.38290824  1
  V  V78  1  0.12868359  0.74970215  0.37811715  1
  V  V79  1  0.25071553  0.61716104  0.87874332  1
  V  V80  1  0.38353079  0.00517282  0.37417472  1
  V  V81  1  0.25812317  0.37075712  0.12588733  1
  V  V82  1  0.87821053  0.74519757  0.12435761  1
  V  V83  1  0.24833136  0.87795239  0.12398850  1
  V  V84  1  0.49211415  0.37652663  0.87010429  1
  Zn  Zn85  1  0.87607949  0.36925916  0.50317836  1
  Zn  Zn86  1  0.50654574  0.88207830  0.37891269  1
  Zn  Zn87  1  0.12871142  0.12260162  0.00095140  1
  Zn  Zn88  1  0.74936097  0.62390725  0.87436999  1
  Zn  Zn89  1  0.24791241  0.12266246  0.37573417  1
  Zn  Zn90  1  0.48650815  0.10174097  0.62841388  1
  Zn  Zn91  1  0.74886581  0.88027343  0.12491657  1
  Zn  Zn92  1  0.00639496  0.62136493  0.62842578  1
  Zn  Zn93  1  0.49327186  0.23846237  0.75558095  1
  Zn  Zn94  1  0.48715581  0.50414997  0.49132002  1
  Zn  Zn95  1  0.75447264  0.74966276  0.49773678  1
  Zn  Zn96  1  0.36923612  0.38033876  0.49575816  1
  Zn  Zn97  1  0.63495349  0.03383003  0.66086659  1
  Zn  Zn98  1  -0.00689465  0.24537416  0.25474204  1
  Zn  Zn99  1  0.61784199  0.37546570  0.74867699  1
  Zn  Zn100  1  0.75281451  0.24025303  -0.00501874  1
  Zn  Zn101  1  0.12500594  0.24246516  0.87573221  1
  Zn  Zn102  1  -0.00323613  0.87567441  0.37214714  1
  Zn  Zn103  1  0.12027844  0.62817800  0.00599762  1
  Zn  Zn104  1  0.87507674  0.87737845  0.49717933  1
  Zn  Zn105  1  0.37386799  0.37256608  -0.00063344  1
  Zn  Zn106  1  0.63501919  0.11424474  0.00240991  1
  Zn  Zn107  1  0.18505339  0.18830195  0.18702795  1
  Zn  Zn108  1  0.18447714  0.18443470  0.69094231  1
  Zn  Zn109  1  0.18984731  0.68728839  0.19049865  1
  Zn  Zn110  1  0.18950730  0.69295212  0.68768181  1
  Zn  Zn111  1  0.68892799  0.18612307  0.18169275  1
  Zn  Zn112  1  0.67051424  0.19943734  0.68246971  1
  Zn  Zn113  1  0.69114282  0.68603775  0.18764178  1
  Zn  Zn114  1  0.68920074  0.68926345  0.68740211  1
  Zn  Zn115  1  0.30871550  0.31081475  0.31402137  1
  Zn  Zn116  1  0.31207629  0.31054842  0.81428361  1
  Zn  Zn117  1  0.31274921  0.81342649  0.31567905  1
  Zn  Zn118  1  0.31207272  0.81186215  0.80930770  1
  Zn  Zn119  1  0.80965542  0.30820773  0.31705036  1
  Zn  Zn120  1  0.80954917  0.31470051  0.81179527  1
  Zn  Zn121  1  0.81466322  0.81778387  0.31330526  1
  Zn  Zn122  1  0.81285094  0.81489937  0.81275510  1
  Zn  Zn123  1  0.18609737  0.43767810  0.43909639  1
  Zn  Zn124  1  0.18562199  0.43577497  0.93965432  1
  Zn  Zn125  1  0.19491343  0.93513199  0.43013495  1
  Zn  Zn126  1  0.18836863  0.94151605  0.93141649  1
  Zn  Zn127  1  0.68530409  0.43536764  0.43597502  1
  Zn  Zn128  1  0.68243568  0.43304008  0.93376053  1
  Zn  Zn129  1  0.69462447  0.94121642  0.43761824  1
  Zn  Zn130  1  0.68867525  0.93833135  0.93576858  1
  Zn  Zn131  1  0.31602811  0.06403870  0.06324564  1
  Zn  Zn132  1  0.30790146  0.06137924  0.56220363  1
  Zn  Zn133  1  0.30918657  0.56247785  0.06912772  1
  Zn  Zn134  1  0.31163872  0.55866007  0.56511799  1
  Zn  Zn135  1  0.81653577  0.06401939  0.06211211  1
  Zn  Zn136  1  0.79784595  0.09022360  0.62467461  1
  Zn  Zn137  1  0.81213315  0.56329811  0.06303911  1
  Zn  Zn138  1  0.81426882  0.56246260  0.56150528  1
  Zn  Zn139  1  0.44030311  0.43731894  0.18939145  1
  Zn  Zn140  1  0.43183654  0.43677035  0.68467730  1
  Zn  Zn141  1  0.43563215  0.93703186  0.19200558  1
  Zn  Zn142  1  0.45045124  0.93716586  0.68118221  1
  Zn  Zn143  1  0.93811094  0.43197592  0.18689100  1
  Zn  Zn144  1  0.93667564  0.43435715  0.68864699  1
  Zn  Zn145  1  0.93486007  0.93909231  0.18830520  1
  Zn  Zn146  1  0.93868584  0.94341508  0.68120334  1
  Zn  Zn147  1  0.06028967  0.05917934  0.31231740  1
  Zn  Zn148  1  0.06428338  0.06420327  0.81924817  1
  Zn  Zn149  1  0.06437359  0.56171064  0.31679659  1
  Zn  Zn150  1  0.06353751  0.56089318  0.81579858  1
  Zn  Zn151  1  0.56484012  0.06562157  0.30427102  1
  Zn  Zn152  1  0.55141230  0.06424059  0.81579453  1
  Zn  Zn153  1  0.56519918  0.56043878  0.31043165  1
  Zn  Zn154  1  0.56123995  0.55966868  0.81238126  1
  Zn  Zn155  1  0.43192781  0.19810402  0.43077639  1
  Zn  Zn156  1  0.43804370  0.18879172  0.94145237  1
  Zn  Zn157  1  0.43980717  0.69123799  0.43894001  1
  Zn  Zn158  1  0.43511151  0.68891707  0.93758111  1
  Zn  Zn159  1  0.93637569  0.18361196  0.44195472  1
  Zn  Zn160  1  0.93558069  0.18603325  0.93890969  1
  Zn  Zn161  1  0.94223646  0.68721281  0.43497967  1
  Zn  Zn162  1  0.93803717  0.68660308  0.93570184  1
  Zn  Zn163  1  0.06412627  0.30986265  0.06281035  1
  Zn  Zn164  1  0.06227924  0.30856503  0.56610493  1
  Zn  Zn165  1  0.06190290  0.81357256  0.06381942  1
  Zn  Zn166  1  0.06269229  0.81262904  0.56174372  1
  Zn  Zn167  1  0.56534055  0.31591124  0.05488972  1
  Zn  Zn168  1  0.56301615  0.31314737  0.55464449  1
  Zn  Zn169  1  0.56278741  0.81424673  0.06420551  1
  Zn  Zn170  1  0.56296986  0.81613049  0.56303696  1
  O  O171  1  0.11007602  0.12846479  0.12090556  1
  O  O172  1  0.10348048  0.12162798  0.64099119  1
  O  O173  1  0.13073996  0.61075680  0.12661194  1
  O  O174  1  0.12712219  0.63473104  0.60985620  1
  O  O175  1  0.60745204  0.12893488  0.12389844  1
  O  O176  1  0.60349975  0.13949767  0.59851298  1
  O  O177  1  0.62061887  0.61565354  0.12132538  1
  O  O178  1  0.62002926  0.62091473  0.61950487  1
  O  O179  1  0.38974930  0.37155489  0.36852217  1
  O  O180  1  0.38625965  0.37313240  0.87759336  1
  O  O181  1  0.37553131  0.88295186  0.38349787  1
  O  O182  1  0.38479366  0.86299415  0.88493970  1
  O  O183  1  0.88743883  0.37813439  0.37563698  1
  O  O184  1  0.88364744  0.38016013  0.88150057  1
  O  O185  1  0.87954879  0.88310655  0.37829650  1
  O  O186  1  0.88272563  0.87052323  0.88725774  1
  O  O187  1  0.26042546  0.00270995  0.36144629  1
  O  O188  1  0.25289414  0.00333131  0.85920670  1
  O  O189  1  0.24393496  0.50751399  0.36355071  1
  O  O190  1  0.24424564  0.50998754  0.86712789  1
  O  O191  1  0.76542528  -0.00021785  0.36721970  1
  O  O192  1  0.76815539  -0.00763084  0.87751417  1
  O  O193  1  0.75546029  0.50375143  0.36764169  1
  O  O194  1  0.75383054  0.49942855  0.86509669  1
  O  O195  1  0.24178943  0.49403296  0.13717106  1
  O  O196  1  0.24725576  0.49297172  0.63936098  1
  O  O197  1  0.25560719  0.99339857  0.13582852  1
  O  O198  1  0.25366092  0.99214032  0.63830325  1
  O  O199  1  0.74153355  0.50312985  0.13276410  1
  O  O200  1  0.74206358  0.49681296  0.62914640  1
  O  O201  1  0.76499639  0.99611942  0.14214083  1
  O  O202  1  0.74617577  0.98217835  0.61373762  1
  O  O203  1  0.00841899  0.37295885  0.25964084  1
  O  O204  1  0.00426576  0.36797521  0.75572168  1
  O  O205  1  0.00940614  0.86826702  0.24844854  1
  O  O206  1  0.00786026  0.87059014  0.75140355  1
  O  O207  1  0.51202566  0.37917466  0.25760028  1
  O  O208  1  0.49743962  0.37771981  0.75865981  1
  O  O209  1  0.50869291  0.86814697  0.25300956  1
  O  O210  1  0.50481152  0.86470636  0.75973493  1
  O  O211  1  0.48915291  0.12480393  0.23551776  1
  O  O212  1  0.50048844  0.12609099  0.74063943  1
  O  O213  1  0.49706091  0.63115314  0.24606537  1
  O  O214  1  0.49038918  0.62749349  0.74649353  1
  O  O215  1  1.00314865  0.12631564  0.23641716  1
  O  O216  1  1.00336519  0.14224008  0.75959818  1
  O  O217  1  0.99373615  0.63167164  0.25518723  1
  O  O218  1  0.99620814  0.63020285  0.74934988  1
  O  O219  1  0.35955087  0.25291058  -0.00003952  1
  O  O220  1  0.36276022  0.25993670  0.50555714  1
  O  O221  1  0.36911962  0.75765899  0.00689402  1
  O  O222  1  0.37697343  0.75713312  0.51177463  1
  O  O223  1  0.87496517  0.25873104  0.00701639  1
  O  O224  1  0.86014898  0.25073439  0.49682356  1
  O  O225  1  0.87298651  0.75347110  0.00630637  1
  O  O226  1  0.87794779  0.74964637  0.50857526  1
  O  O227  1  0.13122044  0.25404710  0.49137068  1
  O  O228  1  0.13756226  0.25088005  0.99574473  1
  O  O229  1  0.11801450  0.74302188  0.48513108  1
  O  O230  1  0.13089896  0.74885091  0.99410405  1
  O  O231  1  0.63016484  0.24141269  0.48840548  1
  O  O232  1  0.62975587  0.25268791  0.98647053  1
  O  O233  1  0.62562040  0.74378828  0.49035114  1
  O  O234  1  0.62825085  0.74458054  0.99509291  1
  O  O235  1  0.49769522  0.24330245  0.11777940  1
  O  O236  1  0.48108315  0.26376793  0.62211100  1
  O  O237  1  0.49608237  0.74311961  0.13056038  1
  O  O238  1  0.49260291  0.74401283  0.63166047  1
  O  O239  1  0.99449710  0.24061629  0.12742717  1
  O  O240  1  1.00077455  0.24043098  0.63614338  1
  O  O241  1  0.99572958  0.74933650  0.13606584  1
  O  O242  1  0.99075172  0.74864744  0.63101492  1
  O  O243  1  0.00495895  0.25611113  0.37619604  1
  O  O244  1  0.00036283  0.25787800  0.86865839  1
  O  O245  1  0.00854472  0.75160961  0.36193424  1
  O  O246  1  0.00680747  0.75644573  0.87028880  1
  O  O247  1  0.51028513  0.26593471  0.37505743  1
  O  O248  1  0.50482180  0.25964921  0.87705448  1
  O  O249  1  0.51360034  0.75141382  0.36895458  1
  O  O250  1  0.50761079  0.75480137  0.87300898  1
  O  O251  1  0.24898968  0.13693406  0.49722486  1
  O  O252  1  0.24971864  0.12878841  0.99591806  1
  O  O253  1  0.24373613  0.61995090  0.48951326  1
  O  O254  1  0.24916146  0.62898984  0.99333212  1
  O  O255  1  0.75178009  0.13636292  0.51450287  1
  O  O256  1  0.74664298  0.12628975  1.00435473  1
  O  O257  1  0.74346993  0.62699309  0.49239817  1
  O  O258  1  0.74231630  0.63044545  0.99737913  1
  O  O259  1  0.25127796  0.37123862  0.00947357  1
  O  O260  1  0.24469385  0.36766683  0.50934867  1
  O  O261  1  0.25587554  0.87243758  0.00166061  1
  O  O262  1  0.25962755  0.88068807  0.51137447  1
  O  O263  1  0.76362084  0.37667604  -0.00455240  1
  O  O264  1  0.75083008  0.37089932  0.50569084  1
  O  O265  1  0.75838304  0.86875355  0.00358373  1
  O  O266  1  0.75084096  0.86701103  0.50757087  1
  O  O267  1  0.12995499  0.49086666  0.24721517  1
  O  O268  1  0.12969713  0.48728984  0.75438679  1
  O  O269  1  0.13471655  0.99009007  0.25472257  1
  O  O270  1  0.12576380  0.98809902  0.75457013  1
  O  O271  1  0.63370908  0.49310484  0.24092359  1
  O  O272  1  0.63189772  0.50210193  0.73768001  1
  O  O273  1  0.64288308  0.99319899  0.25891249  1
  O  O274  1  0.62119361  0.97837834  0.76987733  1
  O  O275  1  0.36789456  0.00744438  0.25503125  1
  O  O276  1  0.36971646  -0.00789199  0.74799803  1
  O  O277  1  0.36606137  0.50901164  0.24621037  1
  O  O278  1  0.36460622  0.51380102  0.74553841  1
  O  O279  1  0.86687236  -0.00455640  0.26203084  1
  O  O280  1  0.88151250  -0.00641112  0.76528760  1
  O  O281  1  0.87022494  0.50133690  0.25331793  1
  O  O282  1  0.86847955  0.50467498  0.75424113  1
  O  O283  1  0.11530469  0.37024071  0.36940326  1
  O  O284  1  0.11164569  0.37614773  0.87065492  1
  O  O285  1  0.12809682  0.86506579  0.36272721  1
  O  O286  1  0.11986761  0.86875992  0.86719590  1
  O  O287  1  0.61993730  0.36830082  0.36565133  1
  O  O288  1  0.60992550  0.36896034  0.87278708  1
  O  O289  1  0.62724205  0.86786319  0.36779831  1
  O  O290  1  0.61758515  0.86225960  0.87407308  1
  O  O291  1  0.38521056  0.12304742  0.13549899  1
  O  O292  1  0.37589246  0.14185877  0.61375915  1
  O  O293  1  0.37963058  0.63166190  0.13409291  1
  O  O294  1  0.37634044  0.63386494  0.63135053  1
  O  O295  1  0.88779780  0.14116456  0.12032753  1
  O  O296  1  0.90530894  0.11444794  0.63887429  1
  O  O297  1  0.87338272  0.63700112  0.12956321  1
  O  O298  1  0.87860622  0.63092614  0.63280732  1
  O  O299  1  0.24309021  0.26061146  0.11832932  1
  O  O300  1  0.25347139  0.25414519  0.62083793  1
  O  O301  1  0.25465534  0.75529611  0.11903256  1
  O  O302  1  0.26195871  0.76417075  0.63314309  1
  O  O303  1  0.76502613  0.25029808  0.12207620  1
  O  O304  1  0.73914286  0.26219765  0.60984093  1
  O  O305  1  0.75998955  0.75154345  0.11917208  1
  O  O306  1  0.76473773  0.75147003  0.62455076  1
  O  O307  1  0.24037696  0.25128262  0.38481628  1
  O  O308  1  0.24848314  0.24068108  0.88069930  1
  O  O309  1  0.24055741  0.73839879  0.36850687  1
  O  O310  1  0.24427412  0.74269161  0.87923693  1
  O  O311  1  0.74034573  0.25253729  0.39003528  1
  O  O312  1  0.73255857  0.25722383  0.87292794  1
  O  O313  1  0.74105433  0.74302121  0.37141179  1
  O  O314  1  0.74032398  0.74870600  0.88161993  1
  O  O315  1  0.00311601  0.11802803  0.00744235  1
  O  O316  1  0.00517130  0.11683167  0.50676756  1
  O  O317  1  0.00088756  0.60920778  -0.00508966  1
  O  O318  1  0.00920394  0.61623090  0.50028911  1
  O  O319  1  0.49676739  0.11562901  0.01404917  1
  O  O320  1  0.49804474  0.12225804  0.48934300  1
  O  O321  1  0.50476960  0.61952905  0.00439916  1
  O  O322  1  0.50796558  0.62370598  0.50540378  1
  O  O323  1  0.50039981  0.38011002  0.48349765  1
  O  O324  1  0.49508190  0.38540762  0.99394972  1
  O  O325  1  0.48732944  0.87235711  0.49741751  1
  O  O326  1  0.49332757  0.87943401  0.99678568  1
  O  O327  1  0.99972123  0.38022414  0.49571581  1
  O  O328  1  0.99489957  0.38285365  0.99344339  1
  O  O329  1  1.00188793  0.88652461  0.49687337  1
  O  O330  1  0.99402726  0.88060739  0.99661798  1
  O  O331  1  0.50896695  0.48494273  0.37399478  1
  O  O332  1  0.50342337  0.49278880  0.88506415  1
  O  O333  1  0.48694333  0.99905454  0.36278862  1
  O  O334  1  0.49757668  0.98639363  0.88682453  1
  O  O335  1  0.99667950  0.49148368  0.38343767  1
  O  O336  1  0.99295964  0.49231195  0.88177622  1
  O  O337  1  0.99492900  0.99841379  0.38296799  1
  O  O338  1  0.99234501  0.99393833  0.88357884  1
  O  O339  1  -0.00999954  0.01525072  0.11830332  1
  O  O340  1  0.00456358  0.00362731  0.60605664  1
  O  O341  1  0.00846402  0.49409917  0.11814489  1
  O  O342  1  -0.00327693  0.49993701  0.61344612  1
  O  O343  1  0.49700747  -0.00064209  0.11695246  1
  O  O344  1  0.52838798  -0.00532449  0.62825030  1
  O  O345  1  0.50794396  0.50612554  0.11842502  1
  O  O346  1  0.50705820  0.50667713  0.62467431  1
  O  O347  1  0.24418908  0.38166939  0.24664774  1
  O  O348  1  0.24184473  0.38179649  0.74853081  1
  O  O349  1  0.24557269  0.88145999  0.24469914  1
  O  O350  1  0.24559894  0.88530232  0.74450042  1
  O  O351  1  0.74374090  0.38653149  0.25585505  1
  O  O352  1  0.74636443  0.38679949  0.74155934  1
  O  O353  1  0.74372068  0.88084199  0.24758124  1
  O  O354  1  0.74187245  0.86644454  0.74043135  1
  O  O355  1  0.25944597  0.11899742  0.24592637  1
  O  O356  1  0.25132975  0.10976479  0.75407181  1
  O  O357  1  0.25592575  0.61756999  0.25939535  1
  O  O358  1  0.25195714  0.61840374  0.75585725  1
  O  O359  1  0.74984695  0.11261664  0.24713465  1
  O  O360  1  0.71929690  0.10327006  0.70434348  1
  O  O361  1  0.75772872  0.61346709  0.25401472  1
  O  O362  1  0.75597240  0.61365231  0.74950967  1
  O  O363  1  0.37287367  0.12200084  0.36101151  1
  O  O364  1  0.36303882  0.12578369  0.88009503  1
  O  O365  1  0.36709747  0.63349112  0.36936548  1
  O  O366  1  0.36279680  0.63228577  0.86557683  1
  O  O367  1  0.88190848  0.11158424  0.37181375  1
  O  O368  1  0.87482640  0.11428012  0.87461809  1
  O  O369  1  0.87051184  0.61916048  0.36815480  1
  O  O370  1  0.87261453  0.61852767  0.86632499  1
  O  O371  1  0.13126062  0.38303694  0.13427489  1
  O  O372  1  0.13458661  0.37048913  0.63463271  1
  O  O373  1  0.13293620  0.86866411  0.13736304  1
  O  O374  1  0.13656495  0.86670900  0.63304761  1
  O  O375  1  0.62034902  0.38563944  0.13083547  1
  O  O376  1  0.63041011  0.38426660  0.62387287  1
  O  O377  1  0.62732547  0.87023903  0.14033946  1
  O  O378  1  0.63667004  0.86015300  0.63800098  1
  O  O379  1  0.12516438  0.26261174  0.25750126  1
  O  O380  1  0.11936927  0.26278788  0.75509158  1
  O  O381  1  0.11951435  0.75313674  0.25580806  1
  O  O382  1  0.12068845  0.75725135  0.75686372  1
  O  O383  1  0.63662820  0.26190794  0.25398027  1
  O  O384  1  0.61520329  0.25762908  0.76247747  1
  O  O385  1  0.62276711  0.75445893  0.25644107  1
  O  O386  1  0.61942357  0.75165826  0.76036242  1
  O  O387  1  0.36868643  0.23598180  0.24981748  1
  O  O388  1  0.37237320  0.25249078  0.73303209  1
  O  O389  1  0.38248912  0.74649914  0.24613179  1
  O  O390  1  0.37898125  0.74074659  0.74216629  1
  O  O391  1  0.87527858  0.25715597  0.23660288  1
  O  O392  1  0.88736464  0.25559513  0.75183272  1
  O  O393  1  0.88294229  0.74646867  0.24244503  1
  O  O394  1  0.88167989  0.74353362  0.74539113  1
  O  O395  1  0.37422344  0.49374395  0.50194520  1
  O  O396  1  0.38571896  0.50260273  1.00583293  1
  O  O397  1  0.36952724  0.99421058  0.48880086  1
  O  O398  1  0.38161767  0.98602054  1.00366822  1
  O  O399  1  0.88403585  0.49891694  0.49190797  1
  O  O400  1  0.88093487  0.49393979  0.99846649  1
  O  O401  1  0.88648065  0.99933175  0.48637692  1
  O  O402  1  0.88534203  0.99105503  0.99425641  1
  O  O403  1  0.11074823  -0.00445365  -0.00211069  1
  O  O404  1  0.11609478  -0.00216178  0.48742664  1
  O  O405  1  0.11739894  0.50022372  0.01081484  1
  O  O406  1  0.11576804  0.51072499  0.49495740  1
  O  O407  1  0.61128027  -0.00293701  -0.00367797  1
  O  O408  1  0.62722684  0.02299206  0.48407807  1
  O  O409  1  0.61920140  0.50337293  0.00655712  1
  O  O410  1  0.62521704  0.50764142  0.50971313  1
  O  O411  1  0.36107196  0.38090443  0.12668664  1
  O  O412  1  0.35780272  0.36777707  0.62565827  1
  O  O413  1  0.36911966  0.86838323  0.11880131  1
  O  O414  1  0.37185125  0.87060959  0.61828504  1
  O  O415  1  0.88329491  0.36067347  0.11561048  1
  O  O416  1  0.85916211  0.38108495  0.62289949  1
  O  O417  1  0.87834287  0.86330039  0.11373459  1
  O  O418  1  0.86867228  0.86725667  0.62271612  1
  O  O419  1  0.12707199  0.13868540  0.36482116  1
  O  O420  1  0.14007322  0.12364473  0.88050044  1
  O  O421  1  0.13315711  0.63093993  0.38240097  1
  O  O422  1  0.13394702  0.63209537  0.87775440  1
  O  O423  1  0.61551338  0.14012350  0.37716837  1
  O  O424  1  0.61454611  0.13978310  0.88113663  1
  O  O425  1  0.63110669  0.63093980  0.37824743  1
  O  O426  1  0.62431025  0.63350338  0.88020548  1
