# generated using pymatgen
data_V85Zn86O256
_symmetry_space_group_name_H-M   'P 1'
_cell_length_a   16.94979149
_cell_length_b   16.96221928
_cell_length_c   16.97045313
_cell_angle_alpha   89.93644926
_cell_angle_beta   89.98387044
_cell_angle_gamma   90.03198575
_symmetry_Int_Tables_number   1
_chemical_formula_structural   V85Zn86O256
_chemical_formula_sum   'V85 Zn86 O256'
_cell_volume   4879.10450106
_cell_formula_units_Z   1
loop_
 _symmetry_equiv_pos_site_id
 _symmetry_equiv_pos_as_xyz
  1  'x, y, z'
loop_
 _atom_site_type_symbol
 _atom_site_label
 _atom_site_symmetry_multiplicity
 _atom_site_fract_x
 _atom_site_fract_y
 _atom_site_fract_z
 _atom_site_occupancy
  V  V0  1  -0.00554573  0.75164934  0.74528649  1
  V  V1  1  0.49822108  0.11651716  0.61749962  1
  V  V2  1  0.74797162  0.12771296  0.37474758  1
  V  V3  1  0.24708920  0.12416111  0.87667321  1
  V  V4  1  -0.01746133  0.49854994  -0.00173678  1
  V  V5  1  0.00933207  0.00133540  0.49731958  1
  V  V6  1  0.12374507  0.61391129  0.00398464  1
  V  V7  1  0.62004732  0.62372211  -0.00417494  1
  V  V8  1  0.88201427  0.14098452  0.24930561  1
  V  V9  1  0.24810842  0.37850754  0.62624934  1
  V  V10  1  -0.00280698  0.24904504  0.75302666  1
  V  V11  1  0.37176809  0.49449993  0.37214943  1
  V  V12  1  0.75932205  0.74941691  0.49945694  1
  V  V13  1  0.37866092  0.49572015  0.88994124  1
  V  V14  1  0.75117470  0.50141423  0.76257470  1
  V  V15  1  0.37830447  0.61867866  0.74891314  1
  V  V16  1  0.74507578  -0.00102783  0.74871366  1
  V  V17  1  0.37543366  0.74966975  0.62276952  1
  V  V18  1  0.37009767  0.87998497  0.00324041  1
  V  V19  1  0.62810690  0.49720601  0.62126057  1
  V  V20  1  0.12537801  0.74728055  0.87266758  1
  V  V21  1  0.12218368  0.12659247  0.00290732  1
  V  V22  1  0.75010126  0.50109217  0.24112925  1
  V  V23  1  0.25156583  0.87571935  0.62038268  1
  V  V24  1  0.75582170  0.12605327  0.87590993  1
  V  V25  1  0.48401496  0.76366697  0.26862295  1
  V  V26  1  0.24282015  0.87515640  0.13222874  1
  V  V27  1  0.50054018  0.62256668  0.61686951  1
  V  V28  1  0.23700563  0.24373529  0.50207452  1
  V  V29  1  0.88366118  -0.00452239  0.37298936  1
  V  V30  1  0.87260739  0.24844694  0.62306217  1
  V  V31  1  0.37781066  0.74891842  0.12489397  1
  V  V32  1  0.62940774  0.00211013  0.12676734  1
  V  V33  1  0.75116479  0.87184341  0.62910066  1
  V  V34  1  0.23710695  0.49846815  0.24541684  1
  V  V35  1  0.12291287  0.36509826  0.24569155  1
  V  V36  1  0.62668654  0.75234502  0.37588609  1
  V  V37  1  0.37433636  0.25075857  0.62567572  1
  V  V38  1  -0.01101009  0.62639073  0.62239658  1
  V  V39  1  -0.00074913  0.61788333  0.13245146  1
  V  V40  1  0.37526296  0.37195375  0.49990592  1
  V  V41  1  0.37455182  0.00171471  0.87636417  1
  V  V42  1  0.24806356  0.74789466  0.00101640  1
  V  V43  1  0.49511515  0.12340643  0.12349911  1
  V  V44  1  0.12996241  0.87540330  0.74720586  1
  V  V45  1  0.00826120  0.12540592  0.62051126  1
  V  V46  1  0.74317905  0.24972863  0.49767590  1
  V  V47  1  0.75611501  0.00005863  0.25049665  1
  V  V48  1  0.49841529  0.61903945  0.12723062  1
  V  V49  1  0.63300525  0.13202269  0.00392009  1
  V  V50  1  0.50589816  0.37179237  0.37320878  1
  V  V51  1  0.80866819  0.31405588  0.06221567  1
  V  V52  1  0.26069891  0.00636436  0.25546182  1
  V  V53  1  0.24033546  0.74595638  0.50230159  1
  V  V54  1  -0.01608792  0.38010204  0.87781313  1
  V  V55  1  0.87531537  0.50148594  0.36783895  1
  V  V56  1  0.49685495  0.37538705  0.88922671  1
  V  V57  1  0.12413917  0.50838192  0.62103479  1
  V  V58  1  0.75481012  0.62472855  0.36725481  1
  V  V59  1  0.24257670  0.62164459  0.38052795  1
  V  V60  1  0.88129136  0.87507536  0.50099264  1
  V  V61  1  0.25270038  0.62221886  0.87481703  1
  V  V62  1  0.87285636  0.74266531  0.12967677  1
  V  V63  1  0.62932929  0.25113339  0.87683383  1
  V  V64  1  -0.00242623  0.75773638  0.25079276  1
  V  V65  1  0.76018023  0.87547782  0.12124040  1
  V  V66  1  0.37807448  0.25392203  0.12586052  1
  V  V67  1  0.50452332  0.24407765  0.25529846  1
  V  V68  1  0.51363177  -0.01148668  -0.00772859  1
  V  V69  1  0.62439656  0.37434978  0.74900082  1
  V  V70  1  0.12080630  0.37953188  0.75330466  1
  V  V71  1  -0.00081918  0.36641979  0.37019343  1
  V  V72  1  0.87438850  0.62156747  0.76329750  1
  V  V73  1  -0.00176443  0.14018724  0.12772501  1
  V  V74  1  0.62124360  0.11452583  0.49653326  1
  V  V75  1  0.24937108  0.37888334  0.12376847  1
  V  V76  1  0.50000261  0.24979207  0.74979333  1
  V  V77  1  0.62733304  0.37477016  0.24449634  1
  V  V78  1  0.25616797  0.25533830  0.00047801  1
  V  V79  1  0.37084649  0.62187131  0.25344809  1
  V  V80  1  0.75295485  0.74707754  -0.00785763  1
  V  V81  1  0.00178905  0.50333588  0.49629813  1
  V  V82  1  0.62289919  0.87336047  0.24930257  1
  V  V83  1  0.11892360  0.75165786  0.37623309  1
  V  V84  1  0.37427856  0.12515834  0.75028389  1
  Zn  Zn85  1  0.61757971  -0.00850030  0.62711362  1
  Zn  Zn86  1  0.75081009  0.37496321  0.62377007  1
  Zn  Zn87  1  -0.01528769  -0.00421924  0.00463096  1
  Zn  Zn88  1  0.11985563  0.24243627  0.37615262  1
  Zn  Zn89  1  0.51959018  0.75234693  0.75014247  1
  Zn  Zn90  1  0.12782002  0.00331932  0.62282984  1
  Zn  Zn91  1  0.87705683  0.11935602  0.74998374  1
  Zn  Zn92  1  0.24712039  0.00082240  0.74881344  1
  Zn  Zn93  1  0.87224488  0.37492810  0.49775357  1
  Zn  Zn94  1  0.12081557  0.00508666  0.13111121  1
  Zn  Zn95  1  0.62353684  0.49956517  0.12230371  1
  Zn  Zn96  1  0.24968094  0.49826850  0.75222440  1
  Zn  Zn97  1  0.50231434  0.49743303  0.49636353  1
  Zn  Zn98  1  0.12282576  0.25323431  0.87747041  1
  Zn  Zn99  1  0.68933664  0.67968235  0.83143431  1
  Zn  Zn100  1  -0.00246659  0.87631512  0.88328573  1
  Zn  Zn101  1  0.24644140  0.11240524  0.38305203  1
  Zn  Zn102  1  0.87402340  -0.01400507  0.87994699  1
  Zn  Zn103  1  0.12078957  0.88109063  0.25897407  1
  Zn  Zn104  1  0.52130045  0.87382289  0.85267337  1
  Zn  Zn105  1  0.62864988  0.62266573  0.49638451  1
  Zn  Zn106  1  0.44891862  0.93029753  0.43528685  1
  Zn  Zn107  1  0.19000888  0.18737417  0.18901089  1
  Zn  Zn108  1  0.18558270  0.19114538  0.68946370  1
  Zn  Zn109  1  0.18308869  0.68798225  0.18798999  1
  Zn  Zn110  1  0.18686966  0.68439394  0.68982915  1
  Zn  Zn111  1  0.68979015  0.19161734  0.18963140  1
  Zn  Zn112  1  0.68568682  0.18276471  0.68604866  1
  Zn  Zn113  1  0.68354972  0.68831491  0.18737893  1
  Zn  Zn114  1  0.69129745  0.68707902  0.67223528  1
  Zn  Zn115  1  0.34575318  0.26336820  0.34225805  1
  Zn  Zn116  1  0.31234015  0.31436509  0.81422888  1
  Zn  Zn117  1  0.30868339  0.81372949  0.31486963  1
  Zn  Zn118  1  0.34632158  0.79767595  0.82487892  1
  Zn  Zn119  1  0.80856036  0.31608364  0.31327197  1
  Zn  Zn120  1  0.81003937  0.31274389  0.81108194  1
  Zn  Zn121  1  0.81508210  0.81413377  0.31086884  1
  Zn  Zn122  1  0.81938477  0.81498109  0.80739969  1
  Zn  Zn123  1  0.18442012  0.43223855  0.43640984  1
  Zn  Zn124  1  0.18707512  0.43629856  0.93635772  1
  Zn  Zn125  1  0.19202648  0.93256250  0.43654541  1
  Zn  Zn126  1  0.15627691  0.92377532  0.95612563  1
  Zn  Zn127  1  0.68830926  0.43642183  0.43440137  1
  Zn  Zn128  1  0.68542749  0.43844013  0.94142349  1
  Zn  Zn129  1  0.69037719  0.93651929  0.43623623  1
  Zn  Zn130  1  0.69646213  0.94004822  0.94225051  1
  Zn  Zn131  1  0.30968445  0.06255674  0.06508168  1
  Zn  Zn132  1  0.31598109  0.05614771  0.55944319  1
  Zn  Zn133  1  0.31096451  0.56116229  0.06385683  1
  Zn  Zn134  1  0.31285368  0.56031806  0.55894259  1
  Zn  Zn135  1  0.81644558  0.07076746  0.06334119  1
  Zn  Zn136  1  0.81595382  0.06063875  0.56298711  1
  Zn  Zn137  1  0.81070733  0.56695685  0.06034741  1
  Zn  Zn138  1  0.81386320  0.56087756  0.56016357  1
  Zn  Zn139  1  0.43292784  0.43387244  0.18803704  1
  Zn  Zn140  1  0.44034217  0.43744754  0.69035024  1
  Zn  Zn141  1  0.43739798  0.93954557  0.18473495  1
  Zn  Zn142  1  0.43419321  0.93440311  0.68964082  1
  Zn  Zn143  1  0.93620314  0.43343171  0.18462749  1
  Zn  Zn144  1  0.93348721  0.43797345  0.68712008  1
  Zn  Zn145  1  0.93987131  0.94260289  0.18238381  1
  Zn  Zn146  1  0.93518667  0.93853469  0.68899412  1
  Zn  Zn147  1  0.06969746  0.06621316  0.31231451  1
  Zn  Zn148  1  0.06042899  0.06031169  0.81559976  1
  Zn  Zn149  1  0.06147463  0.56339067  0.31144529  1
  Zn  Zn150  1  0.05896353  0.56285386  0.81383530  1
  Zn  Zn151  1  0.56710805  0.06147921  0.30933658  1
  Zn  Zn152  1  0.56454454  0.06386213  0.81047481  1
  Zn  Zn153  1  0.56183149  0.56484082  0.31287217  1
  Zn  Zn154  1  0.55671497  0.55742461  0.80828111  1
  Zn  Zn155  1  0.42805118  0.09294492  0.42283954  1
  Zn  Zn156  1  0.44108066  0.18627498  0.94204842  1
  Zn  Zn157  1  0.44040798  0.76320580  0.44399587  1
  Zn  Zn158  1  0.44312265  0.68980493  0.93602891  1
  Zn  Zn159  1  0.93413816  0.18426199  0.43916284  1
  Zn  Zn160  1  0.93560649  0.19116144  0.94301537  1
  Zn  Zn161  1  0.93705055  0.68413488  0.43486490  1
  Zn  Zn162  1  0.93806507  0.69203105  0.93970069  1
  Zn  Zn163  1  0.06287608  0.31549439  0.06072775  1
  Zn  Zn164  1  0.05660731  0.32122611  0.56582456  1
  Zn  Zn165  1  0.06021431  0.80736330  0.06354533  1
  Zn  Zn166  1  0.06303747  0.81142157  0.56208194  1
  Zn  Zn167  1  0.56934491  0.31247091  0.06490721  1
  Zn  Zn168  1  0.56272985  0.30666514  0.56053276  1
  Zn  Zn169  1  0.57709299  0.82661430  0.03820706  1
  Zn  Zn170  1  0.56757355  0.81107041  0.56657068  1
  O  O171  1  0.11624631  0.13030477  0.12021675  1
  O  O172  1  0.11206935  0.12421325  0.63067124  1
  O  O173  1  0.11376464  0.63095505  0.11385543  1
  O  O174  1  0.11401089  0.61146294  0.63243847  1
  O  O175  1  0.62071104  0.12410029  0.11871715  1
  O  O176  1  0.61498896  0.12107279  0.61639022  1
  O  O177  1  0.61311674  0.62523242  0.12010366  1
  O  O178  1  0.61872927  0.61485554  0.61786639  1
  O  O179  1  0.38419357  0.37168498  0.38323107  1
  O  O180  1  0.38380789  0.38371829  0.87097746  1
  O  O181  1  0.41338527  0.83034349  0.35106798  1
  O  O182  1  0.36154330  0.89321623  0.88809408  1
  O  O183  1  0.88283224  0.38312624  0.37481101  1
  O  O184  1  0.88524147  0.37743558  0.86744827  1
  O  O185  1  0.87010678  0.88663424  0.38328405  1
  O  O186  1  0.88504362  0.87030288  0.87491795  1
  O  O187  1  0.24968600  -0.00508108  0.36106933  1
  O  O188  1  0.25504214  0.01711881  0.87754950  1
  O  O189  1  0.25165472  0.50365062  0.36834892  1
  O  O190  1  0.25935339  0.50404355  0.87451280  1
  O  O191  1  0.76027702  0.00744243  0.36959666  1
  O  O192  1  0.74875587  0.00820237  0.86734674  1
  O  O193  1  0.75722759  0.50675791  0.36876583  1
  O  O194  1  0.74016201  0.49977358  0.86148699  1
  O  O195  1  0.25283229  0.49116068  0.13244690  1
  O  O196  1  0.24034172  0.49619896  0.62651262  1
  O  O197  1  0.24827450  0.98978470  0.13277476  1
  O  O198  1  0.24784428  0.99000129  0.62634049  1
  O  O199  1  0.74940412  0.50910684  0.13896665  1
  O  O200  1  0.73883980  0.49938936  0.62813589  1
  O  O201  1  0.74953878  0.99363976  0.13163609  1
  O  O202  1  0.75023191  0.99074413  0.63094201  1
  O  O203  1  0.01041560  0.38341281  0.25815375  1
  O  O204  1  0.00366907  0.37159810  0.75592327  1
  O  O205  1  0.00047186  0.86119929  0.24300552  1
  O  O206  1  0.01232692  0.86517907  0.74313878  1
  O  O207  1  0.50544650  0.36992414  0.25554333  1
  O  O208  1  0.50640469  0.36549108  0.75502564  1
  O  O209  1  0.51745487  0.87418281  0.23629566  1
  O  O210  1  0.50617785  0.86922809  0.74311521  1
  O  O211  1  0.51213560  0.13502762  0.23578292  1
  O  O212  1  0.49416374  0.13237995  0.74388169  1
  O  O213  1  0.48642809  0.63294759  0.24761777  1
  O  O214  1  0.49174027  0.62504413  0.73877138  1
  O  O215  1  0.98778374  0.12465538  0.24579729  1
  O  O216  1  0.99835037  0.13477710  0.74499651  1
  O  O217  1  1.00540739  0.63128889  0.23601071  1
  O  O218  1  0.99350483  0.62888059  0.74268558  1
  O  O219  1  0.36938285  0.24630973  0.01195531  1
  O  O220  1  0.36087022  0.26516710  0.51174324  1
  O  O221  1  0.36676644  0.75661421  0.00797462  1
  O  O222  1  0.35706933  0.73623619  0.51695280  1
  O  O223  1  0.86892736  0.26197340  -0.00189447  1
  O  O224  1  0.86384765  0.24917085  0.50753982  1
  O  O225  1  0.86157218  0.74189649  0.01242721  1
  O  O226  1  0.86748569  0.75942838  0.48884306  1
  O  O227  1  0.13519807  0.26006250  0.50869990  1
  O  O228  1  0.13452542  0.24264478  0.99821758  1
  O  O229  1  0.13202308  0.74536720  0.49410053  1
  O  O230  1  0.12962032  0.73822134  0.99044528  1
  O  O231  1  0.63831476  0.23700416  0.50574786  1
  O  O232  1  0.61825461  0.24226713  0.98858186  1
  O  O233  1  0.64242935  0.74850911  0.49176385  1
  O  O234  1  0.63936557  0.73745689  1.00460422  1
  O  O235  1  0.49583378  0.24358455  0.12699072  1
  O  O236  1  0.49313706  0.24186398  0.63074072  1
  O  O237  1  0.48231597  0.74515046  0.13811730  1
  O  O238  1  0.49051584  0.73827523  0.62732813  1
  O  O239  1  1.00062562  0.24045944  0.12205241  1
  O  O240  1  0.99324330  0.24530860  0.63019111  1
  O  O241  1  0.99141506  0.74229422  0.12904686  1
  O  O242  1  1.00828954  0.73698002  0.63266330  1
  O  O243  1  -0.00147434  0.26377395  0.38393971  1
  O  O244  1  0.00013373  0.25912251  0.86777728  1
  O  O245  1  0.00681992  0.73884692  0.36298309  1
  O  O246  1  0.01156318  0.74874105  0.86663532  1
  O  O247  1  0.49537580  0.25737980  0.35771855  1
  O  O248  1  0.50713071  0.25316101  0.86867340  1
  O  O249  1  0.52404117  0.72509175  0.37381277  1
  O  O250  1  0.46299167  0.76761013  0.85823018  1
  O  O251  1  0.24687296  0.14250839  0.51117830  1
  O  O252  1  0.24745181  0.13766036  0.99602464  1
  O  O253  1  0.24913288  0.62676135  0.48880107  1
  O  O254  1  0.24261761  0.62797861  0.99574408  1
  O  O255  1  0.74675486  0.12821838  0.49299846  1
  O  O256  1  0.73977444  0.12649437  0.99145094  1
  O  O257  1  0.75359788  0.63440868  0.49251911  1
  O  O258  1  0.73756597  0.63671454  1.00314438  1
  O  O259  1  0.24399048  0.36274102  0.00532925  1
  O  O260  1  0.25595027  0.37583574  0.51077417  1
  O  O261  1  0.25312803  0.87102079  0.01048304  1
  O  O262  1  0.24752680  0.86048744  0.50853768  1
  O  O263  1  0.74233402  0.37161996  0.00884467  1
  O  O264  1  0.75031880  0.36434567  0.50067945  1
  O  O265  1  0.74587907  0.85828934  0.01015692  1
  O  O266  1  0.76137568  0.86990842  0.50444650  1
  O  O267  1  0.13381867  0.49421303  0.25219711  1
  O  O268  1  0.12370684  0.49372167  0.74439694  1
  O  O269  1  0.13457191  0.99549349  0.24698117  1
  O  O270  1  0.12731488  0.98882294  0.74832841  1
  O  O271  1  0.63202394  0.49471457  0.24925500  1
  O  O272  1  0.63060179  0.49520186  0.74099359  1
  O  O273  1  0.63632513  0.99420498  0.24404918  1
  O  O274  1  0.63872205  1.00282410  0.74693403  1
  O  O275  1  0.36022283  -0.00512149  0.24533346  1
  O  O276  1  0.36858481  0.00669860  0.75948550  1
  O  O277  1  0.36337955  0.50390847  0.25454709  1
  O  O278  1  0.37294861  0.50880415  0.75325127  1
  O  O279  1  0.87213891  0.00309320  0.25800298  1
  O  O280  1  0.86219765  0.00193915  0.75399347  1
  O  O281  1  0.86702278  0.49487317  0.26094333  1
  O  O282  1  0.86297042  0.50856580  0.74418860  1
  O  O283  1  0.11450367  0.37360012  0.36571773  1
  O  O284  1  0.11876526  0.37516655  0.86323122  1
  O  O285  1  0.12708856  0.85599641  0.37624602  1
  O  O286  1  0.13305323  0.85767634  0.86350951  1
  O  O287  1  0.61071972  0.37971808  0.36790274  1
  O  O288  1  0.61814759  0.36774285  0.86942783  1
  O  O289  1  0.63324305  0.86436135  0.36387517  1
  O  O290  1  0.59004869  0.89652944  0.93773453  1
  O  O291  1  0.39042960  0.12995932  0.11767029  1
  O  O292  1  0.37985218  0.13143189  0.63070409  1
  O  O293  1  0.37673554  0.63038302  0.13139942  1
  O  O294  1  0.38175459  0.62261370  0.63032346  1
  O  O295  1  0.88012375  0.12578397  0.14267008  1
  O  O296  1  0.88364920  0.13541927  0.62716203  1
  O  O297  1  0.88510702  0.63221452  0.12310128  1
  O  O298  1  0.88619085  0.62004905  0.63158937  1
  O  O299  1  0.25973752  0.25454129  0.11964862  1
  O  O300  1  0.25287983  0.25965486  0.62168191  1
  O  O301  1  0.25622870  0.75314602  0.12060996  1
  O  O302  1  0.24951060  0.75126728  0.61798886  1
  O  O303  1  0.75393843  0.24827284  0.11847016  1
  O  O304  1  0.75743346  0.24819020  0.61957394  1
  O  O305  1  0.75686019  0.75492597  0.12253101  1
  O  O306  1  0.75614764  0.76113440  0.61252307  1
  O  O307  1  0.24161547  0.26707184  0.39984009  1
  O  O308  1  0.25188368  0.24222231  0.88321315  1
  O  O309  1  0.24328296  0.74080174  0.38346732  1
  O  O310  1  0.25013534  0.74086023  0.88161867  1
  O  O311  1  0.75663524  0.23967857  0.38543412  1
  O  O312  1  0.73560901  0.24315421  0.86550326  1
  O  O313  1  0.74604212  0.74273358  0.37581053  1
  O  O314  1  0.75634808  0.75308654  0.88900356  1
  O  O315  1  0.00819474  0.12853421  0.00784487  1
  O  O316  1  -0.00555505  0.11479317  0.50913856  1
  O  O317  1  0.00492195  0.61525471  0.00468874  1
  O  O318  1  -0.00549763  0.61256029  0.50661156  1
  O  O319  1  0.51313131  0.11490734  0.00445281  1
  O  O320  1  0.51030382  0.13327682  0.50801988  1
  O  O321  1  0.51086155  0.63765813  0.01242348  1
  O  O322  1  0.49962940  0.62010240  0.51357764  1
  O  O323  1  0.49321328  0.37124135  0.49195239  1
  O  O324  1  0.50466089  0.37077124  0.98802287  1
  O  O325  1  0.49005278  0.85023527  0.49953323  1
  O  O326  1  0.47323594  0.87794116  1.02415140  1
  O  O327  1  0.99640630  0.38781506  0.49114133  1
  O  O328  1  1.00614041  0.39119784  0.99273373  1
  O  O329  1  0.98804270  0.88179339  0.50709160  1
  O  O330  1  1.04295445  0.89087849  0.99187430  1
  O  O331  1  0.48983959  0.49138041  0.37358045  1
  O  O332  1  0.49082569  0.48676500  0.87021988  1
  O  O333  1  0.49592959  1.01392467  0.37628165  1
  O  O334  1  0.48860739  1.00209724  0.87621456  1
  O  O335  1  0.99325878  0.49795988  0.37938821  1
  O  O336  1  1.00230578  0.49489978  0.88862886  1
  O  O337  1  0.99103321  1.00565551  0.38170464  1
  O  O338  1  0.99610322  0.99810459  0.88184530  1
  O  O339  1  0.00284561  0.01462065  0.12145081  1
  O  O340  1  -0.00011783  0.00930820  0.61739622  1
  O  O341  1  -0.00502988  0.50709605  0.11179516  1
  O  O342  1  0.00330712  0.50419465  0.61597714  1
  O  O343  1  0.50979564  0.00692760  0.11876727  1
  O  O344  1  0.49772250  0.01310085  0.62968971  1
  O  O345  1  0.49496482  0.51628177  0.13313257  1
  O  O346  1  0.51217324  0.50347726  0.62477818  1
  O  O347  1  0.24000577  0.38486443  0.24045990  1
  O  O348  1  0.23938517  0.37582804  0.74489978  1
  O  O349  1  0.24669949  0.88010496  0.24565528  1
  O  O350  1  0.23806825  0.87119833  0.74075443  1
  O  O351  1  0.73664919  0.38626994  0.26023478  1
  O  O352  1  0.74217867  0.38269172  0.74604197  1
  O  O353  1  0.74245925  0.87849000  0.24160023  1
  O  O354  1  0.75482709  0.87855601  0.73511911  1
  O  O355  1  0.25099217  0.10811455  0.24363401  1
  O  O356  1  0.25538577  0.12796676  0.75928299  1
  O  O357  1  0.25234388  0.61645349  0.25199355  1
  O  O358  1  0.25629669  0.61975949  0.75842523  1
  O  O359  1  0.75957303  0.12136497  0.25684335  1
  O  O360  1  0.75130790  0.11738894  0.75710660  1
  O  O361  1  0.74470352  0.61733730  0.25785636  1
  O  O362  1  0.75815634  0.61941388  0.75047805  1
  O  O363  1  0.35147600  0.15565586  0.37486465  1
  O  O364  1  0.37029746  0.11841488  0.87303958  1
  O  O365  1  0.35977286  0.61715798  0.36123292  1
  O  O366  1  0.37403161  0.61593986  0.86755323  1
  O  O367  1  0.86934908  0.11772151  0.36564979  1
  O  O368  1  0.86028444  0.13314159  0.87322405  1
  O  O369  1  0.86406000  0.61690393  0.37435389  1
  O  O370  1  0.88183890  0.62685849  0.86248310  1
  O  O371  1  0.13743019  0.36992367  0.13146386  1
  O  O372  1  0.12502075  0.38674287  0.63672189  1
  O  O373  1  0.13704253  0.86893906  0.12983902  1
  O  O374  1  0.13518513  0.87454772  0.62990562  1
  O  O375  1  0.61638294  0.38345902  0.13929684  1
  O  O376  1  0.62454136  0.38030952  0.63027782  1
  O  O377  1  0.63790697  0.88178661  0.12807643  1
  O  O378  1  0.64608803  0.87726084  0.61526725  1
  O  O379  1  0.13075909  0.26251134  0.25377497  1
  O  O380  1  0.11149394  0.26037712  0.74972749  1
  O  O381  1  0.11559414  0.75181711  0.25789949  1
  O  O382  1  0.11730158  0.75148305  0.75579128  1
  O  O383  1  0.61734760  0.26146260  0.24614803  1
  O  O384  1  0.61839118  0.25283849  0.75534251  1
  O  O385  1  0.61768232  0.75819029  0.25686408  1
  O  O386  1  0.63215319  0.73605644  0.75316096  1
  O  O387  1  0.38933789  0.25385017  0.23322905  1
  O  O388  1  0.37977873  0.24556973  0.74513035  1
  O  O389  1  0.36649158  0.73605875  0.24047895  1
  O  O390  1  0.36418606  0.73091170  0.73282112  1
  O  O391  1  0.87435295  0.23865061  0.25832863  1
  O  O392  1  0.88460685  0.24988028  0.74276284  1
  O  O393  1  0.88088053  0.75087525  0.23902730  1
  O  O394  1  0.88887088  0.74076306  0.74815260  1
  O  O395  1  0.37607578  0.48681672  0.49241352  1
  O  O396  1  0.37616082  0.50508883  0.98889465  1
  O  O397  1  0.37710105  1.00740296  0.48371658  1
  O  O398  1  0.38037212  0.99594106  0.99526505  1
  O  O399  1  0.88031697  0.49706563  0.48761597  1
  O  O400  1  0.88420764  0.50490979  0.99652815  1
  O  O401  1  0.88306429  0.99390910  0.49180327  1
  O  O402  1  0.87068162  1.00492648  0.99419916  1
  O  O403  1  0.13838754  0.02296865  0.00905784  1
  O  O404  1  0.11208334  -0.00963794  0.50014595  1
  O  O405  1  0.12254409  0.51207860  -0.00462569  1
  O  O406  1  0.11496493  0.49483634  0.50892657  1
  O  O407  1  0.63129284  0.01573412  0.01284390  1
  O  O408  1  0.63159599  0.01127277  0.50282824  1
  O  O409  1  0.62951435  0.51914143  0.00579889  1
  O  O410  1  0.62308783  0.49958621  0.50667754  1
  O  O411  1  0.36161818  0.36768124  0.12547807  1
  O  O412  1  0.37051830  0.37310868  0.62069849  1
  O  O413  1  0.36058973  0.86646388  0.12473545  1
  O  O414  1  0.35994437  0.86242664  0.63260092  1
  O  O415  1  0.86551819  0.37283717  0.12393886  1
  O  O416  1  0.87442431  0.36117372  0.62150125  1
  O  O417  1  0.86478716  0.86765417  0.12919327  1
  O  O418  1  0.86360922  0.88048653  0.61360379  1
  O  O419  1  0.13430911  0.13147105  0.37478555  1
  O  O420  1  0.13241519  0.13082533  0.88148308  1
  O  O421  1  0.13613345  0.63266360  0.36761604  1
  O  O422  1  0.13109371  0.63243222  0.87824938  1
  O  O423  1  0.64075426  0.12208810  0.38074340  1
  O  O424  1  0.63190100  0.13216932  0.88181979  1
  O  O425  1  0.63994061  0.62734843  0.37717993  1
  O  O426  1  0.61014657  0.62182236  0.89056941  1
