# generated using pymatgen
data_V85Zn86O256
_symmetry_space_group_name_H-M   'P 1'
_cell_length_a   16.91732168
_cell_length_b   16.93119474
_cell_length_c   16.91901302
_cell_angle_alpha   90.06886137
_cell_angle_beta   89.99846259
_cell_angle_gamma   90.06698897
_symmetry_Int_Tables_number   1
_chemical_formula_structural   V85Zn86O256
_chemical_formula_sum   'V85 Zn86 O256'
_cell_volume   4846.11400060
_cell_formula_units_Z   1
loop_
 _symmetry_equiv_pos_site_id
 _symmetry_equiv_pos_as_xyz
  1  'x, y, z'
loop_
 _atom_site_type_symbol
 _atom_site_label
 _atom_site_symmetry_multiplicity
 _atom_site_fract_x
 _atom_site_fract_y
 _atom_site_fract_z
 _atom_site_occupancy
  V  V0  1  0.38981052  0.61955827  0.24545144  1
  V  V1  1  0.11936859  -0.00399940  0.11298767  1
  V  V2  1  0.62455134  0.25199902  0.87129055  1
  V  V3  1  0.24522129  0.37441038  0.63104453  1
  V  V4  1  0.24560210  0.74663826  0.00144180  1
  V  V5  1  0.38056435  -0.00758418  0.37103766  1
  V  V6  1  0.00569423  0.50555728  0.49903719  1
  V  V7  1  0.00570463  0.25250333  0.74124489  1
  V  V8  1  0.25130253  0.35705422  0.12205319  1
  V  V9  1  0.87751733  0.00617779  0.37115056  1
  V  V10  1  0.62398638  0.62930255  0.01027600  1
  V  V11  1  0.37182834  0.36069244  0.00195721  1
  V  V12  1  0.87680276  0.50149659  0.37687060  1
  V  V13  1  0.00287320  0.88087703  0.37896998  1
  V  V14  1  0.11073867  0.00172819  0.62267258  1
  V  V15  1  0.75207053  0.12859777  0.87260045  1
  V  V16  1  0.74801726  0.37441978  0.12844369  1
  V  V17  1  0.37846391  0.12403551  0.74837405  1
  V  V18  1  0.37756287  0.25060869  0.62406287  1
  V  V19  1  0.37704116  0.13713842  0.24623111  1
  V  V20  1  0.11668762  0.74698825  0.87427044  1
  V  V21  1  0.25053541  -0.00169946  0.74557951  1
  V  V22  1  -0.00200187  0.24494487  0.24834188  1
  V  V23  1  0.61071669  0.87828233  0.25534803  1
  V  V24  1  0.75137367  0.37956405  0.62350424  1
  V  V25  1  0.62548837  0.12107552  0.00460713  1
  V  V26  1  0.75078530  0.00282862  0.74793785  1
  V  V27  1  0.75098190  0.75254537  0.49472295  1
  V  V28  1  0.12566922  0.74647446  0.37999773  1
  V  V29  1  0.25192160  0.74331375  0.49927171  1
  V  V30  1  0.87737106  0.62447417  0.74905485  1
  V  V31  1  0.37382996  0.49567859  0.87706089  1
  V  V32  1  0.24824406  0.61639260  0.36461219  1
  V  V33  1  0.25117195  0.00018106  0.24747800  1
  V  V34  1  0.74315240  0.87549553  0.62524392  1
  V  V35  1  0.13474773  0.50516859  0.11900066  1
  V  V36  1  0.60636409  0.75302187  0.37307468  1
  V  V37  1  0.11714463  0.86967217  0.74921753  1
  V  V38  1  0.62339552  0.87298298  0.77336757  1
  V  V39  1  0.62779275  0.12784995  0.49989776  1
  V  V40  1  0.87494803  0.37622512  -0.00104911  1
  V  V41  1  0.74964609  0.25179710  0.00024761  1
  V  V42  1  -0.00248768  0.12111301  0.11755450  1
  V  V43  1  0.74794729  0.49749740  0.25166855  1
  V  V44  1  0.62768633  0.50304800  0.63420709  1
  V  V45  1  0.12496790  0.24869041  0.37472097  1
  V  V46  1  0.00312584  0.37727617  0.86834980  1
  V  V47  1  0.37463172  0.62258406  0.74905760  1
  V  V48  1  0.00161282  0.62198177  0.11804584  1
  V  V49  1  0.74040309  0.63098483  0.86737834  1
  V  V50  1  0.62374095  0.62480739  0.50177151  1
  V  V51  1  0.38074668  -0.00126835  0.87845657  1
  V  V52  1  0.87379676  0.75063839  0.12444700  1
  V  V53  1  0.37895975  0.75177378  0.62585153  1
  V  V54  1  0.87090482  0.24805746  0.61748583  1
  V  V55  1  0.87851378  0.75217459  0.62966956  1
  V  V56  1  0.75205627  0.13643035  0.37291258  1
  V  V57  1  0.50191711  -0.00164071  0.00725901  1
  V  V58  1  0.74838422  0.00284184  0.25036324  1
  V  V59  1  0.50133657  -0.00712016  0.49732284  1
  V  V60  1  0.24797338  0.24797679  0.50119605  1
  V  V61  1  0.11432549  0.11922577  0.50319222  1
  V  V62  1  0.24161196  0.62142021  0.87983584  1
  V  V63  1  0.25093152  0.12857815  0.88324111  1
  V  V64  1  0.50048008  0.49826409  0.00819189  1
  V  V65  1  0.24996221  0.12182435  0.37480746  1
  V  V66  1  0.12572351  0.87570204  0.25043651  1
  V  V67  1  0.86747542  0.50009616  0.87116474  1
  V  V68  1  0.87849554  0.88382017  0.50137094  1
  V  V69  1  0.88322805  0.12496686  0.74476870  1
  V  V70  1  0.60952885  0.37227701  0.25445680  1
  V  V71  1  0.42941869  0.83222823  -0.05577425  1
  V  V72  1  0.12203535  0.49673729  0.63126088  1
  V  V73  1  0.25319943  0.87476831  0.11823073  1
  V  V74  1  0.12817950  0.25435745  0.87609105  1
  V  V75  1  0.87367626  0.24515661  0.12840110  1
  V  V76  1  0.87617040  0.62443478  0.25045165  1
  V  V77  1  0.00169358  0.37618015  0.37416175  1
  V  V78  1  0.12969543  0.38083177  0.24881955  1
  V  V79  1  0.00731747  0.63172428  0.62359976  1
  V  V80  1  0.37974506  0.37888441  0.49487427  1
  V  V81  1  0.60532228  0.25459188  0.37585789  1
  V  V82  1  0.38610980  0.75179902  0.13346126  1
  V  V83  1  0.74706093  0.87453331  0.13148778  1
  V  V84  1  0.49816645  0.14038319  0.12800437  1
  Zn  Zn85  1  0.87209857  0.37233210  0.49696535  1
  Zn  Zn86  1  0.00173299  0.74915730  0.25155501  1
  Zn  Zn87  1  0.00179355  0.50262992  -0.00340510  1
  Zn  Zn88  1  0.61842031  0.50211311  0.13192403  1
  Zn  Zn89  1  0.12329778  0.12621938  -0.00280229  1
  Zn  Zn90  1  0.50216529  0.25356939  0.74919935  1
  Zn  Zn91  1  0.50540015  0.49487834  0.49766542  1
  Zn  Zn92  1  0.62120811  0.00144010  0.62547067  1
  Zn  Zn93  1  0.50231096  0.12391878  0.62411710  1
  Zn  Zn94  1  0.00264649  0.88567755  0.88665017  1
  Zn  Zn95  1  0.74633304  0.75265378  -0.00364069  1
  Zn  Zn96  1  0.37894026  0.49257783  0.36467917  1
  Zn  Zn97  1  0.88541063  0.88423473  0.00429898  1
  Zn  Zn98  1  0.74936730  0.62682989  0.37475069  1
  Zn  Zn99  1  0.50098310  0.62460023  0.62936474  1
  Zn  Zn100  1  0.62775128  0.38108469  0.75251593  1
  Zn  Zn101  1  0.88406138  0.00155821  0.88288185  1
  Zn  Zn102  1  0.50094483  0.75549035  0.76480475  1
  Zn  Zn103  1  0.25052852  0.87435087  0.62111968  1
  Zn  Zn104  1  0.37935345  0.87038421  0.49424100  1
  Zn  Zn105  1  0.50172480  0.37536640  0.87317843  1
  Zn  Zn106  1  0.24411990  0.49550440  0.75366536  1
  Zn  Zn107  1  0.18256054  0.18367486  0.18840593  1
  Zn  Zn108  1  0.18775022  0.18417666  0.68955507  1
  Zn  Zn109  1  0.18885111  0.68854391  0.18963893  1
  Zn  Zn110  1  0.19007838  0.68569955  0.68943121  1
  Zn  Zn111  1  0.68219766  0.18772331  0.19142161  1
  Zn  Zn112  1  0.69170684  0.19074861  0.68352467  1
  Zn  Zn113  1  0.68598747  0.68936393  0.19321828  1
  Zn  Zn114  1  0.68694835  0.69346123  0.69058319  1
  Zn  Zn115  1  0.30872151  0.31304081  0.31128153  1
  Zn  Zn116  1  0.31270623  0.31119789  0.81124062  1
  Zn  Zn117  1  0.31253104  0.80996816  0.30909163  1
  Zn  Zn118  1  0.30221595  0.80814177  0.80621694  1
  Zn  Zn119  1  0.81347118  0.31467728  0.31155769  1
  Zn  Zn120  1  0.81180087  0.31428444  0.80524296  1
  Zn  Zn121  1  0.81393856  0.81499757  0.31190497  1
  Zn  Zn122  1  0.81641275  0.81472857  0.81480170  1
  Zn  Zn123  1  0.18825105  0.43885127  0.44356050  1
  Zn  Zn124  1  0.18636141  0.43393495  0.94132326  1
  Zn  Zn125  1  0.19245898  0.93504027  0.44092110  1
  Zn  Zn126  1  0.19035149  0.93530818  0.93388282  1
  Zn  Zn127  1  0.68833327  0.43498330  0.44032170  1
  Zn  Zn128  1  0.68786056  0.44162004  0.93814858  1
  Zn  Zn129  1  0.68751235  0.93982050  0.43443988  1
  Zn  Zn130  1  0.71409559  0.95081166  0.94960515  1
  Zn  Zn131  1  0.31749406  0.06167396  0.06206624  1
  Zn  Zn132  1  0.31249049  0.06119733  0.56010467  1
  Zn  Zn133  1  0.31408452  0.56197719  0.06518594  1
  Zn  Zn134  1  0.30806289  0.56333412  0.56189885  1
  Zn  Zn135  1  0.81020943  0.06326047  0.06786359  1
  Zn  Zn136  1  0.81127000  0.06465188  0.56027287  1
  Zn  Zn137  1  0.80946539  0.56237427  0.06082588  1
  Zn  Zn138  1  0.81216995  0.56236901  0.56224165  1
  Zn  Zn139  1  0.43076184  0.43566562  0.18527755  1
  Zn  Zn140  1  0.44231341  0.43720246  0.68640557  1
  Zn  Zn141  1  0.43653619  0.94156281  0.18385037  1
  Zn  Zn142  1  0.44258327  0.93458535  0.68742794  1
  Zn  Zn143  1  0.93981833  0.43624671  0.18644835  1
  Zn  Zn144  1  0.93446411  0.43903053  0.68808506  1
  Zn  Zn145  1  0.93705107  0.93706171  0.19084986  1
  Zn  Zn146  1  0.93755314  0.93662139  0.69393051  1
  Zn  Zn147  1  0.06261048  0.06212399  0.30814281  1
  Zn  Zn148  1  0.06403817  0.06451096  0.81069966  1
  Zn  Zn149  1  0.06483781  0.56317803  0.30810868  1
  Zn  Zn150  1  0.05710927  0.56418148  0.80941734  1
  Zn  Zn151  1  0.56219779  0.06521568  0.31151743  1
  Zn  Zn152  1  0.56393941  0.05961273  0.81469765  1
  Zn  Zn153  1  0.56054679  0.55961764  0.31956782  1
  Zn  Zn154  1  0.55768146  0.56275908  0.81566976  1
  Zn  Zn155  1  0.43585036  0.18068940  0.43949074  1
  Zn  Zn156  1  0.44144666  0.18481148  0.93594155  1
  Zn  Zn157  1  0.43455089  0.67794304  0.43753927  1
  Zn  Zn158  1  0.43205747  0.66962934  0.94438212  1
  Zn  Zn159  1  0.93819812  0.18590021  0.43644156  1
  Zn  Zn160  1  0.93884438  0.18895527  0.93403522  1
  Zn  Zn161  1  0.93872428  0.69019453  0.44013115  1
  Zn  Zn162  1  0.93206732  0.69001267  0.94009481  1
  Zn  Zn163  1  0.06258566  0.31378709  0.05758861  1
  Zn  Zn164  1  0.06075442  0.31430660  0.55992268  1
  Zn  Zn165  1  0.06175190  0.80808139  0.06040811  1
  Zn  Zn166  1  0.06479282  0.81446306  0.56034731  1
  Zn  Zn167  1  0.56349877  0.31552294  0.06029210  1
  Zn  Zn168  1  0.56517556  0.31138053  0.56275777  1
  Zn  Zn169  1  0.57102555  0.81157727  0.06846013  1
  Zn  Zn170  1  0.55989345  0.81076928  0.56291847  1
  O  O171  1  0.11690327  0.11540137  0.12075561  1
  O  O172  1  0.13050884  0.11332216  0.61698495  1
  O  O173  1  0.11856124  0.61189507  0.13488554  1
  O  O174  1  0.11250415  0.62097934  0.62998897  1
  O  O175  1  0.61223928  0.13027909  0.11767332  1
  O  O176  1  0.62530348  0.12536304  0.61431060  1
  O  O177  1  0.63156167  0.62159854  0.11437165  1
  O  O178  1  0.62798439  0.62137171  0.61984421  1
  O  O179  1  0.36284685  0.37563683  0.39080813  1
  O  O180  1  0.37040826  0.38474200  0.88154377  1
  O  O181  1  0.37033152  0.88823116  0.37140694  1
  O  O182  1  0.36603597  0.88288449  0.87498464  1
  O  O183  1  0.88317641  0.38353225  0.37464479  1
  O  O184  1  0.87747655  0.38300939  0.87645087  1
  O  O185  1  0.88287833  0.88156107  0.38224351  1
  O  O186  1  0.87999009  0.87714567  0.88074742  1
  O  O187  1  0.25492302  0.00464918  0.36814086  1
  O  O188  1  0.25710846  0.00651938  0.86456349  1
  O  O189  1  0.25199073  0.51414649  0.38074707  1
  O  O190  1  0.25288470  0.50440955  0.87566786  1
  O  O191  1  0.75777189  0.00730185  0.36843552  1
  O  O192  1  0.74746292  0.01157633  0.85636098  1
  O  O193  1  0.75594718  0.50112113  0.36631872  1
  O  O194  1  0.76095283  0.51195142  0.87798995  1
  O  O195  1  0.23682927  0.49577885  0.12315994  1
  O  O196  1  0.23909325  0.49348011  0.62436987  1
  O  O197  1  0.24583071  0.99208076  0.12727292  1
  O  O198  1  0.25055611  0.99900196  0.63676247  1
  O  O199  1  0.75062542  0.49495058  0.13875165  1
  O  O200  1  0.74470074  0.49069698  0.62339476  1
  O  O201  1  0.75251085  0.99323131  0.14317001  1
  O  O202  1  0.74857246  0.99290049  0.63251254  1
  O  O203  1  0.00841727  0.36577044  0.25335778  1
  O  O204  1  -0.00618653  0.36856586  0.76070877  1
  O  O205  1  0.00604247  0.87251021  0.26207632  1
  O  O206  1  0.01423700  0.87382069  0.75125777  1
  O  O207  1  0.51021746  0.38025471  0.24613729  1
  O  O208  1  0.50738842  0.37213240  0.75389437  1
  O  O209  1  0.51185578  0.88263023  0.25049521  1
  O  O210  1  0.51782324  0.87689506  0.75536556  1
  O  O211  1  0.49454892  0.12127516  0.23502123  1
  O  O212  1  0.48803151  0.12342383  0.74911987  1
  O  O213  1  0.48860622  0.62442098  0.25006965  1
  O  O214  1  0.48663983  0.63205032  0.75511867  1
  O  O215  1  1.00692358  0.13905495  0.23894591  1
  O  O216  1  0.98922345  0.13583588  0.74976059  1
  O  O217  1  0.98862642  0.62333089  0.24187758  1
  O  O218  1  0.98591279  0.62660660  0.74052442  1
  O  O219  1  0.37630973  0.26194017  -0.00971702  1
  O  O220  1  0.36880804  0.25459079  0.50611761  1
  O  O221  1  0.36966709  0.75644190  0.00505165  1
  O  O222  1  0.37163822  0.74891690  0.50700243  1
  O  O223  1  0.86917703  0.25576554  0.00650063  1
  O  O224  1  0.88545929  0.25201638  0.51369839  1
  O  O225  1  0.86787716  0.75054478  0.01534376  1
  O  O226  1  0.86880667  0.76092176  0.50727333  1
  O  O227  1  0.12866405  0.24272628  0.49484209  1
  O  O228  1  0.11861354  0.24660140  0.98178727  1
  O  O229  1  0.13374303  0.75258051  0.48762357  1
  O  O230  1  0.13935976  0.74894129  0.99427541  1
  O  O231  1  0.62090788  0.24347392  0.48623524  1
  O  O232  1  0.62929252  0.24302880  0.99099097  1
  O  O233  1  0.63159289  0.74857699  0.49081432  1
  O  O234  1  0.62484046  0.73318887  1.00243783  1
  O  O235  1  0.49863047  0.23907286  0.12006729  1
  O  O236  1  0.48872524  0.24653041  0.62570124  1
  O  O237  1  0.48401135  0.75321357  0.11985325  1
  O  O238  1  0.48924992  0.74750585  0.62976030  1
  O  O239  1  0.99394391  0.24621288  0.12944115  1
  O  O240  1  0.99285266  0.25997730  0.63608680  1
  O  O241  1  0.99430197  0.73983310  0.13047459  1
  O  O242  1  0.99142230  0.74360737  0.61645002  1
  O  O243  1  0.00482731  0.25401665  0.36654819  1
  O  O244  1  0.00453832  0.25788064  0.86398944  1
  O  O245  1  0.00915124  0.75615359  0.37449777  1
  O  O246  1  0.01499848  0.74493156  0.88222853  1
  O  O247  1  0.50701776  0.24749666  0.37470426  1
  O  O248  1  0.51094584  0.25122988  0.87292108  1
  O  O249  1  0.50843376  0.75118656  0.38012868  1
  O  O250  1  0.47907781  0.76002351  0.88556188  1
  O  O251  1  0.24512328  0.13089506  0.49307249  1
  O  O252  1  0.25174218  0.12035159  0.98603346  1
  O  O253  1  0.25761936  0.63572562  0.48513838  1
  O  O254  1  0.25799990  0.63342811  0.99134043  1
  O  O255  1  0.73586235  0.11766229  0.48820256  1
  O  O256  1  0.74127223  0.13396067  0.99781308  1
  O  O257  1  0.74191011  0.63514308  0.49928816  1
  O  O258  1  0.73833193  0.62465443  0.99124142  1
  O  O259  1  0.25620197  0.37617478  0.01336724  1
  O  O260  1  0.25573112  0.36705568  0.51045928  1
  O  O261  1  0.24842309  0.86789228  0.01154632  1
  O  O262  1  0.25630677  0.85929582  0.50017138  1
  O  O263  1  0.75400936  0.37077326  0.00806234  1
  O  O264  1  0.75456386  0.37728587  0.51481087  1
  O  O265  1  0.73243697  0.86655392  0.02497112  1
  O  O266  1  0.75681058  0.87168085  0.50585238  1
  O  O267  1  0.11996303  0.48648540  0.23870591  1
  O  O268  1  0.12297160  0.50228679  0.73627498  1
  O  O269  1  0.13253117  0.99470658  0.24005476  1
  O  O270  1  0.13347628  0.99596985  0.74052081  1
  O  O271  1  0.63226355  0.49420252  0.25278460  1
  O  O272  1  0.62181697  0.50473875  0.73800880  1
  O  O273  1  0.63258438  0.98514764  0.26383576  1
  O  O274  1  0.63135078  0.99073712  0.74658288  1
  O  O275  1  0.36940046  0.00786352  0.25407168  1
  O  O276  1  0.37107597  0.00379706  0.75615292  1
  O  O277  1  0.37327281  0.51470746  0.24640812  1
  O  O278  1  0.37400623  0.50525215  0.75822155  1
  O  O279  1  0.86569844  -0.00443034  0.26362997  1
  O  O280  1  0.86683075  0.00965112  0.74678438  1
  O  O281  1  0.87011326  0.50493106  0.25577110  1
  O  O282  1  0.87656661  0.51120984  0.75806863  1
  O  O283  1  0.12374293  0.37179698  0.36715117  1
  O  O284  1  0.11588480  0.36954636  0.87536788  1
  O  O285  1  0.11985299  0.87081712  0.37257650  1
  O  O286  1  0.12683743  0.86466920  0.86752912  1
  O  O287  1  0.62760231  0.36137530  0.37183304  1
  O  O288  1  0.62784700  0.36655942  0.87487833  1
  O  O289  1  0.62845941  0.86170180  0.36863078  1
  O  O290  1  0.63823826  0.88235952  0.86978955  1
  O  O291  1  0.38696683  0.12310809  0.13124479  1
  O  O292  1  0.37388512  0.13348199  0.63109957  1
  O  O293  1  0.36952524  0.63695193  0.13658849  1
  O  O294  1  0.37500926  0.62901544  0.63398214  1
  O  O295  1  0.88016056  0.13648782  0.12372804  1
  O  O296  1  0.86867635  0.13447104  0.63151038  1
  O  O297  1  0.87959993  0.62881489  0.13187884  1
  O  O298  1  0.87997069  0.63259656  0.63036259  1
  O  O299  1  0.24074563  0.25873373  0.12153629  1
  O  O300  1  0.25687148  0.25466646  0.62206619  1
  O  O301  1  0.25635286  0.75466069  0.11818075  1
  O  O302  1  0.25941534  0.74599615  0.61636159  1
  O  O303  1  0.75655949  0.25262397  0.12312339  1
  O  O304  1  0.76012637  0.26170393  0.62398695  1
  O  O305  1  0.75841195  0.75622500  0.13177193  1
  O  O306  1  0.75605436  0.75748010  0.61448015  1
  O  O307  1  0.24195496  0.24323142  0.37988665  1
  O  O308  1  0.24103505  0.24117852  0.86649630  1
  O  O309  1  0.24482656  0.74222266  0.37890798  1
  O  O310  1  0.24448539  0.74062623  0.88313746  1
  O  O311  1  0.75269147  0.23834717  0.37191988  1
  O  O312  1  0.74592769  0.24677649  0.87947802  1
  O  O313  1  0.75187898  0.75104624  0.38732833  1
  O  O314  1  0.75587274  0.73398229  0.87822024  1
  O  O315  1  -0.00103337  0.12903532  0.01328760  1
  O  O316  1  0.01514617  0.12413785  0.49522808  1
  O  O317  1  -0.00560543  0.62351730  0.01437228  1
  O  O318  1  -0.00493824  0.61780905  0.51036208  1
  O  O319  1  0.50517182  0.12024692  0.00936781  1
  O  O320  1  0.51107162  0.11588988  0.49983299  1
  O  O321  1  0.51598570  0.61494567  -0.00399175  1
  O  O322  1  0.51552345  0.62989964  0.50532112  1
  O  O323  1  0.48221509  0.37155179  0.50486039  1
  O  O324  1  0.49097239  0.38088602  0.99686545  1
  O  O325  1  0.49946368  0.88777672  0.50107386  1
  O  O326  1  0.50497672  0.88163208  1.00245428  1
  O  O327  1  0.99799973  0.38474146  0.49056190  1
  O  O328  1  0.99186406  0.37508357  0.98633522  1
  O  O329  1  0.99309119  0.87286504  0.48811706  1
  O  O330  1  0.99939430  0.87756855  1.00303867  1
  O  O331  1  0.48986799  0.50684959  0.38636219  1
  O  O332  1  0.48967923  0.49828483  0.88559176  1
  O  O333  1  0.49058005  1.00711342  0.38187955  1
  O  O334  1  0.48917869  1.00521361  0.88612434  1
  O  O335  1  0.99886775  0.49852656  0.38075818  1
  O  O336  1  0.99065934  0.49446240  0.87546720  1
  O  O337  1  0.99203561  0.99319266  0.36910298  1
  O  O338  1  0.99675227  1.00073781  0.86918408  1
  O  O339  1  0.00715788  0.00908630  0.13330737  1
  O  O340  1  0.01159981  -0.00309778  0.62696826  1
  O  O341  1  0.00910907  0.50507541  0.12333868  1
  O  O342  1  0.00353860  0.50619424  0.61824313  1
  O  O343  1  0.49695401  0.00830311  0.11117392  1
  O  O344  1  0.50102708  0.00373081  0.61455583  1
  O  O345  1  0.49861633  0.49654401  0.11256873  1
  O  O346  1  0.51110024  0.50400412  0.61816826  1
  O  O347  1  0.24256471  0.37109154  0.23565323  1
  O  O348  1  0.25489946  0.37701641  0.73535815  1
  O  O349  1  0.24482688  0.87875648  0.23940514  1
  O  O350  1  0.23931788  0.88389658  0.74696378  1
  O  O351  1  0.74318956  0.38222868  0.24714626  1
  O  O352  1  0.74567822  0.37317156  0.73245770  1
  O  O353  1  0.74334650  0.88114562  0.24771705  1
  O  O354  1  0.74302645  0.88167752  0.74361578  1
  O  O355  1  0.25528070  0.11920979  0.25311198  1
  O  O356  1  0.26177455  0.11775685  0.75643869  1
  O  O357  1  0.25641801  0.62815900  0.26158470  1
  O  O358  1  0.26023585  0.62064692  0.75903367  1
  O  O359  1  0.74113080  0.11468606  0.25932984  1
  O  O360  1  0.75814370  0.11981090  0.75042895  1
  O  O361  1  0.76003103  0.61738852  0.25199280  1
  O  O362  1  0.75711135  0.62918945  0.76085156  1
  O  O363  1  0.36819345  0.11627201  0.36760966  1
  O  O364  1  0.37030984  0.11791575  0.86835389  1
  O  O365  1  0.36550356  0.62737438  0.35973983  1
  O  O366  1  0.36379461  0.61215454  0.87074413  1
  O  O367  1  0.86697376  0.11629188  0.38064473  1
  O  O368  1  0.86794341  0.12772520  0.86405567  1
  O  O369  1  0.87504551  0.62084904  0.36727812  1
  O  O370  1  0.86880330  0.62054041  0.86798108  1
  O  O371  1  0.13294663  0.38107548  0.12789534  1
  O  O372  1  0.13269388  0.38341005  0.61979292  1
  O  O373  1  0.13159132  0.87920228  0.13070740  1
  O  O374  1  0.12866823  0.88250421  0.62947127  1
  O  O375  1  0.63128143  0.37524712  0.13500099  1
  O  O376  1  0.63397804  0.38356457  0.62324570  1
  O  O377  1  0.63062515  0.86722650  0.14833455  1
  O  O378  1  0.63733263  0.87520314  0.62360449  1
  O  O379  1  0.11852202  0.25922038  0.25435168  1
  O  O380  1  0.11425980  0.24366325  0.75767933  1
  O  O381  1  0.12571148  0.75790955  0.26126698  1
  O  O382  1  0.13401921  0.75804609  0.76029338  1
  O  O383  1  0.62686073  0.25851592  0.26590282  1
  O  O384  1  0.62621010  0.24636260  0.76238403  1
  O  O385  1  0.62610957  0.75790161  0.26642854  1
  O  O386  1  0.62414682  0.76716447  0.75364859  1
  O  O387  1  0.37117521  0.23632519  0.25469579  1
  O  O388  1  0.37644675  0.24131491  0.74187768  1
  O  O389  1  0.37441699  0.74135012  0.23946792  1
  O  O390  1  0.37403669  0.74237496  0.74334411  1
  O  O391  1  0.88531165  0.25628577  0.24016321  1
  O  O392  1  0.88206689  0.24401717  0.73996627  1
  O  O393  1  0.87658652  0.74142716  0.24336551  1
  O  O394  1  0.86853971  0.74554963  0.73514662  1
  O  O395  1  0.37184524  0.48358412  0.50506771  1
  O  O396  1  0.38086949  0.49537838  0.99461413  1
  O  O397  1  0.38220388  0.99965054  0.48950310  1
  O  O398  1  0.38428465  0.99734237  0.99058509  1
  O  O399  1  0.88513579  0.50100378  0.49230650  1
  O  O400  1  0.87639929  0.49373043  0.99220850  1
  O  O401  1  0.86997267  0.98918855  0.49198592  1
  O  O402  1  0.83108961  0.98805224  0.98807861  1
  O  O403  1  0.13208229  0.00134239  0.01101024  1
  O  O404  1  0.13384681  0.00578479  0.51230949  1
  O  O405  1  0.12092482  0.49712471  0.01524489  1
  O  O406  1  0.11281643  0.49931946  0.50981196  1
  O  O407  1  0.62036998  0.01495148  -0.00592081  1
  O  O408  1  0.61787250  0.00696314  0.49777053  1
  O  O409  1  0.61811766  0.50697309  0.00441057  1
  O  O410  1  0.62855868  0.51060474  0.50744386  1
  O  O411  1  0.35916119  0.37383472  0.11886761  1
  O  O412  1  0.36852744  0.36681037  0.61774566  1
  O  O413  1  0.36654386  0.86248626  0.13276699  1
  O  O414  1  0.37234254  0.86464526  0.62498202  1
  O  O415  1  0.87038602  0.36541924  0.12091838  1
  O  O416  1  0.86607603  0.37093748  0.62390837  1
  O  O417  1  0.86681049  0.86690287  0.12862153  1
  O  O418  1  0.86831919  0.87127433  0.62022524  1
  O  O419  1  0.13156499  0.12727582  0.37923314  1
  O  O420  1  0.13529218  0.13230484  0.87424251  1
  O  O421  1  0.13708402  0.63209979  0.36748080  1
  O  O422  1  0.13491813  0.62838630  0.86810660  1
  O  O423  1  0.62964162  0.13828972  0.37759987  1
  O  O424  1  0.63083576  0.13223460  0.88188700  1
  O  O425  1  0.62827820  0.63907439  0.38101482  1
  O  O426  1  0.63766220  0.61839310  0.88066299  1
