# generated using pymatgen
data_V85Zn86O256
_symmetry_space_group_name_H-M   'P 1'
_cell_length_a   16.96135714
_cell_length_b   16.95875076
_cell_length_c   16.96766302
_cell_angle_alpha   89.95577786
_cell_angle_beta   89.92223937
_cell_angle_gamma   89.99584869
_symmetry_Int_Tables_number   1
_chemical_formula_structural   V85Zn86O256
_chemical_formula_sum   'V85 Zn86 O256'
_cell_volume   4880.63080173
_cell_formula_units_Z   1
loop_
 _symmetry_equiv_pos_site_id
 _symmetry_equiv_pos_as_xyz
  1  'x, y, z'
loop_
 _atom_site_type_symbol
 _atom_site_label
 _atom_site_symmetry_multiplicity
 _atom_site_fract_x
 _atom_site_fract_y
 _atom_site_fract_z
 _atom_site_occupancy
  V  V0  1  0.36116411  0.26947505  0.61664777  1
  V  V1  1  0.01610922  -0.00196247  0.00175816  1
  V  V2  1  0.73827739  0.24554202  0.00227724  1
  V  V3  1  0.50303069  0.50622065  -0.00381952  1
  V  V4  1  0.74860551  0.23552456  0.49579677  1
  V  V5  1  0.74743063  0.62721218  0.37698188  1
  V  V6  1  0.37635349  0.87860635  -0.00002039  1
  V  V7  1  0.24101650  0.88027608  0.13224819  1
  V  V8  1  0.23515706  0.12826501  0.88146626  1
  V  V9  1  0.24935300  0.62706847  0.87461981  1
  V  V10  1  0.87423396  0.63060851  0.24820909  1
  V  V11  1  0.00238130  0.87081446  0.36093906  1
  V  V12  1  0.36818449  0.00655651  0.37309707  1
  V  V13  1  0.50344835  0.75579833  0.74711760  1
  V  V14  1  0.74710017  0.75338967  0.50415373  1
  V  V15  1  0.50468498  0.37140105  0.87265054  1
  V  V16  1  0.63144418  0.87569304  0.24576038  1
  V  V17  1  0.37429849  0.49991532  0.87338987  1
  V  V18  1  0.24898231  0.87600020  0.62045297  1
  V  V19  1  0.37507819  0.00404113  0.87477928  1
  V  V20  1  0.87067771  0.50380851  0.37616257  1
  V  V21  1  0.00187901  0.00033980  0.49863772  1
  V  V22  1  0.12692563  0.48981876  0.62313626  1
  V  V23  1  0.05780921  0.31379946  0.92567019  1
  V  V24  1  0.86956668  0.62579747  0.75531649  1
  V  V25  1  0.12674361  0.37449350  0.25538226  1
  V  V26  1  0.87203487  0.37280759  0.49966687  1
  V  V27  1  0.00810428  0.23005301  0.27114450  1
  V  V28  1  0.74777328  0.50087599  0.25244682  1
  V  V29  1  0.00448737  0.52033396  -0.00162079  1
  V  V30  1  0.25083461  0.74595074  -0.00215114  1
  V  V31  1  0.74999363  0.49859606  0.75752178  1
  V  V32  1  0.37937928  0.75215579  0.12418464  1
  V  V33  1  0.62242760  0.62404997  0.50090434  1
  V  V34  1  0.00545522  0.25488594  0.74776965  1
  V  V35  1  0.50603136  0.12476296  0.12194711  1
  V  V36  1  0.37654012  0.49499732  0.38980219  1
  V  V37  1  0.12743259  0.00767935  0.61860467  1
  V  V38  1  0.01670785  0.11874664  0.12009345  1
  V  V39  1  0.74734841  0.37357244  0.62480028  1
  V  V40  1  0.62827852  0.50408070  0.11482588  1
  V  V41  1  0.64870001  0.89194456  0.74171209  1
  V  V42  1  0.50575338  0.00590068  -0.00345057  1
  V  V43  1  0.24983343  0.49188728  0.74499458  1
  V  V44  1  0.62828399  0.23738650  0.37555549  1
  V  V45  1  0.86362276  0.75144376  0.12770164  1
  V  V46  1  0.86629092  0.12105374  0.24736316  1
  V  V47  1  0.12734957  0.62613978  0.49794980  1
  V  V48  1  0.86603597  0.00475961  0.37443454  1
  V  V49  1  0.37244382  0.62604688  0.74631471  1
  V  V50  1  0.50055087  0.25146426  0.24930984  1
  V  V51  1  0.86679601  0.87715645  0.01267587  1
  V  V52  1  0.62224470  0.37853853  0.25174947  1
  V  V53  1  0.86916421  0.37212511  -0.00435184  1
  V  V54  1  0.88105265  0.49482381  0.87451901  1
  V  V55  1  0.87003675  0.75286880  0.62644781  1
  V  V56  1  0.21047355  0.24108783  0.46079825  1
  V  V57  1  0.12496568  0.87219287  0.74860486  1
  V  V58  1  -0.00435894  0.87416398  0.87572346  1
  V  V59  1  0.12065873  0.50307279  0.12372706  1
  V  V60  1  0.12246880  0.74321766  0.87607860  1
  V  V61  1  -0.00007378  0.37786262  0.37406199  1
  V  V62  1  -0.00046985  0.62660840  0.62532481  1
  V  V63  1  0.63639000  -0.00085585  0.11757772  1
  V  V64  1  0.50661085  0.01317121  0.50350167  1
  V  V65  1  0.87004066  0.87573942  0.50073278  1
  V  V66  1  0.62361149  0.49645346  0.61994801  1
  V  V67  1  0.24977095  0.75344402  0.49424055  1
  V  V68  1  0.62355691  0.75286335  0.37647589  1
  V  V69  1  0.37428167  0.12630453  0.73857613  1
  V  V70  1  -0.00516334  0.12046986  0.63153388  1
  V  V71  1  0.50485615  0.62865021  0.12087780  1
  V  V72  1  0.50124103  0.24546888  0.73954127  1
  V  V73  1  0.87550775  0.24742982  0.12712604  1
  V  V74  1  0.49911616  0.37599457  0.39472876  1
  V  V75  1  0.49890672  0.75280645  0.25213485  1
  V  V76  1  0.74983680  -0.00014207  0.24741720  1
  V  V77  1  0.04765395  0.68396297  0.18832540  1
  V  V78  1  0.87207829  0.24439866  0.63100496  1
  V  V79  1  0.37394199  0.24856449  0.12329536  1
  V  V80  1  0.37354526  0.37497508  -0.00204408  1
  V  V81  1  0.49783045  0.62085743  0.61898050  1
  V  V82  1  -0.00166783  0.50041915  0.50166590  1
  V  V83  1  0.24894716  0.00149968  0.74865358  1
  V  V84  1  0.25216126  0.37858242  0.12482439  1
  Zn  Zn85  1  -0.00041937  0.74754129  0.75105793  1
  Zn  Zn86  1  0.25627568  0.49933414  0.25323060  1
  Zn  Zn87  1  0.37740471  0.88095174  0.49834881  1
  Zn  Zn88  1  0.37083667  0.12589976  0.25136770  1
  Zn  Zn89  1  0.78263429  0.03022327  0.73612944  1
  Zn  Zn90  1  0.50444659  0.87593375  0.86977693  1
  Zn  Zn91  1  0.23440763  0.00853784  0.25398145  1
  Zn  Zn92  1  0.74237282  0.11713279  0.87256148  1
  Zn  Zn93  1  0.49903121  0.87975946  0.37906679  1
  Zn  Zn94  1  0.74441348  0.74058112  -0.00766767  1
  Zn  Zn95  1  0.75272113  0.37649898  0.13011255  1
  Zn  Zn96  1  0.62493551  0.37389789  0.75119592  1
  Zn  Zn97  1  0.63187548  0.02386363  0.62070316  1
  Zn  Zn98  1  0.61641385  0.24162301  0.88182867  1
  Zn  Zn99  1  0.37917692  0.61856598  0.25413402  1
  Zn  Zn100  1  0.63096067  0.73852864  0.87537821  1
  Zn  Zn101  1  0.23819259  0.24675384  -0.00157356  1
  Zn  Zn102  1  0.12298801  0.75274965  0.36504150  1
  Zn  Zn103  1  0.25480106  0.62414831  0.37534628  1
  Zn  Zn104  1  0.12729703  0.37030589  0.75135127  1
  Zn  Zn105  1  0.37287538  0.75083041  0.62087282  1
  Zn  Zn106  1  0.87207640  0.00294931  0.87110651  1
  Zn  Zn107  1  0.19304017  0.19299829  0.19862809  1
  Zn  Zn108  1  0.18750200  0.18609440  0.68808021  1
  Zn  Zn109  1  0.20933684  0.68649944  0.18846271  1
  Zn  Zn110  1  0.18734140  0.68653632  0.68468385  1
  Zn  Zn111  1  0.68667272  0.18821486  0.18416777  1
  Zn  Zn112  1  0.68984863  0.18550090  0.69772762  1
  Zn  Zn113  1  0.68664691  0.68777758  0.18614306  1
  Zn  Zn114  1  0.68726979  0.68586956  0.68898714  1
  Zn  Zn115  1  0.31302286  0.31374819  0.31652730  1
  Zn  Zn116  1  0.31281241  0.30742426  0.81251786  1
  Zn  Zn117  1  0.31583546  0.81745218  0.31471826  1
  Zn  Zn118  1  0.31527638  0.81442561  0.81026003  1
  Zn  Zn119  1  0.81403997  0.31042287  0.31398557  1
  Zn  Zn120  1  0.81173310  0.30570861  0.81442351  1
  Zn  Zn121  1  0.81350777  0.81588808  0.31213183  1
  Zn  Zn122  1  0.80790649  0.81266992  0.81783312  1
  Zn  Zn123  1  0.19357542  0.42886854  0.44221899  1
  Zn  Zn124  1  0.19027995  0.44592366  0.94167162  1
  Zn  Zn125  1  0.18408148  0.93911674  0.43145055  1
  Zn  Zn126  1  0.19094092  0.93173026  0.93429261  1
  Zn  Zn127  1  0.68398952  0.43201218  0.43999406  1
  Zn  Zn128  1  0.69570020  0.58294903  0.93083039  1
  Zn  Zn129  1  0.68484798  0.93946349  0.43814323  1
  Zn  Zn130  1  0.68785813  0.93482416  0.92497983  1
  Zn  Zn131  1  0.30761850  0.06703589  0.06829796  1
  Zn  Zn132  1  0.30860495  0.07405953  0.54985721  1
  Zn  Zn133  1  0.31609031  0.56423014  0.06488200  1
  Zn  Zn134  1  0.31090933  0.55915122  0.56099823  1
  Zn  Zn135  1  0.82286492  0.07149300  0.03924270  1
  Zn  Zn136  1  0.81045940  0.06048393  0.56369105  1
  Zn  Zn137  1  0.82287775  0.55849580  0.06874874  1
  Zn  Zn138  1  0.81003487  0.56347595  0.56569777  1
  Zn  Zn139  1  0.43904446  0.44029548  0.18967067  1
  Zn  Zn140  1  0.43867876  0.43507006  0.68324906  1
  Zn  Zn141  1  0.43897648  0.93806062  0.18759792  1
  Zn  Zn142  1  0.43560773  0.94233938  0.67989079  1
  Zn  Zn143  1  0.93972179  0.43847415  0.18807677  1
  Zn  Zn144  1  0.93723911  0.43394576  0.68834313  1
  Zn  Zn145  1  1.06454409  0.93482470  0.18793970  1
  Zn  Zn146  1  0.93658739  0.93258461  0.68883787  1
  Zn  Zn147  1  0.05607845  0.06116506  0.31404438  1
  Zn  Zn148  1  0.05330463  0.05754630  0.80747755  1
  Zn  Zn149  1  0.06837259  0.55521097  0.31891290  1
  Zn  Zn150  1  0.06118605  0.56000532  0.81129859  1
  Zn  Zn151  1  0.55503315  0.06044418  0.30960740  1
  Zn  Zn152  1  0.56714441  0.06714197  0.81209796  1
  Zn  Zn153  1  0.55725379  0.56111618  0.31445775  1
  Zn  Zn154  1  0.55844691  0.55900006  0.80292906  1
  Zn  Zn155  1  0.42954734  0.18968779  0.43497473  1
  Zn  Zn156  1  0.43394783  0.18506067  0.93569894  1
  Zn  Zn157  1  0.43574954  0.68693312  0.43779842  1
  Zn  Zn158  1  0.44364871  0.68877646  0.93396056  1
  Zn  Zn159  1  0.95323337  0.18173574  0.43512387  1
  Zn  Zn160  1  0.93162760  0.18005212  0.94021004  1
  Zn  Zn161  1  0.93785604  0.69051119  0.43658322  1
  Zn  Zn162  1  0.92507507  0.69012253  0.93684724  1
  Zn  Zn163  1  0.05923534  0.31130922  0.08849187  1
  Zn  Zn164  1  0.06410661  0.30753376  0.55827018  1
  Zn  Zn165  1  0.06388938  0.80877953  0.05274114  1
  Zn  Zn166  1  0.06172287  0.81426250  0.55828688  1
  Zn  Zn167  1  0.55927627  0.32178210  0.06622887  1
  Zn  Zn168  1  0.55927636  0.19602500  0.55979058  1
  Zn  Zn169  1  0.56837192  0.81726618  0.05842917  1
  Zn  Zn170  1  0.55793083  0.81804019  0.56452759  1
  O  O171  1  0.11305292  0.13484805  0.12700063  1
  O  O172  1  0.11807440  0.11184378  0.62863158  1
  O  O173  1  0.11556305  0.62459541  0.13623309  1
  O  O174  1  0.11752505  0.61930859  0.61485957  1
  O  O175  1  0.61199071  0.11752627  0.12842262  1
  O  O176  1  0.61759485  0.13596203  0.63228829  1
  O  O177  1  0.61309846  0.61861533  0.13077616  1
  O  O178  1  0.61736369  0.61729600  0.62082379  1
  O  O179  1  0.38943629  0.38070868  0.37425773  1
  O  O180  1  0.37794702  0.37947991  0.88228901  1
  O  O181  1  0.37865052  0.88858129  0.37858720  1
  O  O182  1  0.37272102  0.88789028  0.88122878  1
  O  O183  1  0.87306032  0.39010905  0.38014601  1
  O  O184  1  0.87411313  0.38011052  0.88470857  1
  O  O185  1  0.88295784  0.88016616  0.38258529  1
  O  O186  1  0.88845047  0.87034442  0.88413080  1
  O  O187  1  0.26277991  -0.00239786  0.37273997  1
  O  O188  1  0.25630645  0.00570758  0.86990631  1
  O  O189  1  0.26519126  0.49477387  0.37824020  1
  O  O190  1  0.25461841  0.50963805  0.86873881  1
  O  O191  1  0.76013801  -0.00457996  0.36971021  1
  O  O192  1  0.75295279  -0.00163365  0.85910903  1
  O  O193  1  0.75092138  0.50760696  0.37161139  1
  O  O194  1  0.75810945  0.50025554  0.86100831  1
  O  O195  1  0.23915835  0.49759911  0.12351172  1
  O  O196  1  0.23893896  0.50523415  0.63313001  1
  O  O197  1  0.25152839  0.98013980  0.11802130  1
  O  O198  1  0.24311143  0.99647356  0.62402470  1
  O  O199  1  0.74367671  0.49956495  0.13491183  1
  O  O200  1  0.74623879  0.49235612  0.63262061  1
  O  O201  1  0.73829528  1.00834167  0.12351611  1
  O  O202  1  0.74462323  1.00453245  0.63140734  1
  O  O203  1  0.00687348  0.37076025  0.25780741  1
  O  O204  1  0.00433301  0.36242978  0.74675909  1
  O  O205  1  -0.00543153  0.87615515  0.26276074  1
  O  O206  1  0.00780686  0.86803037  0.75865055  1
  O  O207  1  0.51231748  0.36974701  0.24908228  1
  O  O208  1  0.49549082  0.36371377  0.75681198  1
  O  O209  1  0.50761924  0.86419005  0.25066227  1
  O  O210  1  0.48506274  0.85885396  0.74515143  1
  O  O211  1  0.49437680  0.13401419  0.23881595  1
  O  O212  1  0.48835418  0.13958260  0.75754270  1
  O  O213  1  0.50114087  0.63807688  0.24405084  1
  O  O214  1  0.48962754  0.63193848  0.73796293  1
  O  O215  1  0.98218238  0.11743917  0.22899248  1
  O  O216  1  1.00373797  0.13489451  0.73758593  1
  O  O217  1  0.99444100  0.62441407  0.25538345  1
  O  O218  1  0.99271282  0.62556595  0.73938076  1
  O  O219  1  0.37657978  0.25958834  0.00871976  1
  O  O220  1  0.38003044  0.24751995  0.51921911  1
  O  O221  1  0.37313424  0.75978065  0.00191726  1
  O  O222  1  0.36105191  0.75196633  0.49954541  1
  O  O223  1  0.86991472  0.25550060  0.01026790  1
  O  O224  1  0.87198134  0.25667890  0.50958140  1
  O  O225  1  0.87590083  0.76089585  0.01040890  1
  O  O226  1  0.86870343  0.75582106  0.50617246  1
  O  O227  1  0.10924948  0.24189202  0.47967632  1
  O  O228  1  0.11643806  0.26365943  0.99302234  1
  O  O229  1  0.13425700  0.74229846  0.50038385  1
  O  O230  1  0.13830693  0.75063978  0.98841078  1
  O  O231  1  0.63501342  0.24779369  0.48760502  1
  O  O232  1  0.63719103  0.26671884  1.00375508  1
  O  O233  1  0.62862403  0.74721666  0.49719003  1
  O  O234  1  0.62983770  0.76004809  0.98991733  1
  O  O235  1  0.49554399  0.24502502  0.12720238  1
  O  O236  1  0.48761985  0.25327193  0.63803883  1
  O  O237  1  0.49871407  0.74593803  0.13046770  1
  O  O238  1  0.49388628  0.74181538  0.63226806  1
  O  O239  1  0.99239434  0.23645606  0.14004904  1
  O  O240  1  0.99407870  0.24134465  0.62965241  1
  O  O241  1  0.99480713  0.74638453  0.12652563  1
  O  O242  1  0.99466056  0.73836511  0.62237958  1
  O  O243  1  -0.03271024  0.27773623  0.37081150  1
  O  O244  1  -0.00101292  0.24620908  0.87043036  1
  O  O245  1  0.00034198  0.76581546  0.37887796  1
  O  O246  1  0.00742178  0.75432156  0.87621933  1
  O  O247  1  0.50457461  0.25989432  0.36905686  1
  O  O248  1  0.49222719  0.25759165  0.86701362  1
  O  O249  1  0.50517075  0.75147786  0.36756896  1
  O  O250  1  0.49523459  0.75449089  0.85695810  1
  O  O251  1  0.24479317  0.15225384  0.50066667  1
  O  O252  1  0.24980232  0.12628983  0.98681213  1
  O  O253  1  0.24232673  0.63262239  0.49808053  1
  O  O254  1  0.26024175  0.63910700  0.99461167  1
  O  O255  1  0.76002009  0.13734216  0.49420151  1
  O  O256  1  0.73522580  0.14667563  1.01738793  1
  O  O257  1  0.74352901  0.63167520  0.49515738  1
  O  O258  1  0.76733867  0.62511097  1.00121320  1
  O  O259  1  0.26123167  0.37513690  0.00307221  1
  O  O260  1  0.23603852  0.33740496  0.49139929  1
  O  O261  1  0.26014780  0.86507421  0.00423305  1
  O  O262  1  0.24749720  0.86882237  0.50478847  1
  O  O263  1  0.76735248  0.37059872  0.01013615  1
  O  O264  1  0.75627573  0.37050034  0.50753589  1
  O  O265  1  0.76693270  0.87750774  -0.00566182  1
  O  O266  1  0.76234690  0.86989405  0.49473580  1
  O  O267  1  0.12649737  0.49104587  0.24312540  1
  O  O268  1  0.13214214  0.49895915  0.74047241  1
  O  O269  1  0.12306423  0.99540479  0.26078470  1
  O  O270  1  0.12984541  0.99198036  0.74027306  1
  O  O271  1  0.62777347  0.49548315  0.24522801  1
  O  O272  1  0.63372181  0.49592631  0.73880785  1
  O  O273  1  0.62999934  0.99446745  0.24320608  1
  O  O274  1  0.61668064  0.99174786  0.73991898  1
  O  O275  1  0.38175715  -0.00030109  0.26518641  1
  O  O276  1  0.36994395  0.00628278  0.75563526  1
  O  O277  1  0.37638981  0.49875144  0.26263655  1
  O  O278  1  0.36862155  0.50878083  0.75142592  1
  O  O279  1  0.86288978  0.00554164  0.25731857  1
  O  O280  1  0.89310101  0.00509548  0.75793707  1
  O  O281  1  0.86917877  0.50801626  0.25485094  1
  O  O282  1  0.87014995  0.50506526  0.75211844  1
  O  O283  1  0.11197214  0.38514982  0.36658272  1
  O  O284  1  0.12070335  0.37687313  0.87558603  1
  O  O285  1  0.10683309  0.87139473  0.37964639  1
  O  O286  1  0.11807524  0.86306240  0.86977285  1
  O  O287  1  0.61409715  0.37209684  0.36836488  1
  O  O288  1  0.60614066  0.37148091  0.87404846  1
  O  O289  1  0.62224381  0.86952395  0.36472115  1
  O  O290  1  0.62139355  0.87144076  0.84798173  1
  O  O291  1  0.38829428  0.13628432  0.11734782  1
  O  O292  1  0.36836814  0.12350489  0.63786743  1
  O  O293  1  0.38762515  0.63253413  0.12872430  1
  O  O294  1  0.38061767  0.62359282  0.62967455  1
  O  O295  1  0.87560511  0.13625992  0.12581674  1
  O  O296  1  0.88360245  0.13444602  0.62048066  1
  O  O297  1  0.87942135  0.63182362  0.14167631  1
  O  O298  1  0.88272628  0.63235761  0.62936682  1
  O  O299  1  0.25809680  0.26026913  0.11788285  1
  O  O300  1  0.26290919  0.25161486  0.63501360  1
  O  O301  1  0.25933656  0.75845552  0.11576655  1
  O  O302  1  0.24900184  0.75937944  0.61650998  1
  O  O303  1  0.75764640  0.25706756  0.12109546  1
  O  O304  1  0.75692734  0.25761440  0.61718831  1
  O  O305  1  0.76109564  0.74714531  0.12306469  1
  O  O306  1  0.75942568  0.74278431  0.61660877  1
  O  O307  1  0.23727055  0.24169020  0.36079130  1
  O  O308  1  0.25123181  0.23363099  0.87765907  1
  O  O309  1  0.24408392  0.75071735  0.38007141  1
  O  O310  1  0.24565795  0.74694684  0.87930765  1
  O  O311  1  0.74008929  0.25863814  0.38469107  1
  O  O312  1  0.74888875  0.25416928  0.89610764  1
  O  O313  1  0.74361000  0.74559148  0.38251199  1
  O  O314  1  0.74852946  0.73896876  0.87403641  1
  O  O315  1  0.00048893  0.11532012  0.01295680  1
  O  O316  1  -0.00558993  0.10758371  0.51236416  1
  O  O317  1  -0.00685380  0.61843439  0.00027387  1
  O  O318  1  0.00513922  0.62014410  0.50527537  1
  O  O319  1  0.49616675  0.11231442  0.00372677  1
  O  O320  1  0.49968867  0.11807218  0.49509098  1
  O  O321  1  0.49268212  0.61828914  0.00990062  1
  O  O322  1  0.50455220  0.62986799  0.51270282  1
  O  O323  1  0.50697733  0.37148443  0.48894556  1
  O  O324  1  0.48954092  0.38363896  0.99380837  1
  O  O325  1  0.49649906  0.88716706  0.49857718  1
  O  O326  1  0.48701628  0.88495413  0.99760237  1
  O  O327  1  0.99214763  0.38287253  0.49460692  1
  O  O328  1  0.99891718  0.36593582  0.99401234  1
  O  O329  1  0.98799554  0.88387380  0.49891347  1
  O  O330  1  0.99597136  0.87833674  0.99288407  1
  O  O331  1  0.49323530  0.48527927  0.37536390  1
  O  O332  1  0.49024777  0.49078615  0.87456003  1
  O  O333  1  0.49290217  1.00089610  0.38585451  1
  O  O334  1  0.49211298  0.99762908  0.88016836  1
  O  O335  1  0.99100903  0.49440082  0.38097636  1
  O  O336  1  0.99572945  0.50253941  0.88616620  1
  O  O337  1  0.98845359  0.98919545  0.38354913  1
  O  O338  1  1.00075324  0.98960234  0.88434447  1
  O  O339  1  0.00845899  0.01006084  0.11772315  1
  O  O340  1  0.00664719  0.00379875  0.61910508  1
  O  O341  1  0.01285916  0.49514539  0.11647572  1
  O  O342  1  0.00439943  0.51021448  0.62110834  1
  O  O343  1  0.50578903  0.00781734  0.11676847  1
  O  O344  1  0.49809332  0.00246384  0.60635720  1
  O  O345  1  0.50722302  0.50943226  0.11995913  1
  O  O346  1  0.51142470  0.50782117  0.63162372  1
  O  O347  1  0.24222069  0.37756680  0.24363720  1
  O  O348  1  0.24858193  0.38915934  0.75950532  1
  O  O349  1  0.25450021  0.87648727  0.23365949  1
  O  O350  1  0.24564874  0.88112635  0.74117667  1
  O  O351  1  0.73907546  0.38142173  0.25225060  1
  O  O352  1  0.75030562  0.38018845  0.74312140  1
  O  O353  1  0.73966114  0.88178008  0.25136702  1
  O  O354  1  0.74840684  0.87813601  0.74355472  1
  O  O355  1  0.26363153  0.11223037  0.21769358  1
  O  O356  1  0.25586554  0.11854625  0.75950083  1
  O  O357  1  0.25951384  0.61798882  0.25848434  1
  O  O358  1  0.25657155  0.61792219  0.75212175  1
  O  O359  1  0.75966186  0.12008872  0.24343030  1
  O  O360  1  0.76774879  0.14389305  0.76172009  1
  O  O361  1  0.75642538  0.62172245  0.25718915  1
  O  O362  1  0.76128556  0.61249941  0.73845559  1
  O  O363  1  0.37644939  0.11290485  0.36943221  1
  O  O364  1  0.36723780  0.11424851  0.86854878  1
  O  O365  1  0.37954309  0.60725891  0.37719871  1
  O  O366  1  0.37095404  0.62006084  0.86463359  1
  O  O367  1  0.88246985  0.11355464  0.36274876  1
  O  O368  1  0.85160669  0.10616715  0.92333477  1
  O  O369  1  0.87023186  0.62324137  0.36717343  1
  O  O370  1  0.88274381  0.61666992  0.85919909  1
  O  O371  1  0.13199836  0.38642621  0.13247994  1
  O  O372  1  0.11763539  0.38760766  0.62278759  1
  O  O373  1  0.13655790  0.86689683  0.12355951  1
  O  O374  1  0.13295573  0.88168624  0.62701799  1
  O  O375  1  0.62620815  0.38817146  0.13452146  1
  O  O376  1  0.64000272  0.38211833  0.62645455  1
  O  O377  1  0.61819517  0.88684444  0.13712666  1
  O  O378  1  0.62099449  0.86618154  0.64732491  1
  O  O379  1  0.11438397  0.26590443  0.23955454  1
  O  O380  1  0.11369338  0.25315762  0.74548076  1
  O  O381  1  0.11493231  0.73772277  0.24377911  1
  O  O382  1  0.12481400  0.75483323  0.75573871  1
  O  O383  1  0.62193050  0.26073950  0.25321656  1
  O  O384  1  0.60847527  0.25632954  0.75464666  1
  O  O385  1  0.62046003  0.75772906  0.25378256  1
  O  O386  1  0.60831973  0.74455929  0.74857861  1
  O  O387  1  0.38116848  0.25461809  0.23582729  1
  O  O388  1  0.38091211  0.24438962  0.74237024  1
  O  O389  1  0.38465712  0.75047643  0.24475480  1
  O  O390  1  0.37736614  0.73804043  0.74577062  1
  O  O391  1  0.88142506  0.24037612  0.24662831  1
  O  O392  1  0.88495923  0.26041861  0.73518735  1
  O  O393  1  0.87153129  0.74305047  0.24343921  1
  O  O394  1  0.87610875  0.74237093  0.74149723  1
  O  O395  1  0.37540814  0.49653160  0.48975064  1
  O  O396  1  0.38087569  0.49419014  0.99437069  1
  O  O397  1  0.38062121  1.00534594  0.48858092  1
  O  O398  1  0.37913576  0.99580186  0.99321267  1
  O  O399  1  0.87902604  0.49704917  0.49644007  1
  O  O400  1  0.89002085  0.48783291  0.99971656  1
  O  O401  1  0.87827338  0.99237049  0.49353270  1
  O  O402  1  0.89117154  0.98186048  1.00802316  1
  O  O403  1  0.11552635  -0.01110975  -0.00288070  1
  O  O404  1  0.11468075  -0.00565494  0.50677698  1
  O  O405  1  0.11665863  0.50155635  0.00973150  1
  O  O406  1  0.12171264  0.50596901  0.50534504  1
  O  O407  1  0.61480582  -0.01519278  0.00533868  1
  O  O408  1  0.61145737  0.00096078  0.50031511  1
  O  O409  1  0.62107035  0.50050726  0.01219611  1
  O  O410  1  0.63196865  0.50643080  0.51299379  1
  O  O411  1  0.37333763  0.37165645  0.11651636  1
  O  O412  1  0.36868598  0.36916667  0.62546017  1
  O  O413  1  0.37084661  0.87026040  0.11674804  1
  O  O414  1  0.35892191  0.87610788  0.62046757  1
  O  O415  1  0.88171730  0.36174980  0.12194922  1
  O  O416  1  0.86551851  0.37114923  0.61858889  1
  O  O417  1  0.87738405  0.86396719  0.11431354  1
  O  O418  1  0.88249007  0.85971889  0.61677156  1
  O  O419  1  0.04804795  0.16700089  0.34780147  1
  O  O420  1  0.13796585  0.11602502  0.86857431  1
  O  O421  1  0.12491647  0.62700379  0.38854113  1
  O  O422  1  0.13149820  0.63654072  0.86663298  1
  O  O423  1  0.62172395  0.13955151  0.36112478  1
  O  O424  1  0.62763480  0.12971604  0.87941714  1
  O  O425  1  0.62613457  0.63092135  0.38183467  1
  O  O426  1  0.61007833  0.62228237  0.87611849  1
