# generated using pymatgen
data_V85Zn86O256
_symmetry_space_group_name_H-M   'P 1'
_cell_length_a   16.94030240
_cell_length_b   16.92913943
_cell_length_c   16.92213841
_cell_angle_alpha   90.00916384
_cell_angle_beta   89.94375105
_cell_angle_gamma   89.97038956
_symmetry_Int_Tables_number   1
_chemical_formula_structural   V85Zn86O256
_chemical_formula_sum   'V85 Zn86 O256'
_cell_volume   4853.00803879
_cell_formula_units_Z   1
loop_
 _symmetry_equiv_pos_site_id
 _symmetry_equiv_pos_as_xyz
  1  'x, y, z'
loop_
 _atom_site_type_symbol
 _atom_site_label
 _atom_site_symmetry_multiplicity
 _atom_site_fract_x
 _atom_site_fract_y
 _atom_site_fract_z
 _atom_site_occupancy
  V  V0  1  0.00183037  0.00057554  0.50087015  1
  V  V1  1  0.25720584  0.37880425  0.12934721  1
  V  V2  1  0.12648845  0.36031682  0.75043898  1
  V  V3  1  0.37391471  0.87289351  0.49885875  1
  V  V4  1  0.25200068  0.24680740  0.00656242  1
  V  V5  1  -0.00156185  0.24775489  0.24161239  1
  V  V6  1  0.75592657  -0.00403964  0.25330715  1
  V  V7  1  0.75213348  0.25297785  0.50730274  1
  V  V8  1  0.51311873  0.37068126  0.86883597  1
  V  V9  1  0.89095539  0.50861104  0.87468029  1
  V  V10  1  0.37161812  0.25697231  0.62123576  1
  V  V11  1  0.37179953  0.49265227  0.37973257  1
  V  V12  1  0.24887539  0.74890794  0.49769986  1
  V  V13  1  0.49865582  0.49263148  0.50538746  1
  V  V14  1  0.49159427  0.74507543  0.75916393  1
  V  V15  1  -0.00297047  0.61637161  0.12164631  1
  V  V16  1  0.75188991  0.75653262  0.00382496  1
  V  V17  1  0.50201323  0.12380698  0.12149672  1
  V  V18  1  0.13460705  0.50188533  0.13135340  1
  V  V19  1  0.50060435  0.12769357  0.62313238  1
  V  V20  1  0.87648550  0.74856438  0.64021174  1
  V  V21  1  0.87406426  0.37701293  0.50595817  1
  V  V22  1  0.49912047  -0.00282402  0.49740023  1
  V  V23  1  0.00453525  0.12453743  0.63267590  1
  V  V24  1  0.49863925  0.37265646  0.38049518  1
  V  V25  1  0.25072696  -0.00016672  0.24498769  1
  V  V26  1  0.11541926  0.75084965  0.87258874  1
  V  V27  1  0.12303343  0.25232190  0.37313426  1
  V  V28  1  0.50074456  0.62194671  0.12640747  1
  V  V29  1  0.62705595  -0.00317906  0.62725249  1
  V  V30  1  0.86948856  0.50398650  0.37844286  1
  V  V31  1  0.86256764  0.12295423  0.74559994  1
  V  V32  1  0.86952794  0.62502843  0.25293847  1
  V  V33  1  0.11028236  0.00459272  0.11913684  1
  V  V34  1  -0.00174413  0.62888814  0.64309965  1
  V  V35  1  0.49818259  0.74873043  0.25316572  1
  V  V36  1  0.24644577  0.75154677  -0.00805191  1
  V  V37  1  0.37955646  0.36445902  0.00005707  1
  V  V38  1  0.87218420  0.88006015  0.50061540  1
  V  V39  1  0.75660569  0.36717325  0.12409382  1
  V  V40  1  0.62738732  0.37353386  0.25262379  1
  V  V41  1  0.25140030  0.51748929  0.75468500  1
  V  V42  1  0.62675192  0.62291563  0.49621620  1
  V  V43  1  0.12314546  0.87655078  0.24727742  1
  V  V44  1  0.24695083  0.61847683  0.37034245  1
  V  V45  1  0.61589843  0.87447559  0.75765205  1
  V  V46  1  -0.00029969  0.50619626  0.50210986  1
  V  V47  1  0.12679602  0.12104853  0.50394776  1
  V  V48  1  0.62848003  0.87291511  0.24747299  1
  V  V49  1  0.37867262  -0.00507762  0.87347587  1
  V  V50  1  0.37077236  0.61364060  0.24604868  1
  V  V51  1  -0.00257990  0.74862305  0.24864909  1
  V  V52  1  0.11702521  0.87433614  0.74837266  1
  V  V53  1  0.49982023  0.49732931  -0.00194853  1
  V  V54  1  0.00901485  0.35510721  0.87842859  1
  V  V55  1  -0.00570930  0.87975044  0.37420990  1
  V  V56  1  0.37045560  0.74935980  0.12484773  1
  V  V57  1  0.24270520  0.00148419  0.74807089  1
  V  V58  1  0.62855889  0.49771455  0.12715370  1
  V  V59  1  0.37379276  0.74024813  0.62714995  1
  V  V60  1  0.88331419  0.25454549  0.63141219  1
  V  V61  1  0.37561441  0.12744459  0.24437511  1
  V  V62  1  0.74944957  0.87535652  0.63371344  1
  V  V63  1  0.76275504  0.11957537  0.37603438  1
  V  V64  1  0.63045467  0.62474209  -0.00139398  1
  V  V65  1  0.75156117  0.74575422  0.49615377  1
  V  V66  1  0.37241587  0.12689314  0.74750724  1
  V  V67  1  0.62774773  0.12146101  0.49823293  1
  V  V68  1  0.87776107  0.88474896  0.00684060  1
  V  V69  1  0.12344328  0.74875252  0.37307855  1
  V  V70  1  0.25148150  0.26110014  0.49780639  1
  V  V71  1  0.24839073  0.13148943  0.87806704  1
  V  V72  1  0.24286315  0.87893317  0.62355933  1
  V  V73  1  0.63089979  -0.00254390  0.12249985  1
  V  V74  1  0.62741122  0.24814540  0.37737472  1
  V  V75  1  0.87249056  0.00112091  0.86798790  1
  V  V76  1  0.38183049  0.87332983  -0.00320796  1
  V  V77  1  0.11009369  0.12772173  -0.00119507  1
  V  V78  1  0.63478440  0.49533588  0.63334128  1
  V  V79  1  0.25163512  0.12548374  0.37364742  1
  V  V80  1  0.49922399  0.25034635  0.24461143  1
  V  V81  1  0.75172046  0.49954826  0.25301195  1
  V  V82  1  0.74845628  0.24560797  -0.01928607  1
  V  V83  1  0.75090727  0.62384466  0.86190246  1
  V  V84  1  0.12292716  0.61721557  -0.00617955  1
  Zn  Zn85  1  -0.00255937  0.87927127  0.87642110  1
  Zn  Zn86  1  0.62351982  0.12687416  -0.00986813  1
  Zn  Zn87  1  0.88417051  0.11646430  0.24605567  1
  Zn  Zn88  1  0.51439698  0.24704298  0.76031738  1
  Zn  Zn89  1  0.87172227  0.75111368  0.12391421  1
  Zn  Zn90  1  0.12536797  0.50004188  0.62717133  1
  Zn  Zn91  1  0.24704148  0.87616660  0.12151520  1
  Zn  Zn92  1  0.25226370  0.38116481  0.62824240  1
  Zn  Zn93  1  0.49779424  0.62054805  0.62962173  1
  Zn  Zn94  1  0.37373928  0.50591388  0.86728984  1
  Zn  Zn95  1  0.75502185  0.48259527  0.75129974  1
  Zn  Zn96  1  0.12268195  0.62480423  0.50055909  1
  Zn  Zn97  1  0.63029417  0.74485239  0.37274807  1
  Zn  Zn98  1  0.88540711  0.37841627  0.00116918  1
  Zn  Zn99  1  0.37581806  -0.00311281  0.37113331  1
  Zn  Zn100  1  0.62057514  0.75384763  0.87850853  1
  Zn  Zn101  1  0.50044340  0.87090425  0.37516435  1
  Zn  Zn102  1  0.12793550  0.37845008  0.24952697  1
  Zn  Zn103  1  0.00080248  0.37721854  0.37397738  1
  Zn  Zn104  1  0.87996087  0.24087039  0.11771572  1
  Zn  Zn105  1  0.73213591  0.12220865  0.85458232  1
  Zn  Zn106  1  0.50617979  -0.00562275  -0.00624328  1
  Zn  Zn107  1  0.18490087  0.18827822  0.18339540  1
  Zn  Zn108  1  0.18754919  0.18787439  0.68527430  1
  Zn  Zn109  1  0.18743045  0.68710017  0.18415681  1
  Zn  Zn110  1  0.18260663  0.69013895  0.68586170  1
  Zn  Zn111  1  0.68981994  0.18222308  0.18848364  1
  Zn  Zn112  1  0.68976883  0.30306181  0.70041072  1
  Zn  Zn113  1  0.68889354  0.68707022  0.18610187  1
  Zn  Zn114  1  0.68056708  0.68930513  0.68264665  1
  Zn  Zn115  1  0.31306748  0.31177545  0.30876110  1
  Zn  Zn116  1  0.31601929  0.31506992  0.81388531  1
  Zn  Zn117  1  0.31155420  0.81055825  0.31084985  1
  Zn  Zn118  1  0.30745083  0.81166480  0.81236332  1
  Zn  Zn119  1  0.81598819  0.31293635  0.31778217  1
  Zn  Zn120  1  0.83000908  0.31362352  0.81462500  1
  Zn  Zn121  1  0.81254778  0.81299821  0.31309078  1
  Zn  Zn122  1  0.80667957  0.81478561  0.81949929  1
  Zn  Zn123  1  0.18433688  0.43936687  0.43870996  1
  Zn  Zn124  1  0.18938169  0.43563423  0.93487814  1
  Zn  Zn125  1  0.18497859  0.93858636  0.43340754  1
  Zn  Zn126  1  0.18874915  0.93898987  0.93634388  1
  Zn  Zn127  1  0.68819974  0.43682960  0.44243044  1
  Zn  Zn128  1  0.69424045  0.43756577  0.93695323  1
  Zn  Zn129  1  0.68661591  0.93192028  0.43477705  1
  Zn  Zn130  1  0.69402362  0.94230244  0.93534927  1
  Zn  Zn131  1  0.31385011  0.06006826  0.06286325  1
  Zn  Zn132  1  0.31106103  0.06164419  0.56184754  1
  Zn  Zn133  1  0.31701487  0.56667304  0.03601031  1
  Zn  Zn134  1  0.30902910  0.55911890  0.56049159  1
  Zn  Zn135  1  0.81333029  0.06539730  0.06485918  1
  Zn  Zn136  1  0.81272463  0.06171718  0.56643930  1
  Zn  Zn137  1  0.81432701  0.55834149  0.05820278  1
  Zn  Zn138  1  0.81364060  0.56744739  0.56846293  1
  Zn  Zn139  1  0.43668565  0.43397177  0.18503962  1
  Zn  Zn140  1  0.43589536  0.43906374  0.69008630  1
  Zn  Zn141  1  0.43934158  0.93625939  0.18321709  1
  Zn  Zn142  1  0.43403250  0.93425198  0.68638357  1
  Zn  Zn143  1  0.94162853  0.43461393  0.18803063  1
  Zn  Zn144  1  0.94086478  0.43940429  0.69532072  1
  Zn  Zn145  1  0.93437536  0.93717214  0.18492059  1
  Zn  Zn146  1  0.93678175  0.94302227  0.68502167  1
  Zn  Zn147  1  0.06341186  0.06393368  0.31426625  1
  Zn  Zn148  1  0.05927571  0.06029180  0.81862804  1
  Zn  Zn149  1  0.05835232  0.56102781  0.31063620  1
  Zn  Zn150  1  0.07211706  0.55783748  0.81263554  1
  Zn  Zn151  1  0.56554761  0.06045278  0.31269676  1
  Zn  Zn152  1  0.55999061  0.06194837  0.80914092  1
  Zn  Zn153  1  0.56143839  0.56124078  0.31657382  1
  Zn  Zn154  1  0.56216546  0.56326100  0.81346333  1
  Zn  Zn155  1  0.43583607  0.18621190  0.43604345  1
  Zn  Zn156  1  0.43905436  0.18659193  0.93511662  1
  Zn  Zn157  1  0.43725026  0.67980513  0.43817580  1
  Zn  Zn158  1  0.43401119  0.68275925  0.93547470  1
  Zn  Zn159  1  0.94046757  0.18901741  0.43776256  1
  Zn  Zn160  1  0.92909341  0.18655538  0.93470010  1
  Zn  Zn161  1  0.93327168  0.69004254  0.43914161  1
  Zn  Zn162  1  0.93689310  0.68914391  0.93609891  1
  Zn  Zn163  1  0.06905185  0.31356078  0.06042944  1
  Zn  Zn164  1  0.06315198  0.31498593  0.56283756  1
  Zn  Zn165  1  0.05756080  0.81131671  0.06260442  1
  Zn  Zn166  1  0.06085501  0.80874504  0.56321713  1
  Zn  Zn167  1  0.56913032  0.31071626  0.06158392  1
  Zn  Zn168  1  0.56721009  0.30629708  0.57827691  1
  Zn  Zn169  1  0.56240350  0.81066744  0.06590879  1
  Zn  Zn170  1  0.56090933  0.80809416  0.56613029  1
  O  O171  1  0.12800270  0.11397441  0.11270429  1
  O  O172  1  0.11989095  0.12936144  0.61208520  1
  O  O173  1  0.11817548  0.61913559  0.11884260  1
  O  O174  1  0.10927732  0.62838980  0.62077790  1
  O  O175  1  0.61707774  0.11606789  0.12453153  1
  O  O176  1  0.61266497  0.10938313  0.61295951  1
  O  O177  1  0.62166526  0.61729016  0.11935279  1
  O  O178  1  0.62004338  0.61635612  0.61403252  1
  O  O179  1  0.37807986  0.38661885  0.36894263  1
  O  O180  1  0.38314749  0.38047981  0.88716773  1
  O  O181  1  0.37443956  0.87419237  0.38692108  1
  O  O182  1  0.36583914  0.88324176  0.88323094  1
  O  O183  1  0.87867440  0.38357408  0.38863982  1
  O  O184  1  0.89808915  0.38248585  0.87655802  1
  O  O185  1  0.88722096  0.86970529  0.38384339  1
  O  O186  1  0.87470648  0.88338916  0.88145317  1
  O  O187  1  0.24824972  0.00650685  0.36062192  1
  O  O188  1  0.25824762  0.01028921  0.86904794  1
  O  O189  1  0.25706297  0.50763180  0.37973477  1
  O  O190  1  0.24930860  0.49758736  0.85889724  1
  O  O191  1  0.74320275  0.00799659  0.36811077  1
  O  O192  1  0.76436029  0.00833376  0.87450097  1
  O  O193  1  0.76227435  0.49597315  0.37131254  1
  O  O194  1  0.75295502  0.50983689  0.87006229  1
  O  O195  1  0.24558942  0.49242287  0.11258198  1
  O  O196  1  0.24710185  0.49920569  0.63455737  1
  O  O197  1  0.24330895  0.99919425  0.13525397  1
  O  O198  1  0.25356067  0.99060604  0.63397517  1
  O  O199  1  0.74735309  0.48805836  0.13005239  1
  O  O200  1  0.73929248  0.50800995  0.63203617  1
  O  O201  1  0.73646620  1.00425273  0.13526247  1
  O  O202  1  0.73778596  0.98929743  0.61921363  1
  O  O203  1  0.00744572  0.36492375  0.25424679  1
  O  O204  1  0.01744236  0.38187322  0.76314367  1
  O  O205  1  0.00174407  0.87146714  0.25715324  1
  O  O206  1  0.01484309  0.88208148  0.74464383  1
  O  O207  1  0.50530829  0.36604920  0.25566558  1
  O  O208  1  0.49631837  0.37530849  0.76623898  1
  O  O209  1  0.50360626  0.86420010  0.25136247  1
  O  O210  1  0.50483004  0.86164964  0.74325486  1
  O  O211  1  0.49534130  0.12912837  0.24379699  1
  O  O212  1  0.49110928  0.12670375  0.73657006  1
  O  O213  1  0.49305612  0.62850009  0.24565857  1
  O  O214  1  0.49946064  0.63973556  0.74926347  1
  O  O215  1  1.00100878  0.14189443  0.25869262  1
  O  O216  1  1.00155370  0.11738409  0.73471832  1
  O  O217  1  0.98838664  0.62812220  0.24327342  1
  O  O218  1  1.00496719  0.62414712  0.74111592  1
  O  O219  1  0.37000187  0.25683998  -0.00040209  1
  O  O220  1  0.35839885  0.24071056  0.50290106  1
  O  O221  1  0.36580918  0.75645252  0.00354800  1
  O  O222  1  0.37034980  0.75518910  0.50466713  1
  O  O223  1  0.86191425  0.25505416  0.00001079  1
  O  O224  1  0.87231501  0.25910968  0.50384671  1
  O  O225  1  0.86709086  0.75900784  -0.00042801  1
  O  O226  1  0.86915181  0.76084380  0.50860774  1
  O  O227  1  0.13181791  0.24310186  0.49234498  1
  O  O228  1  0.13461386  0.23346325  1.00393018  1
  O  O229  1  0.13084185  0.74870036  0.49048737  1
  O  O230  1  0.12870708  0.74807190  0.99313121  1
  O  O231  1  0.63571695  0.24357069  0.49729229  1
  O  O232  1  0.64538175  0.24799789  1.00451525  1
  O  O233  1  0.63201485  0.74240485  0.50099403  1
  O  O234  1  0.62881248  0.74234685  0.99940168  1
  O  O235  1  0.50900449  0.24176035  0.13732650  1
  O  O236  1  0.47974527  0.23015112  0.59442403  1
  O  O237  1  0.49347879  0.74138004  0.13532153  1
  O  O238  1  0.48880348  0.74662328  0.63364469  1
  O  O239  1  1.00310723  0.25492276  0.13845224  1
  O  O240  1  0.99254531  0.23724721  0.61146439  1
  O  O241  1  0.99768401  0.73842121  0.13343611  1
  O  O242  1  0.99095567  0.73815826  0.62235905  1
  O  O243  1  0.01028619  0.25414464  0.37139463  1
  O  O244  1  0.00029929  0.25703693  0.87277046  1
  O  O245  1  0.00425365  0.75643128  0.36953543  1
  O  O246  1  0.01151068  0.75515032  0.87595126  1
  O  O247  1  0.50518015  0.25432466  0.36949358  1
  O  O248  1  0.49943905  0.26370195  0.87440769  1
  O  O249  1  0.49828655  0.74609115  0.36233358  1
  O  O250  1  0.49659307  0.74752169  0.86395933  1
  O  O251  1  0.24206237  0.12727620  0.49344684  1
  O  O252  1  0.25140981  0.13102832  0.99506829  1
  O  O253  1  0.24838936  0.63055245  0.48713667  1
  O  O254  1  0.22801644  0.63926264  1.01086026  1
  O  O255  1  0.74698006  0.12865295  0.49470895  1
  O  O256  1  0.74980866  0.13994734  0.99786311  1
  O  O257  1  0.74218376  0.63450545  0.50601982  1
  O  O258  1  0.73986307  0.62710534  0.99543127  1
  O  O259  1  0.25914389  0.36636305  0.00293828  1
  O  O260  1  0.24414109  0.36422092  0.50481488  1
  O  O261  1  0.25676675  0.86816532  0.00173655  1
  O  O262  1  0.25374022  0.87221647  0.50418406  1
  O  O263  1  0.75159361  0.36304353  0.00712845  1
  O  O264  1  0.76130426  0.36537569  0.49652909  1
  O  O265  1  0.76086490  0.86608806  -0.00601043  1
  O  O266  1  0.75643072  0.87025961  0.50835761  1
  O  O267  1  0.12563082  0.50121517  0.23617795  1
  O  O268  1  0.13855337  0.49306218  0.74692197  1
  O  O269  1  0.13032278  0.99939183  0.23956177  1
  O  O270  1  0.13744978  0.99409716  0.75682591  1
  O  O271  1  0.63191790  0.49475641  0.24891873  1
  O  O272  1  0.62485920  0.50398186  0.73613621  1
  O  O273  1  0.63088930  0.99058676  0.24549742  1
  O  O274  1  0.61096603  0.98950032  0.73385134  1
  O  O275  1  0.36721125  0.00384589  0.24985031  1
  O  O276  1  0.36451229  0.00367621  0.75427026  1
  O  O277  1  0.38074570  0.50977568  0.25581572  1
  O  O278  1  0.35826364  0.49827583  0.74996134  1
  O  O279  1  0.86034904  -0.00440398  0.25002966  1
  O  O280  1  0.87434058  0.00981958  0.75300075  1
  O  O281  1  0.87254840  0.50461187  0.25889292  1
  O  O282  1  0.87328681  0.49722737  0.76868761  1
  O  O283  1  0.12687748  0.36384457  0.37267497  1
  O  O284  1  0.11716976  0.37549478  0.86733899  1
  O  O285  1  0.11409992  0.87054451  0.36785223  1
  O  O286  1  0.12230088  0.87081368  0.86754901  1
  O  O287  1  0.62096363  0.36861156  0.37096616  1
  O  O288  1  0.61176885  0.37901552  0.87879045  1
  O  O289  1  0.61995702  0.86793536  0.36294474  1
  O  O290  1  0.62891654  0.87655409  0.86090363  1
  O  O291  1  0.38447468  0.11833999  0.13675717  1
  O  O292  1  0.37800456  0.12778408  0.63060336  1
  O  O293  1  0.37874665  0.62789900  0.12981278  1
  O  O294  1  0.37390539  0.63797431  0.61845506  1
  O  O295  1  0.87103661  0.12917004  0.13433727  1
  O  O296  1  0.88493959  0.13066672  0.62725861  1
  O  O297  1  0.88199788  0.62202551  0.13016560  1
  O  O298  1  0.88799895  0.63442078  0.62570533  1
  O  O299  1  0.24687462  0.25831100  0.11296517  1
  O  O300  1  0.25670329  0.24900744  0.61484995  1
  O  O301  1  0.25436323  0.75376590  0.11647890  1
  O  O302  1  0.25538190  0.75658146  0.61821160  1
  O  O303  1  0.75184821  0.26218910  0.13292756  1
  O  O304  1  0.76615716  0.24840683  0.61090691  1
  O  O305  1  0.75179442  0.74303021  0.10879933  1
  O  O306  1  0.75567957  0.75653530  0.61707228  1
  O  O307  1  0.24457797  0.24533320  0.37940137  1
  O  O308  1  0.25667562  0.23746010  0.88466461  1
  O  O309  1  0.24405691  0.74232717  0.37820004  1
  O  O310  1  0.23959098  0.75305123  0.88633819  1
  O  O311  1  0.74779471  0.24135499  0.38418839  1
  O  O312  1  0.75465127  0.24572413  0.87890057  1
  O  O313  1  0.75059160  0.75466020  0.39146401  1
  O  O314  1  0.74574989  0.74061297  0.88667017  1
  O  O315  1  0.01170200  0.13113177  -0.00378610  1
  O  O316  1  0.00726837  0.11713378  0.50210221  1
  O  O317  1  0.01304452  0.63325049  0.00920277  1
  O  O318  1  -0.00283146  0.61496572  0.50116593  1
  O  O319  1  0.49851610  0.12389992  0.01286732  1
  O  O320  1  0.50519992  0.11308009  0.49897280  1
  O  O321  1  0.51348315  0.61641662  0.00649734  1
  O  O322  1  0.50649969  0.61156816  0.50218607  1
  O  O323  1  0.50854132  0.38510487  0.49648901  1
  O  O324  1  0.49873267  0.37677187  0.99488894  1
  O  O325  1  0.49084052  0.87828610  0.50052741  1
  O  O326  1  0.48631991  0.87286972  1.00321644  1
  O  O327  1  0.99450800  0.38947714  0.49948144  1
  O  O328  1  1.00632528  0.37074042  0.98421753  1
  O  O329  1  0.99479509  0.88063472  0.49529709  1
  O  O330  1  0.98179192  0.87124348  0.99819744  1
  O  O331  1  0.49255103  0.49204282  0.38233191  1
  O  O332  1  0.49842424  0.49219650  0.88341179  1
  O  O333  1  0.49919729  0.99562436  0.38583144  1
  O  O334  1  0.48279307  1.00249827  0.87496382  1
  O  O335  1  0.98908044  0.49967811  0.38267301  1
  O  O336  1  0.99198820  0.50692478  0.87753150  1
  O  O337  1  1.00376643  0.99160239  0.38521296  1
  O  O338  1  0.98183399  0.99768348  0.87386957  1
  O  O339  1  0.01199658  0.00207075  0.12968451  1
  O  O340  1  -0.00129659  0.00790349  0.60919742  1
  O  O341  1  0.00904630  0.51089288  0.12749186  1
  O  O342  1  -0.00167076  0.51398269  0.62093096  1
  O  O343  1  0.51120654  0.00739188  0.12467139  1
  O  O344  1  0.49904363  0.00589126  0.61342306  1
  O  O345  1  0.50995963  0.50277155  0.12196388  1
  O  O346  1  0.50653079  0.50017668  0.62025158  1
  O  O347  1  0.24849368  0.37024097  0.23395979  1
  O  O348  1  0.23787253  0.37327250  0.75018462  1
  O  O349  1  0.24199844  0.88309436  0.24897150  1
  O  O350  1  0.24324301  0.88272884  0.74151197  1
  O  O351  1  0.74789647  0.38005179  0.24650057  1
  O  O352  1  0.75751912  0.36848755  0.75100053  1
  O  O353  1  0.74049966  0.88099410  0.25499414  1
  O  O354  1  0.73720546  0.86740014  0.73825474  1
  O  O355  1  0.25756156  0.12126963  0.25044114  1
  O  O356  1  0.25146801  0.11975195  0.75642046  1
  O  O357  1  0.25872022  0.63003871  0.25946657  1
  O  O358  1  0.24616046  0.61680675  0.74892208  1
  O  O359  1  0.74834167  0.11442875  0.26205329  1
  O  O360  1  0.76384078  0.13085146  0.74011085  1
  O  O361  1  0.76196495  0.61764608  0.24471824  1
  O  O362  1  0.74290521  0.63124950  0.76137897  1
  O  O363  1  0.36987953  0.12021335  0.36235329  1
  O  O364  1  0.36822298  0.11940814  0.86652494  1
  O  O365  1  0.36821259  0.61373929  0.36695694  1
  O  O366  1  0.36298192  0.59993086  0.93032937  1
  O  O367  1  0.86526546  0.12660995  0.37300335  1
  O  O368  1  0.87481247  0.11999541  0.85957605  1
  O  O369  1  0.87789838  0.61744031  0.36557069  1
  O  O370  1  0.86707088  0.61624843  0.87978336  1
  O  O371  1  0.13642866  0.38619062  0.12149638  1
  O  O372  1  0.12485545  0.37589337  0.63861929  1
  O  O373  1  0.12322523  0.88719511  0.12831470  1
  O  O374  1  0.13614768  0.86829324  0.62968878  1
  O  O375  1  0.63300431  0.37955820  0.13393640  1
  O  O376  1  0.63212406  0.39514210  0.61572377  1
  O  O377  1  0.61925262  0.88136157  0.13789367  1
  O  O378  1  0.63032200  0.87816926  0.63021824  1
  O  O379  1  0.11788850  0.25007349  0.25653664  1
  O  O380  1  0.12645456  0.26075433  0.74962864  1
  O  O381  1  0.11845830  0.75608293  0.25298295  1
  O  O382  1  0.13376998  0.76189145  0.76109261  1
  O  O383  1  0.61907451  0.25282538  0.25834448  1
  O  O384  1  0.59609497  0.25243972  0.68376537  1
  O  O385  1  0.61783175  0.75352486  0.24950206  1
  O  O386  1  0.60920740  0.75661321  0.75081062  1
  O  O387  1  0.38742069  0.23988813  0.25459069  1
  O  O388  1  0.37683629  0.24213284  0.73915985  1
  O  O389  1  0.38064911  0.74028373  0.24552063  1
  O  O390  1  0.38302440  0.75650892  0.74291840  1
  O  O391  1  0.89222208  0.25305691  0.25399541  1
  O  O392  1  0.88272825  0.24235957  0.73606381  1
  O  O393  1  0.87750458  0.74171234  0.24765781  1
  O  O394  1  0.86983769  0.75916083  0.73898930  1
  O  O395  1  0.38440346  0.50204416  0.49136212  1
  O  O396  1  0.39589106  0.47999375  1.01678030  1
  O  O397  1  0.38035950  0.99082403  0.49719171  1
  O  O398  1  0.37508916  0.99037470  0.99256671  1
  O  O399  1  0.87712921  0.49644287  0.49714984  1
  O  O400  1  0.86749655  0.49362897  0.98029120  1
  O  O401  1  0.88098531  0.98672413  0.50380167  1
  O  O402  1  0.86734021  0.98839264  0.99469317  1
  O  O403  1  0.12885581  0.00907184  0.01194840  1
  O  O404  1  0.11811717  0.01070481  0.49454625  1
  O  O405  1  0.13009674  0.51427194  0.00437828  1
  O  O406  1  0.11436141  0.50321278  0.50466206  1
  O  O407  1  0.62407446  -0.00020273  0.00839673  1
  O  O408  1  0.61609630  -0.00315560  0.50657858  1
  O  O409  1  0.61892935  0.50408794  0.00565941  1
  O  O410  1  0.62051078  0.50657406  0.50648085  1
  O  O411  1  0.36765179  0.37155333  0.11848941  1
  O  O412  1  0.37530453  0.36016528  0.62704380  1
  O  O413  1  0.37202469  0.86717073  0.11758787  1
  O  O414  1  0.36418080  0.86753077  0.61425926  1
  O  O415  1  0.87014866  0.37251772  0.12110983  1
  O  O416  1  0.88724359  0.36902154  0.61555893  1
  O  O417  1  0.87385033  0.87313590  0.11156790  1
  O  O418  1  0.86740001  0.87109164  0.62028020  1
  O  O419  1  0.13145209  0.13523789  0.38203370  1
  O  O420  1  0.13369589  0.11575553  0.89113038  1
  O  O421  1  0.13189047  0.62811453  0.37261193  1
  O  O422  1  0.12107788  0.63269829  0.88763127  1
  O  O423  1  0.63190008  0.12994716  0.38111649  1
  O  O424  1  0.62124268  0.12426212  0.87536757  1
  O  O425  1  0.62229210  0.62588125  0.38958974  1
  O  O426  1  0.63105997  0.62664242  0.88379776  1
