# generated using pymatgen
data_V85Zn86O256
_symmetry_space_group_name_H-M   'P 1'
_cell_length_a   16.92843506
_cell_length_b   16.92125835
_cell_length_c   16.92457557
_cell_angle_alpha   89.97349342
_cell_angle_beta   89.90248895
_cell_angle_gamma   89.97164524
_symmetry_Int_Tables_number   1
_chemical_formula_structural   V85Zn86O256
_chemical_formula_sum   'V85 Zn86 O256'
_cell_volume   4848.04370190
_cell_formula_units_Z   1
loop_
 _symmetry_equiv_pos_site_id
 _symmetry_equiv_pos_as_xyz
  1  'x, y, z'
loop_
 _atom_site_type_symbol
 _atom_site_label
 _atom_site_symmetry_multiplicity
 _atom_site_fract_x
 _atom_site_fract_y
 _atom_site_fract_z
 _atom_site_occupancy
  V  V0  1  0.87644081  0.37535034  0.49546750  1
  V  V1  1  0.87412281  0.12257657  0.74857482  1
  V  V2  1  0.87584895  -0.00194580  0.87366271  1
  V  V3  1  0.12210010  0.37607405  0.74749627  1
  V  V4  1  0.00343023  0.62401100  0.62357534  1
  V  V5  1  -0.00057274  0.49974576  -0.00189297  1
  V  V6  1  0.24101010  0.00323381  0.76131759  1
  V  V7  1  0.25030483  0.24908647  0.49890933  1
  V  V8  1  0.87503134  0.87006997  -0.00071929  1
  V  V9  1  0.42697615  0.69414865  0.71004004  1
  V  V10  1  0.25147136  0.37514466  0.62324959  1
  V  V11  1  0.50195205  0.12386309  0.12713613  1
  V  V12  1  0.75056802  0.87787024  0.12659882  1
  V  V13  1  0.12134207  0.12008953  0.49859760  1
  V  V14  1  0.00702835  0.87253189  0.87433243  1
  V  V15  1  0.50713775  0.24447463  0.74539843  1
  V  V16  1  0.13222750  0.74990599  0.86508689  1
  V  V17  1  0.49101086  0.01043896  0.50124697  1
  V  V18  1  0.62910872  0.87684147  0.25316056  1
  V  V19  1  0.73374068  0.63022841  0.87027580  1
  V  V20  1  0.12299139  0.63110344  0.49518098  1
  V  V21  1  0.12803236  -0.00964603  0.62615034  1
  V  V22  1  0.24387559  0.49124544  0.24799684  1
  V  V23  1  0.25044313  0.12012958  0.37651071  1
  V  V24  1  0.63056801  0.49620944  0.62975953  1
  V  V25  1  0.25904868  0.49699991  0.75164947  1
  V  V26  1  0.00668318  0.75297625  0.74824205  1
  V  V27  1  0.37340525  0.25664639  0.12148257  1
  V  V28  1  0.13267445  0.24684233  0.87330321  1
  V  V29  1  0.50253486  -0.00792399  -0.00405402  1
  V  V30  1  0.12477936  0.62315983  0.00639410  1
  V  V31  1  0.87304978  0.37584736  -0.00106677  1
  V  V32  1  0.00361122  -0.00048025  -0.00068319  1
  V  V33  1  0.12361903  0.86527262  0.25131175  1
  V  V34  1  0.75036778  0.12449497  0.87339395  1
  V  V35  1  0.75004383  0.25120127  0.49860234  1
  V  V36  1  0.62418579  0.63216165  0.50903950  1
  V  V37  1  0.25372997  0.61751287  0.87779061  1
  V  V38  1  0.87757426  -0.00437292  0.39428320  1
  V  V39  1  -0.00171654  0.24900769  0.74890123  1
  V  V40  1  0.87439324  0.62378529  0.75178646  1
  V  V41  1  0.62556370  -0.00127426  0.62123631  1
  V  V42  1  0.60312289  0.86835102  0.75906029  1
  V  V43  1  0.12764409  -0.00037440  0.12505821  1
  V  V44  1  0.63030454  0.26139850  0.87075717  1
  V  V45  1  0.24497752  0.62998077  0.37208642  1
  V  V46  1  0.49357294  0.87940527  0.37900318  1
  V  V47  1  -0.01087505  0.62679768  0.12832396  1
  V  V48  1  0.50194750  0.25091054  0.25150907  1
  V  V49  1  0.87613256  0.11268371  0.24973632  1
  V  V50  1  0.50080896  0.50927893  0.50774564  1
  V  V51  1  0.13637031  0.12612143  -0.00402857  1
  V  V52  1  0.37644071  0.50301075  0.37671388  1
  V  V53  1  0.38029026  0.74698797  0.12211239  1
  V  V54  1  0.25203155  0.75014413  0.00133014  1
  V  V55  1  0.25341570  -0.00259346  0.25180771  1
  V  V56  1  0.87596548  0.50132469  0.36877148  1
  V  V57  1  0.50119579  0.49568495  0.01445389  1
  V  V58  1  0.37680899  0.00827926  0.87555311  1
  V  V59  1  0.75053870  0.12057311  0.37281945  1
  V  V60  1  0.12155599  0.26073563  0.37138560  1
  V  V61  1  0.87483117  0.76263875  0.62120094  1
  V  V62  1  0.37607830  0.12110264  0.25396610  1
  V  V63  1  0.74952610  -0.01447353  0.74488688  1
  V  V64  1  0.49351885  0.37673751  0.87085804  1
  V  V65  1  0.62867413  0.12587554  -0.00053703  1
  V  V66  1  0.87323927  0.24985916  0.12689466  1
  V  V67  1  0.75306411  0.62940501  0.37569776  1
  V  V68  1  0.62843955  0.00173126  0.13059250  1
  V  V69  1  -0.01089760  0.74974632  0.25268573  1
  V  V70  1  0.37668758  0.37770646  0.50272634  1
  V  V71  1  0.00128990  0.12553585  0.12574979  1
  V  V72  1  0.00043862  0.87437927  0.38696612  1
  V  V73  1  0.50549706  0.37757339  0.37716153  1
  V  V74  1  0.74767061  0.50783988  0.24437214  1
  V  V75  1  0.38096160  0.23978986  0.62346473  1
  V  V76  1  0.00069224  0.49507038  0.49469237  1
  V  V77  1  -0.00034736  0.11934961  0.62031760  1
  V  V78  1  0.61549747  0.62781429  0.01458080  1
  V  V79  1  0.62589636  0.38133956  0.24151594  1
  V  V80  1  0.00223670  0.26477535  0.25210586  1
  V  V81  1  0.25237593  0.75694859  0.49777779  1
  V  V82  1  0.37968976  0.62441729  0.24694675  1
  V  V83  1  0.50350724  0.74718230  0.24997131  1
  V  V84  1  0.75121279  0.76441393  0.50688304  1
  Zn  Zn85  1  0.28238023  0.84713044  0.65962574  1
  Zn  Zn86  1  0.87198310  0.50188069  0.87470994  1
  Zn  Zn87  1  0.37040001  0.48979356  0.88621977  1
  Zn  Zn88  1  0.75025387  0.25254385  0.00067926  1
  Zn  Zn89  1  0.86802279  0.74733804  0.12677252  1
  Zn  Zn90  1  0.62626629  0.24773370  0.37571406  1
  Zn  Zn91  1  0.24257613  0.37150227  0.11717713  1
  Zn  Zn92  1  0.62487340  0.75368993  0.38310291  1
  Zn  Zn93  1  0.74965887  0.37007906  0.63073030  1
  Zn  Zn94  1  0.37360739  0.87782383  0.49964549  1
  Zn  Zn95  1  0.74544195  0.49374166  0.75483879  1
  Zn  Zn96  1  0.11608776  0.48684604  0.13211503  1
  Zn  Zn97  1  0.74609746  0.38184063  0.12203124  1
  Zn  Zn98  1  0.87469253  0.24999691  0.62277571  1
  Zn  Zn99  1  0.26690132  0.25388038  -0.01514652  1
  Zn  Zn100  1  0.25189938  0.87330568  0.12683717  1
  Zn  Zn101  1  0.62372483  0.12819771  0.50570590  1
  Zn  Zn102  1  -0.00153311  0.37613645  0.87361829  1
  Zn  Zn103  1  0.12630711  0.50075315  0.62295642  1
  Zn  Zn104  1  0.37042781  0.12950659  0.75769280  1
  Zn  Zn105  1  0.38011074  0.87495214  0.00164707  1
  Zn  Zn106  1  0.73686491  0.75421983  -0.00591267  1
  Zn  Zn107  1  0.18660467  0.18925368  0.18829643  1
  Zn  Zn108  1  0.18993440  0.18432947  0.68607529  1
  Zn  Zn109  1  0.18678614  0.68396335  0.18675127  1
  Zn  Zn110  1  0.24665753  0.68422151  0.68672056  1
  Zn  Zn111  1  0.69048329  0.19007546  0.19240991  1
  Zn  Zn112  1  0.68794159  0.18352587  0.68647363  1
  Zn  Zn113  1  0.68838179  0.69103788  0.18738711  1
  Zn  Zn114  1  0.68443759  0.69274370  0.68736888  1
  Zn  Zn115  1  0.31606632  0.31004461  0.31500786  1
  Zn  Zn116  1  0.31462528  0.31193083  0.80828052  1
  Zn  Zn117  1  0.31356324  0.81092768  0.31433388  1
  Zn  Zn118  1  0.35671994  0.81231528  0.82181436  1
  Zn  Zn119  1  0.81330810  0.31402801  0.31224723  1
  Zn  Zn120  1  0.81318314  0.31428418  0.81121546  1
  Zn  Zn121  1  0.81172373  0.81604648  0.31684254  1
  Zn  Zn122  1  0.81485539  0.80702658  0.81216229  1
  Zn  Zn123  1  0.18814546  0.44195241  0.43598314  1
  Zn  Zn124  1  0.18471966  0.42965848  0.94188113  1
  Zn  Zn125  1  0.18047838  0.94008417  0.43451939  1
  Zn  Zn126  1  0.19432001  0.93386286  0.93356832  1
  Zn  Zn127  1  0.68865667  0.44099121  0.43849497  1
  Zn  Zn128  1  0.68575029  0.44431299  0.93821735  1
  Zn  Zn129  1  0.68638469  0.94089293  0.43564414  1
  Zn  Zn130  1  0.68625471  0.93702845  0.93477423  1
  Zn  Zn131  1  0.31512732  0.06547827  0.06470809  1
  Zn  Zn132  1  0.31170653  0.05340454  0.56788406  1
  Zn  Zn133  1  0.31743855  0.56010576  0.06522311  1
  Zn  Zn134  1  0.31624908  0.56946327  0.56815153  1
  Zn  Zn135  1  0.81326349  0.05981830  0.06144842  1
  Zn  Zn136  1  0.80799826  0.06178812  0.56458166  1
  Zn  Zn137  1  0.80703563  0.56521086  0.05613531  1
  Zn  Zn138  1  0.81334068  0.56929489  0.56124196  1
  Zn  Zn139  1  0.43649379  0.43822520  0.18982838  1
  Zn  Zn140  1  0.44269155  0.43548970  0.68929485  1
  Zn  Zn141  1  0.43923665  0.93427640  0.18691132  1
  Zn  Zn142  1  0.43637499  0.94571318  0.68481975  1
  Zn  Zn143  1  0.93263046  0.43995617  0.18490968  1
  Zn  Zn144  1  0.93323965  0.43776627  0.68222130  1
  Zn  Zn145  1  0.93977588  0.93476392  0.18703788  1
  Zn  Zn146  1  0.94406894  0.93703313  0.68792928  1
  Zn  Zn147  1  0.06132750  0.06098347  0.31265463  1
  Zn  Zn148  1  0.06292469  0.06384789  0.81220288  1
  Zn  Zn149  1  0.06024183  0.56427395  0.31177550  1
  Zn  Zn150  1  0.06675501  0.56423521  0.81395203  1
  Zn  Zn151  1  0.56424458  0.06060030  0.31621890  1
  Zn  Zn152  1  0.56438714  0.06252050  0.81067479  1
  Zn  Zn153  1  0.56729847  0.56583138  0.31766220  1
  Zn  Zn154  1  0.55337166  0.56516362  0.80639125  1
  Zn  Zn155  1  0.43654557  0.18788031  0.43596786  1
  Zn  Zn156  1  0.44625562  0.18346841  0.93705395  1
  Zn  Zn157  1  0.43644155  0.69023884  0.43650052  1
  Zn  Zn158  1  0.44223387  0.68370848  0.92212681  1
  Zn  Zn159  1  0.93867185  0.18773729  0.43458191  1
  Zn  Zn160  1  0.94122378  0.18760771  0.93717120  1
  Zn  Zn161  1  0.93443325  0.69014716  0.43761498  1
  Zn  Zn162  1  0.93727448  0.68661971  0.93524728  1
  Zn  Zn163  1  0.06581793  0.31353803  0.06259377  1
  Zn  Zn164  1  0.06220955  0.31031083  0.56078152  1
  Zn  Zn165  1  0.06432432  0.81036136  0.06446834  1
  Zn  Zn166  1  0.07108447  0.80641930  0.56166823  1
  Zn  Zn167  1  0.56077253  0.31262288  0.05941804  1
  Zn  Zn168  1  0.56467843  0.31426304  0.56188586  1
  Zn  Zn169  1  0.56388298  0.80929346  0.06433079  1
  Zn  Zn170  1  0.55135279  0.81323839  0.57797796  1
  O  O171  1  0.12005058  0.12096044  0.11802400  1
  O  O172  1  0.11794379  0.12113103  0.61633562  1
  O  O173  1  0.11535768  0.62239030  0.11619820  1
  O  O174  1  0.11191949  0.62335941  0.61502231  1
  O  O175  1  0.62552641  0.11862567  0.12321353  1
  O  O176  1  0.62779428  0.10686912  0.62509765  1
  O  O177  1  0.62362482  0.62741828  0.11311801  1
  O  O178  1  0.62856088  0.61678371  0.61453503  1
  O  O179  1  0.38581779  0.38207843  0.38076742  1
  O  O180  1  0.38995574  0.36857624  0.87830932  1
  O  O181  1  0.38957053  0.87324823  0.37515399  1
  O  O182  1  0.36888583  0.89898777  0.88846237  1
  O  O183  1  0.87013997  0.38609273  0.38582296  1
  O  O184  1  0.87909794  0.37551954  0.88758104  1
  O  O185  1  0.88403462  0.88872187  0.37225050  1
  O  O186  1  0.88379597  0.87733004  0.88106975  1
  O  O187  1  0.24532297  0.01217071  0.36757761  1
  O  O188  1  0.25254738  0.00826805  0.86850894  1
  O  O189  1  0.25705902  0.50829312  0.36653215  1
  O  O190  1  0.24629923  0.49988078  0.87060599  1
  O  O191  1  0.76645718  0.00558155  0.37878175  1
  O  O192  1  0.75748027  0.00569587  0.86821271  1
  O  O193  1  0.75597792  0.50906966  0.36921790  1
  O  O194  1  0.75180782  0.51538992  0.87295686  1
  O  O195  1  0.25257082  0.49884459  0.14049977  1
  O  O196  1  0.24711269  0.49376460  0.63294254  1
  O  O197  1  0.24497947  0.99828887  0.13296641  1
  O  O198  1  0.23602754  1.00401812  0.63605350  1
  O  O199  1  0.75694237  0.50280166  0.14020111  1
  O  O200  1  0.73811545  0.50316237  0.62209124  1
  O  O201  1  0.74250719  0.98819058  0.12109765  1
  O  O202  1  0.73981068  0.99817779  0.63195390  1
  O  O203  1  -0.00738142  0.36391205  0.24758275  1
  O  O204  1  0.00396051  0.36688551  0.74661649  1
  O  O205  1  0.00626345  0.86741932  0.25423161  1
  O  O206  1  0.00087487  0.85970697  0.75599917  1
  O  O207  1  0.50691320  0.37454388  0.25870636  1
  O  O208  1  0.50095052  0.36455565  0.76367442  1
  O  O209  1  0.50968518  0.87074226  0.25681514  1
  O  O210  1  0.50333216  0.88453388  0.75545735  1
  O  O211  1  0.49403864  0.12732403  0.24830187  1
  O  O212  1  0.49595087  0.14091296  0.75718541  1
  O  O213  1  0.49240317  0.63405791  0.25952299  1
  O  O214  1  0.48218865  0.61171857  0.73356797  1
  O  O215  1  0.99305528  0.12909560  0.24304879  1
  O  O216  1  0.99398344  0.13080358  0.74340520  1
  O  O217  1  1.00502247  0.63647881  0.24079573  1
  O  O218  1  0.99815291  0.63269881  0.74363405  1
  O  O219  1  0.38078593  0.23920293  0.01805913  1
  O  O220  1  0.37094531  0.25661361  0.50433485  1
  O  O221  1  0.37257148  0.74597161  0.00620194  1
  O  O222  1  0.35624686  0.74935207  0.49733327  1
  O  O223  1  0.87638081  0.25637095  0.00808954  1
  O  O224  1  0.87052833  0.25850735  0.49717727  1
  O  O225  1  0.87643619  0.76305379  0.00069765  1
  O  O226  1  0.86511833  0.74717426  0.50974760  1
  O  O227  1  0.13107692  0.23984800  0.49389257  1
  O  O228  1  0.11732861  0.24057520  0.98688467  1
  O  O229  1  0.12913289  0.73685539  0.48959384  1
  O  O230  1  0.13353134  0.74126474  0.99739953  1
  O  O231  1  0.63400646  0.24839880  0.49627451  1
  O  O232  1  0.62785130  0.24296132  0.99226784  1
  O  O233  1  0.62816566  0.74716203  0.50850506  1
  O  O234  1  0.61835803  0.73479709  0.99708118  1
  O  O235  1  0.49382274  0.24404079  0.13149022  1
  O  O236  1  0.49433963  0.25782261  0.63320205  1
  O  O237  1  0.49368560  0.75402864  0.13982385  1
  O  O238  1  0.48041170  0.74722345  0.64239042  1
  O  O239  1  0.98993680  0.24416873  0.13055452  1
  O  O240  1  1.00083804  0.23970864  0.63411082  1
  O  O241  1  0.99676621  0.74387084  0.13305116  1
  O  O242  1  0.99918575  0.74369525  0.63087152  1
  O  O243  1  0.00906625  0.24617073  0.36464074  1
  O  O244  1  0.00702039  0.24891466  0.86024668  1
  O  O245  1  -0.00815689  0.76397878  0.36756842  1
  O  O246  1  0.00973329  0.75131445  0.86788364  1
  O  O247  1  0.50086280  0.26081823  0.36987618  1
  O  O248  1  0.50979952  0.25912498  0.87195487  1
  O  O249  1  0.50298171  0.75852341  0.36670686  1
  O  O250  1  0.44201096  0.73252023  0.81889112  1
  O  O251  1  0.24565432  0.12816047  0.49263608  1
  O  O252  1  0.23882088  0.13373383  1.00661036  1
  O  O253  1  0.24277002  0.63131756  0.49254859  1
  O  O254  1  0.24209635  0.62756198  1.00044020  1
  O  O255  1  0.75230220  0.13197594  0.48902868  1
  O  O256  1  0.74583280  0.12527589  0.99238167  1
  O  O257  1  0.74193756  0.63422462  0.49462447  1
  O  O258  1  0.73268601  0.62600232  0.98942818  1
  O  O259  1  0.25009550  0.36439462  0.00248311  1
  O  O260  1  0.25735295  0.37193808  0.50258382  1
  O  O261  1  0.25092742  0.85959074  0.00431032  1
  O  O262  1  0.24894724  0.85968764  0.47893516  1
  O  O263  1  0.75714155  0.37604714  0.00258397  1
  O  O264  1  0.75743963  0.36755532  0.49946435  1
  O  O265  1  0.75730653  0.87442813  0.00482639  1
  O  O266  1  0.74536651  0.86318906  0.49602094  1
  O  O267  1  0.14044121  0.50504731  0.25061269  1
  O  O268  1  0.12450894  0.48495069  0.74920209  1
  O  O269  1  0.13448143  0.99427230  0.24482439  1
  O  O270  1  0.13284696  1.00576084  0.74371316  1
  O  O271  1  0.63409179  0.49305686  0.25681252  1
  O  O272  1  0.62367159  0.50608058  0.73202520  1
  O  O273  1  0.62132735  0.99335512  0.23825560  1
  O  O274  1  0.63206196  0.99447396  0.74274312  1
  O  O275  1  0.36312708  0.00521505  0.24430709  1
  O  O276  1  0.36841170  0.00857115  0.76079058  1
  O  O277  1  0.37011579  0.50822168  0.25518231  1
  O  O278  1  0.36113375  0.48651377  0.75618708  1
  O  O279  1  0.87798793  0.01072542  0.24959249  1
  O  O280  1  0.87029601  0.00303996  0.75350924  1
  O  O281  1  0.86724154  0.49722399  0.26217724  1
  O  O282  1  0.87859118  0.51489291  0.74953048  1
  O  O283  1  0.13107422  0.35977937  0.38059971  1
  O  O284  1  0.11781633  0.36497329  0.86510617  1
  O  O285  1  0.10801147  0.88320629  0.36467926  1
  O  O286  1  0.11873167  0.86167867  0.88383916  1
  O  O287  1  0.61494751  0.37702167  0.37097039  1
  O  O288  1  0.62082071  0.36479026  0.87881990  1
  O  O289  1  0.61831660  0.87507993  0.36689767  1
  O  O290  1  0.62635208  0.88078472  0.85799729  1
  O  O291  1  0.38059695  0.13175261  0.13835352  1
  O  O292  1  0.37387443  0.13819918  0.62112714  1
  O  O293  1  0.37387015  0.63404085  0.13792843  1
  O  O294  1  0.35258765  0.63802473  0.64933497  1
  O  O295  1  0.87865293  0.12979404  0.13101246  1
  O  O296  1  0.88301262  0.12485533  0.62958950  1
  O  O297  1  0.88511850  0.62881532  0.11635127  1
  O  O298  1  0.88745106  0.63146549  0.63039171  1
  O  O299  1  0.26724902  0.24855393  0.13160697  1
  O  O300  1  0.25745996  0.25572430  0.61736941  1
  O  O301  1  0.25877977  0.74716003  0.11787884  1
  O  O302  1  0.22667338  0.76008730  0.60057109  1
  O  O303  1  0.76355512  0.25119519  0.12508851  1
  O  O304  1  0.75250183  0.24678461  0.61099832  1
  O  O305  1  0.74921227  0.76318626  0.11847806  1
  O  O306  1  0.76189881  0.74513082  0.61766374  1
  O  O307  1  0.24446034  0.23917059  0.37750138  1
  O  O308  1  0.23741821  0.24980133  0.86900595  1
  O  O309  1  0.25067781  0.73700521  0.37901882  1
  O  O310  1  0.24609983  0.73799463  0.88621845  1
  O  O311  1  0.75241814  0.24244406  0.38410278  1
  O  O312  1  0.74527315  0.24278857  0.87590544  1
  O  O313  1  0.74888735  0.74508494  0.38401011  1
  O  O314  1  0.75444987  0.73446087  0.87789362  1
  O  O315  1  0.00582238  0.11722250  0.00677569  1
  O  O316  1  0.00843657  0.13023042  0.50852419  1
  O  O317  1  0.00572968  0.62083333  0.00640480  1
  O  O318  1  0.00436282  0.61991461  0.50360043  1
  O  O319  1  0.51212097  0.11776864  0.00967733  1
  O  O320  1  0.50538890  0.11408697  0.49073639  1
  O  O321  1  0.50956509  0.61577941  -0.00979524  1
  O  O322  1  0.50760910  0.61936116  0.49474195  1
  O  O323  1  0.49601702  0.38357630  0.49272040  1
  O  O324  1  0.50825808  0.38828356  0.98905537  1
  O  O325  1  0.49948741  0.88309843  0.49388077  1
  O  O326  1  0.50250549  0.88831319  1.00660818  1
  O  O327  1  0.99521093  0.38667946  0.50189583  1
  O  O328  1  0.99237785  0.38406447  0.99957879  1
  O  O329  1  1.00602059  0.86921444  0.48523885  1
  O  O330  1  0.99494550  0.87991996  0.99690031  1
  O  O331  1  0.49609293  0.49584423  0.38501937  1
  O  O332  1  0.49894269  0.48468994  0.87299489  1
  O  O333  1  0.50887649  0.99172058  0.38966788  1
  O  O334  1  0.49428664  1.00961724  0.88723280  1
  O  O335  1  0.98913777  0.50733561  0.38247124  1
  O  O336  1  0.99798831  0.50182678  0.88758452  1
  O  O337  1  0.98770895  0.98924931  0.37137045  1
  O  O338  1  0.99600509  0.99272110  0.87833874  1
  O  O339  1  0.00807325  0.00431475  0.11981619  1
  O  O340  1  0.01041360  0.01299729  0.63313111  1
  O  O341  1  -0.00202060  0.50860954  0.11696383  1
  O  O342  1  0.00078024  0.50764972  0.61376941  1
  O  O343  1  0.50849086  0.00558533  0.12088139  1
  O  O344  1  0.50848944  0.00394610  0.60863755  1
  O  O345  1  0.50272969  0.49323482  0.11367353  1
  O  O346  1  0.50967600  0.49296747  0.61282966  1
  O  O347  1  0.25843189  0.39037000  0.25444159  1
  O  O348  1  0.24033260  0.37843953  0.74481636  1
  O  O349  1  0.24267072  0.88082291  0.25325691  1
  O  O350  1  0.25140369  0.90060529  0.75690919  1
  O  O351  1  0.74165115  0.38433683  0.25027632  1
  O  O352  1  0.75988954  0.38221771  0.74296584  1
  O  O353  1  0.73773070  0.87106305  0.24369239  1
  O  O354  1  0.75397030  0.88467560  0.75333258  1
  O  O355  1  0.25577306  0.11747169  0.25586942  1
  O  O356  1  0.25416475  0.11304982  0.74538953  1
  O  O357  1  0.25718842  0.61862881  0.25582845  1
  O  O358  1  0.22954335  0.60548892  0.76658113  1
  O  O359  1  0.76163203  0.13135890  0.26399442  1
  O  O360  1  0.75781435  0.11602801  0.75510388  1
  O  O361  1  0.74203067  0.62064984  0.26135213  1
  O  O362  1  0.75634894  0.62546646  0.75722397  1
  O  O363  1  0.36628702  0.13078024  0.36183602  1
  O  O364  1  0.37387194  0.11598980  0.88088927  1
  O  O365  1  0.36808564  0.62106432  0.36645453  1
  O  O366  1  0.35577965  0.61191915  0.88344696  1
  O  O367  1  0.87460325  0.11181170  0.36972039  1
  O  O368  1  0.87134536  0.11875998  0.87004102  1
  O  O369  1  0.86129399  0.61752818  0.38160164  1
  O  O370  1  0.86856047  0.62469386  0.86613797  1
  O  O371  1  0.12806684  0.37395397  0.13038040  1
  O  O372  1  0.13174170  0.37462105  0.63039902  1
  O  O373  1  0.12733366  0.88161907  0.13356449  1
  O  O374  1  0.11865987  0.89078425  0.62112792  1
  O  O375  1  0.62641994  0.36968870  0.13764860  1
  O  O376  1  0.63044587  0.39243654  0.61561852  1
  O  O377  1  0.63082847  0.88189822  0.13123123  1
  O  O378  1  0.61568475  0.89125928  0.63777732  1
  O  O379  1  0.11457011  0.24317994  0.25954170  1
  O  O380  1  0.11941817  0.25692463  0.75190101  1
  O  O381  1  0.11926092  0.76135954  0.24508780  1
  O  O382  1  0.12391347  0.74211245  0.76268631  1
  O  O383  1  0.61931637  0.25944156  0.25485050  1
  O  O384  1  0.62076621  0.24568280  0.75839670  1
  O  O385  1  0.61783319  0.75821564  0.25246221  1
  O  O386  1  0.62232639  0.76970645  0.74232742  1
  O  O387  1  0.38302641  0.24228358  0.24447466  1
  O  O388  1  0.38323945  0.24926252  0.73972350  1
  O  O389  1  0.38159760  0.74340564  0.24463366  1
  O  O390  1  0.32811222  0.76048218  0.72770292  1
  O  O391  1  0.88157321  0.24248657  0.24449606  1
  O  O392  1  0.88362915  0.24189383  0.74760593  1
  O  O393  1  0.88483459  0.75643904  0.24661780  1
  O  O394  1  0.88584540  0.73994101  0.74409487  1
  O  O395  1  0.38231860  0.50126600  0.49891516  1
  O  O396  1  0.39465316  0.50394809  1.00163548  1
  O  O397  1  0.38870028  1.00817323  0.49353531  1
  O  O398  1  0.38679794  1.00309550  1.00027659  1
  O  O399  1  0.88075439  0.49574695  0.49264301  1
  O  O400  1  0.88071879  0.49330006  0.99945172  1
  O  O401  1  0.87867700  1.00152098  0.49255526  1
  O  O402  1  0.88176491  0.98949929  0.99450904  1
  O  O403  1  0.12416474  0.00677711  0.00365692  1
  O  O404  1  0.13007966  0.01251341  0.50890224  1
  O  O405  1  0.11552076  0.50641699  0.00347654  1
  O  O406  1  0.11691763  0.50911180  0.49880014  1
  O  O407  1  0.62142220  0.00507546  0.00925176  1
  O  O408  1  0.62103666  0.00126882  0.50959147  1
  O  O409  1  0.61210125  0.51387878  -0.00461921  1
  O  O410  1  0.61881632  0.51006808  0.50577778  1
  O  O411  1  0.37614687  0.35855468  0.13190556  1
  O  O412  1  0.37096989  0.36884416  0.61929249  1
  O  O413  1  0.37300417  0.86089625  0.12387379  1
  O  O414  1  0.36573236  0.90162103  0.61019035  1
  O  O415  1  0.87282857  0.36714968  0.11519313  1
  O  O416  1  0.87366793  0.37226324  0.60871209  1
  O  O417  1  0.86699597  0.87648899  0.11727053  1
  O  O418  1  0.88343161  0.86178779  0.62858505  1
  O  O419  1  0.13056682  0.12836895  0.38178962  1
  O  O420  1  0.11874555  0.13321205  0.88476746  1
  O  O421  1  0.13477738  0.61826718  0.38141149  1
  O  O422  1  0.12940862  0.63051318  0.88979875  1
  O  O423  1  0.63833292  0.12497794  0.37604526  1
  O  O424  1  0.63331413  0.13117294  0.87999659  1
  O  O425  1  0.63539767  0.62958818  0.38912359  1
  O  O426  1  0.63211716  0.62501591  0.86839705  1
