# generated using pymatgen
data_V85Zn86O256
_symmetry_space_group_name_H-M   'P 1'
_cell_length_a   16.93018968
_cell_length_b   16.92623600
_cell_length_c   16.93839994
_cell_angle_alpha   89.99078854
_cell_angle_beta   90.03692785
_cell_angle_gamma   90.00840708
_symmetry_Int_Tables_number   1
_chemical_formula_structural   V85Zn86O256
_chemical_formula_sum   'V85 Zn86 O256'
_cell_volume   4853.94105674
_cell_formula_units_Z   1
loop_
 _symmetry_equiv_pos_site_id
 _symmetry_equiv_pos_as_xyz
  1  'x, y, z'
loop_
 _atom_site_type_symbol
 _atom_site_label
 _atom_site_symmetry_multiplicity
 _atom_site_fract_x
 _atom_site_fract_y
 _atom_site_fract_z
 _atom_site_occupancy
  V  V0  1  -0.00464062  0.62254179  0.12714645  1
  V  V1  1  -0.01280471  -0.00507705  0.50092393  1
  V  V2  1  0.63222927  0.62427933  0.50576365  1
  V  V3  1  0.87467262  0.62433748  0.74534282  1
  V  V4  1  0.11752188  0.12637940  0.49947373  1
  V  V5  1  0.87428279  0.50987136  0.36988625  1
  V  V6  1  0.62999985  0.24927264  0.38482842  1
  V  V7  1  -0.00168043  0.87020143  0.37941573  1
  V  V8  1  0.50120840  0.12438879  0.62007618  1
  V  V9  1  0.74470587  -0.01163021  0.75213373  1
  V  V10  1  0.75706458  0.12595715  0.36227068  1
  V  V11  1  0.00335247  0.49772371  0.49857940  1
  V  V12  1  0.75545575  0.87250127  0.60952534  1
  V  V13  1  0.49915921  0.75337940  0.74148350  1
  V  V14  1  0.50701857  0.12212452  0.12509518  1
  V  V15  1  -0.00423913  -0.00760911  0.00050751  1
  V  V16  1  0.86753402  0.24599822  0.12500656  1
  V  V17  1  0.37582451  0.62922103  0.25173718  1
  V  V18  1  0.50038210  0.50083853  0.51100869  1
  V  V19  1  0.00260932  0.37094707  0.37391033  1
  V  V20  1  0.25114745  0.00266537  0.25546637  1
  V  V21  1  0.37593824  0.13117250  0.74866213  1
  V  V22  1  0.12422467  0.62279662  0.00056290  1
  V  V23  1  0.12332119  0.87462472  0.75099195  1
  V  V24  1  0.74956355  0.88826505  0.13140023  1
  V  V25  1  0.12801138  0.49075567  0.12529804  1
  V  V26  1  0.24970229  -0.00042127  0.75023686  1
  V  V27  1  0.12689344  0.86609454  0.25649633  1
  V  V28  1  0.49974847  0.25090993  0.25185450  1
  V  V29  1  0.86837590  0.24816260  0.62176314  1
  V  V30  1  0.50491764  0.87634635  0.87058232  1
  V  V31  1  0.87052993  0.37167169  0.49620980  1
  V  V32  1  -0.00325403  0.24929811  0.74962409  1
  V  V33  1  0.26219475  0.86986407  0.62215818  1
  V  V34  1  0.49894388  0.37593240  0.37796560  1
  V  V35  1  0.86891975  -0.00637115  0.36005588  1
  V  V36  1  -0.00126917  0.74956860  0.74976871  1
  V  V37  1  0.26857328  0.75275414  0.49531320  1
  V  V38  1  0.74621827  0.13582018  0.87623578  1
  V  V39  1  0.75363256  0.75654388  0.00083940  1
  V  V40  1  0.25311015  0.35852807  0.62282683  1
  V  V41  1  0.50172072  0.50207774  -0.00109366  1
  V  V42  1  0.87060191  -0.00690211  0.87877699  1
  V  V43  1  -0.00382213  0.24335148  0.25225946  1
  V  V44  1  0.49412579  0.88660448  0.39065928  1
  V  V45  1  0.86896718  0.36800430  -0.00108392  1
  V  V46  1  0.87602079  0.49825027  0.87521183  1
  V  V47  1  0.49969761  0.63291311  0.12736748  1
  V  V48  1  0.12076747  -0.00141900  0.62348953  1
  V  V49  1  0.63109679  0.37501942  0.25231612  1
  V  V50  1  0.12351119  0.24974817  0.87436014  1
  V  V51  1  -0.00585619  0.12181336  0.12803796  1
  V  V52  1  0.13074678  0.49931301  0.62304721  1
  V  V53  1  0.74427493  0.50023044  0.74332360  1
  V  V54  1  0.13578446  0.24412900  0.37768063  1
  V  V55  1  0.50261001  0.24917908  0.74894619  1
  V  V56  1  0.37547461  0.00025229  0.87661387  1
  V  V57  1  0.24733135  0.25199164  0.00160194  1
  V  V58  1  0.37168301  0.12415123  0.24567769  1
  V  V59  1  0.25208112  0.74931770  0.00110251  1
  V  V60  1  0.36987897  0.25478951  0.12416170  1
  V  V61  1  -0.00156950  0.74499552  0.25214515  1
  V  V62  1  0.50588082  0.37017558  0.87633556  1
  V  V63  1  0.25191445  0.49048383  0.25035573  1
  V  V64  1  0.74830664  0.62633305  0.87493681  1
  V  V65  1  0.37246825  0.37662315  0.00153715  1
  V  V66  1  0.62550350  0.75395052  0.87124517  1
  V  V67  1  0.12491555  0.00085102  0.12492563  1
  V  V68  1  0.62716456  0.50024169  0.12534787  1
  V  V69  1  0.74280851  0.37471060  0.61857154  1
  V  V70  1  0.63732055  0.11992437  0.50311359  1
  V  V71  1  0.37480917  0.62783969  0.74125663  1
  V  V72  1  0.27835049  0.11107632  0.40688280  1
  V  V73  1  0.37377220  0.35993372  0.50315884  1
  V  V74  1  0.62240422  0.74316072  0.36035394  1
  V  V75  1  0.87360109  0.75176973  0.12443780  1
  V  V76  1  0.61517244  0.89030881  0.24562078  1
  V  V77  1  0.62430157  0.37339939  0.74940169  1
  V  V78  1  0.25116943  0.62348181  0.87269166  1
  V  V79  1  0.62100032  -0.01038217  0.62389044  1
  V  V80  1  0.12598248  0.63573853  0.49520891  1
  V  V81  1  0.62696031  0.14077005  -0.00246934  1
  V  V82  1  0.75464618  0.51505125  0.25105457  1
  V  V83  1  0.50893752  0.00005292  0.00258403  1
  V  V84  1  0.25156370  0.87438482  0.12641371  1
  Zn  Zn85  1  0.74886113  0.37201235  0.12106840  1
  Zn  Zn86  1  0.25143837  0.49774304  0.74838677  1
  Zn  Zn87  1  0.12587855  0.37533572  0.74915499  1
  Zn  Zn88  1  -0.00069427  0.37405641  0.87523919  1
  Zn  Zn89  1  -0.00479792  0.87184146  0.87944901  1
  Zn  Zn90  1  0.24900610  0.62806764  0.37192647  1
  Zn  Zn91  1  0.49889878  0.62820465  0.62303003  1
  Zn  Zn92  1  0.87669282  0.75475278  0.61691762  1
  Zn  Zn93  1  0.12332012  0.74906440  0.87498153  1
  Zn  Zn94  1  0.00183760  0.62425811  0.62436661  1
  Zn  Zn95  1  0.37556358  0.50062452  0.87298895  1
  Zn  Zn96  1  0.12941763  0.36928419  0.24725107  1
  Zn  Zn97  1  0.37292407  0.50074849  0.37835404  1
  Zn  Zn98  1  -0.00216788  0.49822074  0.00153759  1
  Zn  Zn99  1  0.24946887  0.12502847  0.87594733  1
  Zn  Zn100  1  0.37957967  0.75275625  0.12844793  1
  Zn  Zn101  1  -0.00714290  0.12225306  0.62629503  1
  Zn  Zn102  1  0.37713150  0.87596592  0.00225501  1
  Zn  Zn103  1  0.76026117  0.74235978  0.48055393  1
  Zn  Zn104  1  0.87053833  0.12329983  0.74991844  1
  Zn  Zn105  1  0.12400034  0.12445231  -0.00041164  1
  Zn  Zn106  1  0.62571304  0.62610071  -0.00006475  1
  Zn  Zn107  1  0.18438507  0.18734211  0.18651860  1
  Zn  Zn108  1  0.18232841  0.18316806  0.68811447  1
  Zn  Zn109  1  0.18821691  0.68241934  0.18745735  1
  Zn  Zn110  1  0.18832933  0.68923396  0.68354937  1
  Zn  Zn111  1  0.68500961  0.18525218  0.18996718  1
  Zn  Zn112  1  0.68801972  0.18662044  0.69170012  1
  Zn  Zn113  1  0.68495219  0.69036399  0.18675447  1
  Zn  Zn114  1  0.68487749  0.69181053  0.68621270  1
  Zn  Zn115  1  0.31157072  0.30770702  0.31748279  1
  Zn  Zn116  1  0.31252173  0.31348025  0.81320860  1
  Zn  Zn117  1  0.31884509  0.81224861  0.31595351  1
  Zn  Zn118  1  0.31485668  0.81158583  0.81268912  1
  Zn  Zn119  1  0.81378956  0.31162444  0.31126063  1
  Zn  Zn120  1  0.81254426  0.31352616  0.80916343  1
  Zn  Zn121  1  0.80984260  0.81098798  0.30636951  1
  Zn  Zn122  1  0.81281097  0.81329726  0.80919688  1
  Zn  Zn123  1  0.19101668  0.43573391  0.43796325  1
  Zn  Zn124  1  0.18680348  0.43617727  0.93746596  1
  Zn  Zn125  1  0.18479930  0.93586167  0.44006437  1
  Zn  Zn126  1  0.18576886  0.93720928  0.93806201  1
  Zn  Zn127  1  0.68856340  0.44506584  0.43574887  1
  Zn  Zn128  1  0.68865583  0.43594054  0.93548792  1
  Zn  Zn129  1  0.68259843  0.93744265  0.43173819  1
  Zn  Zn130  1  0.68691650  0.93833302  0.94213568  1
  Zn  Zn131  1  0.31400021  0.06373556  0.06221288  1
  Zn  Zn132  1  0.31007241  0.06596824  0.57174659  1
  Zn  Zn133  1  0.31225537  0.56099226  0.06541342  1
  Zn  Zn134  1  0.31318817  0.55981107  0.55986624  1
  Zn  Zn135  1  0.81336824  0.06454680  0.05802277  1
  Zn  Zn136  1  0.80943336  0.05977169  0.55991857  1
  Zn  Zn137  1  0.81208596  0.56341153  0.06253660  1
  Zn  Zn138  1  0.81390416  0.55971836  0.56040115  1
  Zn  Zn139  1  0.43839985  0.44065359  0.18745594  1
  Zn  Zn140  1  0.43224819  0.43789471  0.68747965  1
  Zn  Zn141  1  0.43598069  0.94032747  0.19045208  1
  Zn  Zn142  1  0.44022612  0.94089803  0.68922832  1
  Zn  Zn143  1  0.93798874  0.43267080  0.18875995  1
  Zn  Zn144  1  0.93790191  0.43514607  0.68513024  1
  Zn  Zn145  1  0.93579942  0.93200262  0.18695935  1
  Zn  Zn146  1  0.93252406  0.93748876  0.69130260  1
  Zn  Zn147  1  0.06159932  0.05899729  0.31367774  1
  Zn  Zn148  1  0.05913913  0.06461323  0.81398124  1
  Zn  Zn149  1  0.06517625  0.56106266  0.31318558  1
  Zn  Zn150  1  0.06376098  0.56165257  0.81054898  1
  Zn  Zn151  1  0.56294714  0.06199051  0.31481052  1
  Zn  Zn152  1  0.56713293  0.06209174  0.81145663  1
  Zn  Zn153  1  0.56125696  0.56092744  0.31283616  1
  Zn  Zn154  1  0.56212520  0.56344774  0.81112552  1
  Zn  Zn155  1  0.43916097  0.17404677  0.44216097  1
  Zn  Zn156  1  0.43934308  0.18813709  0.93578726  1
  Zn  Zn157  1  0.44606916  0.68935727  0.43061871  1
  Zn  Zn158  1  0.43564798  0.68817657  0.93535030  1
  Zn  Zn159  1  0.93490248  0.18575781  0.43747678  1
  Zn  Zn160  1  0.93517325  0.18147725  0.93939696  1
  Zn  Zn161  1  0.94147055  0.68829712  0.43929780  1
  Zn  Zn162  1  0.93600099  0.68715633  0.93835960  1
  Zn  Zn163  1  0.05455663  0.31232985  0.06042572  1
  Zn  Zn164  1  0.06105030  0.31161995  0.56320424  1
  Zn  Zn165  1  0.06622680  0.81138371  0.06492984  1
  Zn  Zn166  1  0.06160546  0.81331671  0.56573852  1
  Zn  Zn167  1  0.56011849  0.31343308  0.06609829  1
  Zn  Zn168  1  0.56100177  0.30904733  0.56373621  1
  Zn  Zn169  1  0.56784323  0.81468203  0.06009083  1
  Zn  Zn170  1  0.56864265  0.81007869  0.55436606  1
  O  O171  1  0.11353173  0.11834057  0.12377511  1
  O  O172  1  0.11576781  0.11647629  0.61990941  1
  O  O173  1  0.11582454  0.61678866  0.11913729  1
  O  O174  1  0.12626317  0.61655089  0.61485596  1
  O  O175  1  0.61386253  0.13035337  0.11788661  1
  O  O176  1  0.62475427  0.11801795  0.61949236  1
  O  O177  1  0.61707478  0.61812251  0.12276176  1
  O  O178  1  0.62213913  0.62899480  0.60982342  1
  O  O179  1  0.38361688  0.37293092  0.38278193  1
  O  O180  1  0.38548919  0.37613166  0.88476595  1
  O  O181  1  0.39520572  0.87378234  0.37055540  1
  O  O182  1  0.38106809  0.88627325  0.87735886  1
  O  O183  1  0.88124540  0.37682909  0.38209921  1
  O  O184  1  0.87389658  0.38171413  0.87955684  1
  O  O185  1  0.88113916  0.88548324  0.36740803  1
  O  O186  1  0.87551030  0.88740671  0.87149317  1
  O  O187  1  0.24513040  0.01144008  0.36985332  1
  O  O188  1  0.25786710  0.00128960  0.86978771  1
  O  O189  1  0.25234304  0.50303014  0.36603409  1
  O  O190  1  0.25018572  0.51207702  0.87422007  1
  O  O191  1  0.76292729  0.00658960  0.37802001  1
  O  O192  1  0.75285968  0.00161654  0.86971939  1
  O  O193  1  0.76174251  0.49560703  0.36337457  1
  O  O194  1  0.75852659  0.50368839  0.86434084  1
  O  O195  1  0.23924522  0.50317832  0.13389525  1
  O  O196  1  0.24046203  0.49285354  0.62367457  1
  O  O197  1  0.24638549  0.99295188  0.13094331  1
  O  O198  1  0.24281292  0.99053462  0.62940998  1
  O  O199  1  0.74456362  0.49736914  0.13181032  1
  O  O200  1  0.75456900  0.49085112  0.63679860  1
  O  O201  1  0.75305776  0.98635332  0.11849298  1
  O  O202  1  0.74515493  0.98949322  0.63045025  1
  O  O203  1  0.00537427  0.36441245  0.25796156  1
  O  O204  1  0.00034709  0.36179522  0.75156320  1
  O  O205  1  0.00798324  0.86567537  0.25494051  1
  O  O206  1  0.00655584  0.86819781  0.75157075  1
  O  O207  1  0.50988400  0.37306023  0.25778905  1
  O  O208  1  0.50378298  0.37018621  0.75452164  1
  O  O209  1  0.51243046  0.87710799  0.24595077  1
  O  O210  1  0.49480820  0.86909869  0.76274884  1
  O  O211  1  0.49523407  0.12913493  0.24224399  1
  O  O212  1  0.49770707  0.13217058  0.74600657  1
  O  O213  1  0.49015812  0.61451130  0.23791003  1
  O  O214  1  0.49324448  0.63328867  0.74802006  1
  O  O215  1  1.00424821  0.13103527  0.24183724  1
  O  O216  1  0.99411606  0.13609237  0.74806273  1
  O  O217  1  1.01009855  0.63770235  0.24338985  1
  O  O218  1  0.99209142  0.63143399  0.74860305  1
  O  O219  1  0.36972199  0.25587613  0.00451933  1
  O  O220  1  0.38464371  0.26099117  0.49922006  1
  O  O221  1  0.36272511  0.75246377  0.00175615  1
  O  O222  1  0.36646884  0.74476884  0.50044751  1
  O  O223  1  0.88045190  0.25572354  0.01051186  1
  O  O224  1  0.87868820  0.26284807  0.50620392  1
  O  O225  1  0.86842140  0.74864193  0.01153841  1
  O  O226  1  0.86909389  0.73827346  0.50564422  1
  O  O227  1  0.11185183  0.23822141  0.48976185  1
  O  O228  1  0.13122574  0.25082185  0.99506442  1
  O  O229  1  0.12735840  0.73719607  0.50594345  1
  O  O230  1  0.13577876  0.74351791  0.99897354  1
  O  O231  1  0.62540058  0.24548271  0.48881186  1
  O  O232  1  0.61966727  0.24061306  1.00068405  1
  O  O233  1  0.63217072  0.73616280  0.48956941  1
  O  O234  1  0.63266159  0.74725208  0.98856933  1
  O  O235  1  0.48972958  0.24335674  0.13055585  1
  O  O236  1  0.50482544  0.24134862  0.63957402  1
  O  O237  1  0.49973068  0.73633843  0.11457360  1
  O  O238  1  0.50907813  0.75445709  0.63898960  1
  O  O239  1  0.99435602  0.24028396  0.13209728  1
  O  O240  1  0.98663286  0.25032530  0.63152587  1
  O  O241  1  0.99433031  0.74535076  0.12992880  1
  O  O242  1  0.99742330  0.74799637  0.63739235  1
  O  O243  1  0.00473967  0.25037066  0.36751042  1
  O  O244  1  0.00488381  0.24813842  0.86885465  1
  O  O245  1  -0.00407416  0.75911261  0.36526435  1
  O  O246  1  0.00009302  0.75136043  0.86431932  1
  O  O247  1  0.50903292  0.25802918  0.37191512  1
  O  O248  1  0.49746756  0.25793830  0.86319826  1
  O  O249  1  0.51695658  0.76405230  0.37906809  1
  O  O250  1  0.50697411  0.75816707  0.87184782  1
  O  O251  1  0.22618186  0.12308381  0.50637326  1
  O  O252  1  0.24944938  0.13857482  0.99939738  1
  O  O253  1  0.24398006  0.63806186  0.50155945  1
  O  O254  1  0.24656416  0.63113126  0.99462917  1
  O  O255  1  0.74173422  0.12486118  0.48998486  1
  O  O256  1  0.74050534  0.12072950  0.98708958  1
  O  O257  1  0.73595769  0.61878847  0.49971279  1
  O  O258  1  0.75045594  0.63674786  0.99292828  1
  O  O259  1  0.25965392  0.36360896  -0.00486369  1
  O  O260  1  0.25923252  0.37426289  0.51181437  1
  O  O261  1  0.24967667  0.86798479  0.00887145  1
  O  O262  1  0.24615836  0.86405720  0.50966991  1
  O  O263  1  0.76253301  0.37727769  0.00123269  1
  O  O264  1  0.75656988  0.38237967  0.50755668  1
  O  O265  1  0.74173237  0.86325368  0.01310110  1
  O  O266  1  0.74710251  0.87308346  0.50782265  1
  O  O267  1  0.13360580  0.49715614  0.24295043  1
  O  O268  1  0.12759534  0.49697544  0.73906274  1
  O  O269  1  0.13405892  0.99207536  0.24489563  1
  O  O270  1  0.12803909  0.99417803  0.74584115  1
  O  O271  1  0.63285153  0.49245078  0.24763129  1
  O  O272  1  0.63234920  0.48836592  0.75363764  1
  O  O273  1  0.62378262  0.98934421  0.24693584  1
  O  O274  1  0.63420719  1.00348525  0.73854716  1
  O  O275  1  0.36176358  0.01034970  0.24631194  1
  O  O276  1  0.37154435  0.00878180  0.75896228  1
  O  O277  1  0.36705644  0.50621595  0.24941657  1
  O  O278  1  0.37257447  0.50996998  0.75414694  1
  O  O279  1  0.87969736  0.00171590  0.26205802  1
  O  O280  1  0.86425542  0.00348826  0.75796792  1
  O  O281  1  0.86609873  0.49199637  0.25746229  1
  O  O282  1  0.86829146  0.50381840  0.75513848  1
  O  O283  1  0.12184980  0.36145723  0.37695014  1
  O  O284  1  0.12232791  0.36316716  0.87267526  1
  O  O285  1  0.11378069  0.88210397  0.36484436  1
  O  O286  1  0.12528783  0.87328576  0.86115327  1
  O  O287  1  0.62185397  0.36815433  0.37146991  1
  O  O288  1  0.61324725  0.37757794  0.86802759  1
  O  O289  1  0.61868251  0.87148804  0.36005267  1
  O  O290  1  0.61580982  0.86853725  0.87925566  1
  O  O291  1  0.38247417  0.13383231  0.13033489  1
  O  O292  1  0.38914879  0.11763439  0.63763254  1
  O  O293  1  0.38346946  0.62509115  0.13067509  1
  O  O294  1  0.37559450  0.62204325  0.63722113  1
  O  O295  1  0.88555216  0.13001896  0.12085058  1
  O  O296  1  0.87161263  0.13382173  0.62465617  1
  O  O297  1  0.88933585  0.63044573  0.12123164  1
  O  O298  1  0.87715159  0.61983017  0.63748744  1
  O  O299  1  0.26118391  0.24821462  0.11900624  1
  O  O300  1  0.24418824  0.25994512  0.62657470  1
  O  O301  1  0.24983602  0.75702928  0.11800002  1
  O  O302  1  0.24886518  0.76258648  0.61552013  1
  O  O303  1  0.76397507  0.24771149  0.13316935  1
  O  O304  1  0.76034977  0.25889433  0.63085709  1
  O  O305  1  0.75716183  0.75178438  0.11834184  1
  O  O306  1  0.74804837  0.76728208  0.62727438  1
  O  O307  1  0.24008126  0.23195237  0.37514318  1
  O  O308  1  0.24216015  0.24838531  0.88183577  1
  O  O309  1  0.25227176  0.75133145  0.39117987  1
  O  O310  1  0.24870892  0.74069956  0.88215086  1
  O  O311  1  0.74507995  0.23637341  0.36960056  1
  O  O312  1  0.75423230  0.23433858  0.87005579  1
  O  O313  1  0.73070120  0.75725163  0.36943338  1
  O  O314  1  0.74513815  0.74943300  0.88050573  1
  O  O315  1  0.00217219  0.11250604  0.00870071  1
  O  O316  1  0.00222129  0.11392607  0.50159488  1
  O  O317  1  0.00650117  0.62306316  0.00757161  1
  O  O318  1  0.01349553  0.61799358  0.50246979  1
  O  O319  1  0.50601978  0.12123360  0.00515055  1
  O  O320  1  0.51746910  0.13239304  0.51545537  1
  O  O321  1  0.49912104  0.61570777  0.00418307  1
  O  O322  1  0.50678125  0.61818055  0.50231663  1
  O  O323  1  0.49699208  0.38008747  0.49569489  1
  O  O324  1  0.49598483  0.38045080  0.99314791  1
  O  O325  1  0.50383946  0.87863853  0.49117937  1
  O  O326  1  0.49880077  0.88303142  0.99286007  1
  O  O327  1  0.99297864  0.37954777  0.49378331  1
  O  O328  1  0.98561923  0.37891944  0.99567371  1
  O  O329  1  1.00534638  0.87932129  0.48795651  1
  O  O330  1  1.00843119  0.88709498  0.99930379  1
  O  O331  1  0.49973693  0.48537044  0.38058524  1
  O  O332  1  0.49996827  0.49384130  0.88585599  1
  O  O333  1  0.50444020  0.98729356  0.37507982  1
  O  O334  1  0.49551302  0.99434023  0.87882239  1
  O  O335  1  0.99731714  0.48984379  0.37814545  1
  O  O336  1  0.98631639  0.49943573  0.87297206  1
  O  O337  1  0.98823326  0.99230529  0.37928664  1
  O  O338  1  0.99066647  0.99994069  0.88296239  1
  O  O339  1  0.00214286  0.00327153  0.12118639  1
  O  O340  1  0.00071801  -0.00347689  0.61704979  1
  O  O341  1  0.00558466  0.50792999  0.12770319  1
  O  O342  1  0.01189035  0.49712218  0.61741258  1
  O  O343  1  0.49117691  0.01168064  0.11485415  1
  O  O344  1  0.51174282  0.00932145  0.63204259  1
  O  O345  1  0.50611190  0.50467090  0.11371757  1
  O  O346  1  0.49978307  0.49862562  0.61386144  1
  O  O347  1  0.25020976  0.38509078  0.25453622  1
  O  O348  1  0.25021391  0.37558883  0.73723320  1
  O  O349  1  0.24532775  0.87956409  0.24773220  1
  O  O350  1  0.24448657  0.87722719  0.74141529  1
  O  O351  1  0.73861622  0.37675840  0.24864147  1
  O  O352  1  0.74192912  0.38110373  0.74453254  1
  O  O353  1  0.73947795  0.87476878  0.23671003  1
  O  O354  1  0.74901988  0.88530898  0.74409877  1
  O  O355  1  0.25614379  0.11580850  0.24490716  1
  O  O356  1  0.25874248  0.11809146  0.74911506  1
  O  O357  1  0.25690000  0.61465331  0.25159432  1
  O  O358  1  0.25606492  0.62753846  0.75666752  1
  O  O359  1  0.74462124  0.12016099  0.26402441  1
  O  O360  1  0.74833981  0.11518580  0.76256624  1
  O  O361  1  0.74869000  0.61421929  0.24534620  1
  O  O362  1  0.75384552  0.61848172  0.75219787  1
  O  O363  1  0.37195466  0.15043069  0.34855603  1
  O  O364  1  0.37568445  0.11488236  0.86893295  1
  O  O365  1  0.37636367  0.62174738  0.36583379  1
  O  O366  1  0.36679623  0.62338442  0.86682294  1
  O  O367  1  0.86267382  0.11717619  0.37677308  1
  O  O368  1  0.86143340  0.11398459  0.87644198  1
  O  O369  1  0.88515120  0.60826181  0.37609464  1
  O  O370  1  0.86891725  0.61892429  0.86435471  1
  O  O371  1  0.11756889  0.38711113  0.12494907  1
  O  O372  1  0.13631671  0.37944281  0.62274739  1
  O  O373  1  0.13543869  0.88012602  0.13376644  1
  O  O374  1  0.13145535  0.87972277  0.63536802  1
  O  O375  1  0.62541844  0.38026077  0.13480531  1
  O  O376  1  0.63612716  0.37079564  0.62964898  1
  O  O377  1  0.63504993  0.86957969  0.13623419  1
  O  O378  1  0.63460131  0.88446359  0.61995574  1
  O  O379  1  0.11774850  0.24908376  0.25882390  1
  O  O380  1  0.11592037  0.25014021  0.75695231  1
  O  O381  1  0.11968944  0.76025000  0.24366217  1
  O  O382  1  0.11732097  0.75666339  0.74999551  1
  O  O383  1  0.61905690  0.25645882  0.25904890  1
  O  O384  1  0.61899499  0.26355276  0.74887004  1
  O  O385  1  0.62136666  0.75459551  0.25728439  1
  O  O386  1  0.61742804  0.74543178  0.76419697  1
  O  O387  1  0.37968554  0.25188527  0.23829904  1
  O  O388  1  0.38166790  0.23730141  0.75634209  1
  O  O389  1  0.36820481  0.73427639  0.24576776  1
  O  O390  1  0.38680389  0.74158084  0.75643866  1
  O  O391  1  0.88850896  0.25365542  0.24245763  1
  O  O392  1  0.87982815  0.24781521  0.74163630  1
  O  O393  1  0.88469051  0.75212368  0.23662955  1
  O  O394  1  0.88033995  0.74098881  0.74657936  1
  O  O395  1  0.38457795  0.49112162  0.49786034  1
  O  O396  1  0.38171647  0.49206170  0.99921185  1
  O  O397  1  0.35956731  1.07950900  0.47033785  1
  O  O398  1  0.38421955  1.00158991  0.99123939  1
  O  O399  1  0.88180990  0.49009498  0.49318120  1
  O  O400  1  0.87423250  0.49489535  0.99000958  1
  O  O401  1  0.88437761  1.00174320  0.49027530  1
  O  O402  1  0.88341823  1.00014951  0.99221375  1
  O  O403  1  0.12011671  0.00242193  0.00779786  1
  O  O404  1  0.11157430  0.00399689  0.50465451  1
  O  O405  1  0.12305265  0.50454171  0.00732191  1
  O  O406  1  0.12375029  0.50664814  0.50570895  1
  O  O407  1  0.61197600  0.01028824  -0.00397508  1
  O  O408  1  0.63097544  0.00819921  0.51004429  1
  O  O409  1  0.61871771  0.50082962  0.00480223  1
  O  O410  1  0.61530311  0.51559346  0.48928398  1
  O  O411  1  0.38392388  0.36812268  0.11098368  1
  O  O412  1  0.36150315  0.37478630  0.61942223  1
  O  O413  1  0.36329893  0.87381912  0.12536776  1
  O  O414  1  0.36047915  0.88366758  0.62833472  1
  O  O415  1  0.87434688  0.36452890  0.11730246  1
  O  O416  1  0.86476218  0.37030717  0.61703899  1
  O  O417  1  0.86003638  0.86687948  0.12877822  1
  O  O418  1  0.85893455  0.87629924  0.62593835  1
  O  O419  1  0.12344853  0.12798725  0.38484694  1
  O  O420  1  0.12694940  0.13677241  0.87710708  1
  O  O421  1  0.12841420  0.62104529  0.39148138  1
  O  O422  1  0.13236846  0.62572877  0.88169888  1
  O  O423  1  0.63381536  0.12978082  0.38124577  1
  O  O424  1  0.63700824  0.12365614  0.88145574  1
  O  O425  1  0.61669009  0.63787773  0.37859049  1
  O  O426  1  0.63220512  0.63203522  0.87652663  1
