# generated using pymatgen
data_V85Zn86O256
_symmetry_space_group_name_H-M   'P 1'
_cell_length_a   16.93132824
_cell_length_b   16.93324169
_cell_length_c   16.94632694
_cell_angle_alpha   89.99840126
_cell_angle_beta   90.00583206
_cell_angle_gamma   90.06421714
_symmetry_Int_Tables_number   1
_chemical_formula_structural   V85Zn86O256
_chemical_formula_sum   'V85 Zn86 O256'
_cell_volume   4858.54737981
_cell_formula_units_Z   1
loop_
 _symmetry_equiv_pos_site_id
 _symmetry_equiv_pos_as_xyz
  1  'x, y, z'
loop_
 _atom_site_type_symbol
 _atom_site_label
 _atom_site_symmetry_multiplicity
 _atom_site_fract_x
 _atom_site_fract_y
 _atom_site_fract_z
 _atom_site_occupancy
  V  V0  1  0.86618365  0.87238518  0.49676761  1
  V  V1  1  0.25396735  0.50122642  0.75321095  1
  V  V2  1  0.12518882  0.25368612  0.87457051  1
  V  V3  1  0.38236232  0.75976410  0.12348679  1
  V  V4  1  -0.00074262  0.62389819  0.12582612  1
  V  V5  1  0.74452046  0.00388787  0.25136470  1
  V  V6  1  0.24888224  -0.00042415  0.74677912  1
  V  V7  1  -0.00416858  0.24122714  0.74610114  1
  V  V8  1  0.12048187  0.00280708  0.62228319  1
  V  V9  1  0.74532641  0.62015549  0.37634269  1
  V  V10  1  0.86655124  0.00417938  0.37408996  1
  V  V11  1  0.87507457  0.87213776  0.00349708  1
  V  V12  1  -0.00338544  0.49666826  0.49860387  1
  V  V13  1  0.61849335  0.74781466  0.36810755  1
  V  V14  1  0.62464333  0.75698707  0.87122628  1
  V  V15  1  0.36859659  0.75660514  0.62111967  1
  V  V16  1  0.75299856  0.24974087  0.49381878  1
  V  V17  1  0.50035421  0.37226302  0.36930445  1
  V  V18  1  0.63526229  0.89434244  0.73445349  1
  V  V19  1  0.74953745  0.74553432  0.00194147  1
  V  V20  1  0.62535537  0.50592536  0.61887878  1
  V  V21  1  0.87097786  0.36812912  -0.00076720  1
  V  V22  1  0.49832209  0.62929092  0.62573796  1
  V  V23  1  0.12682216  0.63662049  0.49586502  1
  V  V24  1  0.25280959  0.24705398  0.00624988  1
  V  V25  1  0.00357451  0.49646153  -0.00145442  1
  V  V26  1  -0.00090561  0.00255811  0.50173101  1
  V  V27  1  0.00049562  0.37541344  0.37258358  1
  V  V28  1  0.12375445  0.11805534  0.00326946  1
  V  V29  1  0.12819623  0.25708078  0.37239543  1
  V  V30  1  0.61729555  -0.00208239  0.12386859  1
  V  V31  1  0.62590275  0.49955487  0.12735149  1
  V  V32  1  0.62987135  0.37543976  0.25075598  1
  V  V33  1  0.63025468  0.11497049  0.50099340  1
  V  V34  1  0.25343124  0.76214079  -0.00116434  1
  V  V35  1  0.86230616  0.09759734  0.71865342  1
  V  V36  1  0.87632419  0.62453825  0.74997774  1
  V  V37  1  0.50228092  0.51136691  0.49761955  1
  V  V38  1  0.25221069  0.25076712  0.49818599  1
  V  V39  1  0.88192962  0.26007780  0.61921391  1
  V  V40  1  0.39136838  0.24609195  0.13452862  1
  V  V41  1  0.73939288  0.74541161  0.50213377  1
  V  V42  1  0.87295082  0.00276717  0.88149960  1
  V  V43  1  0.87462539  0.74805539  0.12903669  1
  V  V44  1  0.12723422  0.49903155  0.62286829  1
  V  V45  1  0.75016583  0.37322885  0.12402470  1
  V  V46  1  0.12839325  0.62643662  -0.00010691  1
  V  V47  1  0.37706355  -0.00517066  0.88243282  1
  V  V48  1  0.38554055  0.11507805  0.25211709  1
  V  V49  1  -0.00088354  0.75186493  0.74819927  1
  V  V50  1  0.49695771  0.61972593  0.12665918  1
  V  V51  1  0.37562946  0.62852748  0.24924489  1
  V  V52  1  0.75091786  0.37583097  0.61780872  1
  V  V53  1  0.62449923  0.24323871  0.37237525  1
  V  V54  1  0.86832388  0.75217038  0.62416459  1
  V  V55  1  0.50681703  0.11911171  0.62439870  1
  V  V56  1  0.12408290  0.87701352  0.74650345  1
  V  V57  1  0.00825372  0.87068060  0.37338905  1
  V  V58  1  0.75507091  0.12703058  0.88606437  1
  V  V59  1  0.75097688  0.62356278  0.87654680  1
  V  V60  1  0.24980416  0.12617125  0.87525594  1
  V  V61  1  0.00036078  0.87673470  0.87375609  1
  V  V62  1  0.61240180  0.62031220  -0.00536645  1
  V  V63  1  0.25042587  0.87489113  0.60407428  1
  V  V64  1  0.37707922  0.12469534  0.75084675  1
  V  V65  1  0.37802052  0.37611312  0.49960375  1
  V  V66  1  0.75115902  0.49803368  0.74746370  1
  V  V67  1  0.37054253  0.50343215  0.37451764  1
  V  V68  1  0.87105605  0.49388104  0.37361812  1
  V  V69  1  0.24673493  0.36757246  0.13774065  1
  V  V70  1  0.12485978  0.49276898  0.13188896  1
  V  V71  1  0.25303046  0.11237479  0.36872071  1
  V  V72  1  0.24326856  0.64102047  0.37452850  1
  V  V73  1  0.37813465  0.24972427  0.62429132  1
  V  V74  1  0.87597362  0.49769887  0.87563724  1
  V  V75  1  0.62840349  0.25077022  0.87403000  1
  V  V76  1  0.12165643  0.12545001  0.50285320  1
  V  V77  1  0.24384930  0.88090196  0.14198589  1
  V  V78  1  -0.00285233  0.12168537  0.12997339  1
  V  V79  1  0.00058530  0.62525158  0.62289747  1
  V  V80  1  0.62006647  0.12996292  0.00781961  1
  V  V81  1  0.48348739  -0.00606016  0.49734588  1
  V  V82  1  -0.00005281  0.25385586  0.24820725  1
  V  V83  1  0.86894794  0.62091335  0.25031764  1
  V  V84  1  0.01042337  0.75141470  0.25392668  1
  Zn  Zn85  1  0.24321818  0.49662091  0.25434987  1
  Zn  Zn86  1  0.62375999  0.37456710  0.74825164  1
  Zn  Zn87  1  0.12456953  0.37326777  0.74850800  1
  Zn  Zn88  1  0.38278550  0.37804295  0.00283496  1
  Zn  Zn89  1  0.00414873  -0.00536102  0.00851550  1
  Zn  Zn90  1  0.39803590  0.50758848  0.89690811  1
  Zn  Zn91  1  0.86825222  0.12941437  0.25614344  1
  Zn  Zn92  1  0.37590858  0.62765058  0.75410345  1
  Zn  Zn93  1  0.49682206  -0.00274011  0.00392773  1
  Zn  Zn94  1  0.49904856  0.38158272  0.87754180  1
  Zn  Zn95  1  0.61663886  0.86857979  0.24379392  1
  Zn  Zn96  1  -0.00082523  0.37177079  0.87335026  1
  Zn  Zn97  1  0.25316789  0.37697153  0.62530816  1
  Zn  Zn98  1  0.25457736  0.62724946  0.87643929  1
  Zn  Zn99  1  0.86908248  0.24693714  0.12408164  1
  Zn  Zn100  1  0.12303227  -0.00415364  0.15126423  1
  Zn  Zn101  1  0.50269250  0.25194567  0.75057571  1
  Zn  Zn102  1  0.49937228  0.87483385  0.87602877  1
  Zn  Zn103  1  0.50082662  0.75706245  0.74809975  1
  Zn  Zn104  1  0.12710242  0.75081325  0.87342807  1
  Zn  Zn105  1  0.74811467  0.87464871  0.12884952  1
  Zn  Zn106  1  0.48599303  0.88678610  0.36363750  1
  Zn  Zn107  1  0.18409986  0.18248981  0.19213656  1
  Zn  Zn108  1  0.18926272  0.18821829  0.68595094  1
  Zn  Zn109  1  0.19143590  0.68682368  0.18482282  1
  Zn  Zn110  1  0.18777894  0.68782813  0.68546198  1
  Zn  Zn111  1  0.68630789  0.18857642  0.19011727  1
  Zn  Zn112  1  0.69260460  0.18615674  0.68732168  1
  Zn  Zn113  1  0.68764804  0.68379153  0.18758999  1
  Zn  Zn114  1  0.68527844  0.68638161  0.68863767  1
  Zn  Zn115  1  0.31604054  0.30911631  0.31192599  1
  Zn  Zn116  1  0.31494081  0.31799233  0.81355408  1
  Zn  Zn117  1  0.32049810  0.81537155  0.30959653  1
  Zn  Zn118  1  0.31104852  0.81162320  0.80597501  1
  Zn  Zn119  1  0.81067783  0.31459049  0.31077061  1
  Zn  Zn120  1  0.81031704  0.30971515  0.80921454  1
  Zn  Zn121  1  0.80798548  0.81425432  0.31212605  1
  Zn  Zn122  1  0.80840192  0.81565443  0.81234160  1
  Zn  Zn123  1  0.18731197  0.43850839  0.44036605  1
  Zn  Zn124  1  0.22077928  0.44937944  0.95498687  1
  Zn  Zn125  1  0.18474559  0.93689126  0.32701135  1
  Zn  Zn126  1  0.18907432  0.93819566  0.93468875  1
  Zn  Zn127  1  0.68647028  0.43667078  0.43792677  1
  Zn  Zn128  1  0.68441648  0.43844119  0.94050014  1
  Zn  Zn129  1  0.68368267  0.93086412  0.43456206  1
  Zn  Zn130  1  0.69018238  0.94040289  0.93921624  1
  Zn  Zn131  1  0.31302395  0.06333001  0.06992630  1
  Zn  Zn132  1  0.30910258  0.06353589  0.56113339  1
  Zn  Zn133  1  0.30869087  0.56421480  0.06675865  1
  Zn  Zn134  1  0.31382252  0.57035717  0.56119437  1
  Zn  Zn135  1  0.80914770  0.06084431  0.06565248  1
  Zn  Zn136  1  0.81546259  0.06741347  0.55498968  1
  Zn  Zn137  1  0.80917116  0.55532653  0.06321903  1
  Zn  Zn138  1  0.81425579  0.56357701  0.55872282  1
  Zn  Zn139  1  0.43694303  0.43752208  0.18698465  1
  Zn  Zn140  1  0.44110202  0.43579100  0.69179827  1
  Zn  Zn141  1  0.43863073  0.93787037  0.18771093  1
  Zn  Zn142  1  0.44317948  0.93555629  0.68914324  1
  Zn  Zn143  1  0.93672179  0.43673918  0.18873531  1
  Zn  Zn144  1  0.94069035  0.43173753  0.68909646  1
  Zn  Zn145  1  0.93678587  0.93743568  0.19238377  1
  Zn  Zn146  1  0.92402131  0.93987056  0.68212069  1
  Zn  Zn147  1  0.05490115  0.06914430  0.32134642  1
  Zn  Zn148  1  0.05454708  0.06455781  0.81197970  1
  Zn  Zn149  1  0.05995885  0.56569646  0.31201425  1
  Zn  Zn150  1  0.06624825  0.56162564  0.81287358  1
  Zn  Zn151  1  0.56254095  0.06029380  0.31497580  1
  Zn  Zn152  1  0.56493262  0.06491652  0.81272879  1
  Zn  Zn153  1  0.55936248  0.56415363  0.30892853  1
  Zn  Zn154  1  0.56329838  0.56162144  0.80746081  1
  Zn  Zn155  1  0.44076854  0.18335178  0.43490244  1
  Zn  Zn156  1  0.44072882  0.19168878  0.94030796  1
  Zn  Zn157  1  0.41672782  0.72193296  0.42193856  1
  Zn  Zn158  1  0.43517681  0.69129399  0.93514392  1
  Zn  Zn159  1  0.93576342  0.18889557  0.43885097  1
  Zn  Zn160  1  0.94186756  0.18771258  0.94081958  1
  Zn  Zn161  1  0.93502634  0.68615752  0.43682637  1
  Zn  Zn162  1  0.94038104  0.68731780  0.93767871  1
  Zn  Zn163  1  0.06311665  0.31055246  0.06138764  1
  Zn  Zn164  1  0.06248060  0.31562492  0.55900419  1
  Zn  Zn165  1  0.06505610  0.81153149  0.06629264  1
  Zn  Zn166  1  0.05937254  0.81719863  0.56035279  1
  Zn  Zn167  1  0.56406883  0.31237575  0.05837243  1
  Zn  Zn168  1  0.56421659  0.31374098  0.55820477  1
  Zn  Zn169  1  0.55863852  0.81656720  0.05543416  1
  Zn  Zn170  1  0.56361260  0.81517339  0.56428795  1
  O  O171  1  0.11468041  0.12088417  0.12066930  1
  O  O172  1  0.13080895  0.12167616  0.61039886  1
  O  O173  1  0.11996833  0.61899105  0.11597982  1
  O  O174  1  0.12014286  0.61633462  0.61699881  1
  O  O175  1  0.63076758  0.12196942  0.11173697  1
  O  O176  1  0.61736579  0.13248750  0.61584552  1
  O  O177  1  0.61679956  0.61912766  0.12029810  1
  O  O178  1  0.61837345  0.61359388  0.62442217  1
  O  O179  1  0.38228974  0.38331962  0.37682023  1
  O  O180  1  0.37643488  0.38116979  0.88082962  1
  O  O181  1  0.39349547  0.82893366  0.38882595  1
  O  O182  1  0.37188995  0.89333037  0.86621243  1
  O  O183  1  0.88191924  0.38688052  0.37067957  1
  O  O184  1  0.87306739  0.38010672  0.88170401  1
  O  O185  1  0.87863935  0.88129167  0.38190604  1
  O  O186  1  0.88082747  0.87939278  0.88296423  1
  O  O187  1  0.25216056  0.01475269  0.38250068  1
  O  O188  1  0.25827631  0.00709766  0.86793784  1
  O  O189  1  0.26128903  0.50021044  0.37390323  1
  O  O190  1  0.23318945  0.50505595  0.85531055  1
  O  O191  1  0.75580771  -0.00614179  0.36750767  1
  O  O192  1  0.76257159  0.00978124  0.87905056  1
  O  O193  1  0.76096212  0.50543385  0.38340284  1
  O  O194  1  0.75470818  0.50491727  0.86890694  1
  O  O195  1  0.24114592  0.48801777  0.13092439  1
  O  O196  1  0.24236397  0.50243040  0.63090785  1
  O  O197  1  0.24852095  0.98237051  0.12247331  1
  O  O198  1  0.24284011  0.99397471  0.62879640  1
  O  O199  1  0.73918301  0.48860211  0.12675641  1
  O  O200  1  0.74552483  0.49568556  0.62395272  1
  O  O201  1  0.74010509  0.99708402  0.13288410  1
  O  O202  1  0.82857897  1.01615540  0.65531052  1
  O  O203  1  -0.00130100  0.36930009  0.26201364  1
  O  O204  1  0.00614522  0.36209053  0.75440319  1
  O  O205  1  -0.00521483  0.86701394  0.26484311  1
  O  O206  1  0.00237078  0.87276867  0.75576306  1
  O  O207  1  0.50889010  0.38253915  0.26272348  1
  O  O208  1  0.50649413  0.36939136  0.75571875  1
  O  O209  1  0.50349093  0.87552763  0.25216114  1
  O  O210  1  0.51751619  0.87687303  0.75634384  1
  O  O211  1  0.48447170  0.12584396  0.26127573  1
  O  O212  1  0.49349954  0.12786952  0.74143141  1
  O  O213  1  0.48846042  0.62404835  0.23972991  1
  O  O214  1  0.50124658  0.62663475  0.73462055  1
  O  O215  1  0.99341331  0.13411046  0.24536262  1
  O  O216  1  0.98131516  0.13479223  0.74915695  1
  O  O217  1  0.98895859  0.63195389  0.24630637  1
  O  O218  1  0.99511642  0.63050234  0.74460142  1
  O  O219  1  0.36714067  0.24200051  0.01613012  1
  O  O220  1  0.37226621  0.25338510  0.50528777  1
  O  O221  1  0.36009670  0.74616807  0.00865058  1
  O  O222  1  0.36787672  0.73670189  0.52381146  1
  O  O223  1  0.88220847  0.26466298  0.00339995  1
  O  O224  1  0.86463942  0.25136323  0.50325602  1
  O  O225  1  0.87098600  0.75277003  0.00728919  1
  O  O226  1  0.86688091  0.75430085  0.50498883  1
  O  O227  1  0.13088691  0.24547450  0.49437629  1
  O  O228  1  0.12949583  0.23677874  0.99459116  1
  O  O229  1  0.11853686  0.73538452  0.50637689  1
  O  O230  1  0.13436915  0.74402739  1.00062674  1
  O  O231  1  0.63355747  0.24411887  0.49304799  1
  O  O232  1  0.62761868  0.23681709  0.99174195  1
  O  O233  1  0.63604566  0.75110765  0.49536227  1
  O  O234  1  0.63215774  0.73974603  0.99443943  1
  O  O235  1  0.48934225  0.25003722  0.12697413  1
  O  O236  1  0.49078711  0.24152556  0.62182172  1
  O  O237  1  0.48706399  0.74072721  0.11628674  1
  O  O238  1  0.49192114  0.74466901  0.62395413  1
  O  O239  1  0.99987986  0.24335947  0.13436557  1
  O  O240  1  0.99337933  0.25910156  0.63081392  1
  O  O241  1  0.99328722  0.74401290  0.13213594  1
  O  O242  1  0.99172526  0.74449957  0.62905699  1
  O  O243  1  0.00525648  0.25760719  0.37137989  1
  O  O244  1  0.00785406  0.24727153  0.86617430  1
  O  O245  1  -0.00846606  0.76178091  0.36907239  1
  O  O246  1  -0.00073878  0.76179797  0.86864435  1
  O  O247  1  0.51001162  0.26267712  0.38407024  1
  O  O248  1  0.51857475  0.24406811  0.87187630  1
  O  O249  1  0.52497549  0.71802307  0.38257148  1
  O  O250  1  0.51103566  0.75086344  0.87205808  1
  O  O251  1  0.24568976  0.13312231  0.49024495  1
  O  O252  1  0.24331834  0.13159162  0.99987733  1
  O  O253  1  0.24160040  0.62003258  0.48367482  1
  O  O254  1  0.24045968  0.63800656  1.00264302  1
  O  O255  1  0.74268943  0.13662831  0.50418714  1
  O  O256  1  0.74148238  0.12349518  0.99242590  1
  O  O257  1  0.75701969  0.63381933  0.48803620  1
  O  O258  1  0.74431958  0.62836235  0.99572592  1
  O  O259  1  0.24641067  0.35430094  0.01421211  1
  O  O260  1  0.25923706  0.36843575  0.50159568  1
  O  O261  1  0.24483818  0.86419304  0.00538238  1
  O  O262  1  0.24402877  0.87830343  0.50901340  1
  O  O263  1  0.75964790  0.38072582  0.01003834  1
  O  O264  1  0.74512826  0.36713431  0.51045620  1
  O  O265  1  0.76294135  0.86592583  -0.00004333  1
  O  O266  1  0.75940306  0.86413111  0.49508574  1
  O  O267  1  0.12154644  0.50547766  0.23553622  1
  O  O268  1  0.12898940  0.49915295  0.73741206  1
  O  O269  1  0.12433782  1.00579791  0.26305657  1
  O  O270  1  0.12489588  0.99911421  0.74221826  1
  O  O271  1  0.61915444  0.49370422  0.23611903  1
  O  O272  1  0.63691037  0.49993675  0.73806969  1
  O  O273  1  0.62969885  1.00142321  0.24276160  1
  O  O274  1  0.62843857  0.99441053  0.75001632  1
  O  O275  1  0.37303286  0.01603505  0.24457032  1
  O  O276  1  0.37083557  0.01153818  0.75339592  1
  O  O277  1  0.37252412  0.51003765  0.25747500  1
  O  O278  1  0.35859610  0.50071800  0.74434728  1
  O  O279  1  0.86555302  -0.00010261  0.25873175  1
  O  O280  1  0.89941118  0.00620383  0.77712793  1
  O  O281  1  0.88166175  0.50933742  0.26078857  1
  O  O282  1  0.87164848  0.50368780  0.75447555  1
  O  O283  1  0.11939153  0.36458300  0.37859349  1
  O  O284  1  0.12739220  0.35726878  0.87812507  1
  O  O285  1  0.10648807  0.87295481  0.38495127  1
  O  O286  1  0.11628427  0.87481959  0.86738119  1
  O  O287  1  0.61889786  0.37123449  0.36815703  1
  O  O288  1  0.63482188  0.35838498  0.87478991  1
  O  O289  1  0.61620206  0.85513670  0.37681503  1
  O  O290  1  0.63172881  0.86254363  0.87627802  1
  O  O291  1  0.36998825  0.13593682  0.13967827  1
  O  O292  1  0.38010659  0.13134550  0.63139768  1
  O  O293  1  0.37956479  0.62847131  0.13026474  1
  O  O294  1  0.38143607  0.63260297  0.63201402  1
  O  O295  1  0.88643328  0.12652887  0.12430581  1
  O  O296  1  0.87702555  0.14896662  0.62157475  1
  O  O297  1  0.87891806  0.62550063  0.13196315  1
  O  O298  1  0.88194624  0.63198413  0.62887056  1
  O  O299  1  0.24939776  0.25176340  0.12287373  1
  O  O300  1  0.26250610  0.25021219  0.61765153  1
  O  O301  1  0.25443033  0.76092534  0.11781042  1
  O  O302  1  0.25830342  0.76211583  0.63201020  1
  O  O303  1  0.75146212  0.26645079  0.13281274  1
  O  O304  1  0.75645574  0.25965661  0.61735136  1
  O  O305  1  0.75634513  0.74883647  0.11787929  1
  O  O306  1  0.75829765  0.73812563  0.61553892  1
  O  O307  1  0.24278513  0.24921480  0.38040635  1
  O  O308  1  0.24553293  0.24342578  0.88380621  1
  O  O309  1  0.24442065  0.73841686  0.36961879  1
  O  O310  1  0.24867709  0.75090497  0.88617465  1
  O  O311  1  0.74135899  0.25837737  0.38534462  1
  O  O312  1  0.74228994  0.23923172  0.87231330  1
  O  O313  1  0.74220449  0.74102774  0.38189740  1
  O  O314  1  0.74701563  0.74175864  0.88282960  1
  O  O315  1  0.00809068  0.12245627  0.01104051  1
  O  O316  1  0.00895499  0.11591429  0.49200567  1
  O  O317  1  0.00614595  0.61879369  0.00719588  1
  O  O318  1  0.00589093  0.61811634  0.50257637  1
  O  O319  1  0.51730437  0.11975350  -0.00557742  1
  O  O320  1  0.50789579  0.11654184  0.50607758  1
  O  O321  1  0.50883625  0.62894406  0.00590451  1
  O  O322  1  0.49285660  0.61285414  0.51133513  1
  O  O323  1  0.49564769  0.38525460  0.48950421  1
  O  O324  1  0.49564943  0.36847049  0.99345751  1
  O  O325  1  0.50481226  0.89441013  0.50605121  1
  O  O326  1  0.50013262  0.88424592  0.98959247  1
  O  O327  1  1.00311462  0.38398690  0.48524447  1
  O  O328  1  0.99432062  0.38138126  0.99727744  1
  O  O329  1  0.98728976  0.87764590  0.49037266  1
  O  O330  1  0.99092374  0.87018734  0.99420459  1
  O  O331  1  0.48966119  0.49910933  0.38075242  1
  O  O332  1  0.50967491  0.49899897  0.87973946  1
  O  O333  1  0.50154520  1.00071696  0.39245391  1
  O  O334  1  0.48310310  1.00586075  0.87233794  1
  O  O335  1  0.99597926  0.49414090  0.37970092  1
  O  O336  1  0.99558835  0.49684638  0.88095017  1
  O  O337  1  0.99062962  0.98851821  0.38471188  1
  O  O338  1  0.99925929  0.98798441  0.88615235  1
  O  O339  1  0.00373281  0.00607920  0.12718621  1
  O  O340  1  0.00216268  -0.00771312  0.60917256  1
  O  O341  1  0.00580323  0.50334391  0.11834019  1
  O  O342  1  0.00490940  0.50335726  0.61693122  1
  O  O343  1  0.51304658  0.00260909  0.12366126  1
  O  O344  1  0.49501551  0.01336493  0.61655899  1
  O  O345  1  0.50354354  0.51220946  0.12409665  1
  O  O346  1  0.50708485  0.50461404  0.61874615  1
  O  O347  1  0.25003290  0.37359753  0.24148557  1
  O  O348  1  0.24410915  0.38586057  0.74493263  1
  O  O349  1  0.24516816  0.87337510  0.24735141  1
  O  O350  1  0.23811451  0.88382484  0.74810727  1
  O  O351  1  0.73632439  0.37838232  0.24626719  1
  O  O352  1  0.74908188  0.38131237  0.73609423  1
  O  O353  1  0.74262071  0.88590958  0.24869292  1
  O  O354  1  0.73423882  0.87428155  0.75300381  1
  O  O355  1  0.25447843  0.12827948  0.26518906  1
  O  O356  1  0.25736643  0.11958374  0.75339994  1
  O  O357  1  0.25264840  0.62011585  0.26014514  1
  O  O358  1  0.24753562  0.61405809  0.75121117  1
  O  O359  1  0.75194250  0.11148146  0.24662957  1
  O  O360  1  0.77126727  0.13031288  0.75794426  1
  O  O361  1  0.76291297  0.62665899  0.25651428  1
  O  O362  1  0.75842437  0.61833990  0.75513215  1
  O  O363  1  0.36200047  0.13389047  0.36506580  1
  O  O364  1  0.36943678  0.12321146  0.86703316  1
  O  O365  1  0.36349198  0.62438336  0.36842518  1
  O  O366  1  0.37199842  0.62009597  0.87194027  1
  O  O367  1  0.87933810  0.10857384  0.37655118  1
  O  O368  1  0.86878844  0.11694958  0.88815691  1
  O  O369  1  0.86876731  0.61658005  0.36815183  1
  O  O370  1  0.87174728  0.61851131  0.87054187  1
  O  O371  1  0.13215919  0.38139214  0.12188510  1
  O  O372  1  0.12801875  0.38882961  0.62104312  1
  O  O373  1  0.13876487  0.87635699  0.12674312  1
  O  O374  1  0.13003366  0.88195623  0.62807110  1
  O  O375  1  0.62882905  0.37971663  0.13065781  1
  O  O376  1  0.63172152  0.38585089  0.62400679  1
  O  O377  1  0.62844023  0.88318552  0.12221107  1
  O  O378  1  0.62782984  0.87780039  0.63535070  1
  O  O379  1  0.11124702  0.24436915  0.26097221  1
  O  O380  1  0.11770108  0.24543749  0.75651886  1
  O  O381  1  0.10922217  0.74057553  0.24581415  1
  O  O382  1  0.11638594  0.75721884  0.74938671  1
  O  O383  1  0.62772380  0.25875908  0.26187293  1
  O  O384  1  0.62768831  0.24794050  0.76125312  1
  O  O385  1  0.63137634  0.74792803  0.26409289  1
  O  O386  1  0.62436840  0.75165118  0.75960324  1
  O  O387  1  0.37421297  0.24309132  0.23879876  1
  O  O388  1  0.37381985  0.24011400  0.74224093  1
  O  O389  1  0.36540242  0.73531876  0.23524270  1
  O  O390  1  0.37994976  0.74851488  0.74002861  1
  O  O391  1  0.88562892  0.24947655  0.25015157  1
  O  O392  1  0.88317793  0.25456494  0.73745667  1
  O  O393  1  0.87868252  0.74311920  0.24455590  1
  O  O394  1  0.87755600  0.74618472  0.74246037  1
  O  O395  1  0.38032871  0.49649260  0.49301162  1
  O  O396  1  0.33252780  0.48672427  0.99055061  1
  O  O397  1  0.38465729  1.00257036  0.50128565  1
  O  O398  1  0.37204979  1.00990184  0.98486867  1
  O  O399  1  0.88961658  0.50597592  0.49077507  1
  O  O400  1  0.88237180  0.49191792  0.99452172  1
  O  O401  1  0.87725443  0.99066896  0.49234313  1
  O  O402  1  0.87801362  0.98863652  0.99757155  1
  O  O403  1  0.12700787  0.01189770  -0.00049260  1
  O  O404  1  0.11356232  0.01024274  0.50413998  1
  O  O405  1  0.12538094  0.50733939  0.00907934  1
  O  O406  1  0.11549698  0.50746941  0.50422838  1
  O  O407  1  0.62766785  0.01166763  0.00670425  1
  O  O408  1  0.63024375  0.01306299  0.49614202  1
  O  O409  1  0.63120716  0.51150731  0.01267470  1
  O  O410  1  0.61472516  0.49731941  0.50583256  1
  O  O411  1  0.36761462  0.36123734  0.12716508  1
  O  O412  1  0.37756537  0.36586520  0.61883456  1
  O  O413  1  0.36088970  0.86654928  0.13213418  1
  O  O414  1  0.36659528  0.86582451  0.62936987  1
  O  O415  1  0.86707398  0.37715961  0.11832126  1
  O  O416  1  0.86672899  0.37044438  0.62280648  1
  O  O417  1  0.87513623  0.86779386  0.11831808  1
  O  O418  1  0.87826765  0.85840885  0.61396054  1
  O  O419  1  0.13488515  0.13640390  0.38513344  1
  O  O420  1  0.12953535  0.13068757  0.88166001  1
  O  O421  1  0.13597360  0.61958978  0.38024186  1
  O  O422  1  0.12239841  0.62909505  0.88979892  1
  O  O423  1  0.62016387  0.13763068  0.38339063  1
  O  O424  1  0.63565680  0.13015075  0.88208940  1
  O  O425  1  0.64180112  0.62307281  0.36619915  1
  O  O426  1  0.63149478  0.63300770  0.88106716  1
