# generated using pymatgen
data_V85Zn86O256
_symmetry_space_group_name_H-M   'P 1'
_cell_length_a   16.93582697
_cell_length_b   16.94288407
_cell_length_c   16.94340948
_cell_angle_alpha   90.00370031
_cell_angle_beta   89.98129668
_cell_angle_gamma   90.00658507
_symmetry_Int_Tables_number   1
_chemical_formula_structural   V85Zn86O256
_chemical_formula_sum   'V85 Zn86 O256'
_cell_volume   4861.77131726
_cell_formula_units_Z   1
loop_
 _symmetry_equiv_pos_site_id
 _symmetry_equiv_pos_as_xyz
  1  'x, y, z'
loop_
 _atom_site_type_symbol
 _atom_site_label
 _atom_site_symmetry_multiplicity
 _atom_site_fract_x
 _atom_site_fract_y
 _atom_site_fract_z
 _atom_site_occupancy
  V  V0  1  0.12370637  0.50271549  0.12357700  1
  V  V1  1  0.25214860  0.74903451  0.49845925  1
  V  V2  1  0.00412380  0.37190112  0.87528471  1
  V  V3  1  0.50107276  0.11213284  0.12416451  1
  V  V4  1  0.39023153  0.12890509  0.75280923  1
  V  V5  1  0.24916702  0.49959222  0.75260437  1
  V  V6  1  0.12334978  0.87902665  0.24712067  1
  V  V7  1  0.75054550  0.61467080  0.37493947  1
  V  V8  1  0.87170055  0.12766384  0.25177076  1
  V  V9  1  -0.00223336  0.75102898  0.24743067  1
  V  V10  1  0.00367103  0.00002688  0.49802614  1
  V  V11  1  0.37713550  0.50160340  0.37069510  1
  V  V12  1  0.50082358  0.87427085  0.37562913  1
  V  V13  1  0.87527004  0.87347222  0.49807532  1
  V  V14  1  0.85795842  0.75389941  0.12008755  1
  V  V15  1  0.87746058  0.25245549  0.61999076  1
  V  V16  1  0.62518346  0.49875797  0.62891903  1
  V  V17  1  0.37072499  0.74669096  0.11741220  1
  V  V18  1  0.74162540  0.49220470  0.23888034  1
  V  V19  1  0.60933582  0.63125895  -0.00740021  1
  V  V20  1  0.50068180  0.62371103  0.62843010  1
  V  V21  1  0.49951355  0.49959473  0.49998363  1
  V  V22  1  0.25139047  0.00642952  0.24839002  1
  V  V23  1  0.23836893  0.24436329  -0.00680135  1
  V  V24  1  0.63013095  0.87783542  0.24519020  1
  V  V25  1  -0.04561152  0.30976292  0.30822471  1
  V  V26  1  0.87741740  -0.00102311  0.87481601  1
  V  V27  1  0.00571034  0.13529456  0.12544554  1
  V  V28  1  0.12325886  0.37472873  0.25699499  1
  V  V29  1  0.74884268  0.87329258  0.62289539  1
  V  V30  1  0.51104449  0.37432313  0.36962417  1
  V  V31  1  0.12576539  0.74985348  0.37337096  1
  V  V32  1  0.50647742  0.01440706  0.50375256  1
  V  V33  1  0.25403399  0.62481992  0.37243972  1
  V  V34  1  0.86356150  0.00365768  0.37361203  1
  V  V35  1  0.37025596  0.37258309  0.50005519  1
  V  V36  1  0.86939374  0.37989770  -0.00502494  1
  V  V37  1  0.37523796  0.50475266  0.88207350  1
  V  V38  1  0.74816004  0.25173760  0.00274323  1
  V  V39  1  0.00639907  0.12628978  0.62073164  1
  V  V40  1  0.62109173  0.86715852  0.74795028  1
  V  V41  1  0.87377751  0.25719999  0.11973287  1
  V  V42  1  0.37582205  0.00722056  0.37212580  1
  V  V43  1  0.50304135  0.87592594  0.88931281  1
  V  V44  1  0.75102251  0.38006171  0.61999514  1
  V  V45  1  0.37720414  0.75136271  0.62665581  1
  V  V46  1  0.14331921  0.74978042  0.87935184  1
  V  V47  1  0.61518049  0.24716060  0.87806267  1
  V  V48  1  -0.00329519  0.50385226  -0.00984506  1
  V  V49  1  0.00559456  0.00566542  0.00102656  1
  V  V50  1  0.24612514  0.12434622  0.38147909  1
  V  V51  1  0.25362178  0.00567204  0.75034168  1
  V  V52  1  0.12796323  0.87201695  0.74814932  1
  V  V53  1  -0.00122088  0.87699871  0.37292471  1
  V  V54  1  0.87410153  0.62037377  0.75570551  1
  V  V55  1  0.24841079  0.87360263  0.11747855  1
  V  V56  1  0.75001661  -0.00081608  0.74687069  1
  V  V57  1  0.00099573  0.87026071  0.87727434  1
  V  V58  1  0.49183677  0.74509584  0.25068804  1
  V  V59  1  0.13745952  0.63030409  -0.00321777  1
  V  V60  1  0.62331742  0.11007407  0.00376858  1
  V  V61  1  0.01150005  0.24979009  0.75402365  1
  V  V62  1  0.37738762  0.87603853  0.49979823  1
  V  V63  1  -0.00138570  0.62119430  0.62558856  1
  V  V64  1  0.69489655  0.19226125  0.54482950  1
  V  V65  1  -0.00691972  0.49400715  0.48696045  1
  V  V66  1  0.74999251  0.49684527  0.76669909  1
  V  V67  1  0.12823246  0.00201932  0.61873121  1
  V  V68  1  0.87225714  0.62014114  0.25230550  1
  V  V69  1  0.37070373  0.24060773  0.12867280  1
  V  V70  1  0.38587054  0.24486744  0.62655131  1
  V  V71  1  0.74914026  0.74602459  0.49738525  1
  V  V72  1  0.25248846  0.50472487  0.24924396  1
  V  V73  1  0.74746506  0.64091283  0.88204857  1
  V  V74  1  0.87840642  0.12731045  0.75388882  1
  V  V75  1  0.63078018  0.23302009  0.36785568  1
  V  V76  1  0.36972759  0.62690394  0.75645201  1
  V  V77  1  0.49755385  0.24716854  0.24805874  1
  V  V78  1  0.24901774  0.37289157  0.12513596  1
  V  V79  1  0.49565853  0.37314582  0.86801021  1
  V  V80  1  0.49481733  0.61566254  0.12847564  1
  V  V81  1  0.12363423  0.24692442  0.37854391  1
  V  V82  1  0.12446527  0.62263728  0.50038381  1
  V  V83  1  0.37761409  0.37411813  0.00099170  1
  V  V84  1  -0.00133254  0.62932347  0.12100301  1
  Zn  Zn85  1  0.74038768  0.01450025  0.24634333  1
  Zn  Zn86  1  0.74968031  0.12644581  0.87758491  1
  Zn  Zn87  1  0.25198595  0.87542253  0.62397832  1
  Zn  Zn88  1  0.12533098  0.00677022  0.12179668  1
  Zn  Zn89  1  0.62450307  0.74689899  0.37274541  1
  Zn  Zn90  1  0.24843825  0.37146341  0.62827686  1
  Zn  Zn91  1  0.87394461  0.37448411  0.48487715  1
  Zn  Zn92  1  0.37438193  0.88160057  0.00173496  1
  Zn  Zn93  1  0.87664659  0.74781116  0.62619829  1
  Zn  Zn94  1  0.24451053  0.24370511  0.50512689  1
  Zn  Zn95  1  0.62400510  0.01305763  0.62149765  1
  Zn  Zn96  1  0.62540457  0.62383635  0.50013089  1
  Zn  Zn97  1  0.12944995  0.37274405  0.75278903  1
  Zn  Zn98  1  0.50405495  0.74882069  0.75751152  1
  Zn  Zn99  1  0.62247565  0.37235169  0.75247167  1
  Zn  Zn100  1  0.38181653  0.00570331  0.88275423  1
  Zn  Zn101  1  0.86712164  0.87014177  -0.00028143  1
  Zn  Zn102  1  0.23783766  0.12749079  0.87301990  1
  Zn  Zn103  1  0.12689271  0.49683127  0.62509643  1
  Zn  Zn104  1  0.00157505  0.74592726  0.75065329  1
  Zn  Zn105  1  0.61788914  0.49175078  0.12234280  1
  Zn  Zn106  1  0.71563731  -0.08439384  0.09136933  1
  Zn  Zn107  1  0.18590767  0.19014712  0.19480379  1
  Zn  Zn108  1  0.19364903  0.18647053  0.68403934  1
  Zn  Zn109  1  0.18735677  0.68810356  0.18592799  1
  Zn  Zn110  1  0.18868072  0.68603818  0.68763149  1
  Zn  Zn111  1  0.68531017  0.19059019  0.18334450  1
  Zn  Zn112  1  0.68918761  0.19163329  0.70694614  1
  Zn  Zn113  1  0.67835596  0.68474989  0.18781987  1
  Zn  Zn114  1  0.69092655  0.68496988  0.68769978  1
  Zn  Zn115  1  0.31231754  0.31306744  0.31289113  1
  Zn  Zn116  1  0.31408628  0.31092141  0.81237345  1
  Zn  Zn117  1  0.31300185  0.81698328  0.30853702  1
  Zn  Zn118  1  0.31879371  0.81844506  0.81256106  1
  Zn  Zn119  1  0.78995418  0.30889756  0.30745802  1
  Zn  Zn120  1  0.81446982  0.31355995  0.81697351  1
  Zn  Zn121  1  0.81174301  0.80773620  0.31227073  1
  Zn  Zn122  1  0.81528898  0.81077923  0.80883188  1
  Zn  Zn123  1  0.18484219  0.43780739  0.43813678  1
  Zn  Zn124  1  0.18941950  0.43863148  0.93646361  1
  Zn  Zn125  1  0.18989404  0.93565765  0.43635253  1
  Zn  Zn126  1  0.18847810  0.94236163  0.93497597  1
  Zn  Zn127  1  0.68794060  0.43824069  0.43848675  1
  Zn  Zn128  1  0.66172139  0.42324699  0.97240591  1
  Zn  Zn129  1  0.68360639  0.93733042  0.43539162  1
  Zn  Zn130  1  0.68951837  0.93104831  0.92514915  1
  Zn  Zn131  1  0.31197842  0.06244645  0.06100945  1
  Zn  Zn132  1  0.31748882  0.06427002  0.56352140  1
  Zn  Zn133  1  0.31537386  0.56184786  0.06415717  1
  Zn  Zn134  1  0.31293710  0.56118697  0.56455423  1
  Zn  Zn135  1  0.81641665  0.06883531  0.06187806  1
  Zn  Zn136  1  0.82100735  0.05858917  0.56567654  1
  Zn  Zn137  1  0.81133418  0.56646546  0.05942312  1
  Zn  Zn138  1  0.81549230  0.55878584  0.56450265  1
  Zn  Zn139  1  0.43582063  0.43062832  0.18964541  1
  Zn  Zn140  1  0.43289012  0.43676361  0.68919379  1
  Zn  Zn141  1  0.43396933  0.93285846  0.19002012  1
  Zn  Zn142  1  0.43997533  0.94228487  0.68677122  1
  Zn  Zn143  1  0.93119659  0.44636266  0.17899688  1
  Zn  Zn144  1  0.93715973  0.43901865  0.68931081  1
  Zn  Zn145  1  0.92886937  0.94193415  0.18405410  1
  Zn  Zn146  1  0.93993006  0.93534294  0.68733516  1
  Zn  Zn147  1  0.05878359  0.06673720  0.30911781  1
  Zn  Zn148  1  0.06439542  0.05833096  0.80696672  1
  Zn  Zn149  1  0.06274873  0.56410817  0.31092272  1
  Zn  Zn150  1  0.06552358  0.56534885  0.81561820  1
  Zn  Zn151  1  0.55671045  0.06146173  0.30696425  1
  Zn  Zn152  1  0.56583641  0.05652847  0.81550053  1
  Zn  Zn153  1  0.56575526  0.56397653  0.30988175  1
  Zn  Zn154  1  0.56168327  0.55898685  0.81753228  1
  Zn  Zn155  1  0.43528876  0.18972370  0.43409716  1
  Zn  Zn156  1  0.43525498  0.18479424  0.94257077  1
  Zn  Zn157  1  0.43822198  0.68525209  0.43862263  1
  Zn  Zn158  1  0.43614869  0.69542514  0.93736281  1
  Zn  Zn159  1  0.93155742  0.18203084  0.44288107  1
  Zn  Zn160  1  1.06094146  0.18749334  0.93864792  1
  Zn  Zn161  1  0.93578028  0.68470357  0.43658169  1
  Zn  Zn162  1  0.93511302  0.68725296  0.93655255  1
  Zn  Zn163  1  0.05974585  0.32012952  0.06713868  1
  Zn  Zn164  1  0.06440460  0.31749672  0.56329602  1
  Zn  Zn165  1  0.05981726  0.81388281  0.05970532  1
  Zn  Zn166  1  0.06264250  0.80983580  0.56326294  1
  Zn  Zn167  1  0.55786469  0.30713851  0.06333364  1
  Zn  Zn168  1  0.55884178  0.31801781  0.56119195  1
  Zn  Zn169  1  0.56399758  0.80235079  0.06471905  1
  Zn  Zn170  1  0.56455079  0.81333553  0.56254665  1
  O  O171  1  0.10974816  0.12621238  0.13411168  1
  O  O172  1  0.11821680  0.11469495  0.62854003  1
  O  O173  1  0.11764751  0.62273435  0.11862716  1
  O  O174  1  0.11829673  0.62309809  0.61760120  1
  O  O175  1  0.61354243  0.12820536  0.11733308  1
  O  O176  1  0.64290274  0.13585086  0.61419829  1
  O  O177  1  0.60806852  0.62375079  0.12006986  1
  O  O178  1  0.61616971  0.61876308  0.62551918  1
  O  O179  1  0.38185222  0.38267429  0.38085908  1
  O  O180  1  0.37814649  0.37962993  0.88184831  1
  O  O181  1  0.38099509  0.88442007  0.37992911  1
  O  O182  1  0.38953577  0.87888654  0.87723110  1
  O  O183  1  0.88155791  0.35723541  0.36697759  1
  O  O184  1  0.88974520  0.37304428  0.88371357  1
  O  O185  1  0.87980908  0.88127137  0.37717051  1
  O  O186  1  0.88409578  0.88241393  0.87040133  1
  O  O187  1  0.25557163  0.00458832  0.37002388  1
  O  O188  1  0.25141866  0.00059999  0.85901470  1
  O  O189  1  0.25686116  0.50343794  0.36843034  1
  O  O190  1  0.26404783  0.49705053  0.86780626  1
  O  O191  1  0.76093664  -0.00348823  0.37190368  1
  O  O192  1  0.76034261  0.00099551  0.86040203  1
  O  O193  1  0.74529501  0.50931404  0.36509713  1
  O  O194  1  0.74304141  0.50629767  0.86529615  1
  O  O195  1  0.24498752  0.49483590  0.13310352  1
  O  O196  1  0.25164732  0.49693289  0.63639534  1
  O  O197  1  0.24526270  0.99550930  0.13372081  1
  O  O198  1  0.24522768  0.99979047  0.63197191  1
  O  O199  1  0.74873278  0.51093571  0.13784117  1
  O  O200  1  0.74433882  0.49458023  0.63337768  1
  O  O201  1  0.76792524  1.00119667  0.13644327  1
  O  O202  1  0.75183501  0.99300884  0.63232288  1
  O  O203  1  0.00428446  0.38118072  0.24800805  1
  O  O204  1  -0.00083948  0.36607015  0.75717379  1
  O  O205  1  0.00567012  0.87350304  0.25292253  1
  O  O206  1  0.01276631  0.87369023  0.75569514  1
  O  O207  1  0.49821032  0.36208059  0.25795312  1
  O  O208  1  0.49791533  0.37648179  0.76375185  1
  O  O209  1  0.50539027  0.87049303  0.26107860  1
  O  O210  1  0.51031117  0.87289339  0.74406314  1
  O  O211  1  0.50144765  0.13804745  0.24097394  1
  O  O212  1  0.48875964  0.11976886  0.75131093  1
  O  O213  1  0.50108026  0.63437176  0.24357004  1
  O  O214  1  0.49228613  0.62565391  0.74177150  1
  O  O215  1  0.98786113  0.12249164  0.23461136  1
  O  O216  1  0.99557832  0.12999058  0.73953175  1
  O  O217  1  0.99156413  0.62909226  0.24358539  1
  O  O218  1  0.99238454  0.62224548  0.74430442  1
  O  O219  1  0.36177278  0.25553733  0.00884306  1
  O  O220  1  0.37357667  0.25553078  0.50756159  1
  O  O221  1  0.37491788  0.75920039  0.01388219  1
  O  O222  1  0.37163247  0.75460469  0.50644030  1
  O  O223  1  0.86600993  0.26002998  0.00835929  1
  O  O224  1  0.88013218  0.25474668  0.51491369  1
  O  O225  1  0.87838333  0.74845866  0.01692665  1
  O  O226  1  0.86498532  0.75540279  0.50015107  1
  O  O227  1  0.12635904  0.25950215  0.48390251  1
  O  O228  1  0.13437506  0.25641725  1.00452244  1
  O  O229  1  0.13157976  0.74403744  0.49322471  1
  O  O230  1  0.12114577  0.74303442  0.99112679  1
  O  O231  1  0.62271064  0.24606440  0.49187694  1
  O  O232  1  0.63198333  0.24051484  0.99223752  1
  O  O233  1  0.63804652  0.74743385  0.49978675  1
  O  O234  1  0.63026643  0.72966249  1.00795083  1
  O  O235  1  0.49016867  0.24533137  0.13191714  1
  O  O236  1  0.48546696  0.25391611  0.62219506  1
  O  O237  1  0.48878765  0.74271695  0.13328181  1
  O  O238  1  0.49079635  0.74204257  0.62335957  1
  O  O239  1  0.99361838  0.24160301  0.12108937  1
  O  O240  1  0.99518346  0.24371293  0.62967317  1
  O  O241  1  0.99875771  0.74364403  0.13180455  1
  O  O242  1  0.99952610  0.73536278  0.62555022  1
  O  O243  1  0.00487488  0.24385160  0.37320504  1
  O  O244  1  0.00102691  0.25756745  0.86562803  1
  O  O245  1  0.00410138  0.75637749  0.36841743  1
  O  O246  1  0.00244078  0.76214666  0.87390386  1
  O  O247  1  0.50538338  0.25508634  0.36792179  1
  O  O248  1  0.50489084  0.25703737  0.88246638  1
  O  O249  1  0.49757176  0.75671209  0.37001169  1
  O  O250  1  0.49748819  0.76786825  0.87153162  1
  O  O251  1  0.25236102  0.12209594  0.48607078  1
  O  O252  1  0.24783534  0.14168755  1.00074119  1
  O  O253  1  0.24603651  0.62907200  0.49342039  1
  O  O254  1  0.23616358  0.62204298  1.00611874  1
  O  O255  1  0.75637924  0.12946834  0.49882738  1
  O  O256  1  0.74482658  0.13466850  0.99765040  1
  O  O257  1  0.75212086  0.62918136  0.49388181  1
  O  O258  1  0.75132641  0.62733359  0.98316534  1
  O  O259  1  0.25343262  0.36590739  0.00644878  1
  O  O260  1  0.26310345  0.37565108  0.49758234  1
  O  O261  1  0.24151604  0.87793244  0.01560164  1
  O  O262  1  0.25846905  0.86711222  0.50089561  1
  O  O263  1  0.76493008  0.36933409  -0.01235737  1
  O  O264  1  0.75695367  0.38350409  0.51363848  1
  O  O265  1  0.75376475  0.87541409  -0.00394482  1
  O  O266  1  0.75387458  0.86845830  0.50419967  1
  O  O267  1  0.13067959  0.49519296  0.24540223  1
  O  O268  1  0.14068954  0.50588682  0.75203760  1
  O  O269  1  0.12950166  0.99272184  0.24873157  1
  O  O270  1  0.13169387  0.99112446  0.73728974  1
  O  O271  1  0.63636114  0.50147846  0.24351834  1
  O  O272  1  0.63144012  0.49624561  0.74544460  1
  O  O273  1  0.62550174  0.98358546  0.25753704  1
  O  O274  1  0.63607092  0.99557099  0.74188346  1
  O  O275  1  0.36376012  -0.00701177  0.26120793  1
  O  O276  1  0.36917164  0.01333957  0.74638034  1
  O  O277  1  0.36406749  0.49204459  0.25917105  1
  O  O278  1  0.36795838  0.50842380  0.75711058  1
  O  O279  1  0.87547784  0.01032586  0.26006060  1
  O  O280  1  0.87208381  0.00446690  0.75391641  1
  O  O281  1  0.86496299  0.51440863  0.24443085  1
  O  O282  1  0.86527424  0.51164462  0.74674975  1
  O  O283  1  0.12671308  0.37103806  0.36350854  1
  O  O284  1  0.11065388  0.38228003  0.87251127  1
  O  O285  1  0.12120519  0.87047731  0.36472472  1
  O  O286  1  0.11973281  0.87013066  0.86815438  1
  O  O287  1  0.61286908  0.36829797  0.38220592  1
  O  O288  1  0.61053222  0.36830542  0.88196432  1
  O  O289  1  0.61503055  0.86939392  0.36882211  1
  O  O290  1  0.61271757  0.87797904  0.86057987  1
  O  O291  1  0.38103111  0.13623719  0.12147569  1
  O  O292  1  0.37463368  0.13624981  0.63437649  1
  O  O293  1  0.38026950  0.63435439  0.12283708  1
  O  O294  1  0.38256897  0.63129150  0.63134088  1
  O  O295  1  0.88406592  0.14103367  0.12981260  1
  O  O296  1  0.88327914  0.13070032  0.63424920  1
  O  O297  1  0.87980405  0.63569865  0.13050618  1
  O  O298  1  0.88249740  0.62536267  0.63253158  1
  O  O299  1  0.25322250  0.25360568  0.12163015  1
  O  O300  1  0.26204519  0.25236336  0.62040174  1
  O  O301  1  0.25899555  0.76095097  0.13668783  1
  O  O302  1  0.26267802  0.74896388  0.61894437  1
  O  O303  1  0.75736942  0.24995447  0.11201986  1
  O  O304  1  0.75137879  0.25284862  0.61767132  1
  O  O305  1  0.75965604  0.74576055  0.13082078  1
  O  O306  1  0.75299122  0.75623524  0.61637087  1
  O  O307  1  0.24393189  0.24048699  0.37541970  1
  O  O308  1  0.25036469  0.25119482  0.89044336  1
  O  O309  1  0.24797373  0.74476846  0.37692447  1
  O  O310  1  0.24229846  0.75730378  0.87366414  1
  O  O311  1  0.72994981  0.24973590  0.38048916  1
  O  O312  1  0.74470919  0.24829086  0.88599421  1
  O  O313  1  0.74853551  0.73918284  0.38267278  1
  O  O314  1  0.74701822  0.73892141  0.86787166  1
  O  O315  1  -0.00004875  0.12051952  0.01445468  1
  O  O316  1  -0.00338430  0.11710670  0.51386483  1
  O  O317  1  0.00430449  0.61944883  0.00316071  1
  O  O318  1  0.00315297  0.61813134  0.50621554  1
  O  O319  1  0.50882391  0.12742473  0.01204104  1
  O  O320  1  0.49608411  0.11217303  0.49480131  1
  O  O321  1  0.50325894  0.62976575  0.00722037  1
  O  O322  1  0.49937598  0.61793401  0.51226570  1
  O  O323  1  0.48878110  0.38050230  0.49111658  1
  O  O324  1  0.48065330  0.36735213  0.99196913  1
  O  O325  1  0.49681996  0.87804535  0.48925435  1
  O  O326  1  0.50666628  0.87312504  0.99123487  1
  O  O327  1  0.99668752  0.39030727  0.50199166  1
  O  O328  1  0.99441008  0.38364870  0.99393904  1
  O  O329  1  0.99482180  0.87842852  0.49435875  1
  O  O330  1  0.99240447  0.88339246  0.99207639  1
  O  O331  1  0.49496694  0.49340551  0.37562274  1
  O  O332  1  0.48529741  0.49088161  0.87421027  1
  O  O333  1  0.49266631  0.99409742  0.38076274  1
  O  O334  1  0.49817303  0.98167654  0.86769767  1
  O  O335  1  1.00139155  0.50606902  0.38836948  1
  O  O336  1  1.00084703  0.49733666  0.88579407  1
  O  O337  1  0.99612007  0.99444121  0.38052184  1
  O  O338  1  0.99489899  0.98974723  0.87684933  1
  O  O339  1  -0.00377799  0.01109436  0.11563377  1
  O  O340  1  0.00796210  0.00578809  0.62056295  1
  O  O341  1  0.00618823  0.51014415  0.11568638  1
  O  O342  1  0.00154724  0.51028541  0.61914383  1
  O  O343  1  0.49292270  0.01380364  0.13554579  1
  O  O344  1  0.50336631  0.00008695  0.60796107  1
  O  O345  1  0.49291591  0.51190779  0.13276528  1
  O  O346  1  0.50273866  0.50572577  0.62296272  1
  O  O347  1  0.24162516  0.38391141  0.24643596  1
  O  O348  1  0.25063406  0.38450729  0.75119776  1
  O  O349  1  0.24006380  0.88564405  0.24558445  1
  O  O350  1  0.24200675  0.88184907  0.74666034  1
  O  O351  1  0.75285894  0.39350357  0.24476098  1
  O  O352  1  0.75037423  0.38165388  0.74267522  1
  O  O353  1  0.73142210  0.86952914  0.25649654  1
  O  O354  1  0.74645610  0.88024652  0.74154634  1
  O  O355  1  0.24550364  0.11234060  0.25935746  1
  O  O356  1  0.25851468  0.11864939  0.75177901  1
  O  O357  1  0.24409659  0.61211117  0.25524579  1
  O  O358  1  0.26406491  0.61976936  0.74606885  1
  O  O359  1  0.76594817  0.13312152  0.24566323  1
  O  O360  1  0.76067395  0.11590150  0.75169410  1
  O  O361  1  0.75375030  0.62190221  0.25784955  1
  O  O362  1  0.75459599  0.61800018  0.75802351  1
  O  O363  1  0.36786738  0.11337769  0.37584615  1
  O  O364  1  0.37225719  0.12679029  0.86192477  1
  O  O365  1  0.37146990  0.60941104  0.37998834  1
  O  O366  1  0.38126604  0.61929578  0.86775401  1
  O  O367  1  0.88145208  0.11554227  0.36550767  1
  O  O368  1  0.87780778  0.11489254  0.85917454  1
  O  O369  1  0.86531186  0.63017786  0.36353874  1
  O  O370  1  0.86160269  0.62835883  0.86798392  1
  O  O371  1  0.12908163  0.38203126  0.13665746  1
  O  O372  1  0.12919663  0.37946298  0.63277903  1
  O  O373  1  0.12779202  0.87549098  0.13574907  1
  O  O374  1  0.12704056  0.87905302  0.63254083  1
  O  O375  1  0.63008997  0.38731194  0.08063924  1
  O  O376  1  0.63236747  0.37864849  0.62799419  1
  O  O377  1  0.61952471  0.87302595  0.13991409  1
  O  O378  1  0.63798064  0.87930062  0.62633769  1
  O  O379  1  0.12392348  0.26176042  0.26200695  1
  O  O380  1  0.11380687  0.24856533  0.74406610  1
  O  O381  1  0.11860946  0.75729296  0.25527186  1
  O  O382  1  0.12523480  0.75651940  0.75688485  1
  O  O383  1  0.61843290  0.24922082  0.26080811  1
  O  O384  1  0.62723189  0.25574687  0.77131836  1
  O  O385  1  0.61064105  0.75923495  0.25144177  1
  O  O386  1  0.62465864  0.76316311  0.73977351  1
  O  O387  1  0.38104058  0.25448480  0.24015564  1
  O  O388  1  0.37341624  0.23845106  0.74046748  1
  O  O389  1  0.38619093  0.75726731  0.24309554  1
  O  O390  1  0.37712947  0.74392596  0.74215994  1
  O  O391  1  0.87982146  0.25165715  0.24707133  1
  O  O392  1  0.88083322  0.24228979  0.74133302  1
  O  O393  1  0.87909164  0.74201064  0.24123524  1
  O  O394  1  0.87863183  0.73646663  0.74643061  1
  O  O395  1  0.38034741  0.49254726  0.49389382  1
  O  O396  1  0.36680213  0.48882659  0.99295151  1
  O  O397  1  0.38404547  0.99425230  0.49415935  1
  O  O398  1  0.36659912  0.99458845  0.99487548  1
  O  O399  1  0.88811551  0.49772552  0.49903779  1
  O  O400  1  0.88478887  0.49231792  1.00837058  1
  O  O401  1  0.88214287  0.99297127  0.49213793  1
  O  O402  1  0.88466596  1.00461747  0.98410227  1
  O  O403  1  0.10988564  -0.00513261  0.00214994  1
  O  O404  1  0.12227332  -0.00861427  0.51216981  1
  O  O405  1  0.11830998  0.50724647  0.00477235  1
  O  O406  1  0.11558692  0.50708127  0.50064680  1
  O  O407  1  0.63669006  0.01097479  -0.00403310  1
  O  O408  1  0.61145708  -0.00004245  0.49928677  1
  O  O409  1  0.63210004  0.52867037  0.00526954  1
  O  O410  1  0.61677793  0.50046522  0.50910548  1
  O  O411  1  0.36781600  0.36621344  0.11830000  1
  O  O412  1  0.37424369  0.36546335  0.61736333  1
  O  O413  1  0.36440117  0.86805284  0.12575013  1
  O  O414  1  0.37584842  0.86685631  0.61970860  1
  O  O415  1  0.88347363  0.36460506  0.11463336  1
  O  O416  1  0.86677104  0.36582301  0.62965566  1
  O  O417  1  0.87644178  0.85811386  0.12651919  1
  O  O418  1  0.86554754  0.87355713  0.61922959  1
  O  O419  1  0.13178674  0.13418896  0.36977790  1
  O  O420  1  0.12368895  0.12130962  0.87471083  1
  O  O421  1  0.13175068  0.63150642  0.38004386  1
  O  O422  1  0.12212662  0.63843049  0.88423423  1
  O  O423  1  0.62084189  0.13426916  0.37191508  1
  O  O424  1  0.62506813  0.13018329  0.88241221  1
  O  O425  1  0.63361755  0.62744415  0.37957286  1
  O  O426  1  0.63035425  0.62720195  0.88319502  1
