# generated using pymatgen
data_V85Zn86O256
_symmetry_space_group_name_H-M   'P 1'
_cell_length_a   16.92338081
_cell_length_b   16.92285897
_cell_length_c   16.92095042
_cell_angle_alpha   89.93954877
_cell_angle_beta   90.03221267
_cell_angle_gamma   90.01576394
_symmetry_Int_Tables_number   1
_chemical_formula_structural   V85Zn86O256
_chemical_formula_sum   'V85 Zn86 O256'
_cell_volume   4846.02096391
_cell_formula_units_Z   1
loop_
 _symmetry_equiv_pos_site_id
 _symmetry_equiv_pos_as_xyz
  1  'x, y, z'
loop_
 _atom_site_type_symbol
 _atom_site_label
 _atom_site_symmetry_multiplicity
 _atom_site_fract_x
 _atom_site_fract_y
 _atom_site_fract_z
 _atom_site_occupancy
  V  V0  1  0.74507496  0.62004391  0.37775331  1
  V  V1  1  0.62747252  0.37457271  0.24521000  1
  V  V2  1  0.87891680  0.75233098  0.13037802  1
  V  V3  1  0.00146604  0.87775393  0.87782203  1
  V  V4  1  0.76615876  0.12445457  0.87285461  1
  V  V5  1  0.12599124  0.25766687  0.38117893  1
  V  V6  1  0.62521978  0.50080034  0.12343731  1
  V  V7  1  0.87805833  0.50426708  0.87210388  1
  V  V8  1  0.88226405  0.12722806  0.25400332  1
  V  V9  1  0.12427865  0.49744255  0.12437925  1
  V  V10  1  0.49715915  0.12338647  0.12007092  1
  V  V11  1  0.25595888  -0.00590336  0.75569101  1
  V  V12  1  0.87893022  0.49457179  0.37307860  1
  V  V13  1  0.25867015  0.37639653  0.11754805  1
  V  V14  1  0.62766690  0.25049354  0.87427214  1
  V  V15  1  0.75138239  0.49768160  0.24365090  1
  V  V16  1  0.25141498  0.49990400  0.25376217  1
  V  V17  1  0.12642172  0.64095027  -0.00009996  1
  V  V18  1  -0.00402277  0.62219011  0.63160047  1
  V  V19  1  0.87606881  0.74577505  0.63291562  1
  V  V20  1  0.25421233  0.87691176  0.12314824  1
  V  V21  1  0.62674072  0.75102122  0.87249900  1
  V  V22  1  0.62523439  0.37691344  0.75047288  1
  V  V23  1  0.12429234  0.62328476  0.50124029  1
  V  V24  1  0.13043280  0.25381979  0.86983688  1
  V  V25  1  0.00359785  -0.00172642  0.49747830  1
  V  V26  1  0.36624579  0.11910539  0.24480948  1
  V  V27  1  0.00102653  0.62956735  0.13381170  1
  V  V28  1  0.25529671  0.11701484  0.87887720  1
  V  V29  1  -0.00437158  0.12194725  0.63393841  1
  V  V30  1  0.49699782  0.25107268  0.24828016  1
  V  V31  1  0.12039460  0.89962465  0.24292977  1
  V  V32  1  0.74353058  0.23473781  0.49574672  1
  V  V33  1  0.12238816  0.12207430  0.01181762  1
  V  V34  1  0.63558727  0.00471330  0.12210196  1
  V  V35  1  0.75208758  0.25198720  0.00503202  1
  V  V36  1  0.50049206  0.37338015  0.37503380  1
  V  V37  1  0.49823615  0.24743935  0.74768770  1
  V  V38  1  0.50131296  0.12537633  0.61484691  1
  V  V39  1  0.75634064  0.50071474  0.74806633  1
  V  V40  1  0.88125140  0.25397836  0.12729355  1
  V  V41  1  0.37303770  0.87612191  0.49910103  1
  V  V42  1  0.49357180  0.86970072  0.37189852  1
  V  V43  1  0.12846949  0.86487860  0.75849506  1
  V  V44  1  0.75397948  0.62571889  0.87155668  1
  V  V45  1  -0.00588450  0.25329590  0.75218754  1
  V  V46  1  0.37218823  0.49760206  0.87806205  1
  V  V47  1  0.24330052  0.36477783  0.62630776  1
  V  V48  1  0.74880104  0.74429133  0.49847924  1
  V  V49  1  0.62891165  0.12608276  -0.00376781  1
  V  V50  1  0.88211868  0.86987149  0.49161945  1
  V  V51  1  0.49623909  0.74871817  0.23187680  1
  V  V52  1  0.76430276  0.00655091  0.75065426  1
  V  V53  1  0.87608227  0.00265610  0.37247963  1
  V  V54  1  0.24989994  0.12395724  0.37584045  1
  V  V55  1  0.62698708  0.50373653  0.62211826  1
  V  V56  1  0.70429923  0.06131369  0.31007614  1
  V  V57  1  0.75363930  0.87397437  0.62328718  1
  V  V58  1  0.24642883  0.75034028  0.49521918  1
  V  V59  1  0.37422224  0.62241779  0.74941520  1
  V  V60  1  0.62747206  0.00472698  0.61700660  1
  V  V61  1  0.62496722  0.87558814  0.24967337  1
  V  V62  1  0.87344234  0.88487099  -0.00372098  1
  V  V63  1  0.00065910  0.26224382  0.25605171  1
  V  V64  1  0.00065228  0.50145072  0.00060606  1
  V  V65  1  0.37387508  0.74774938  0.62547916  1
  V  V66  1  0.24435966  0.63443036  0.87802349  1
  V  V67  1  0.49651543  0.37400136  0.88073295  1
  V  V68  1  0.10755535  0.75743983  0.36684000  1
  V  V69  1  0.37787996  0.62889969  0.23879011  1
  V  V70  1  0.87205013  0.36946457  0.50007665  1
  V  V71  1  0.50447576  0.50078349  0.49835255  1
  V  V72  1  0.24132016  0.49539086  0.74801187  1
  V  V73  1  0.62190261  0.62640328  0.00442871  1
  V  V74  1  0.63115750  0.87628675  0.74702341  1
  V  V75  1  0.24762360  0.87429750  0.62862884  1
  V  V76  1  0.87296842  0.37821511  0.00315076  1
  V  V77  1  0.50184930  0.62430285  0.61967161  1
  V  V78  1  0.13084885  0.12879729  0.50366526  1
  V  V79  1  0.00080013  0.49131575  0.49817228  1
  V  V80  1  0.49493673  0.50357163  0.00391227  1
  V  V81  1  0.62195125  0.74335013  0.37744524  1
  V  V82  1  0.75165471  0.87505286  0.12948969  1
  V  V83  1  0.37385573  0.36765434  0.50258193  1
  V  V84  1  0.49975099  0.88599775  0.87102171  1
  Zn  Zn85  1  0.37679483  0.25368602  0.11621689  1
  Zn  Zn86  1  0.12421300  0.37847329  0.25618858  1
  Zn  Zn87  1  0.37795467  0.11779036  0.75176647  1
  Zn  Zn88  1  0.37512598  0.50308040  0.37654446  1
  Zn  Zn89  1  0.86928289  0.24454118  0.62891929  1
  Zn  Zn90  1  0.25081811  0.62546865  0.37469597  1
  Zn  Zn91  1  0.37005980  0.24381260  0.62239443  1
  Zn  Zn92  1  0.87819600  0.63023151  0.25451659  1
  Zn  Zn93  1  0.12473898  -0.00145649  0.62914956  1
  Zn  Zn94  1  0.75166346  0.74934710  0.00127224  1
  Zn  Zn95  1  0.36374264  -0.00740206  0.36851982  1
  Zn  Zn96  1  0.74880175  0.37092349  0.62322919  1
  Zn  Zn97  1  0.00017606  0.74283028  0.76244796  1
  Zn  Zn98  1  0.00377948  0.00473665  0.00892926  1
  Zn  Zn99  1  0.49364861  0.00372230  -0.00958981  1
  Zn  Zn100  1  0.12198183  0.49448593  0.62806976  1
  Zn  Zn101  1  0.36862029  0.87027963  0.00629416  1
  Zn  Zn102  1  0.50123081  0.00102326  0.49713477  1
  Zn  Zn103  1  0.50295404  0.74874039  0.74689057  1
  Zn  Zn104  1  0.00748256  0.37904193  0.87099508  1
  Zn  Zn105  1  0.62589451  0.23334119  0.37561104  1
  Zn  Zn106  1  0.25475671  0.25147175  -0.00299860  1
  Zn  Zn107  1  0.18581116  0.19155887  0.19110203  1
  Zn  Zn108  1  0.18379566  0.18255349  0.69373084  1
  Zn  Zn109  1  0.18838766  0.68811231  0.18760873  1
  Zn  Zn110  1  0.18705270  0.68598106  0.68771801  1
  Zn  Zn111  1  0.68777528  0.19607135  0.18137036  1
  Zn  Zn112  1  0.68798114  0.18615949  0.68541600  1
  Zn  Zn113  1  0.68834273  0.68787201  0.18995160  1
  Zn  Zn114  1  0.69025059  0.68442701  0.68722173  1
  Zn  Zn115  1  0.31087966  0.31032369  0.31216905  1
  Zn  Zn116  1  0.31374723  0.31174337  0.81117743  1
  Zn  Zn117  1  0.30285618  0.80956258  0.30210034  1
  Zn  Zn118  1  0.32668477  0.79980728  0.84050458  1
  Zn  Zn119  1  0.80901504  0.31192169  0.31751472  1
  Zn  Zn120  1  0.81544708  0.31577302  0.81535399  1
  Zn  Zn121  1  0.81289429  0.81302360  0.31137611  1
  Zn  Zn122  1  0.81570756  0.81488990  0.81383910  1
  Zn  Zn123  1  0.19089025  0.43682068  0.44214434  1
  Zn  Zn124  1  0.18613456  0.44147269  0.93755755  1
  Zn  Zn125  1  0.18321846  0.93716255  0.43169709  1
  Zn  Zn126  1  0.18430706  0.93739323  0.94269218  1
  Zn  Zn127  1  0.68726463  0.43220372  0.43511541  1
  Zn  Zn128  1  0.68823876  0.43809247  0.93745043  1
  Zn  Zn129  1  0.68574419  0.92680295  0.44075366  1
  Zn  Zn130  1  0.69358279  0.94161863  0.93823172  1
  Zn  Zn131  1  0.30893069  0.04948194  0.06049528  1
  Zn  Zn132  1  0.31195312  0.06044518  0.56534286  1
  Zn  Zn133  1  0.30946678  0.56581301  0.06109462  1
  Zn  Zn134  1  0.31286207  0.55657984  0.56192030  1
  Zn  Zn135  1  0.84316991  0.04908256  0.08435741  1
  Zn  Zn136  1  0.81695459  0.06027214  0.56226092  1
  Zn  Zn137  1  0.81253374  0.56645194  0.06211299  1
  Zn  Zn138  1  0.81424376  0.56148594  0.55990388  1
  Zn  Zn139  1  0.43736812  0.44303350  0.18735764  1
  Zn  Zn140  1  0.43484013  0.43495702  0.68807511  1
  Zn  Zn141  1  0.43050593  0.93970978  0.17664256  1
  Zn  Zn142  1  0.43951094  0.93690578  0.68780664  1
  Zn  Zn143  1  0.93703404  0.43617396  0.18625197  1
  Zn  Zn144  1  0.93747909  0.43184022  0.68552017  1
  Zn  Zn145  1  0.94845632  0.93899623  0.18952464  1
  Zn  Zn146  1  0.94234907  0.93196664  0.68628355  1
  Zn  Zn147  1  0.05817338  0.07140801  0.31716761  1
  Zn  Zn148  1  0.06690006  0.05896741  0.81756554  1
  Zn  Zn149  1  0.06456649  0.56381817  0.31578051  1
  Zn  Zn150  1  0.06419589  0.56463086  0.81402502  1
  Zn  Zn151  1  0.53837930  0.05481591  0.30567791  1
  Zn  Zn152  1  0.57404990  0.06577246  0.80372915  1
  Zn  Zn153  1  0.55930847  0.56359263  0.30952638  1
  Zn  Zn154  1  0.56310064  0.56293383  0.81238502  1
  Zn  Zn155  1  0.43535073  0.18699956  0.43442626  1
  Zn  Zn156  1  0.43240607  0.18904978  0.93952232  1
  Zn  Zn157  1  0.43311301  0.68584651  0.43353790  1
  Zn  Zn158  1  0.43847751  0.69180708  0.94046556  1
  Zn  Zn159  1  0.93986879  0.18528285  0.43840416  1
  Zn  Zn160  1  0.94258363  0.18969391  0.93895572  1
  Zn  Zn161  1  0.93585195  0.67958688  0.44171002  1
  Zn  Zn162  1  0.93999446  0.69339709  0.94481108  1
  Zn  Zn163  1  0.06419365  0.30980054  0.06049283  1
  Zn  Zn164  1  0.06068435  0.30916647  0.56503304  1
  Zn  Zn165  1  0.06339857  0.81974848  0.07079714  1
  Zn  Zn166  1  0.06248591  0.81098928  0.56585692  1
  Zn  Zn167  1  0.56190014  0.31427842  0.06173916  1
  Zn  Zn168  1  0.56670685  0.31193119  0.56190988  1
  Zn  Zn169  1  0.56620707  0.81771701  0.05628047  1
  Zn  Zn170  1  0.56267428  0.81172868  0.56046472  1
  O  O171  1  0.12992780  0.13492149  0.11044913  1
  O  O172  1  0.11726961  0.12228330  0.61930996  1
  O  O173  1  0.12069227  0.61581782  0.12087432  1
  O  O174  1  0.11778484  0.62306597  0.61444286  1
  O  O175  1  0.62215579  0.12147447  0.11828027  1
  O  O176  1  0.61651322  0.11456095  0.62810343  1
  O  O177  1  0.63085046  0.62057557  0.11114943  1
  O  O178  1  0.61769187  0.61287096  0.62848666  1
  O  O179  1  0.38546142  0.37572903  0.38005865  1
  O  O180  1  0.38282726  0.38820608  0.86790544  1
  O  O181  1  0.37721750  0.87054330  0.37938527  1
  O  O182  1  0.40267391  0.88605705  0.84717316  1
  O  O183  1  0.87037643  0.38635477  0.38521359  1
  O  O184  1  0.87898598  0.38920181  0.88176254  1
  O  O185  1  0.87031438  0.88109244  0.38495800  1
  O  O186  1  0.88471148  0.87030902  0.88467325  1
  O  O187  1  0.24864706  0.01642596  0.37911143  1
  O  O188  1  0.24459568  0.00669439  0.86944140  1
  O  O189  1  0.25175643  0.50134569  0.36726035  1
  O  O190  1  0.25693453  0.50232614  0.86692328  1
  O  O191  1  0.75450789  -0.00312027  0.37674494  1
  O  O192  1  0.74311368  0.01278160  0.86250176  1
  O  O193  1  0.75327097  0.50414484  0.36730236  1
  O  O194  1  0.75618966  0.50597041  0.86741813  1
  O  O195  1  0.24372007  0.49361062  0.13098416  1
  O  O196  1  0.24854067  0.49062377  0.63301406  1
  O  O197  1  0.25911565  0.98150396  0.13858389  1
  O  O198  1  0.24728313  0.98917840  0.63228221  1
  O  O199  1  0.74604712  0.50519243  0.13719676  1
  O  O200  1  0.74399957  0.50144443  0.63136281  1
  O  O201  1  0.74239456  0.99465576  0.12418620  1
  O  O202  1  0.74577836  0.99520728  0.62787654  1
  O  O203  1  0.00189928  0.36714422  0.25273418  1
  O  O204  1  0.00168290  0.35929145  0.75053868  1
  O  O205  1  0.01901662  0.87478613  0.24688504  1
  O  O206  1  0.00751075  0.87288574  0.76117464  1
  O  O207  1  0.50246841  0.36983565  0.25485447  1
  O  O208  1  0.50550626  0.37095527  0.75898913  1
  O  O209  1  0.50294534  0.86798184  0.25445731  1
  O  O210  1  0.51873476  0.87397434  0.74988326  1
  O  O211  1  0.49260609  0.13565833  0.24000816  1
  O  O212  1  0.50062143  0.13239379  0.74132499  1
  O  O213  1  0.48751420  0.63241957  0.24980240  1
  O  O214  1  0.49308712  0.62183783  0.73806357  1
  O  O215  1  0.98684931  0.13897757  0.25333385  1
  O  O216  1  1.00871236  0.13385499  0.74425135  1
  O  O217  1  0.99772066  0.61707929  0.23735796  1
  O  O218  1  1.00466260  0.62520345  0.73682818  1
  O  O219  1  0.36886132  0.25386788  0.00297988  1
  O  O220  1  0.38120167  0.26357186  0.50157619  1
  O  O221  1  0.36465341  0.77114294  -0.05000438  1
  O  O222  1  0.36619179  0.75713806  0.50300524  1
  O  O223  1  0.87307911  0.25734919  0.00710463  1
  O  O224  1  0.86652299  0.25533995  0.49849707  1
  O  O225  1  0.87060251  0.75875341  0.01304934  1
  O  O226  1  0.86965940  0.75463721  0.50386177  1
  O  O227  1  0.11909229  0.24022898  0.49451896  1
  O  O228  1  0.13047733  0.24353365  0.98830214  1
  O  O229  1  0.12981733  0.74416431  0.49528343  1
  O  O230  1  0.11834752  0.73939133  1.00653884  1
  O  O231  1  0.63779810  0.25061580  0.49600256  1
  O  O232  1  0.63405145  0.24936305  0.99478635  1
  O  O233  1  0.63138978  0.75458626  0.48565504  1
  O  O234  1  0.62785166  0.74281324  0.99051550  1
  O  O235  1  0.50167479  0.23987899  0.12961330  1
  O  O236  1  0.50292594  0.24277972  0.63146181  1
  O  O237  1  0.50732618  0.75514024  0.13294230  1
  O  O238  1  0.49529357  0.74064854  0.62502266  1
  O  O239  1  0.99185976  0.25665660  0.13640132  1
  O  O240  1  0.99981775  0.24262486  0.63880600  1
  O  O241  1  0.99204112  0.74134735  0.12192187  1
  O  O242  1  0.99083556  0.73952351  0.62328162  1
  O  O243  1  0.01077490  0.24606956  0.36864932  1
  O  O244  1  0.00942131  0.25157373  0.86565897  1
  O  O245  1  0.00947580  0.74574983  0.38354162  1
  O  O246  1  -0.00407074  0.76542658  0.87619957  1
  O  O247  1  0.50489461  0.25463289  0.36611413  1
  O  O248  1  0.50509684  0.25737509  0.86890570  1
  O  O249  1  0.50502136  0.75620176  0.37045501  1
  O  O250  1  0.51682171  0.75875332  0.86677874  1
  O  O251  1  0.23813557  0.12242837  0.49789707  1
  O  O252  1  0.24283699  0.12429991  0.99347182  1
  O  O253  1  0.24231962  0.63089141  0.50194691  1
  O  O254  1  0.24015458  0.62320230  0.99079466  1
  O  O255  1  0.75294722  0.13587960  0.50203723  1
  O  O256  1  0.74448373  0.13595559  0.99166327  1
  O  O257  1  0.75183413  0.62697686  0.48606748  1
  O  O258  1  0.74139377  0.62396781  0.98713799  1
  O  O259  1  0.24697992  0.37993062  0.01533018  1
  O  O260  1  0.26068768  0.38086383  0.51585135  1
  O  O261  1  0.24447209  0.87734391  0.01687597  1
  O  O262  1  0.25304344  0.86789930  0.50497539  1
  O  O263  1  0.76423914  0.36886087  -0.00903711  1
  O  O264  1  0.75736633  0.36880971  0.50160972  1
  O  O265  1  0.75105531  0.87121216  0.01168615  1
  O  O266  1  0.75950206  0.86485185  0.50566665  1
  O  O267  1  0.13334031  0.50060662  0.24444193  1
  O  O268  1  0.13742338  0.50063102  0.74970038  1
  O  O269  1  0.11880281  0.99880618  0.25562859  1
  O  O270  1  0.13555265  0.98616863  0.75009935  1
  O  O271  1  0.62943134  0.49512383  0.24378270  1
  O  O272  1  0.63516023  0.49688277  0.74468668  1
  O  O273  1  0.63272980  1.00040601  0.24746962  1
  O  O274  1  0.63632371  0.99194526  0.73605496  1
  O  O275  1  0.38967820  0.01535399  0.25419840  1
  O  O276  1  0.36029603  -0.00140721  0.74318075  1
  O  O277  1  0.37027736  0.51077093  0.25224546  1
  O  O278  1  0.36917888  0.50831241  0.75447256  1
  O  O279  1  0.87744889  0.00940965  0.26458235  1
  O  O280  1  0.86286841  -0.00610688  0.74221107  1
  O  O281  1  0.86723110  0.49848091  0.25673532  1
  O  O282  1  0.86477832  0.49466937  0.75591898  1
  O  O283  1  0.13229534  0.36220916  0.37763748  1
  O  O284  1  0.12649277  0.35952320  0.88074849  1
  O  O285  1  0.12352818  0.86324541  0.36657836  1
  O  O286  1  0.11430269  0.87442884  0.87139005  1
  O  O287  1  0.61218856  0.37598207  0.36366449  1
  O  O288  1  0.61830154  0.37121503  0.86945191  1
  O  O289  1  0.61660315  0.86624835  0.36741001  1
  O  O290  1  0.62775308  0.86860874  0.86540973  1
  O  O291  1  0.38231746  0.12575365  0.12927487  1
  O  O292  1  0.38421980  0.12639761  0.62836889  1
  O  O293  1  0.37144600  0.62352730  0.13889825  1
  O  O294  1  0.38079150  0.62702708  0.63012347  1
  O  O295  1  0.86224712  0.14751801  0.14039942  1
  O  O296  1  0.89134380  0.12686185  0.61993294  1
  O  O297  1  0.88330150  0.63275238  0.12570547  1
  O  O298  1  0.88333283  0.63274456  0.61842441  1
  O  O299  1  0.24827693  0.26974336  0.12863270  1
  O  O300  1  0.25054050  0.26101982  0.63411170  1
  O  O301  1  0.24108651  0.77272779  0.14025654  1
  O  O302  1  0.25464662  0.75326528  0.61480647  1
  O  O303  1  0.75457448  0.25626079  0.10985156  1
  O  O304  1  0.75059923  0.25068584  0.61353863  1
  O  O305  1  0.75415333  0.75761346  0.12389144  1
  O  O306  1  0.75684944  0.75043062  0.61843943  1
  O  O307  1  0.24093825  0.23828300  0.37169437  1
  O  O308  1  0.24200218  0.24401736  0.87152104  1
  O  O309  1  0.24146875  0.74874091  0.38713343  1
  O  O310  1  0.23706258  0.73082007  0.85523287  1
  O  O311  1  0.74397474  0.25005992  0.38903386  1
  O  O312  1  0.74734321  0.24640308  0.88161734  1
  O  O313  1  0.74215591  0.74056568  0.37592865  1
  O  O314  1  0.74363824  0.74282735  0.87413983  1
  O  O315  1  0.01777205  0.12750522  -0.00495585  1
  O  O316  1  0.00968793  0.11756475  0.50851042  1
  O  O317  1  0.00605458  0.61884989  0.01040988  1
  O  O318  1  0.00516972  0.61232483  0.50951029  1
  O  O319  1  0.50830403  0.12519052  0.00500398  1
  O  O320  1  0.49669543  0.12282809  0.50978597  1
  O  O321  1  0.50951883  0.61723572  -0.01018717  1
  O  O322  1  0.49392497  0.61694587  0.51094117  1
  O  O323  1  0.49738672  0.37979745  0.49276862  1
  O  O324  1  0.50538965  0.38399193  0.98663952  1
  O  O325  1  0.48883742  0.87032785  0.49146186  1
  O  O326  1  0.50537786  0.87600640  0.97850295  1
  O  O327  1  0.99283466  0.38460011  0.50567137  1
  O  O328  1  0.99017934  0.38163850  0.99771790  1
  O  O329  1  0.99200253  0.88345469  0.50646927  1
  O  O330  1  0.99195954  0.88020007  0.99551773  1
  O  O331  1  0.50022247  0.49284131  0.38259211  1
  O  O332  1  0.49376160  0.49447623  0.88088767  1
  O  O333  1  0.49498244  0.98102669  0.37931151  1
  O  O334  1  0.51754924  0.98885413  0.86991641  1
  O  O335  1  0.99063190  0.50448539  0.38436287  1
  O  O336  1  0.99319107  0.50006130  0.87909138  1
  O  O337  1  0.99076115  1.00662552  0.38928563  1
  O  O338  1  1.00147558  0.98455947  0.88016243  1
  O  O339  1  -0.04805015  0.01496961  0.11041936  1
  O  O340  1  0.00182640  0.00523385  0.61709844  1
  O  O341  1  0.00703399  0.50509716  0.12122340  1
  O  O342  1  0.00069881  0.50421365  0.61920730  1
  O  O343  1  0.51427530  0.01336585  0.12846717  1
  O  O344  1  0.50860197  0.00690585  0.62354311  1
  O  O345  1  0.50490381  0.49676441  0.10998376  1
  O  O346  1  0.50643115  0.50424940  0.61948198  1
  O  O347  1  0.25027278  0.38729338  0.24309729  1
  O  O348  1  0.25821436  0.38233725  0.73607215  1
  O  O349  1  0.22866031  0.87610661  0.25041222  1
  O  O350  1  0.24559337  0.87555970  0.74954233  1
  O  O351  1  0.73861687  0.38372073  0.25641391  1
  O  O352  1  0.74422399  0.38284796  0.74853344  1
  O  O353  1  0.74144098  0.87097585  0.23803444  1
  O  O354  1  0.74550250  0.88050745  0.74427506  1
  O  O355  1  0.25999778  0.13137950  0.25633535  1
  O  O356  1  0.24984011  0.11276340  0.75852768  1
  O  O357  1  0.25803027  0.61540303  0.25018649  1
  O  O358  1  0.25677616  0.61432975  0.75084322  1
  O  O359  1  0.75596968  0.13034841  0.25152105  1
  O  O360  1  0.74820884  0.11887430  0.75832592  1
  O  O361  1  0.75142316  0.61616727  0.26070824  1
  O  O362  1  0.74755984  0.61641744  0.76283199  1
  O  O363  1  0.36709127  0.12384061  0.36698308  1
  O  O364  1  0.35999700  0.12819209  0.87107391  1
  O  O365  1  0.37023955  0.62158455  0.36482196  1
  O  O366  1  0.36859838  0.61436257  0.86618039  1
  O  O367  1  0.87261199  0.11704180  0.36869335  1
  O  O368  1  0.86516558  0.13043302  0.87885176  1
  O  O369  1  0.86683124  0.61212614  0.37421572  1
  O  O370  1  0.86875909  0.61397084  0.88299347  1
  O  O371  1  0.13118283  0.38693191  0.12741700  1
  O  O372  1  0.13962825  0.37513796  0.62013854  1
  O  O373  1  0.12895471  0.88577981  0.13619578  1
  O  O374  1  0.13292627  0.87488809  0.63285157  1
  O  O375  1  0.61960015  0.38227018  0.13732383  1
  O  O376  1  0.62499011  0.38790421  0.63187143  1
  O  O377  1  0.62980804  0.88570779  0.12938788  1
  O  O378  1  0.63354947  0.87687750  0.62988918  1
  O  O379  1  0.11639246  0.25365651  0.25987532  1
  O  O380  1  0.11719852  0.24794968  0.76407973  1
  O  O381  1  0.12122939  0.73870584  0.26906981  1
  O  O382  1  0.12039606  0.76143930  0.74266400  1
  O  O383  1  0.61529330  0.25741688  0.25048537  1
  O  O384  1  0.61666733  0.25620010  0.75355592  1
  O  O385  1  0.61544944  0.75283230  0.25790730  1
  O  O386  1  0.62882468  0.75732644  0.75430614  1
  O  O387  1  0.38587627  0.24528877  0.24448967  1
  O  O388  1  0.39016265  0.24945164  0.74813826  1
  O  O389  1  0.38208221  0.73760767  0.25435749  1
  O  O390  1  0.37809023  0.73506525  0.74689605  1
  O  O391  1  0.88046872  0.25070553  0.24870062  1
  O  O392  1  0.88899197  0.25117054  0.75135802  1
  O  O393  1  0.87062277  0.74826623  0.23701257  1
  O  O394  1  0.87656673  0.75347931  0.73613975  1
  O  O395  1  0.38840477  0.48884207  0.50049401  1
  O  O396  1  0.38268348  0.50710928  0.99041030  1
  O  O397  1  0.37486102  0.98439506  0.49911548  1
  O  O398  1  0.38381077  0.98596882  1.00482785  1
  O  O399  1  0.88076115  0.49151450  0.49332595  1
  O  O400  1  0.87851928  0.49518190  0.99512198  1
  O  O401  1  0.88031581  0.99135514  0.49166905  1
  O  O402  1  0.85701164  0.98434698  0.98874858  1
  O  O403  1  0.12277366  0.01709707  0.00065013  1
  O  O404  1  0.11700971  0.00527800  0.50142433  1
  O  O405  1  0.11866584  0.50483021  0.00920019  1
  O  O406  1  0.11731259  0.50594539  0.50122622  1
  O  O407  1  0.62325670  0.00748600  0.00795857  1
  O  O408  1  0.62241311  -0.01044221  0.51296752  1
  O  O409  1  0.61935421  0.50667400  0.00266864  1
  O  O410  1  0.61384949  0.49399576  0.50702458  1
  O  O411  1  0.36155953  0.37877642  0.12842344  1
  O  O412  1  0.36843715  0.37063038  0.61853359  1
  O  O413  1  0.36483347  0.86473730  0.12685393  1
  O  O414  1  0.37049428  0.86611928  0.61872424  1
  O  O415  1  0.87411170  0.36718261  0.11678816  1
  O  O416  1  0.87140943  0.37028060  0.61246381  1
  O  O417  1  0.86662128  0.86952874  0.12083746  1
  O  O418  1  0.87188748  0.86586475  0.61444545  1
  O  O419  1  0.13083061  0.13396240  0.38392359  1
  O  O420  1  0.13618278  0.13521963  0.87993841  1
  O  O421  1  0.12588182  0.63188341  0.38906564  1
  O  O422  1  0.13235132  0.61694471  0.88862825  1
  O  O423  1  0.62815137  0.11316383  0.35996496  1
  O  O424  1  0.63063114  0.13501077  0.87906646  1
  O  O425  1  0.63037058  0.63224382  0.37061043  1
  O  O426  1  0.63167481  0.63196199  0.87975788  1
