# generated using pymatgen
data_V85Zn86O256
_symmetry_space_group_name_H-M   'P 1'
_cell_length_a   16.93956286
_cell_length_b   16.95047799
_cell_length_c   16.96125457
_cell_angle_alpha   90.02187214
_cell_angle_beta   89.99849127
_cell_angle_gamma   90.00008619
_symmetry_Int_Tables_number   1
_chemical_formula_structural   V85Zn86O256
_chemical_formula_sum   'V85 Zn86 O256'
_cell_volume   4870.14720953
_cell_formula_units_Z   1
loop_
 _symmetry_equiv_pos_site_id
 _symmetry_equiv_pos_as_xyz
  1  'x, y, z'
loop_
 _atom_site_type_symbol
 _atom_site_label
 _atom_site_symmetry_multiplicity
 _atom_site_fract_x
 _atom_site_fract_y
 _atom_site_fract_z
 _atom_site_occupancy
  V  V0  1  0.12719678  0.36728910  0.75045533  1
  V  V1  1  0.74860891  0.12262360  0.87450474  1
  V  V2  1  0.12706763  0.12980715  -0.00188639  1
  V  V3  1  0.12640068  -0.00066829  0.62383754  1
  V  V4  1  0.87532935  0.37514413  -0.00155037  1
  V  V5  1  0.74480827  0.87757675  0.62585383  1
  V  V6  1  0.25153347  0.74621639  0.49586266  1
  V  V7  1  0.25481916  0.25271707  -0.00462478  1
  V  V8  1  0.13872124  0.74475466  0.87735947  1
  V  V9  1  0.37105454  -0.00588202  0.87315728  1
  V  V10  1  0.74874556  0.49546580  0.24830517  1
  V  V11  1  0.75012398  0.74949382  0.49923034  1
  V  V12  1  0.49953260  0.62032313  0.62410015  1
  V  V13  1  0.87550618  0.50064058  0.87464552  1
  V  V14  1  0.13031109  -0.00271844  0.13722099  1
  V  V15  1  0.00261230  0.13177544  0.61972175  1
  V  V16  1  0.87319573  0.49020699  0.37834376  1
  V  V17  1  0.00277193  0.87252841  0.87566054  1
  V  V18  1  0.87613891  0.87718513  0.49643732  1
  V  V19  1  0.60956206  0.75070848  0.86913201  1
  V  V20  1  0.50122187  -0.00266898  -0.00261738  1
  V  V21  1  0.38319886  0.74977201  0.62865753  1
  V  V22  1  0.49016127  0.63282223  0.12443884  1
  V  V23  1  0.74707500  -0.00055044  0.74115266  1
  V  V24  1  0.52061338  0.12275997  0.62490567  1
  V  V25  1  0.49883771  0.24870417  0.75607729  1
  V  V26  1  0.00433742  -0.00133602  0.00238231  1
  V  V27  1  0.75002340  0.75104550  -0.00092656  1
  V  V28  1  0.51804655  -0.00498828  0.51372280  1
  V  V29  1  0.13009179  0.24048954  0.36495103  1
  V  V30  1  0.00082803  0.62384226  0.62140087  1
  V  V31  1  0.12682184  0.49837839  0.12670752  1
  V  V32  1  0.38925024  0.38212763  0.49743213  1
  V  V33  1  0.25116021  0.87622323  0.62996765  1
  V  V34  1  0.12515008  0.49895928  0.62402700  1
  V  V35  1  0.37678257  0.24483059  0.12770753  1
  V  V36  1  0.51457557  0.25482270  0.24933211  1
  V  V37  1  0.27323050  0.00718706  0.25333498  1
  V  V38  1  0.00318170  0.75534171  0.25033645  1
  V  V39  1  0.74936460  0.62630174  0.87208329  1
  V  V40  1  0.00258716  0.74990889  0.74952283  1
  V  V41  1  0.25701400  0.37498378  0.12396714  1
  V  V42  1  0.25185254  0.37456087  0.62111573  1
  V  V43  1  0.37426871  0.88391896  0.49880264  1
  V  V44  1  0.87867828  0.12985376  0.74599380  1
  V  V45  1  0.25174988  0.50137800  0.26348439  1
  V  V46  1  -0.00346372  0.48710743  0.49831990  1
  V  V47  1  0.12744999  0.75649418  0.37296522  1
  V  V48  1  0.00209284  0.50412982  -0.00147456  1
  V  V49  1  0.62466689  0.87888357  0.24326595  1
  V  V50  1  0.36554377  0.49257945  0.87619207  1
  V  V51  1  0.37176037  0.62998280  0.75856399  1
  V  V52  1  0.62350939  0.62626115  -0.00231807  1
  V  V53  1  0.87440716  0.12868590  0.25334835  1
  V  V54  1  0.14108984  0.62655113  -0.00444828  1
  V  V55  1  0.74588285  0.62462377  0.37451965  1
  V  V56  1  0.24976030  0.86325464  0.13159344  1
  V  V57  1  0.74003092  0.00669971  0.24767699  1
  V  V58  1  0.76340188  0.36199853  0.62364481  1
  V  V59  1  0.87477957  0.74992992  0.12606433  1
  V  V60  1  0.62330918  0.75506532  0.37388645  1
  V  V61  1  0.37437955  0.24394489  0.62599184  1
  V  V62  1  0.00508704  0.36614271  0.87531521  1
  V  V63  1  0.50429684  0.11839306  0.12762980  1
  V  V64  1  0.49699315  0.88297160  0.37438669  1
  V  V65  1  0.87984559  0.25082688  0.12557228  1
  V  V66  1  0.87659763  -0.00212981  0.87416932  1
  V  V67  1  0.49565025  0.49368560  -0.00458289  1
  V  V68  1  0.12941892  0.87905329  0.75362649  1
  V  V69  1  0.72448367  0.13551043  0.38790862  1
  V  V70  1  0.87550250  0.75016596  0.62289348  1
  V  V71  1  0.87432648  0.62502379  0.25067558  1
  V  V72  1  0.74736563  0.88053171  0.12372902  1
  V  V73  1  0.57297815  0.42393781  0.30120690  1
  V  V74  1  0.61417624  0.87360381  0.75267196  1
  V  V75  1  0.37130150  0.86399955  0.00483134  1
  V  V76  1  0.87623358  0.62476784  0.74812154  1
  V  V77  1  0.74835423  0.24911344  -0.00123431  1
  V  V78  1  0.00243381  0.12674432  0.12944707  1
  V  V79  1  0.62334134  0.49480542  0.62281650  1
  V  V80  1  0.62195096  0.49658628  0.12127006  1
  V  V81  1  0.87446069  0.00400839  0.37722250  1
  V  V82  1  0.12744060  0.62120058  0.49053991  1
  V  V83  1  0.87640981  0.87437333  0.00018717  1
  V  V84  1  0.24723752  0.12397268  0.86809978  1
  Zn  Zn85  1  0.81589957  0.30814590  0.45780192  1
  Zn  Zn86  1  0.49889955  0.37329888  0.87545643  1
  Zn  Zn87  1  0.74896672  0.49662331  0.74824957  1
  Zn  Zn88  1  0.00180457  0.24820518  0.74996718  1
  Zn  Zn89  1  0.62495973  0.37521268  0.75381688  1
  Zn  Zn90  1  0.25751944  0.24356033  0.49087331  1
  Zn  Zn91  1  0.00322415  0.87846383  0.36940529  1
  Zn  Zn92  1  0.13833256  0.12002119  0.49230928  1
  Zn  Zn93  1  -0.00243085  0.36183565  0.36718127  1
  Zn  Zn94  1  0.61970280  0.62521664  0.50160518  1
  Zn  Zn95  1  0.74562468  0.37202664  0.12320920  1
  Zn  Zn96  1  0.38395519  0.49815058  0.38009837  1
  Zn  Zn97  1  0.31235705  0.10281710  0.39229056  1
  Zn  Zn98  1  0.11971032  0.36943745  0.25035532  1
  Zn  Zn99  1  0.00171847  0.62593349  0.12478049  1
  Zn  Zn100  1  0.00596895  -0.00230008  0.49609397  1
  Zn  Zn101  1  0.37423371  0.11859039  0.75107082  1
  Zn  Zn102  1  0.36370789  0.63683650  0.25991890  1
  Zn  Zn103  1  0.49101712  0.75916063  0.23750306  1
  Zn  Zn104  1  0.62671578  0.11573385  0.00114740  1
  Zn  Zn105  1  0.24598375  0.50465309  0.75181703  1
  Zn  Zn106  1  0.62305771  0.25134151  0.87707711  1
  Zn  Zn107  1  0.19395738  0.18345795  0.19049995  1
  Zn  Zn108  1  0.18797288  0.18831682  0.68554005  1
  Zn  Zn109  1  0.18474614  0.68103678  0.19023125  1
  Zn  Zn110  1  0.19027689  0.68877298  0.68484874  1
  Zn  Zn111  1  0.68493125  0.18428584  0.18396014  1
  Zn  Zn112  1  0.68696306  0.19153991  0.69403225  1
  Zn  Zn113  1  0.68156556  0.68714619  0.18707825  1
  Zn  Zn114  1  0.68581348  0.68769026  0.68803332  1
  Zn  Zn115  1  0.31582575  0.31065869  0.31203317  1
  Zn  Zn116  1  0.31083091  0.31139635  0.81060691  1
  Zn  Zn117  1  0.31307483  0.81624805  0.31081037  1
  Zn  Zn118  1  0.31631764  0.81313449  0.81432154  1
  Zn  Zn119  1  0.80133023  0.30730662  0.29978982  1
  Zn  Zn120  1  0.81226331  0.31223237  0.81055826  1
  Zn  Zn121  1  0.81114400  0.81413947  0.31091646  1
  Zn  Zn122  1  0.81107043  0.81104507  0.81104591  1
  Zn  Zn123  1  0.18591170  0.42654121  0.43786945  1
  Zn  Zn124  1  0.18725634  0.43514400  0.93800080  1
  Zn  Zn125  1  0.19368972  0.93863106  0.43386473  1
  Zn  Zn126  1  0.19114374  0.93801066  0.94428148  1
  Zn  Zn127  1  0.68454985  0.44045251  0.44531177  1
  Zn  Zn128  1  0.68480936  0.43653815  0.93579905  1
  Zn  Zn129  1  0.69121161  0.94334618  0.43369067  1
  Zn  Zn130  1  0.68585712  0.93590667  0.93201282  1
  Zn  Zn131  1  0.31483844  0.06186306  0.06241631  1
  Zn  Zn132  1  0.31295163  0.06072432  0.56948499  1
  Zn  Zn133  1  0.31342636  0.56107389  0.06314523  1
  Zn  Zn134  1  0.31199615  0.56189157  0.56319149  1
  Zn  Zn135  1  0.81393235  0.06187029  0.06252556  1
  Zn  Zn136  1  0.81341933  0.16907860  0.56271705  1
  Zn  Zn137  1  0.81179980  0.56392576  0.06252212  1
  Zn  Zn138  1  0.80830676  0.55838897  0.56161783  1
  Zn  Zn139  1  0.42925331  0.44237594  0.18071670  1
  Zn  Zn140  1  0.43722065  0.43736032  0.69042306  1
  Zn  Zn141  1  0.43708383  0.93493004  0.18181341  1
  Zn  Zn142  1  0.43644094  0.93991730  0.68953276  1
  Zn  Zn143  1  0.93788214  0.43546079  0.18651240  1
  Zn  Zn144  1  0.93923502  0.43700465  0.68983702  1
  Zn  Zn145  1  0.93473381  0.94015238  0.18875942  1
  Zn  Zn146  1  0.93736517  0.94096992  0.68532947  1
  Zn  Zn147  1  0.06150242  0.06468439  0.31168226  1
  Zn  Zn148  1  0.06498781  0.06105997  0.81206768  1
  Zn  Zn149  1  0.05938216  0.55942213  0.31121586  1
  Zn  Zn150  1  0.06484096  0.55991883  0.81249860  1
  Zn  Zn151  1  0.51168322  0.08880391  0.33834533  1
  Zn  Zn152  1  0.56099509  0.05892316  0.81332071  1
  Zn  Zn153  1  0.52707807  0.59468521  0.33416741  1
  Zn  Zn154  1  0.55776279  0.56242819  0.80621193  1
  Zn  Zn155  1  0.47304211  0.20766409  0.45055102  1
  Zn  Zn156  1  0.43214282  0.18235374  0.94165942  1
  Zn  Zn157  1  0.43569030  0.69325686  0.44034125  1
  Zn  Zn158  1  0.43367008  0.68318006  0.93960391  1
  Zn  Zn159  1  0.95159135  0.18278725  0.43513564  1
  Zn  Zn160  1  0.93639855  0.18506950  0.93883354  1
  Zn  Zn161  1  0.93908758  0.68349556  0.43446953  1
  Zn  Zn162  1  0.94141616  0.68835747  0.93629559  1
  Zn  Zn163  1  0.06550690  0.31302237  0.06282906  1
  Zn  Zn164  1  0.06976929  0.30524144  0.55360915  1
  Zn  Zn165  1  0.06826089  0.81050302  0.06435156  1
  Zn  Zn166  1  0.06332723  0.81253226  0.56051094  1
  Zn  Zn167  1  0.56170423  0.31149618  0.06096960  1
  Zn  Zn168  1  0.56680816  0.31348635  0.56724673  1
  Zn  Zn169  1  0.56224191  0.81576617  0.05538410  1
  Zn  Zn170  1  0.56347230  0.81188939  0.56424240  1
  O  O171  1  0.11838975  0.11911772  0.12126061  1
  O  O172  1  0.12237478  0.11281013  0.62724102  1
  O  O173  1  0.12330004  0.61343183  0.11558439  1
  O  O174  1  0.11956516  0.62003047  0.61605622  1
  O  O175  1  0.61023461  0.12471962  0.11802771  1
  O  O176  1  0.61878474  0.12114166  0.63265824  1
  O  O177  1  0.62077232  0.61625220  0.11489489  1
  O  O178  1  0.61745392  0.61713674  0.62788692  1
  O  O179  1  0.37317783  0.37622628  0.39325094  1
  O  O180  1  0.37624601  0.38995646  0.87057720  1
  O  O181  1  0.38579613  0.87076479  0.38721139  1
  O  O182  1  0.36533325  0.88608261  0.88856579  1
  O  O183  1  0.86783478  0.38138288  0.37442322  1
  O  O184  1  0.88163502  0.38139349  0.87911605  1
  O  O185  1  0.87265247  0.88220929  0.38145254  1
  O  O186  1  0.88094764  0.87740752  0.88053775  1
  O  O187  1  0.25581287  0.00001281  0.35906124  1
  O  O188  1  0.26121601  0.00864307  0.88431322  1
  O  O189  1  0.24715314  0.49606685  0.36444408  1
  O  O190  1  0.26157377  0.49808513  0.87378488  1
  O  O191  1  0.75504844  0.01482041  0.36716283  1
  O  O192  1  0.75836695  0.00553770  0.87004579  1
  O  O193  1  0.75414790  0.50506749  0.36909228  1
  O  O194  1  0.75494949  0.51184620  0.87513129  1
  O  O195  1  0.24401598  0.49211675  0.12703622  1
  O  O196  1  0.24151933  0.49192861  0.62644137  1
  O  O197  1  0.24665930  0.99590050  0.13432509  1
  O  O198  1  0.24069910  0.98574829  0.62526395  1
  O  O199  1  0.74044280  0.50402830  0.13234610  1
  O  O200  1  0.73984411  0.49302323  0.62776799  1
  O  O201  1  0.75586999  0.99244714  0.13356720  1
  O  O202  1  0.75461624  0.99054323  0.63957854  1
  O  O203  1  0.00633740  0.38573548  0.25556707  1
  O  O204  1  0.00638882  0.37207386  0.75809678  1
  O  O205  1  -0.00789891  0.85954948  0.24966329  1
  O  O206  1  0.00731947  0.86929031  0.75465827  1
  O  O207  1  0.50780615  0.37359187  0.23463770  1
  O  O208  1  0.50042856  0.36246025  0.75183650  1
  O  O209  1  0.50782887  0.87853616  0.25657059  1
  O  O210  1  0.51498765  0.87738290  0.74461963  1
  O  O211  1  0.50661904  0.14036153  0.23403784  1
  O  O212  1  0.49837267  0.12702921  0.74218504  1
  O  O213  1  0.51082870  0.63152830  0.22723230  1
  O  O214  1  0.48325053  0.62406116  0.73881791  1
  O  O215  1  0.98984573  0.11945400  0.23589562  1
  O  O216  1  0.99468678  0.12413180  0.74489275  1
  O  O217  1  0.99086533  0.63331817  0.24888621  1
  O  O218  1  0.99633183  0.62930571  0.74239828  1
  O  O219  1  0.36439739  0.24789175  0.01064057  1
  O  O220  1  0.37853504  0.26318129  0.51461882  1
  O  O221  1  0.37562978  0.76545175  -0.00693611  1
  O  O222  1  0.36770995  0.75697081  0.50877576  1
  O  O223  1  0.86647953  0.25278204  0.00483963  1
  O  O224  1  0.88319337  0.23620360  0.50477078  1
  O  O225  1  0.87066637  0.75451734  0.00522595  1
  O  O226  1  0.87018595  0.75648868  0.50148506  1
  O  O227  1  0.13648438  0.24206718  0.48742186  1
  O  O228  1  0.13267504  0.23576310  1.00764999  1
  O  O229  1  0.13146158  0.74211627  0.49537482  1
  O  O230  1  0.11714649  0.73702763  0.98969066  1
  O  O231  1  0.57102852  0.22560846  0.50508363  1
  O  O232  1  0.63928737  0.24777098  0.99921922  1
  O  O233  1  0.63435428  0.75293619  0.49268895  1
  O  O234  1  0.63200209  0.74668902  0.98982272  1
  O  O235  1  0.49377671  0.24170495  0.12158370  1
  O  O236  1  0.49310324  0.23662156  0.64093772  1
  O  O237  1  0.50479792  0.73608590  0.11685451  1
  O  O238  1  0.48707349  0.74751644  0.62541537  1
  O  O239  1  0.98846527  0.24178728  0.11592555  1
  O  O240  1  1.01131784  0.23483212  0.62763443  1
  O  O241  1  0.99516668  0.74750254  0.13197965  1
  O  O242  1  0.99478288  0.74506885  0.62883976  1
  O  O243  1  0.02083584  0.24745008  0.37411119  1
  O  O244  1  -0.00272358  0.26300875  0.87839871  1
  O  O245  1  0.00702196  0.75183246  0.36803940  1
  O  O246  1  0.00669554  0.75622312  0.86749981  1
  O  O247  1  0.50563956  0.26377620  0.34630844  1
  O  O248  1  0.49523741  0.24582541  0.86701495  1
  O  O249  1  0.51354228  0.76538747  0.38052487  1
  O  O250  1  0.51089763  0.74296942  0.87773221  1
  O  O251  1  0.25801958  0.12224413  0.49256527  1
  O  O252  1  0.24357013  0.13201780  0.99546131  1
  O  O253  1  0.24079478  0.63432214  0.50567297  1
  O  O254  1  0.24017116  0.62369253  1.00195988  1
  O  O255  1  0.74101718  0.12134353  0.48562158  1
  O  O256  1  0.75075420  0.12916504  0.99197295  1
  O  O257  1  0.74784148  0.63211591  0.49146270  1
  O  O258  1  0.74493383  0.63042608  0.99182454  1
  O  O259  1  0.23973318  0.36058217  0.00740255  1
  O  O260  1  0.25573228  0.37195903  0.51335125  1
  O  O261  1  0.26162088  0.87927226  0.01534052  1
  O  O262  1  0.25747214  0.86831324  0.50703202  1
  O  O263  1  0.75804534  0.36664696  -0.00094313  1
  O  O264  1  0.74636980  0.37533418  0.51719770  1
  O  O265  1  0.75491355  0.87144102  0.00408880  1
  O  O266  1  0.75938142  0.87270377  0.50629456  1
  O  O267  1  0.13473328  0.50281683  0.24131691  1
  O  O268  1  0.12451944  0.49107652  0.74075005  1
  O  O269  1  0.12621843  1.00110828  0.23852242  1
  O  O270  1  0.12268111  0.98443315  0.74473834  1
  O  O271  1  0.62868637  0.49606785  0.24272985  1
  O  O272  1  0.62829557  0.49928857  0.73894800  1
  O  O273  1  0.63822882  0.99257542  0.25220005  1
  O  O274  1  0.63761569  0.98742741  0.76237891  1
  O  O275  1  0.37286202  0.00067874  0.25058632  1
  O  O276  1  0.37402483  -0.00412799  0.76851756  1
  O  O277  1  0.36090488  0.49920616  0.25476138  1
  O  O278  1  0.37285201  0.50910335  0.76174719  1
  O  O279  1  0.86527700  0.00689786  0.25773831  1
  O  O280  1  0.86967023  0.00616323  0.75715701  1
  O  O281  1  0.86645296  0.50686571  0.25526704  1
  O  O282  1  0.87426156  0.50743239  0.75767946  1
  O  O283  1  0.12440179  0.35910279  0.37226383  1
  O  O284  1  0.11588171  0.38252605  0.86437762  1
  O  O285  1  0.12199897  0.86059309  0.38225348  1
  O  O286  1  0.12345975  0.87018448  0.87047226  1
  O  O287  1  0.63486893  0.37651806  0.36312482  1
  O  O288  1  0.61902655  0.37087201  0.87263840  1
  O  O289  1  0.62454820  0.87222253  0.36328475  1
  O  O290  1  0.63082664  0.86109406  0.86499636  1
  O  O291  1  0.38800729  0.13381171  0.12011395  1
  O  O292  1  0.37529820  0.13336651  0.63299704  1
  O  O293  1  0.38828415  0.62007077  0.12825361  1
  O  O294  1  0.37949688  0.63120761  0.63143135  1
  O  O295  1  0.88236818  0.13011887  0.13039595  1
  O  O296  1  0.88854232  0.11671250  0.63542345  1
  O  O297  1  0.87527333  0.63174777  0.13324075  1
  O  O298  1  0.88007199  0.62951713  0.62776196  1
  O  O299  1  0.25747371  0.25489016  0.12094474  1
  O  O300  1  0.25914090  0.25638730  0.62423463  1
  O  O301  1  0.24029481  0.76473441  0.13367456  1
  O  O302  1  0.25603104  0.75882298  0.61496207  1
  O  O303  1  0.76127901  0.24789008  0.11596584  1
  O  O304  1  0.75276044  0.25572370  0.62520414  1
  O  O305  1  0.75399536  0.75716891  0.11962296  1
  O  O306  1  0.75791669  0.75564778  0.61986860  1
  O  O307  1  0.24365490  0.24693808  0.37255224  1
  O  O308  1  0.25715023  0.24047507  0.88545368  1
  O  O309  1  0.24355553  0.75429005  0.38752651  1
  O  O310  1  0.23750188  0.75183484  0.87219648  1
  O  O311  1  0.75239677  0.23868124  0.37655997  1
  O  O312  1  0.75307240  0.23958437  0.88223857  1
  O  O313  1  0.74005843  0.74681226  0.37708597  1
  O  O314  1  0.74961720  0.73815081  0.87999575  1
  O  O315  1  0.00602801  0.11974503  0.00901636  1
  O  O316  1  0.01088875  0.11485983  0.50976146  1
  O  O317  1  0.00220436  0.61241028  -0.00002606  1
  O  O318  1  0.00729138  0.61725717  0.50489221  1
  O  O319  1  0.50199998  0.11604481  0.00830937  1
  O  O320  1  0.49401580  0.10498279  0.52213154  1
  O  O321  1  0.50327728  0.61730914  0.00775040  1
  O  O322  1  0.50065025  0.63380897  0.51908697  1
  O  O323  1  0.48705760  0.38162666  0.51055080  1
  O  O324  1  0.50060549  0.39029340  0.99915487  1
  O  O325  1  0.49347929  0.87854395  0.49885974  1
  O  O326  1  0.48291610  0.88408645  1.01030518  1
  O  O327  1  1.00427698  0.38513829  0.49673367  1
  O  O328  1  0.99855079  0.38448186  0.99369153  1
  O  O329  1  0.98593271  0.87546485  0.49989268  1
  O  O330  1  0.99723748  0.87849467  0.99583853  1
  O  O331  1  0.51337281  0.48164524  0.35970951  1
  O  O332  1  0.48979455  0.50210974  0.88058072  1
  O  O333  1  0.50837357  0.98636454  0.39155828  1
  O  O334  1  0.48266943  1.00576588  0.88398124  1
  O  O335  1  0.98813308  0.50026321  0.38288906  1
  O  O336  1  0.99502427  0.49273711  0.88193208  1
  O  O337  1  0.99104251  0.99589027  0.37324007  1
  O  O338  1  0.99678483  0.99230687  0.88163347  1
  O  O339  1  0.00652914  0.00539987  0.12084995  1
  O  O340  1  0.01410418  0.00250858  0.62471839  1
  O  O341  1  0.00784455  0.50146908  0.11486745  1
  O  O342  1  0.00435308  0.50304807  0.61632468  1
  O  O343  1  0.49443500  0.01292836  0.11803934  1
  O  O344  1  0.50183060  0.01073272  0.62759695  1
  O  O345  1  0.50413253  0.50891267  0.11616698  1
  O  O346  1  0.51210089  0.50632814  0.63144041  1
  O  O347  1  0.24654799  0.38594119  0.24079175  1
  O  O348  1  0.24338137  0.37766313  0.74040678  1
  O  O349  1  0.25523963  0.88809859  0.23741565  1
  O  O350  1  0.24197981  0.86668236  0.74066037  1
  O  O351  1  0.75420459  0.39090163  0.24068899  1
  O  O352  1  0.74804860  0.37383725  0.73771380  1
  O  O353  1  0.74408551  0.88292256  0.24401909  1
  O  O354  1  0.74849085  0.88056737  0.74291015  1
  O  O355  1  0.25872625  0.10800080  0.24639742  1
  O  O356  1  0.24753259  0.12819526  0.76511602  1
  O  O357  1  0.25092367  0.60669248  0.24629588  1
  O  O358  1  0.26628760  0.62205070  0.74088309  1
  O  O359  1  0.75541374  0.12114552  0.25359265  1
  O  O360  1  0.75747460  0.11758213  0.75580540  1
  O  O361  1  0.75202958  0.61646333  0.25479320  1
  O  O362  1  0.75796581  0.62506174  0.75749238  1
  O  O363  1  0.41627606  0.13695929  0.38040569  1
  O  O364  1  0.36460809  0.11295546  0.87506264  1
  O  O365  1  0.41276268  0.61132239  0.36615608  1
  O  O366  1  0.37599948  0.61941632  0.86213146  1
  O  O367  1  0.87839537  0.11887612  0.36319601  1
  O  O368  1  0.86800148  0.11711219  0.87079522  1
  O  O369  1  0.86757209  0.61646428  0.36715175  1
  O  O370  1  0.86906388  0.62121184  0.87039612  1
  O  O371  1  0.13237266  0.38615247  0.12420508  1
  O  O372  1  0.13109417  0.37845591  0.62922700  1
  O  O373  1  0.13995950  0.88462347  0.11737138  1
  O  O374  1  0.13147326  0.87699214  0.63233912  1
  O  O375  1  0.62798299  0.39247945  0.11226708  1
  O  O376  1  0.63065182  0.38328580  0.62870411  1
  O  O377  1  0.62913480  0.87012545  0.13607358  1
  O  O378  1  0.63980753  0.86530269  0.63435674  1
  O  O379  1  0.13170779  0.24937504  0.25844794  1
  O  O380  1  0.12405056  0.26342820  0.74838816  1
  O  O381  1  0.11583608  0.74146080  0.26101340  1
  O  O382  1  0.12072063  0.75678707  0.75468562  1
  O  O383  1  0.61461087  0.26059214  0.23175238  1
  O  O384  1  0.61394217  0.25101111  0.75665610  1
  O  O385  1  0.62133196  0.76004733  0.25744798  1
  O  O386  1  0.63151448  0.75899181  0.75959943  1
  O  O387  1  0.38783262  0.26415362  0.23193694  1
  O  O388  1  0.37985496  0.24792374  0.74186605  1
  O  O389  1  0.38031702  0.74800084  0.25512936  1
  O  O390  1  0.37088294  0.73923644  0.74432706  1
  O  O391  1  0.87126246  0.23908032  0.23840419  1
  O  O392  1  0.87897808  0.23354531  0.75652236  1
  O  O393  1  0.87867176  0.74309313  0.24637005  1
  O  O394  1  0.88187480  0.74468528  0.74335266  1
  O  O395  1  0.37092605  0.48747717  0.49997594  1
  O  O396  1  0.38056060  0.50939797  0.98328888  1
  O  O397  1  0.38260185  0.98533735  0.51143068  1
  O  O398  1  0.38126409  0.99295621  0.99370813  1
  O  O399  1  0.88296611  0.50528451  0.48882319  1
  O  O400  1  0.88247089  0.49595725  0.99585542  1
  O  O401  1  0.87531761  0.99212938  0.48365870  1
  O  O402  1  0.88317811  0.99349587  0.99484524  1
  O  O403  1  0.12205896  0.00988095  0.01074382  1
  O  O404  1  0.12704331  -0.00341842  0.50924064  1
  O  O405  1  0.11933218  0.50616934  0.00429552  1
  O  O406  1  0.11863777  0.50507412  0.50247263  1
  O  O407  1  0.60692285  -0.00587916  -0.00905532  1
  O  O408  1  0.61730308  -0.01527845  0.50948511  1
  O  O409  1  0.61737541  0.50868675  0.00281578  1
  O  O410  1  0.62605272  0.50658144  0.51740289  1
  O  O411  1  0.36146342  0.37241567  0.11852776  1
  O  O412  1  0.36776785  0.37052386  0.62275428  1
  O  O413  1  0.36330251  0.87467174  0.11573145  1
  O  O414  1  0.36812347  0.86767303  0.62424254  1
  O  O415  1  0.87365420  0.36674009  0.11607765  1
  O  O416  1  0.86143627  0.37879369  0.62744635  1
  O  O417  1  0.86913463  0.86927672  0.11911519  1
  O  O418  1  0.86668970  0.87134056  0.61797238  1
  O  O419  1  0.12693881  0.13294086  0.37302192  1
  O  O420  1  0.13256983  0.11705020  0.88670601  1
  O  O421  1  0.11873531  0.63249234  0.38713191  1
  O  O422  1  0.12140166  0.63194434  0.88265689  1
  O  O423  1  0.62767707  0.12416318  0.36950614  1
  O  O424  1  0.63934122  0.12406765  0.87728624  1
  O  O425  1  0.62445528  0.63785595  0.37842012  1
  O  O426  1  0.63195271  0.62995047  0.87620375  1
