# generated using pymatgen
data_V85Zn86O256
_symmetry_space_group_name_H-M   'P 1'
_cell_length_a   16.91913503
_cell_length_b   16.92901366
_cell_length_c   16.93094595
_cell_angle_alpha   89.99558976
_cell_angle_beta   89.97766992
_cell_angle_gamma   89.99578439
_symmetry_Int_Tables_number   1
_chemical_formula_structural   V85Zn86O256
_chemical_formula_sum   'V85 Zn86 O256'
_cell_volume   4849.43340617
_cell_formula_units_Z   1
loop_
 _symmetry_equiv_pos_site_id
 _symmetry_equiv_pos_as_xyz
  1  'x, y, z'
loop_
 _atom_site_type_symbol
 _atom_site_label
 _atom_site_symmetry_multiplicity
 _atom_site_fract_x
 _atom_site_fract_y
 _atom_site_fract_z
 _atom_site_occupancy
  V  V0  1  0.75205989  0.50123929  0.25347872  1
  V  V1  1  0.25668945  0.87599407  0.62047047  1
  V  V2  1  -0.01284199  0.25010626  0.75559582  1
  V  V3  1  0.37616623  0.00088265  0.87695346  1
  V  V4  1  0.37333440  0.74640922  0.62929582  1
  V  V5  1  0.00565662  0.74607572  0.26705298  1
  V  V6  1  0.76016062  0.12457385  0.37309244  1
  V  V7  1  0.24944491  0.12482203  0.38251317  1
  V  V8  1  0.75048264  0.36501571  0.12090370  1
  V  V9  1  0.00469478  -0.00295248  -0.00654585  1
  V  V10  1  0.87819506  0.37702540  0.00091913  1
  V  V11  1  0.89097473  0.88099959  0.49318137  1
  V  V12  1  0.61838628  0.50203902  0.12759210  1
  V  V13  1  0.37938351  0.37448831  -0.00435133  1
  V  V14  1  0.50041631  0.87595137  0.87625995  1
  V  V15  1  0.24715721  0.37375962  0.63334182  1
  V  V16  1  0.37458622  0.87567061  0.00393863  1
  V  V17  1  0.25089096  0.49648040  0.25411423  1
  V  V18  1  0.60944393  0.37480496  0.75377969  1
  V  V19  1  0.62580758  0.37555618  0.25154259  1
  V  V20  1  0.24184245  0.87655714  0.12731606  1
  V  V21  1  0.74909306  0.75345767  0.49912362  1
  V  V22  1  0.50087846  0.49691011  -0.00293027  1
  V  V23  1  0.25362381  0.12884475  0.86889869  1
  V  V24  1  0.49574186  0.62384277  0.63347548  1
  V  V25  1  0.61015103  0.25297462  0.87376007  1
  V  V26  1  0.75907397  0.13584104  0.87482922  1
  V  V27  1  0.75017639  0.37361577  0.63415800  1
  V  V28  1  0.12043594  0.87655026  0.74987527  1
  V  V29  1  0.76704039  0.00276666  0.24870253  1
  V  V30  1  0.74503657  0.88472063  0.62153966  1
  V  V31  1  0.49419232  0.87163497  0.37888474  1
  V  V32  1  0.49915807  0.74570118  0.24223288  1
  V  V33  1  0.93430589  0.69051190  0.07586042  1
  V  V34  1  -0.00938147  0.12313826  0.63435282  1
  V  V35  1  0.00012107  0.62001054  0.62015734  1
  V  V36  1  0.62302318  0.88025656  0.74579112  1
  V  V37  1  0.38450441  0.12964003  0.74960698  1
  V  V38  1  0.61958176  0.62640081  0.00403155  1
  V  V39  1  0.62702876  0.87621850  0.24926307  1
  V  V40  1  0.37744666  0.50577613  0.87151862  1
  V  V41  1  0.12143223  0.49549947  0.62623550  1
  V  V42  1  0.75625710  0.86777493  0.12354633  1
  V  V43  1  0.11965295  0.87375801  0.26117291  1
  V  V44  1  0.89251198  0.24151913  0.13111380  1
  V  V45  1  0.12623025  0.12244163  -0.00332852  1
  V  V46  1  0.25178556  0.75042465  0.49539139  1
  V  V47  1  0.12552545  0.25692163  0.86505226  1
  V  V48  1  0.75384808  0.00477766  0.75130562  1
  V  V49  1  0.87692064  0.63101382  0.25186055  1
  V  V50  1  -0.00182028  0.75341403  0.74766770  1
  V  V51  1  0.62580888  0.75164092  0.87453845  1
  V  V52  1  0.11878194  0.25903542  0.37819784  1
  V  V53  1  0.74369266  0.61430014  0.86919729  1
  V  V54  1  0.50866555  0.12243760  0.62464702  1
  V  V55  1  0.49828949  0.24838711  0.25064900  1
  V  V56  1  0.62851373  0.13206067  0.00082887  1
  V  V57  1  0.86769404  0.61401723  0.74491597  1
  V  V58  1  0.50581988  -0.00285723  0.50187166  1
  V  V59  1  0.87872495  0.87726251  -0.00695714  1
  V  V60  1  0.62374543  0.74916835  0.37573171  1
  V  V61  1  0.24645485  0.24929978  0.50491880  1
  V  V62  1  0.12219302  0.00548931  0.62482254  1
  V  V63  1  0.38290070  0.25175689  0.62670290  1
  V  V64  1  0.12113100  0.62345759  0.48990611  1
  V  V65  1  0.37752752  0.62008586  0.24615622  1
  V  V66  1  0.62774553  0.24687964  0.37705864  1
  V  V67  1  0.06801014  0.07291469  0.46226065  1
  V  V68  1  0.37487294  -0.00439279  0.37879408  1
  V  V69  1  0.49212663  0.37885337  0.37537147  1
  V  V70  1  0.24942704  0.74441323  0.00105686  1
  V  V71  1  0.62749120  0.00211227  0.12502526  1
  V  V72  1  0.25190273  0.00043882  0.74826247  1
  V  V73  1  0.37156489  0.12351476  0.24970629  1
  V  V74  1  0.12484280  0.75202336  0.87391526  1
  V  V75  1  0.87370305  0.75257793  0.62405164  1
  V  V76  1  0.25171515  0.50808516  0.74866595  1
  V  V77  1  0.11263227  0.50668351  0.11859480  1
  V  V78  1  0.24952294  0.25216169  -0.00170659  1
  V  V79  1  0.00415375  0.38712140  0.87366607  1
  V  V80  1  0.24788908  0.37559959  0.12485926  1
  V  V81  1  0.25587795  0.62195368  0.37561794  1
  V  V82  1  0.49538181  0.50201901  0.49865395  1
  V  V83  1  0.62887885  0.50100843  0.62981677  1
  V  V84  1  0.87951236  0.38018645  0.50202536  1
  Zn  Zn85  1  0.49904808  0.12361294  0.12621431  1
  Zn  Zn86  1  0.24524429  -0.00116684  0.25063447  1
  Zn  Zn87  1  0.87826520  0.00094537  0.87023946  1
  Zn  Zn88  1  0.00220011  0.38968793  0.37740118  1
  Zn  Zn89  1  0.08940501  0.04071136  0.14813848  1
  Zn  Zn90  1  0.62376945  0.62522742  0.50236172  1
  Zn  Zn91  1  0.87449440  0.50066905  0.87848244  1
  Zn  Zn92  1  0.11274039  0.62361599  -0.00129184  1
  Zn  Zn93  1  0.88481516  0.50628774  0.38230756  1
  Zn  Zn94  1  0.49990157  0.00191886  0.00418331  1
  Zn  Zn95  1  0.86983872  0.24618399  0.62839706  1
  Zn  Zn96  1  0.74858404  0.24984662  0.50352548  1
  Zn  Zn97  1  0.62965693  0.11969850  0.50249193  1
  Zn  Zn98  1  0.75127532  0.74674089  0.00280205  1
  Zn  Zn99  1  0.25202499  0.62697230  0.87086774  1
  Zn  Zn100  1  0.74863767  0.62437375  0.37716725  1
  Zn  Zn101  1  0.37261910  0.37823960  0.49788140  1
  Zn  Zn102  1  0.11039866  0.37207281  0.24024236  1
  Zn  Zn103  1  0.89153434  0.00230509  0.37550935  1
  Zn  Zn104  1  0.37731202  0.74516362  0.12306373  1
  Zn  Zn105  1  0.49382108  0.74796484  0.75240623  1
  Zn  Zn106  1  0.37170025  0.24921811  0.12620745  1
  Zn  Zn107  1  0.17360417  0.18668058  0.19206899  1
  Zn  Zn108  1  0.18535136  0.18635119  0.68748966  1
  Zn  Zn109  1  0.18549684  0.68658560  0.18704703  1
  Zn  Zn110  1  0.18599757  0.68614616  0.68342957  1
  Zn  Zn111  1  0.69221862  0.18585230  0.19142757  1
  Zn  Zn112  1  0.68652844  0.19106669  0.69462249  1
  Zn  Zn113  1  0.68720101  0.68578424  0.18818017  1
  Zn  Zn114  1  0.68425900  0.69186058  0.68658659  1
  Zn  Zn115  1  0.30784869  0.31074623  0.31264331  1
  Zn  Zn116  1  0.31745069  0.31743363  0.81078897  1
  Zn  Zn117  1  0.31110090  0.80816757  0.31206579  1
  Zn  Zn118  1  0.31043721  0.81335319  0.81191393  1
  Zn  Zn119  1  0.81862247  0.31331649  0.31074866  1
  Zn  Zn120  1  0.80858242  0.31632985  0.81510022  1
  Zn  Zn121  1  0.81693762  0.81375348  0.31323352  1
  Zn  Zn122  1  0.80712126  0.80969448  0.81062242  1
  Zn  Zn123  1  0.18980939  0.44055895  0.44477170  1
  Zn  Zn124  1  0.18759929  0.44086633  0.93820739  1
  Zn  Zn125  1  0.19198296  0.93070729  0.43500934  1
  Zn  Zn126  1  0.18945697  0.93482302  0.93444722  1
  Zn  Zn127  1  0.68680941  0.43518657  0.44186731  1
  Zn  Zn128  1  0.68730576  0.43261125  0.93850028  1
  Zn  Zn129  1  0.68942219  0.93854539  0.43303031  1
  Zn  Zn130  1  0.69206242  0.94082845  0.93830746  1
  Zn  Zn131  1  0.30241137  0.06356361  0.06445936  1
  Zn  Zn132  1  0.31847430  0.06146844  0.56155063  1
  Zn  Zn133  1  0.31102292  0.56113432  0.06517375  1
  Zn  Zn134  1  0.31350302  0.56277806  0.56342184  1
  Zn  Zn135  1  0.81467146  0.06342607  0.05871951  1
  Zn  Zn136  1  0.81297555  0.06129744  0.55914597  1
  Zn  Zn137  1  0.80298440  0.55282139  0.05946015  1
  Zn  Zn138  1  0.80772627  0.56247451  0.56302838  1
  Zn  Zn139  1  0.43499855  0.43704478  0.18528275  1
  Zn  Zn140  1  0.43558442  0.43920130  0.68657112  1
  Zn  Zn141  1  0.43744296  0.93666424  0.18923938  1
  Zn  Zn142  1  0.43773708  0.93825313  0.68658529  1
  Zn  Zn143  1  0.93616786  0.43424947  0.19301317  1
  Zn  Zn144  1  0.94006319  0.43382912  0.68898822  1
  Zn  Zn145  1  0.94038481  0.92819272  0.18072713  1
  Zn  Zn146  1  0.93509441  0.93883510  0.68315535  1
  Zn  Zn147  1  0.05461429  0.07962226  0.30030002  1
  Zn  Zn148  1  0.06070141  0.06422117  0.81569022  1
  Zn  Zn149  1  0.06205803  0.55733411  0.30848693  1
  Zn  Zn150  1  0.06536898  0.56610086  0.80593292  1
  Zn  Zn151  1  0.56584081  0.06226775  0.31247808  1
  Zn  Zn152  1  0.56543573  0.06165177  0.81437584  1
  Zn  Zn153  1  0.56128053  0.56376020  0.31493891  1
  Zn  Zn154  1  0.56056312  0.55913622  0.81294912  1
  Zn  Zn155  1  0.43683275  0.18705031  0.43996631  1
  Zn  Zn156  1  0.43939617  0.18643923  0.94195817  1
  Zn  Zn157  1  0.43340300  0.68528282  0.44022128  1
  Zn  Zn158  1  0.43914903  0.68596797  0.93834141  1
  Zn  Zn159  1  0.93023994  0.19775664  0.44045137  1
  Zn  Zn160  1  0.94067474  0.19338833  0.94997305  1
  Zn  Zn161  1  0.93452654  0.68545021  0.43809290  1
  Zn  Zn162  1  0.93380402  0.69201656  0.91517211  1
  Zn  Zn163  1  0.06315903  0.31541327  0.05556800  1
  Zn  Zn164  1  0.06121947  0.30899215  0.56638599  1
  Zn  Zn165  1  0.06494109  0.82087039  0.05957340  1
  Zn  Zn166  1  0.06929184  0.80937863  0.56274166  1
  Zn  Zn167  1  0.56273588  0.31144194  0.06350318  1
  Zn  Zn168  1  0.56322373  0.31338438  0.56184103  1
  Zn  Zn169  1  0.56461815  0.81536999  0.06232084  1
  Zn  Zn170  1  0.55977028  0.81324451  0.56259665  1
  O  O171  1  0.16736117  0.11131173  0.09384301  1
  O  O172  1  0.11995743  0.11208640  0.62649822  1
  O  O173  1  0.12872643  0.61155042  0.12050384  1
  O  O174  1  0.11594317  0.61887910  0.61856963  1
  O  O175  1  0.62785866  0.12017123  0.11804637  1
  O  O176  1  0.61184463  0.13124451  0.62608932  1
  O  O177  1  0.63013316  0.61492918  0.11616894  1
  O  O178  1  0.61835977  0.61764326  0.62530724  1
  O  O179  1  0.38851602  0.36780799  0.37584769  1
  O  O180  1  0.37004489  0.38604613  0.88887776  1
  O  O181  1  0.38229119  0.88252758  0.36852037  1
  O  O182  1  0.37730423  0.87878446  0.88569949  1
  O  O183  1  0.87058608  0.37753153  0.39186717  1
  O  O184  1  0.87925251  0.37776264  0.88399135  1
  O  O185  1  0.87676703  0.87813886  0.38893328  1
  O  O186  1  0.86420400  0.87018599  0.88924389  1
  O  O187  1  0.25739385  0.00635266  0.37527255  1
  O  O188  1  0.25718117  0.00637494  0.86754888  1
  O  O189  1  0.24617339  0.50640446  0.36615799  1
  O  O190  1  0.25565726  0.50230270  0.86601162  1
  O  O191  1  0.75313388  0.00675961  0.36477065  1
  O  O192  1  0.75177652  0.01260696  0.86804315  1
  O  O193  1  0.74534698  0.50080483  0.36218697  1
  O  O194  1  0.74663222  0.51144487  0.87560693  1
  O  O195  1  0.24550431  0.48872309  0.12991907  1
  O  O196  1  0.24737984  0.49265116  0.63098774  1
  O  O197  1  0.25843520  0.98100643  0.13174247  1
  O  O198  1  0.24662855  0.99469810  0.62753939  1
  O  O199  1  0.73818228  0.49183262  0.13597029  1
  O  O200  1  0.73414449  0.49545949  0.62409026  1
  O  O201  1  0.74721249  0.99332760  0.13092610  1
  O  O202  1  0.75079145  0.99129288  0.63063789  1
  O  O203  1  0.00070915  0.37783537  0.26292997  1
  O  O204  1  -0.00250988  0.36416414  0.76102152  1
  O  O205  1  0.01015632  0.86125150  0.24720499  1
  O  O206  1  0.01217169  0.86927451  0.73935742  1
  O  O207  1  0.50422413  0.36928559  0.25568363  1
  O  O208  1  0.51048613  0.37391002  0.74760219  1
  O  O209  1  0.50531523  0.86726252  0.25985503  1
  O  O210  1  0.50665999  0.87535576  0.75652048  1
  O  O211  1  0.49142591  0.13201930  0.25178523  1
  O  O212  1  0.49125047  0.11638943  0.74219055  1
  O  O213  1  0.49041486  0.63294281  0.25695731  1
  O  O214  1  0.50404736  0.62727459  0.73810325  1
  O  O215  1  1.07058245  0.13489181  0.21025551  1
  O  O216  1  1.00327551  0.13464516  0.74506819  1
  O  O217  1  0.99443450  0.63787830  0.24977004  1
  O  O218  1  0.99136378  0.63315636  0.73944280  1
  O  O219  1  0.37000624  0.25760654  0.00235967  1
  O  O220  1  0.36506879  0.25039863  0.50930733  1
  O  O221  1  0.36874855  0.75691220  0.00057969  1
  O  O222  1  0.36211509  0.74486504  0.51271851  1
  O  O223  1  0.87533463  0.26740748  0.01107632  1
  O  O224  1  0.86727652  0.26425770  0.50784322  1
  O  O225  1  0.87724369  0.74883817  0.00572767  1
  O  O226  1  0.86698877  0.75968583  0.50344747  1
  O  O227  1  0.13892988  0.25114235  0.49709315  1
  O  O228  1  0.13151534  0.24272637  0.98892088  1
  O  O229  1  0.13999698  0.73652429  0.50905970  1
  O  O230  1  0.13053937  0.74993666  0.99044337  1
  O  O231  1  0.62454830  0.24851171  0.48631188  1
  O  O232  1  0.62230602  0.24531276  0.98805170  1
  O  O233  1  0.63108771  0.75175618  0.49252257  1
  O  O234  1  0.62329577  0.74242730  0.99316979  1
  O  O235  1  0.49877961  0.24793924  0.13979678  1
  O  O236  1  0.48902175  0.24159177  0.61762941  1
  O  O237  1  0.50178868  0.75453131  0.13916314  1
  O  O238  1  0.49116454  0.74285640  0.62460548  1
  O  O239  1  0.99193294  0.25445478  0.12045068  1
  O  O240  1  1.00006482  0.24190100  0.63884472  1
  O  O241  1  0.99629394  0.75006738  0.12907796  1
  O  O242  1  0.99690993  0.74343796  0.63266516  1
  O  O243  1  0.01732384  0.24792505  0.38264385  1
  O  O244  1  0.00692759  0.25645074  0.87093343  1
  O  O245  1  0.00166766  0.74797305  0.36574250  1
  O  O246  1  0.00824005  0.75194285  0.85636462  1
  O  O247  1  0.50568300  0.25355907  0.36691785  1
  O  O248  1  0.51103528  0.24845096  0.87523402  1
  O  O249  1  0.50404500  0.75506112  0.37171787  1
  O  O250  1  0.50906561  0.75530320  0.87368846  1
  O  O251  1  0.25790551  0.13141520  0.49078447  1
  O  O252  1  0.25650696  0.13473220  0.98195750  1
  O  O253  1  0.24624089  0.62764204  0.49289031  1
  O  O254  1  0.25071747  0.63784437  0.99984383  1
  O  O255  1  0.74661070  0.12639929  0.49134666  1
  O  O256  1  0.73702865  0.11977809  0.98643910  1
  O  O257  1  0.74714599  0.64077336  0.50057130  1
  O  O258  1  0.73715542  0.62542437  0.99138241  1
  O  O259  1  0.25631037  0.37084480  0.00631357  1
  O  O260  1  0.25488515  0.36791056  0.51240822  1
  O  O261  1  0.25480375  0.86566159  0.00600345  1
  O  O262  1  0.24633714  0.86361660  0.50833262  1
  O  O263  1  0.75954025  0.37930062  0.00960266  1
  O  O264  1  0.75181433  0.37283593  0.51538159  1
  O  O265  1  0.75524384  0.87141627  0.00779780  1
  O  O266  1  0.75156072  0.86909333  0.50535745  1
  O  O267  1  0.13703365  0.49908957  0.23784177  1
  O  O268  1  0.13428725  0.50374200  0.73582393  1
  O  O269  1  0.12472125  0.98190419  0.24885852  1
  O  O270  1  0.13032551  0.99391380  0.74504580  1
  O  O271  1  0.62814252  0.49756618  0.24378397  1
  O  O272  1  0.61997422  0.48538056  0.74584500  1
  O  O273  1  0.63348955  0.99538854  0.24074177  1
  O  O274  1  0.63529804  0.98723247  0.75657836  1
  O  O275  1  0.37414409  0.00679093  0.26098063  1
  O  O276  1  0.37001129  0.00675734  0.75569263  1
  O  O277  1  0.36292004  0.50537929  0.24600249  1
  O  O278  1  0.36743880  0.49439500  0.76017527  1
  O  O279  1  0.87073589  -0.00867097  0.25274219  1
  O  O280  1  0.85914456  -0.00834991  0.75233493  1
  O  O281  1  0.86639404  0.51345406  0.24874502  1
  O  O282  1  0.87557979  0.51197866  0.74964542  1
  O  O283  1  0.12331482  0.36497778  0.38925286  1
  O  O284  1  0.11669324  0.36810169  0.88203252  1
  O  O285  1  0.12810803  0.87157010  0.36029938  1
  O  O286  1  0.13173761  0.86261593  0.86279915  1
  O  O287  1  0.61721611  0.36697964  0.36941964  1
  O  O288  1  0.62781015  0.36468236  0.86585510  1
  O  O289  1  0.61857504  0.86608616  0.36830864  1
  O  O290  1  0.62271989  0.86856719  0.87169210  1
  O  O291  1  0.37211782  0.12545446  0.13849169  1
  O  O292  1  0.38376142  0.13109086  0.63164279  1
  O  O293  1  0.37011884  0.62696268  0.14026716  1
  O  O294  1  0.38298648  0.63275505  0.62458420  1
  O  O295  1  0.87225981  0.14300832  0.11476372  1
  O  O296  1  0.88662571  0.12373835  0.62379010  1
  O  O297  1  0.87029732  0.62729787  0.12760649  1
  O  O298  1  0.87915596  0.63126566  0.62725530  1
  O  O299  1  0.24588546  0.26191951  0.12273473  1
  O  O300  1  0.25552296  0.25459554  0.62256591  1
  O  O301  1  0.25148718  0.75780244  0.11758142  1
  O  O302  1  0.25500638  0.75674947  0.62115314  1
  O  O303  1  0.74703201  0.26355808  0.12786355  1
  O  O304  1  0.74943016  0.25730501  0.62617451  1
  O  O305  1  0.74222569  0.76368080  0.12359139  1
  O  O306  1  0.75253595  0.76143483  0.61786438  1
  O  O307  1  0.24620581  0.24348698  0.38738347  1
  O  O308  1  0.24427563  0.24979931  0.87499007  1
  O  O309  1  0.25379732  0.73956136  0.38540029  1
  O  O310  1  0.24380411  0.74814212  0.88131412  1
  O  O311  1  0.74330171  0.24277409  0.37239302  1
  O  O312  1  0.73981854  0.23870216  0.87064307  1
  O  O313  1  0.74097114  0.75365606  0.38188137  1
  O  O314  1  0.73717723  0.74120217  0.87783607  1
  O  O315  1  0.01678416  0.11844275  -0.00302187  1
  O  O316  1  0.00148370  0.13514309  0.51340588  1
  O  O317  1  -0.00996611  0.63843245  0.00681403  1
  O  O318  1  0.00718212  0.63420678  0.51151058  1
  O  O319  1  0.51261892  0.12258392  0.00492664  1
  O  O320  1  0.50266415  0.11657982  0.50669627  1
  O  O321  1  0.51200525  0.61672869  -0.00130120  1
  O  O322  1  0.50200368  0.61870524  0.50870410  1
  O  O323  1  0.49882869  0.38159040  0.49218389  1
  O  O324  1  0.49166657  0.38340824  1.00565149  1
  O  O325  1  0.50113340  0.87955534  0.48712898  1
  O  O326  1  0.49131220  0.87696010  0.99551441  1
  O  O327  1  0.98266628  0.37052433  0.50442600  1
  O  O328  1  0.98901988  0.37483157  0.98819037  1
  O  O329  1  0.98906892  0.86907780  0.50615876  1
  O  O330  1  0.99160679  0.88018115  0.99502348  1
  O  O331  1  0.50677595  0.49030974  0.38459012  1
  O  O332  1  0.49387849  0.50077440  0.88764598  1
  O  O333  1  0.49461165  0.99136336  0.37719761  1
  O  O334  1  0.49418038  0.99382573  0.87917119  1
  O  O335  1  0.99923495  0.50534327  0.38290563  1
  O  O336  1  1.00047948  0.49065002  0.86614018  1
  O  O337  1  1.00898793  1.02490207  0.38470590  1
  O  O338  1  0.99406987  1.00270803  0.88397403  1
  O  O339  1  -0.00047590  -0.00924747  0.10435272  1
  O  O340  1  0.00908627  0.00904634  0.62984666  1
  O  O341  1  0.01461705  0.49802671  0.12926736  1
  O  O342  1  0.00718725  0.50913105  0.63035519  1
  O  O343  1  0.51182101  0.00178915  0.12701923  1
  O  O344  1  0.49268812  0.00795408  0.61326892  1
  O  O345  1  0.51167556  0.49544909  0.11783809  1
  O  O346  1  0.50719576  0.50605897  0.62108784  1
  O  O347  1  0.24973277  0.38224032  0.24258496  1
  O  O348  1  0.25268042  0.38362956  0.73857536  1
  O  O349  1  0.23745877  0.86868177  0.24438228  1
  O  O350  1  0.24013116  0.88001808  0.74198127  1
  O  O351  1  0.74502907  0.38328098  0.24489868  1
  O  O352  1  0.73988214  0.37345386  0.73965144  1
  O  O353  1  0.74736498  0.88108062  0.24338331  1
  O  O354  1  0.74243591  0.87967929  0.74137713  1
  O  O355  1  0.25531298  0.12380240  0.26445582  1
  O  O356  1  0.26112935  0.12034686  0.75120721  1
  O  O357  1  0.25433956  0.61949578  0.25766450  1
  O  O358  1  0.24872300  0.61279445  0.74805148  1
  O  O359  1  0.74917237  0.11242870  0.25772855  1
  O  O360  1  0.74357620  0.11773232  0.76375135  1
  O  O361  1  0.75781187  0.61996610  0.25114233  1
  O  O362  1  0.75636635  0.63276746  0.75558011  1
  O  O363  1  0.36934168  0.11982618  0.36784305  1
  O  O364  1  0.37481141  0.12280089  0.86628071  1
  O  O365  1  0.36368538  0.62604820  0.36577643  1
  O  O366  1  0.37299884  0.61099158  0.88006660  1
  O  O367  1  0.86493694  0.12398976  0.37911084  1
  O  O368  1  0.86073650  0.13089485  0.88476035  1
  O  O369  1  0.86768983  0.62463545  0.36682538  1
  O  O370  1  0.86265804  0.62231198  0.86336315  1
  O  O371  1  0.13152313  0.38426826  0.12204930  1
  O  O372  1  0.13322246  0.38313025  0.61965584  1
  O  O373  1  0.13336604  0.87152063  0.13477230  1
  O  O374  1  0.13434022  0.88492308  0.63011673  1
  O  O375  1  0.63067558  0.38061659  0.13148161  1
  O  O376  1  0.62656687  0.37903424  0.63655087  1
  O  O377  1  0.63239787  0.88390468  0.12950635  1
  O  O378  1  0.63167762  0.87124736  0.63373982  1
  O  O379  1  0.14290627  0.26333274  0.27678903  1
  O  O380  1  0.11966169  0.24709342  0.76180575  1
  O  O381  1  0.11229771  0.75432412  0.24782142  1
  O  O382  1  0.11950437  0.75652848  0.75135775  1
  O  O383  1  0.61796047  0.25308179  0.25932559  1
  O  O384  1  0.62270894  0.26110116  0.76283742  1
  O  O385  1  0.61857142  0.75359520  0.25747878  1
  O  O386  1  0.62216811  0.76244333  0.75814803  1
  O  O387  1  0.38081991  0.24156970  0.25079716  1
  O  O388  1  0.37236068  0.24068254  0.74118657  1
  O  O389  1  0.38351213  0.74166938  0.24873249  1
  O  O390  1  0.37489424  0.75571543  0.73629917  1
  O  O391  1  0.87258264  0.25463239  0.23046499  1
  O  O392  1  0.88355934  0.25151802  0.75151333  1
  O  O393  1  0.88602072  0.74120518  0.25197604  1
  O  O394  1  0.88115216  0.74599866  0.74341171  1
  O  O395  1  0.38989699  0.49724257  0.50625455  1
  O  O396  1  0.38250483  0.49506369  0.99749340  1
  O  O397  1  0.38620453  1.00396415  0.48547268  1
  O  O398  1  0.37357877  0.99288435  0.99588440  1
  O  O399  1  0.86442708  0.48562621  0.50114596  1
  O  O400  1  0.87281454  0.48573951  0.99840449  1
  O  O401  1  0.87590138  0.98457229  0.49832204  1
  O  O402  1  0.88075513  0.99228457  0.99373363  1
  O  O403  1  0.11849745  0.00619703  -0.01277496  1
  O  O404  1  0.12773189  -0.00259080  0.50742829  1
  O  O405  1  0.12723917  0.50558373  0.01229592  1
  O  O406  1  0.13257073  0.51202745  0.51593110  1
  O  O407  1  0.62614899  0.00589975  0.01228807  1
  O  O408  1  0.61077929  -0.00005051  0.49243243  1
  O  O409  1  0.61834965  0.50352544  0.00557476  1
  O  O410  1  0.61476016  0.50067212  0.51050918  1
  O  O411  1  0.36691658  0.37325475  0.11432326  1
  O  O412  1  0.36905900  0.36559547  0.62478685  1
  O  O413  1  0.37180552  0.87074954  0.11511128  1
  O  O414  1  0.36230974  0.87106025  0.62708979  1
  O  O415  1  0.86808045  0.37368485  0.11717000  1
  O  O416  1  0.86597654  0.37577371  0.62077925  1
  O  O417  1  0.86584924  0.87454757  0.11056859  1
  O  O418  1  0.86616966  0.87043790  0.61508262  1
  O  O419  1  0.13156909  0.13143317  0.38830001  1
  O  O420  1  0.13561100  0.13311980  0.87840193  1
  O  O421  1  0.13513306  0.62102920  0.38626476  1
  O  O422  1  0.12562344  0.63760545  0.87666241  1
  O  O423  1  0.63468803  0.13208790  0.37484174  1
  O  O424  1  0.62798061  0.13654410  0.88025540  1
  O  O425  1  0.62634470  0.63850612  0.37765557  1
  O  O426  1  0.62678596  0.63189005  0.87857128  1
