# generated using pymatgen
data_V85Zn86O256
_symmetry_space_group_name_H-M   'P 1'
_cell_length_a   16.91838831
_cell_length_b   16.92370769
_cell_length_c   16.92383588
_cell_angle_alpha   90.00182992
_cell_angle_beta   90.08716965
_cell_angle_gamma   90.01883790
_symmetry_Int_Tables_number   1
_chemical_formula_structural   V85Zn86O256
_chemical_formula_sum   'V85 Zn86 O256'
_cell_volume   4845.65826868
_cell_formula_units_Z   1
loop_
 _symmetry_equiv_pos_site_id
 _symmetry_equiv_pos_as_xyz
  1  'x, y, z'
loop_
 _atom_site_type_symbol
 _atom_site_label
 _atom_site_symmetry_multiplicity
 _atom_site_fract_x
 _atom_site_fract_y
 _atom_site_fract_z
 _atom_site_occupancy
  V  V0  1  0.00341071  0.23957521  0.25516247  1
  V  V1  1  0.63536023  0.25641251  0.37161964  1
  V  V2  1  0.87310632  0.62489052  0.25328053  1
  V  V3  1  0.13605689  0.50240422  0.13002232  1
  V  V4  1  0.37930595  0.23315966  0.62777195  1
  V  V5  1  0.74423626  0.88784090  0.12914409  1
  V  V6  1  0.00454864  0.49781213  0.50134994  1
  V  V7  1  0.24522827  0.24827151  0.00097931  1
  V  V8  1  0.62507494  0.50878793  0.62056231  1
  V  V9  1  0.00307674  0.75255297  0.24850626  1
  V  V10  1  0.13060664  0.37366956  0.74327390  1
  V  V11  1  0.12973142  0.25336234  0.37798451  1
  V  V12  1  0.86779699  0.24771523  0.62244553  1
  V  V13  1  0.62359141  0.37100009  0.74941680  1
  V  V14  1  -0.00584305  0.00430356  0.49906533  1
  V  V15  1  0.74766839  0.37271555  0.62281180  1
  V  V16  1  0.25386316  0.49471040  0.74354118  1
  V  V17  1  0.86934685  0.75285455  0.12412725  1
  V  V18  1  0.00450967  0.37539713  0.87512957  1
  V  V19  1  0.86981884  0.11927314  0.75822975  1
  V  V20  1  0.00780581  0.12592077  0.12505857  1
  V  V21  1  0.87381132  0.62592851  0.75138315  1
  V  V22  1  0.86691775  0.75020281  0.62003492  1
  V  V23  1  0.62066027  0.13265675  0.50378849  1
  V  V24  1  0.12680670  0.12633080  0.50289176  1
  V  V25  1  0.37583232  0.62319346  0.74482717  1
  V  V26  1  0.36896425  0.88090829  0.49406151  1
  V  V27  1  0.63201216  0.23532288  0.87714517  1
  V  V28  1  0.13074194  0.00247082  0.12023571  1
  V  V29  1  0.00264569  0.50060132  0.00228312  1
  V  V30  1  0.86794958  0.87458177  0.49529927  1
  V  V31  1  0.87449300  0.50317097  0.37474724  1
  V  V32  1  0.50290465  0.37707657  0.87733353  1
  V  V33  1  0.37954934  0.37735573  0.00036039  1
  V  V34  1  0.50201413  0.00356022  0.00604589  1
  V  V35  1  0.24332210  0.63292225  0.37279630  1
  V  V36  1  0.62154131  0.74850963  0.87357509  1
  V  V37  1  0.62610757  0.88620755  0.24818508  1
  V  V38  1  0.74930097  0.49872002  0.75012577  1
  V  V39  1  0.74896162  0.62535553  0.87658246  1
  V  V40  1  0.75306253  0.12072957  0.37037099  1
  V  V41  1  0.74840155  0.63037138  0.38734418  1
  V  V42  1  0.73915426  0.49855971  0.25045584  1
  V  V43  1  0.87799230  0.24943165  0.13388797  1
  V  V44  1  0.37405332  0.10743848  0.25471148  1
  V  V45  1  0.50189485  0.50884222  0.49648021  1
  V  V46  1  0.00137711  0.24950458  0.75087901  1
  V  V47  1  0.49730675  0.75044591  0.74656767  1
  V  V48  1  -0.00095516  0.00754619  -0.00499063  1
  V  V49  1  0.87372262  0.00442139  0.35796904  1
  V  V50  1  0.50213591  0.74738188  0.24895570  1
  V  V51  1  0.24525874  0.86616413  0.62185055  1
  V  V52  1  -0.00324672  0.75160829  0.75355196  1
  V  V53  1  0.49856630  0.23574152  0.74736307  1
  V  V54  1  0.87025504  0.37113806  0.49771161  1
  V  V55  1  0.24970496  0.87306760  0.11910063  1
  V  V56  1  0.00247582  0.62469057  0.62409927  1
  V  V57  1  0.74749393  0.88051235  0.62167303  1
  V  V58  1  0.00008026  0.62465021  0.12669731  1
  V  V59  1  0.37768826  0.24689914  0.13021782  1
  V  V60  1  0.12826397  0.75240413  0.87951526  1
  V  V61  1  0.49403592  0.88305215  0.87143831  1
  V  V62  1  0.74599359  0.74960755  0.00335636  1
  V  V63  1  0.00523507  0.87485304  0.37349808  1
  V  V64  1  0.87576983  0.49944808  0.87640640  1
  V  V65  1  0.87626946  0.37431869  0.00337264  1
  V  V66  1  0.25707133  0.11633002  0.88221018  1
  V  V67  1  0.50177777  0.37356192  0.36929313  1
  V  V68  1  0.13163691  0.37850846  0.25189062  1
  V  V69  1  0.49400082  0.88787555  0.37818103  1
  V  V70  1  0.25261618  0.62620440  0.87798259  1
  V  V71  1  0.37291796  0.74901157  0.11987620  1
  V  V72  1  0.74377401  0.37210118  0.12878541  1
  V  V73  1  0.26093575  0.00652681  0.74703152  1
  V  V74  1  0.61885059  0.61465960  -0.00031385  1
  V  V75  1  0.60895516  0.00164920  0.61753580  1
  V  V76  1  0.62402761  0.74690066  0.38614095  1
  V  V77  1  0.37860476  0.37598679  0.50799496  1
  V  V78  1  0.13526802  0.87587456  0.25048034  1
  V  V79  1  -0.00753866  0.88001895  0.87690999  1
  V  V80  1  0.36987336  0.87747003  -0.00662022  1
  V  V81  1  0.12862694  0.62704560  0.00030135  1
  V  V82  1  -0.00334749  0.12579264  0.62675458  1
  V  V83  1  0.49844428  0.61553534  0.12226843  1
  V  V84  1  0.25320678  0.25611279  0.50549350  1
  Zn  Zn85  1  0.75718592  0.23997504  -0.00289671  1
  Zn  Zn86  1  0.50244926  0.62952758  0.61786113  1
  Zn  Zn87  1  -0.00229769  0.37670602  0.37211658  1
  Zn  Zn88  1  0.81237853  0.05802599  0.91864015  1
  Zn  Zn89  1  0.74553903  0.00079859  0.75419342  1
  Zn  Zn90  1  0.38071089  0.49960443  0.87679885  1
  Zn  Zn91  1  0.50550048  0.24999537  0.24878594  1
  Zn  Zn92  1  0.50855812  0.12223087  0.13066488  1
  Zn  Zn93  1  0.36510146  0.49787463  0.36904495  1
  Zn  Zn94  1  0.26201660  0.10885611  0.37745268  1
  Zn  Zn95  1  0.12330697  0.00057810  0.62968195  1
  Zn  Zn96  1  0.12803168  0.24471413  0.87718658  1
  Zn  Zn97  1  0.86674092  0.88629029  -0.00215074  1
  Zn  Zn98  1  0.36569311  0.61335055  0.24767413  1
  Zn  Zn99  1  0.25633333  0.37726976  0.13009657  1
  Zn  Zn100  1  0.14767697  0.66741622  0.50285333  1
  Zn  Zn101  1  0.12462390  0.87986660  0.75335471  1
  Zn  Zn102  1  0.13187706  0.50222435  0.62152309  1
  Zn  Zn103  1  0.62342215  0.87728478  0.74680388  1
  Zn  Zn104  1  0.64500318  0.10883882  0.00887512  1
  Zn  Zn105  1  0.61953409  0.49063992  0.12301856  1
  Zn  Zn106  1  0.36828822  0.74560011  0.61473979  1
  Zn  Zn107  1  0.19337269  0.18589858  0.19013209  1
  Zn  Zn108  1  0.19222430  0.18716019  0.68872064  1
  Zn  Zn109  1  0.19007092  0.69075022  0.19117991  1
  Zn  Zn110  1  0.18401934  0.68630017  0.69452778  1
  Zn  Zn111  1  0.68787147  0.18330558  0.18793190  1
  Zn  Zn112  1  0.68678380  0.18379397  0.68712258  1
  Zn  Zn113  1  0.68354142  0.68675031  0.19112464  1
  Zn  Zn114  1  0.68800050  0.69044861  0.68642455  1
  Zn  Zn115  1  0.31416701  0.31047741  0.31672048  1
  Zn  Zn116  1  0.31482835  0.30678311  0.81311433  1
  Zn  Zn117  1  0.31451932  0.80471320  0.31192063  1
  Zn  Zn118  1  0.31057215  0.81234137  0.80691719  1
  Zn  Zn119  1  0.81038110  0.31154526  0.31195069  1
  Zn  Zn120  1  0.81361326  0.31015818  0.81106918  1
  Zn  Zn121  1  0.80982287  0.81242317  0.31289512  1
  Zn  Zn122  1  0.80814907  0.81795706  0.81199593  1
  Zn  Zn123  1  0.19177014  0.44072501  0.43648664  1
  Zn  Zn124  1  0.19294131  0.43690617  0.93523161  1
  Zn  Zn125  1  0.18751111  0.93844286  0.44057475  1
  Zn  Zn126  1  0.18632037  0.94035536  0.93693411  1
  Zn  Zn127  1  0.68806571  0.44035682  0.43884820  1
  Zn  Zn128  1  0.68899064  0.43062848  0.93819704  1
  Zn  Zn129  1  0.68449110  0.94136921  0.43514682  1
  Zn  Zn130  1  0.68140164  0.93101547  0.93589579  1
  Zn  Zn131  1  0.31762551  0.06022767  0.06421453  1
  Zn  Zn132  1  0.31236049  0.05874074  0.56124300  1
  Zn  Zn133  1  0.31580671  0.56146328  0.05909127  1
  Zn  Zn134  1  0.31172063  0.56335269  0.55519090  1
  Zn  Zn135  1  0.82071884  0.06673999  0.08334661  1
  Zn  Zn136  1  0.80528381  0.06482292  0.55707590  1
  Zn  Zn137  1  0.81023354  0.56131401  0.06486044  1
  Zn  Zn138  1  0.81540097  0.56004339  0.56226628  1
  Zn  Zn139  1  0.43753301  0.43446879  0.18938034  1
  Zn  Zn140  1  0.44085770  0.43369428  0.68631774  1
  Zn  Zn141  1  0.43904844  0.93376106  0.18628519  1
  Zn  Zn142  1  0.43191228  0.93490878  0.68254846  1
  Zn  Zn143  1  0.94209285  0.43552053  0.19158687  1
  Zn  Zn144  1  0.93826993  0.43621731  0.68732535  1
  Zn  Zn145  1  0.94082633  0.93713619  0.18221626  1
  Zn  Zn146  1  0.93637000  0.93789698  0.68712838  1
  Zn  Zn147  1  0.09299167  0.05060766  0.32276883  1
  Zn  Zn148  1  0.07139766  0.06456944  0.81390887  1
  Zn  Zn149  1  0.06876081  0.56499100  0.31683294  1
  Zn  Zn150  1  0.06619297  0.56090991  0.81095580  1
  Zn  Zn151  1  0.56271513  0.07006098  0.31378812  1
  Zn  Zn152  1  0.56280459  0.05793716  0.81025680  1
  Zn  Zn153  1  0.55823713  0.56460940  0.31293346  1
  Zn  Zn154  1  0.56161870  0.56041902  0.80935419  1
  Zn  Zn155  1  0.44172481  0.18557323  0.43524784  1
  Zn  Zn156  1  0.43376570  0.18952977  0.93440485  1
  Zn  Zn157  1  0.42662178  0.69169277  0.43354717  1
  Zn  Zn158  1  0.43653773  0.68975355  0.93686590  1
  Zn  Zn159  1  0.93567766  0.18906117  0.43586837  1
  Zn  Zn160  1  0.94522844  0.19183123  0.94242495  1
  Zn  Zn161  1  0.96910606  0.70333890  0.45057058  1
  Zn  Zn162  1  0.93767570  0.68992570  0.94043359  1
  Zn  Zn163  1  0.06642935  0.31488801  0.06602347  1
  Zn  Zn164  1  0.05912106  0.31383074  0.56448591  1
  Zn  Zn165  1  0.06055356  0.81513026  0.05935643  1
  Zn  Zn166  1  0.05766586  0.81822099  0.56684104  1
  Zn  Zn167  1  0.56336367  0.30229478  0.05881757  1
  Zn  Zn168  1  0.56030737  0.31182118  0.55992289  1
  Zn  Zn169  1  0.56001086  0.81193614  0.06186134  1
  Zn  Zn170  1  0.55583506  0.81678166  0.55899698  1
  O  O171  1  0.11889618  0.11710498  0.13071438  1
  O  O172  1  0.11746092  0.12930933  0.61560628  1
  O  O173  1  0.12105558  0.62085745  0.12106351  1
  O  O174  1  0.11567484  0.62642301  0.62004568  1
  O  O175  1  0.62051329  0.13373800  0.11661125  1
  O  O176  1  0.62912574  0.11605377  0.61352249  1
  O  O177  1  0.61667301  0.62387505  0.11575112  1
  O  O178  1  0.62473137  0.61252963  0.62942205  1
  O  O179  1  0.38541021  0.37099131  0.38723877  1
  O  O180  1  0.38586953  0.37053858  0.88168370  1
  O  O181  1  0.38665839  0.87168444  0.37483039  1
  O  O182  1  0.38166226  0.86275819  0.88306685  1
  O  O183  1  0.87423476  0.38106776  0.38292723  1
  O  O184  1  0.88317116  0.37819849  0.88166460  1
  O  O185  1  0.87830344  0.88391721  0.37876615  1
  O  O186  1  0.88853470  0.86632013  0.87939560  1
  O  O187  1  0.19939755  0.01643138  0.36349436  1
  O  O188  1  0.24930172  0.00814576  0.86599130  1
  O  O189  1  0.25109818  0.51670153  0.38276111  1
  O  O190  1  0.25331186  0.50927625  0.86359550  1
  O  O191  1  0.75838448  0.01058532  0.37554685  1
  O  O192  1  0.75332408  -0.01959362  0.86657267  1
  O  O193  1  0.75379701  0.50706000  0.36796629  1
  O  O194  1  0.75649916  0.50369369  0.87092850  1
  O  O195  1  0.23906277  0.50017031  0.12155124  1
  O  O196  1  0.25089645  0.50540422  0.63854003  1
  O  O197  1  0.24312972  0.98730114  0.11998285  1
  O  O198  1  0.24717870  0.99374364  0.63449501  1
  O  O199  1  0.74926078  0.49089034  0.13344179  1
  O  O200  1  0.74444560  0.49449823  0.63009439  1
  O  O201  1  0.75282282  0.98713082  0.12749851  1
  O  O202  1  0.74687208  0.99110169  0.62733330  1
  O  O203  1  0.01417685  0.36349850  0.25048749  1
  O  O204  1  0.00519989  0.36966227  0.75666675  1
  O  O205  1  0.00577336  0.86972219  0.25314165  1
  O  O206  1  -0.00041502  0.87118472  0.75847363  1
  O  O207  1  0.50258265  0.37235974  0.26548962  1
  O  O208  1  0.50772675  0.36475841  0.75581899  1
  O  O209  1  0.50765496  0.86833008  0.25590442  1
  O  O210  1  0.49712393  0.86738602  0.75461019  1
  O  O211  1  0.48851629  0.12903293  0.25002225  1
  O  O212  1  0.50112289  0.13641323  0.75416919  1
  O  O213  1  0.50006012  0.63310815  0.23961757  1
  O  O214  1  0.49112671  0.63087001  0.74878912  1
  O  O215  1  1.01343558  0.13675847  0.24769239  1
  O  O216  1  0.99383656  0.13030630  0.74523625  1
  O  O217  1  0.99549569  0.63355336  0.24604906  1
  O  O218  1  0.99520984  0.62780285  0.74140780  1
  O  O219  1  0.36848472  0.25580557  0.00946415  1
  O  O220  1  0.37206546  0.25147892  0.50822765  1
  O  O221  1  0.38217085  0.76034514  0.01240003  1
  O  O222  1  0.38397807  0.76957213  0.50348497  1
  O  O223  1  0.87932589  0.25745997  0.01363381  1
  O  O224  1  0.87874974  0.25857580  0.51027201  1
  O  O225  1  0.86745130  0.74898565  0.01272355  1
  O  O226  1  0.88179530  0.76248376  0.50853280  1
  O  O227  1  0.13334793  0.24993846  0.49955048  1
  O  O228  1  0.14106559  0.25590873  1.00154742  1
  O  O229  1  0.07363675  0.74645354  0.48519762  1
  O  O230  1  0.11830099  0.74232983  0.98822676  1
  O  O231  1  0.62585564  0.23957644  0.49426360  1
  O  O232  1  0.63171325  0.24648468  0.98409354  1
  O  O233  1  0.61970277  0.75318061  0.48491475  1
  O  O234  1  0.62752420  0.74107891  0.99300200  1
  O  O235  1  0.49151528  0.24748220  0.12747885  1
  O  O236  1  0.48996465  0.25097263  0.63190503  1
  O  O237  1  0.49478837  0.74188188  0.13031100  1
  O  O238  1  0.50194078  0.74927931  0.63616175  1
  O  O239  1  1.00065773  0.24456105  0.13226460  1
  O  O240  1  0.98858976  0.24591189  0.63126007  1
  O  O241  1  0.99003438  0.74752726  0.13012909  1
  O  O242  1  0.98672766  0.74424908  0.63514340  1
  O  O243  1  0.00495386  0.25559058  0.36971267  1
  O  O244  1  0.00625708  0.25785294  0.86996744  1
  O  O245  1  -0.01879669  0.76401925  0.35429887  1
  O  O246  1  0.00496689  0.75580010  0.87162879  1
  O  O247  1  0.51454591  0.25763208  0.37666774  1
  O  O248  1  0.51096583  0.25491018  0.86856995  1
  O  O249  1  0.50894495  0.75438021  0.36639622  1
  O  O250  1  0.50289536  0.75414519  0.86345361  1
  O  O251  1  0.24107721  0.13222616  0.49896780  1
  O  O252  1  0.25669398  0.12911784  0.99087001  1
  O  O253  1  0.25237424  0.63316221  0.49059754  1
  O  O254  1  0.24684903  0.62121507  0.98570144  1
  O  O255  1  0.73614607  0.12280141  0.48676205  1
  O  O256  1  0.76054437  0.12219590  1.00047394  1
  O  O257  1  0.75382460  0.62021320  0.48654919  1
  O  O258  1  0.74325128  0.63029862  0.99523170  1
  O  O259  1  0.25996960  0.36600395  0.00039934  1
  O  O260  1  0.25957606  0.36306584  0.49669300  1
  O  O261  1  0.25777395  0.87624250  0.00489170  1
  O  O262  1  0.24897790  0.87600656  0.51188667  1
  O  O263  1  0.76257858  0.37194036  0.00823352  1
  O  O264  1  0.76241400  0.38140309  0.50785944  1
  O  O265  1  0.74665151  0.86612756  0.01123569  1
  O  O266  1  0.76027838  0.88060996  0.50448407  1
  O  O267  1  0.11658877  0.49145766  0.24115680  1
  O  O268  1  0.13484044  0.49305637  0.74742401  1
  O  O269  1  0.11194827  0.98442243  0.22881225  1
  O  O270  1  0.13593660  0.99746692  0.74714524  1
  O  O271  1  0.63622499  0.50398102  0.24719918  1
  O  O272  1  0.63076152  0.49216093  0.74275927  1
  O  O273  1  0.62067036  0.98476735  0.25470690  1
  O  O274  1  0.62562272  0.99972699  0.73282444  1
  O  O275  1  0.37638370  0.00852244  0.24690720  1
  O  O276  1  0.35995173  -0.00573287  0.74913512  1
  O  O277  1  0.37964462  0.50018801  0.25535870  1
  O  O278  1  0.37197262  0.50520387  0.75177013  1
  O  O279  1  0.88154592  -0.00146566  0.25908427  1
  O  O280  1  0.87702744  0.01711108  0.74680526  1
  O  O281  1  0.87135847  0.50535450  0.25709286  1
  O  O282  1  0.86973987  0.50518258  0.75601769  1
  O  O283  1  0.12335002  0.36681565  0.37233865  1
  O  O284  1  0.11805978  0.37612132  0.86580558  1
  O  O285  1  0.11051936  0.87687688  0.36583040  1
  O  O286  1  0.11502765  0.86688982  0.87710835  1
  O  O287  1  0.62297924  0.36145572  0.38459299  1
  O  O288  1  0.62082304  0.36602613  0.86895340  1
  O  O289  1  0.61851855  0.86688518  0.36732339  1
  O  O290  1  0.61138141  0.86327250  0.87042953  1
  O  O291  1  0.38018872  0.13002660  0.13495193  1
  O  O292  1  0.37791037  0.13444889  0.61993859  1
  O  O293  1  0.38058488  0.63186018  0.12318510  1
  O  O294  1  0.37722575  0.62633322  0.63437965  1
  O  O295  1  0.89499882  0.13696769  0.13267767  1
  O  O296  1  0.87659904  0.13206607  0.63055423  1
  O  O297  1  0.87971686  0.63083371  0.13176008  1
  O  O298  1  0.87721717  0.63206323  0.63202495  1
  O  O299  1  0.25864731  0.25062862  0.11754099  1
  O  O300  1  0.26548991  0.24615364  0.61854629  1
  O  O301  1  0.25858749  0.76129302  0.12647461  1
  O  O302  1  0.24606508  0.76261036  0.63189182  1
  O  O303  1  0.76313752  0.25612767  0.12798894  1
  O  O304  1  0.76038332  0.25562849  0.63077086  1
  O  O305  1  0.75407509  0.75297187  0.12239048  1
  O  O306  1  0.76057572  0.75611280  0.62481905  1
  O  O307  1  0.24250646  0.24446584  0.38588642  1
  O  O308  1  0.24992052  0.24290430  0.88464097  1
  O  O309  1  0.24990741  0.73667012  0.37391627  1
  O  O310  1  0.23909946  0.74056693  0.86706461  1
  O  O311  1  0.74187077  0.24416775  0.37786905  1
  O  O312  1  0.73639461  0.25321358  0.87429158  1
  O  O313  1  0.73510307  0.74431295  0.37060604  1
  O  O314  1  0.74238390  0.74588220  0.88094183  1
  O  O315  1  0.00297471  0.11836586  0.00971376  1
  O  O316  1  0.00158155  0.12163415  0.50734535  1
  O  O317  1  0.00606742  0.62004960  0.00707877  1
  O  O318  1  -0.01475369  0.61045492  0.51683130  1
  O  O319  1  0.49114472  0.10662028  -0.00567805  1
  O  O320  1  0.52112370  0.12290679  0.49057687  1
  O  O321  1  0.50777868  0.62869485  0.00686272  1
  O  O322  1  0.49327426  0.61249486  0.49851970  1
  O  O323  1  0.49546581  0.38255146  0.49237525  1
  O  O324  1  0.49333218  0.36630739  0.98959651  1
  O  O325  1  0.49399975  0.87822437  0.48358870  1
  O  O326  1  0.49349691  0.88077362  0.99171493  1
  O  O327  1  0.98674953  0.38126499  0.50129693  1
  O  O328  1  0.99624182  0.38064567  0.99612062  1
  O  O329  1  0.98844073  0.88687550  0.49154691  1
  O  O330  1  0.99462949  0.88626410  0.99439579  1
  O  O331  1  0.50553563  0.49124509  0.38330379  1
  O  O332  1  0.50146396  0.48251492  0.86925664  1
  O  O333  1  0.50478033  0.98509276  0.36940726  1
  O  O334  1  0.49953662  0.98647600  0.87770931  1
  O  O335  1  0.99328738  0.49972798  0.38381137  1
  O  O336  1  0.99535895  0.49620154  0.88069654  1
  O  O337  1  0.99516087  0.99545169  0.38060879  1
  O  O338  1  1.00716686  0.99391583  0.88409609  1
  O  O339  1  0.00448238  0.00874554  0.11560452  1
  O  O340  1  -0.00202957  0.00704819  0.61635876  1
  O  O341  1  0.00757604  0.50611768  0.12029558  1
  O  O342  1  0.00010229  0.50867547  0.62130771  1
  O  O343  1  0.49753555  -0.00156705  0.10935362  1
  O  O344  1  0.51040761  -0.00549742  0.62271194  1
  O  O345  1  0.50237823  0.51124287  0.12610806  1
  O  O346  1  0.50941627  0.50061683  0.61736792  1
  O  O347  1  0.23635101  0.36797125  0.25071264  1
  O  O348  1  0.24295871  0.38221807  0.75733331  1
  O  O349  1  0.23907255  0.86829115  0.24388234  1
  O  O350  1  0.24734138  0.88287514  0.73941566  1
  O  O351  1  0.75630697  0.38535189  0.24062860  1
  O  O352  1  0.74534870  0.38009400  0.74390632  1
  O  O353  1  0.73409043  0.86954298  0.24482385  1
  O  O354  1  0.74572577  0.87322190  0.73346562  1
  O  O355  1  0.27013472  0.12932495  0.25259177  1
  O  O356  1  0.25091714  0.11161457  0.75411894  1
  O  O357  1  0.24830787  0.62699175  0.26224051  1
  O  O358  1  0.25775370  0.61909024  0.75745508  1
  O  O359  1  0.74827264  0.12911986  0.26992849  1
  O  O360  1  0.76608157  0.12454622  0.74953756  1
  O  O361  1  0.75555329  0.61719945  0.25431554  1
  O  O362  1  0.75365775  0.61969252  0.75758984  1
  O  O363  1  0.37634977  0.12674702  0.36120140  1
  O  O364  1  0.35661638  0.13377271  0.86929838  1
  O  O365  1  0.36451540  0.62364604  0.36907357  1
  O  O366  1  0.36917364  0.62411182  0.86667404  1
  O  O367  1  0.86308108  0.11859977  0.38121049  1
  O  O368  1  0.88164547  0.13278231  0.86200484  1
  O  O369  1  0.86670097  0.62310678  0.36782449  1
  O  O370  1  0.87003499  0.62074921  0.87129415  1
  O  O371  1  0.12894031  0.38546349  0.13353664  1
  O  O372  1  0.11897223  0.37840657  0.63976283  1
  O  O373  1  0.13309535  0.87724822  0.12704898  1
  O  O374  1  0.13194372  0.87778056  0.62757952  1
  O  O375  1  0.63971835  0.37163421  0.11635906  1
  O  O376  1  0.63088855  0.37894686  0.62988898  1
  O  O377  1  0.62887024  0.86985571  0.13894096  1
  O  O378  1  0.63030844  0.88552355  0.61957702  1
  O  O379  1  0.12315872  0.25383938  0.26109297  1
  O  O380  1  0.12026183  0.25706784  0.74963554  1
  O  O381  1  0.11144302  0.76108150  0.24084241  1
  O  O382  1  0.11451491  0.75126273  0.76280711  1
  O  O383  1  0.62655803  0.24829036  0.26855287  1
  O  O384  1  0.62039790  0.25076960  0.75748354  1
  O  O385  1  0.61379431  0.75671679  0.25484473  1
  O  O386  1  0.61628383  0.74992419  0.75613293  1
  O  O387  1  0.37687346  0.25268182  0.23760030  1
  O  O388  1  0.38255118  0.25372653  0.73472338  1
  O  O389  1  0.38730578  0.75077257  0.23615531  1
  O  O390  1  0.38108984  0.74061778  0.74486113  1
  O  O391  1  0.88796276  0.25854838  0.24162933  1
  O  O392  1  0.88164001  0.24257453  0.74323109  1
  O  O393  1  0.87656621  0.74616473  0.23841781  1
  O  O394  1  0.87755588  0.74453645  0.74483373  1
  O  O395  1  0.38436908  0.49035504  0.49824016  1
  O  O396  1  0.37163362  0.48269464  0.99633410  1
  O  O397  1  0.36682609  0.98358642  0.49651273  1
  O  O398  1  0.38418746  0.98493327  1.00058430  1
  O  O399  1  0.88213836  0.49141143  0.49473713  1
  O  O400  1  0.88115351  0.49503011  0.99610120  1
  O  O401  1  0.88219566  0.99618297  0.49393495  1
  O  O402  1  0.88522402  1.00370331  1.00134258  1
  O  O403  1  0.11564389  -0.00474727  0.01235411  1
  O  O404  1  0.11031950  0.01050390  0.50597616  1
  O  O405  1  0.12148919  0.50565291  0.00691414  1
  O  O406  1  0.10903425  0.48852706  0.50441057  1
  O  O407  1  0.60704456  -0.00290701  -0.00590090  1
  O  O408  1  0.62819470  0.00828857  0.51170604  1
  O  O409  1  0.63200336  0.51157497  0.00032724  1
  O  O410  1  0.61668151  0.49580555  0.50992746  1
  O  O411  1  0.37596110  0.36657463  0.11714506  1
  O  O412  1  0.38159009  0.36611567  0.61155457  1
  O  O413  1  0.36812560  0.86895492  0.11834969  1
  O  O414  1  0.36009805  0.87203012  0.61684500  1
  O  O415  1  0.87271336  0.37004818  0.12050505  1
  O  O416  1  0.86879197  0.36786786  0.62062672  1
  O  O417  1  0.86515118  0.86736449  0.12407995  1
  O  O418  1  0.86814059  0.87012866  0.61699617  1
  O  O419  1  0.11064122  0.14412850  0.39367811  1
  O  O420  1  0.14649012  0.13001338  0.87081056  1
  O  O421  1  0.13555529  0.62491932  0.38354118  1
  O  O422  1  0.13208504  0.63066696  0.87905154  1
  O  O423  1  0.63356538  0.13370086  0.38181025  1
  O  O424  1  0.62459078  0.13318802  0.87743113  1
  O  O425  1  0.63123255  0.63951946  0.36993717  1
  O  O426  1  0.62774406  0.62875728  0.88029885  1
