# generated using pymatgen
data_V85Zn86O256
_symmetry_space_group_name_H-M   'P 1'
_cell_length_a   16.93104624
_cell_length_b   16.93074352
_cell_length_c   16.92535850
_cell_angle_alpha   89.97672490
_cell_angle_beta   90.04511506
_cell_angle_gamma   89.94184633
_symmetry_Int_Tables_number   1
_chemical_formula_structural   V85Zn86O256
_chemical_formula_sum   'V85 Zn86 O256'
_cell_volume   4851.73764287
_cell_formula_units_Z   1
loop_
 _symmetry_equiv_pos_site_id
 _symmetry_equiv_pos_as_xyz
  1  'x, y, z'
loop_
 _atom_site_type_symbol
 _atom_site_label
 _atom_site_symmetry_multiplicity
 _atom_site_fract_x
 _atom_site_fract_y
 _atom_site_fract_z
 _atom_site_occupancy
  V  V0  1  0.12006007  0.11882471  0.00117892  1
  V  V1  1  0.87461767  0.62470095  0.24871552  1
  V  V2  1  0.74913959  0.12692348  0.37742425  1
  V  V3  1  0.62015957  0.00330908  0.62955540  1
  V  V4  1  0.38060473  0.74847857  0.13023842  1
  V  V5  1  0.62728633  0.38028777  0.23684993  1
  V  V6  1  0.25083768  0.26218941  -0.00035812  1
  V  V7  1  0.37435018  0.37477137  0.50717523  1
  V  V8  1  0.86321387  0.38298279  -0.00249470  1
  V  V9  1  0.62275080  0.12406224  0.50384568  1
  V  V10  1  0.49637474  0.62965450  0.62635985  1
  V  V11  1  0.25168931  0.86743973  0.62839355  1
  V  V12  1  0.24944083  0.25367654  0.50765688  1
  V  V13  1  0.12085278  0.74920199  0.86841012  1
  V  V14  1  0.50110591  0.49047446  0.00180778  1
  V  V15  1  0.74990883  0.87404608  0.62673003  1
  V  V16  1  0.24740918  0.12489429  0.37661749  1
  V  V17  1  0.37127151  0.12629663  0.24697686  1
  V  V18  1  0.87490071  0.75257537  0.11289900  1
  V  V19  1  0.74235175  0.61837133  0.87209287  1
  V  V20  1  0.25782034  0.61842590  0.86856894  1
  V  V21  1  0.11379186  0.24793598  0.87149874  1
  V  V22  1  0.12563102  0.25148782  0.37581787  1
  V  V23  1  0.25009202  0.74683580  -0.00301553  1
  V  V24  1  0.00410691  0.62094858  0.12180979  1
  V  V25  1  0.50310292  0.86815772  0.87787847  1
  V  V26  1  0.12674695  0.74660095  0.37716665  1
  V  V27  1  0.12878018  0.36959744  0.74787201  1
  V  V28  1  0.73234399  0.74694474  -0.00861343  1
  V  V29  1  -0.00645611  0.38492519  0.86926666  1
  V  V30  1  0.13204005  0.49210665  0.62221983  1
  V  V31  1  -0.00268685  0.87393822  0.89540470  1
  V  V32  1  0.50160717  0.37708407  0.37503320  1
  V  V33  1  -0.00219718  0.37753725  0.37952503  1
  V  V34  1  0.00454270  0.62654885  0.63152427  1
  V  V35  1  0.62779479  0.24713158  0.89850678  1
  V  V36  1  0.74640842  0.00155511  0.25002304  1
  V  V37  1  0.51362800  0.62663154  0.11558285  1
  V  V38  1  0.37443151  0.87533987  -0.00062269  1
  V  V39  1  0.49837147  0.00489842  -0.00103555  1
  V  V40  1  0.49701597  0.87327318  0.37188491  1
  V  V41  1  0.75990758  0.48826024  0.74971924  1
  V  V42  1  0.12482611  0.87405975  0.24985706  1
  V  V43  1  0.49833106  0.25065842  0.24895056  1
  V  V44  1  0.87849008  -0.00438572  0.88711018  1
  V  V45  1  -0.00072044  0.87491515  0.37528571  1
  V  V46  1  0.74642558  0.49941043  0.23322054  1
  V  V47  1  0.50346159  0.49986894  0.50250557  1
  V  V48  1  0.67045273  0.05925159  0.06718357  1
  V  V49  1  0.87469622  0.00133052  0.37609279  1
  V  V50  1  0.87886736  0.12687393  0.75152203  1
  V  V51  1  -0.00125662  0.25345874  0.24560392  1
  V  V52  1  0.38063493  0.24049542  0.62703027  1
  V  V53  1  -0.00225174  0.74847432  0.25049948  1
  V  V54  1  0.25301134  0.12395018  0.87539291  1
  V  V55  1  0.62267054  0.75095364  0.37142422  1
  V  V56  1  0.11227231  0.87878606  0.74251610  1
  V  V57  1  0.88120651  0.74914724  0.63495498  1
  V  V58  1  0.51542440  0.24209088  0.74761055  1
  V  V59  1  0.86281977  0.25700120  0.11717585  1
  V  V60  1  0.37535386  0.86858741  0.50599603  1
  V  V61  1  0.13321214  0.37726155  0.24193339  1
  V  V62  1  0.25280770  0.62090312  0.37372509  1
  V  V63  1  0.62638521  0.62582415  0.50310037  1
  V  V64  1  0.24955365  0.87468542  0.12359225  1
  V  V65  1  0.75368045  0.25639318  0.51150848  1
  V  V66  1  0.62102630  0.88005106  0.24781947  1
  V  V67  1  0.75187138  0.62166386  0.37550440  1
  V  V68  1  0.62460792  0.25076912  0.37717288  1
  V  V69  1  0.49679128  0.12134654  0.12337800  1
  V  V70  1  0.49150095  0.37732019  0.86648276  1
  V  V71  1  0.74973322  0.00056600  0.75644818  1
  V  V72  1  0.37087462  0.26462771  0.12016786  1
  V  V73  1  0.74914747  0.87318440  0.12063901  1
  V  V74  1  0.75182191  0.75031690  0.50152087  1
  V  V75  1  0.24816872  0.00168881  0.74222714  1
  V  V76  1  0.87496951  0.87606594  0.50088285  1
  V  V77  1  0.00749890  0.00432295  0.50834484  1
  V  V78  1  0.38410000  0.62464046  0.24879285  1
  V  V79  1  0.62559503  0.86532957  0.75344553  1
  V  V80  1  0.62893253  0.48923709  0.63508208  1
  V  V81  1  0.24514362  0.00130477  0.24573279  1
  V  V82  1  0.87527793  0.12977424  0.25154768  1
  V  V83  1  0.49647260  0.00365991  0.50437423  1
  V  V84  1  0.48995539  0.75083335  0.74880858  1
  Zn  Zn85  1  0.25509629  0.74496818  0.50477886  1
  Zn  Zn86  1  -0.00208169  0.50143602  -0.00361361  1
  Zn  Zn87  1  0.87473078  0.49884854  0.37512323  1
  Zn  Zn88  1  -0.00055598  0.12507088  0.12160097  1
  Zn  Zn89  1  0.25895221  0.49629015  0.23697010  1
  Zn  Zn90  1  0.10688025  -0.00940689  0.11510209  1
  Zn  Zn91  1  0.13462990  0.49085113  0.11298390  1
  Zn  Zn92  1  0.12723525  0.62217300  0.50135684  1
  Zn  Zn93  1  0.37489694  -0.00129479  0.87151533  1
  Zn  Zn94  1  0.37173758  -0.00194879  0.37565502  1
  Zn  Zn95  1  0.74633104  0.12536356  0.89070172  1
  Zn  Zn96  1  0.38061947  0.12220657  0.74691474  1
  Zn  Zn97  1  0.26024813  0.48797875  0.74775647  1
  Zn  Zn98  1  0.37907266  0.61511551  0.74871957  1
  Zn  Zn99  1  0.88128280  0.62403382  0.76009584  1
  Zn  Zn100  1  -0.00299912  0.50308782  0.50095286  1
  Zn  Zn101  1  0.01765840  0.12932905  0.64376134  1
  Zn  Zn102  1  0.88294190  0.26379645  0.64270875  1
  Zn  Zn103  1  0.12370657  0.62141629  -0.00550328  1
  Zn  Zn104  1  0.86950955  0.38275704  0.50880163  1
  Zn  Zn105  1  0.37516437  0.49939918  0.37532190  1
  Zn  Zn106  1  0.12826391  0.12343138  0.51040232  1
  Zn  Zn107  1  0.18602628  0.19133127  0.18220440  1
  Zn  Zn108  1  0.18855504  0.18816138  0.68707623  1
  Zn  Zn109  1  0.19184891  0.68312699  0.18810275  1
  Zn  Zn110  1  0.18523689  0.68831518  0.68993440  1
  Zn  Zn111  1  0.68778934  0.19621508  0.19157529  1
  Zn  Zn112  1  0.69208003  0.18247571  0.69025294  1
  Zn  Zn113  1  0.68922870  0.69265945  0.19108669  1
  Zn  Zn114  1  0.68750237  0.68274310  0.69058192  1
  Zn  Zn115  1  0.31438793  0.31171913  0.31602061  1
  Zn  Zn116  1  0.31290285  0.30747943  0.81151578  1
  Zn  Zn117  1  0.31280595  0.81042448  0.31306778  1
  Zn  Zn118  1  0.31187879  0.81269606  0.81254068  1
  Zn  Zn119  1  0.81089104  0.31602925  0.31372551  1
  Zn  Zn120  1  0.80581561  0.30968860  0.82153932  1
  Zn  Zn121  1  0.81124931  0.81152351  0.31007894  1
  Zn  Zn122  1  0.81456537  0.81080555  0.81813541  1
  Zn  Zn123  1  0.18723433  0.43708916  0.43522569  1
  Zn  Zn124  1  0.18190439  0.43939029  0.93375722  1
  Zn  Zn125  1  0.18897440  0.93457756  0.43773248  1
  Zn  Zn126  1  0.18664313  0.93693151  0.93174436  1
  Zn  Zn127  1  0.68553037  0.43890795  0.43654971  1
  Zn  Zn128  1  0.67597681  0.43802299  0.93265334  1
  Zn  Zn129  1  0.68572970  0.93865233  0.43872242  1
  Zn  Zn130  1  0.69016359  0.92888840  0.93497697  1
  Zn  Zn131  1  0.30950112  0.06497979  0.06090644  1
  Zn  Zn132  1  0.30938859  0.05948330  0.56365575  1
  Zn  Zn133  1  0.31897577  0.55676824  0.05691248  1
  Zn  Zn134  1  0.31413457  0.56130828  0.56300388  1
  Zn  Zn135  1  0.83767877  0.05702636  0.06911891  1
  Zn  Zn136  1  0.81202804  0.06345089  0.56603463  1
  Zn  Zn137  1  0.81280580  0.56772464  0.05537460  1
  Zn  Zn138  1  0.81588779  0.55991350  0.56735541  1
  Zn  Zn139  1  0.44299797  0.44483966  0.18587119  1
  Zn  Zn140  1  0.44027463  0.43335413  0.68961512  1
  Zn  Zn141  1  0.43516941  0.93966285  0.18783823  1
  Zn  Zn142  1  0.43536983  0.93731902  0.68842612  1
  Zn  Zn143  1  0.93612834  0.43823863  0.18651890  1
  Zn  Zn144  1  0.94155809  0.43756572  0.68571076  1
  Zn  Zn145  1  0.93512781  0.93779305  0.18601928  1
  Zn  Zn146  1  0.93358231  0.94245370  0.68853456  1
  Zn  Zn147  1  0.06193783  0.06351970  0.31313305  1
  Zn  Zn148  1  0.06307394  0.05598635  0.81864155  1
  Zn  Zn149  1  0.06424891  0.55972870  0.30946020  1
  Zn  Zn150  1  0.06791844  0.56037147  0.80655730  1
  Zn  Zn151  1  0.55975955  0.06138671  0.31416868  1
  Zn  Zn152  1  0.56480178  0.06432651  0.81882056  1
  Zn  Zn153  1  0.56327975  0.56260715  0.30965747  1
  Zn  Zn154  1  0.56601476  0.56209601  0.81637067  1
  Zn  Zn155  1  0.43489521  0.18595934  0.43656694  1
  Zn  Zn156  1  0.43627017  0.19116501  0.93524730  1
  Zn  Zn157  1  0.43913920  0.68834387  0.43752876  1
  Zn  Zn158  1  0.43864773  0.68547920  0.93964857  1
  Zn  Zn159  1  0.93893227  0.19064721  0.44114934  1
  Zn  Zn160  1  0.93293835  0.18952471  0.93493005  1
  Zn  Zn161  1  0.93857661  0.68460797  0.44403169  1
  Zn  Zn162  1  0.93404042  0.68727213  0.93460626  1
  Zn  Zn163  1  0.05747727  0.31106857  0.05637905  1
  Zn  Zn164  1  0.05704669  0.30781300  0.56647431  1
  Zn  Zn165  1  0.06674268  0.80362117  0.06355448  1
  Zn  Zn166  1  0.06262854  0.81251434  0.56241485  1
  Zn  Zn167  1  0.55507114  0.31443456  0.06040862  1
  Zn  Zn168  1  0.56276412  0.31089371  0.56575602  1
  Zn  Zn169  1  0.56100495  0.81434162  0.06708971  1
  Zn  Zn170  1  0.56198697  0.81374633  0.56342838  1
  O  O171  1  0.12447776  0.12460276  0.10982085  1
  O  O172  1  0.12874121  0.11946915  0.62369814  1
  O  O173  1  0.11109248  0.63339959  0.12349723  1
  O  O174  1  0.12125147  0.61708090  0.62527970  1
  O  O175  1  0.61676223  0.12514845  0.13112626  1
  O  O176  1  0.63028223  0.11019192  0.62106135  1
  O  O177  1  0.61032655  0.63241648  0.13605888  1
  O  O178  1  0.61711500  0.61952811  0.61964335  1
  O  O179  1  0.38834891  0.37350667  0.38283302  1
  O  O180  1  0.39311631  0.36130351  0.87469685  1
  O  O181  1  0.38206098  0.87652382  0.37985683  1
  O  O182  1  0.38265650  0.87608697  0.88240551  1
  O  O183  1  0.88504441  0.37637293  0.37742036  1
  O  O184  1  0.88679862  0.36560460  0.88431446  1
  O  O185  1  0.87866251  0.87920565  0.38032137  1
  O  O186  1  0.89151848  0.87772702  0.87161431  1
  O  O187  1  0.24896426  0.00758075  0.36704504  1
  O  O188  1  0.25089247  0.00631899  0.86462565  1
  O  O189  1  0.25198952  0.51148748  0.37079687  1
  O  O190  1  0.24598523  0.51638140  0.87321709  1
  O  O191  1  0.75464565  0.00767119  0.37291214  1
  O  O192  1  0.75714396  -0.00243566  0.87061142  1
  O  O193  1  0.74705022  0.51434216  0.37125768  1
  O  O194  1  0.74268013  0.50917491  0.86289035  1
  O  O195  1  0.24645029  0.50916997  0.12488187  1
  O  O196  1  0.23564230  0.50292293  0.62460160  1
  O  O197  1  0.24709331  0.99254282  0.13122092  1
  O  O198  1  0.25154218  0.98930598  0.63627649  1
  O  O199  1  0.75162887  0.50998671  0.13431972  1
  O  O200  1  0.73906130  0.50748217  0.63823509  1
  O  O201  1  0.74512604  0.99583903  0.12642880  1
  O  O202  1  0.74392714  0.99230545  0.63416524  1
  O  O203  1  0.00562122  0.36754042  0.25705407  1
  O  O204  1  0.00870694  0.37597034  0.76259927  1
  O  O205  1  0.00411699  0.86787009  0.25592738  1
  O  O206  1  0.01146192  0.87927148  0.74809592  1
  O  O207  1  0.50536963  0.37245018  0.25785737  1
  O  O208  1  0.50049433  0.35916696  0.75958630  1
  O  O209  1  0.50723004  0.88230920  0.25885992  1
  O  O210  1  0.50546224  0.87036742  0.75743888  1
  O  O211  1  0.49325039  0.12887595  0.24386761  1
  O  O212  1  0.49862222  0.13738773  0.75544183  1
  O  O213  1  0.49001203  0.62205108  0.24250387  1
  O  O214  1  0.50169913  0.63450191  0.74528655  1
  O  O215  1  0.99457020  0.14038915  0.25471629  1
  O  O216  1  0.98344099  0.11436717  0.75715075  1
  O  O217  1  0.99470202  0.63038392  0.24434681  1
  O  O218  1  0.99914686  0.62338447  0.73826453  1
  O  O219  1  0.35994035  0.24525097  0.00583140  1
  O  O220  1  0.37123962  0.25443610  0.50471361  1
  O  O221  1  0.36864290  0.75511299  0.00895406  1
  O  O222  1  0.37521573  0.76444341  0.49612938  1
  O  O223  1  0.87619648  0.25783101  0.01120879  1
  O  O224  1  0.85712864  0.24917467  0.49568437  1
  O  O225  1  0.86646939  0.74984481  0.01148796  1
  O  O226  1  0.86935941  0.75759296  0.50732387  1
  O  O227  1  0.13519706  0.25062754  0.49345841  1
  O  O228  1  0.13399606  0.24214988  0.99342048  1
  O  O229  1  0.12761198  0.75121016  0.48607003  1
  O  O230  1  0.13422395  0.74719547  0.98798887  1
  O  O231  1  0.63250144  0.24347368  0.49840677  1
  O  O232  1  0.61998156  0.24395196  0.99771226  1
  O  O233  1  0.63140732  0.74838682  0.49057238  1
  O  O234  1  0.63464229  0.75119975  1.00381441  1
  O  O235  1  0.49150130  0.23890794  0.12771723  1
  O  O236  1  0.49749059  0.25001030  0.63857190  1
  O  O237  1  0.49133563  0.74147883  0.12357672  1
  O  O238  1  0.50697857  0.74248399  0.63451849  1
  O  O239  1  0.99221811  0.24836456  0.13263092  1
  O  O240  1  0.98848249  0.23378202  0.61072599  1
  O  O241  1  0.99122011  0.74664105  0.13102033  1
  O  O242  1  0.99212465  0.74296737  0.62045364  1
  O  O243  1  0.00540693  0.25724974  0.36851841  1
  O  O244  1  0.01052226  0.25574535  0.87808913  1
  O  O245  1  0.00609774  0.75410245  0.37140472  1
  O  O246  1  0.00723361  0.76238674  0.87891950  1
  O  O247  1  0.50409790  0.25555622  0.36974532  1
  O  O248  1  0.50909843  0.25143478  0.86737032  1
  O  O249  1  0.50885426  0.76349782  0.37996802  1
  O  O250  1  0.49751883  0.76157885  0.86958315  1
  O  O251  1  0.25059884  0.13081490  0.49093212  1
  O  O252  1  0.24010095  0.13024316  0.99200301  1
  O  O253  1  0.25021591  0.62719310  0.49024924  1
  O  O254  1  0.25085481  0.63627861  0.98774499  1
  O  O255  1  0.74371308  0.13103887  0.49588794  1
  O  O256  1  0.74417424  0.10798378  1.01198288  1
  O  O257  1  0.74589449  0.63062698  0.49406579  1
  O  O258  1  0.74959556  0.63715398  0.98874451  1
  O  O259  1  0.24523756  0.36067253  -0.00877222  1
  O  O260  1  0.26278726  0.36532625  0.48948574  1
  O  O261  1  0.25263162  0.86534720  0.00138188  1
  O  O262  1  0.25790306  0.87550520  0.50892748  1
  O  O263  1  0.76450278  0.38212150  -0.01185994  1
  O  O264  1  0.74682701  0.35907736  0.49379459  1
  O  O265  1  0.74580289  0.86138737  0.00931337  1
  O  O266  1  0.75476094  0.87111694  0.50559235  1
  O  O267  1  0.12724503  0.48377457  0.24719884  1
  O  O268  1  0.13207962  0.49009323  0.73902077  1
  O  O269  1  0.13357671  0.99540184  0.24846618  1
  O  O270  1  0.13226367  0.98520696  0.75619618  1
  O  O271  1  0.63310107  0.49156572  0.25297093  1
  O  O272  1  0.63262071  0.50209696  0.73911331  1
  O  O273  1  0.63115257  0.98912690  0.25721313  1
  O  O274  1  0.62951859  0.99376860  0.74596983  1
  O  O275  1  0.36105987  0.00600209  0.25079422  1
  O  O276  1  0.36576590  0.00324272  0.75163889  1
  O  O277  1  0.37616119  0.50844822  0.25489767  1
  O  O278  1  0.37137488  0.50128288  0.74203843  1
  O  O279  1  0.86573475  0.00729058  0.25731812  1
  O  O280  1  0.86593239  0.00293712  0.76131749  1
  O  O281  1  0.86580976  0.50683344  0.25189108  1
  O  O282  1  0.86219107  0.50392293  0.74542469  1
  O  O283  1  0.11835935  0.36942472  0.36452482  1
  O  O284  1  0.11338408  0.36744788  0.86894914  1
  O  O285  1  0.12098635  0.86705045  0.36853184  1
  O  O286  1  0.11298583  0.87047730  0.86814540  1
  O  O287  1  0.61418722  0.37015979  0.37183457  1
  O  O288  1  0.61124140  0.35544448  0.88171920  1
  O  O289  1  0.61816308  0.87022410  0.37116279  1
  O  O290  1  0.61511358  0.87894520  0.86471919  1
  O  O291  1  0.37979211  0.13130092  0.12988667  1
  O  O292  1  0.37386254  0.13653008  0.62198694  1
  O  O293  1  0.38430162  0.63270765  0.13085281  1
  O  O294  1  0.39246051  0.62312610  0.62183772  1
  O  O295  1  0.87736249  0.14092055  0.13332184  1
  O  O296  1  0.87170671  0.11888362  0.64748234  1
  O  O297  1  0.88357874  0.63352563  0.12858714  1
  O  O298  1  0.88420941  0.63445931  0.62704780  1
  O  O299  1  0.25578936  0.24839573  0.10962103  1
  O  O300  1  0.25988294  0.24944385  0.61260660  1
  O  O301  1  0.25580973  0.75379301  0.11583720  1
  O  O302  1  0.24554617  0.76229661  0.62364841  1
  O  O303  1  0.76436715  0.25390073  0.12988144  1
  O  O304  1  0.75324829  0.24433773  0.61343761  1
  O  O305  1  0.75467635  0.75480059  0.11784645  1
  O  O306  1  0.75490600  0.75505553  0.62009461  1
  O  O307  1  0.24716679  0.24215147  0.38282611  1
  O  O308  1  0.24268029  0.24169355  0.88345348  1
  O  O309  1  0.24282921  0.74010197  0.37514991  1
  O  O310  1  0.24214027  0.74715671  0.88028438  1
  O  O311  1  0.74208367  0.24299821  0.37952790  1
  O  O312  1  0.73254742  0.24556523  0.88062830  1
  O  O313  1  0.74397287  0.74149994  0.37957429  1
  O  O314  1  0.74578795  0.75167306  0.88768638  1
  O  O315  1  0.01700168  0.13189903  -0.00389632  1
  O  O316  1  0.00360780  0.10868122  0.48940637  1
  O  O317  1  -0.00089520  0.62521175  0.00767191  1
  O  O318  1  0.00651243  0.62339430  0.51258868  1
  O  O319  1  0.49418199  0.11308874  0.00561033  1
  O  O320  1  0.50422395  0.11103952  0.49331869  1
  O  O321  1  0.50731773  0.63110631  0.01275629  1
  O  O322  1  0.50741979  0.62129831  0.50545378  1
  O  O323  1  0.49681145  0.37787275  0.49312925  1
  O  O324  1  0.49554377  0.38378816  0.99174679  1
  O  O325  1  0.49463225  0.88342260  0.49501892  1
  O  O326  1  0.49677048  0.88289817  0.99570945  1
  O  O327  1  1.00255459  0.37519463  0.48594728  1
  O  O328  1  0.99376080  0.37638843  0.98542296  1
  O  O329  1  0.99518328  0.88527569  0.49551375  1
  O  O330  1  1.00458666  0.87324783  0.99379672  1
  O  O331  1  0.50177133  0.49247102  0.38346165  1
  O  O332  1  0.50384424  0.48202787  0.87250775  1
  O  O333  1  0.49807766  0.98885668  0.38366474  1
  O  O334  1  0.49776843  0.99152848  0.88354479  1
  O  O335  1  0.99941173  0.49115795  0.37480464  1
  O  O336  1  1.00053113  0.48807457  0.87166248  1
  O  O337  1  0.99307997  0.99240979  0.37829331  1
  O  O338  1  0.99420976  0.98292696  0.87554973  1
  O  O339  1  -0.00469361  0.01036521  0.12896577  1
  O  O340  1  -0.00621639  0.00468485  0.61031750  1
  O  O341  1  0.00395608  0.51034140  0.12589858  1
  O  O342  1  0.01398944  0.50816790  0.62450589  1
  O  O343  1  0.49632318  0.01248352  0.11954003  1
  O  O344  1  0.50830591  -0.00596840  0.61725934  1
  O  O345  1  0.50072519  0.51299273  0.11302214  1
  O  O346  1  0.51310392  0.50559499  0.62186210  1
  O  O347  1  0.23642761  0.37303046  0.25543415  1
  O  O348  1  0.23449405  0.37226694  0.75827771  1
  O  O349  1  0.24504506  0.88228449  0.24616075  1
  O  O350  1  0.24342715  0.88101282  0.74503599  1
  O  O351  1  0.73952046  0.38718017  0.25595782  1
  O  O352  1  0.75338537  0.38961767  0.75713243  1
  O  O353  1  0.74214083  0.88220200  0.24517686  1
  O  O354  1  0.74322121  0.88224146  0.74930397  1
  O  O355  1  0.24962824  0.11978473  0.25350617  1
  O  O356  1  0.25168040  0.11706558  0.75816935  1
  O  O357  1  0.26334313  0.62485904  0.25727966  1
  O  O358  1  0.25376535  0.62856980  0.76122273  1
  O  O359  1  0.75365094  0.12137215  0.25652110  1
  O  O360  1  0.75510340  0.11008531  0.75647110  1
  O  O361  1  0.75387779  0.62109636  0.25758345  1
  O  O362  1  0.75359970  0.61925958  0.75931231  1
  O  O363  1  0.36280460  0.12374338  0.36679581  1
  O  O364  1  0.36213431  0.12381546  0.87497031  1
  O  O365  1  0.37107825  0.62645740  0.36733749  1
  O  O366  1  0.36037812  0.63618797  0.87051292  1
  O  O367  1  0.86886195  0.12269284  0.36984858  1
  O  O368  1  0.86941602  0.11495752  0.87184435  1
  O  O369  1  0.86618332  0.62813026  0.36891896  1
  O  O370  1  0.85497558  0.63691832  0.87201427  1
  O  O371  1  0.11839911  0.37048326  0.13911313  1
  O  O372  1  0.11890370  0.38364430  0.63178100  1
  O  O373  1  0.13115977  0.87348039  0.13141709  1
  O  O374  1  0.12989028  0.87291267  0.63707543  1
  O  O375  1  0.61828182  0.36948590  0.13809926  1
  O  O376  1  0.62461137  0.39111266  0.62085109  1
  O  O377  1  0.63485760  0.87050647  0.13690452  1
  O  O378  1  0.63014475  0.88449004  0.63154344  1
  O  O379  1  0.11863483  0.25767094  0.25348807  1
  O  O380  1  0.12828616  0.25505037  0.76012697  1
  O  O381  1  0.12062261  0.75315503  0.25989733  1
  O  O382  1  0.12956806  0.76572411  0.76060614  1
  O  O383  1  0.61680485  0.25791241  0.25817957  1
  O  O384  1  0.61664432  0.24660397  0.74854829  1
  O  O385  1  0.63124222  0.76335397  0.26462444  1
  O  O386  1  0.61911648  0.76286578  0.74400746  1
  O  O387  1  0.37897895  0.24525429  0.24308892  1
  O  O388  1  0.38266733  0.24588122  0.74065940  1
  O  O389  1  0.37054742  0.74470728  0.23724983  1
  O  O390  1  0.38773423  0.75097212  0.74881872  1
  O  O391  1  0.88110200  0.25249328  0.24128066  1
  O  O392  1  0.86400357  0.23047528  0.75701016  1
  O  O393  1  0.87794085  0.74325295  0.24216429  1
  O  O394  1  0.87088601  0.75202586  0.73698651  1
  O  O395  1  0.38352132  0.49063298  0.49905417  1
  O  O396  1  0.40282855  0.52106511  0.98896088  1
  O  O397  1  0.38145717  0.99160927  0.49840023  1
  O  O398  1  0.38159629  0.99304796  0.99956954  1
  O  O399  1  0.87710264  0.49996882  0.49381599  1
  O  O400  1  0.87869602  0.48670742  1.00416038  1
  O  O401  1  0.88109600  0.99604784  0.49473079  1
  O  O402  1  0.87444326  0.99196287  0.98721491  1
  O  O403  1  0.13098080  0.01427760  -0.00119043  1
  O  O404  1  0.10998187  -0.00259388  0.49382615  1
  O  O405  1  0.11691878  0.50457254  -0.00075778  1
  O  O406  1  0.12377298  0.49807936  0.51081796  1
  O  O407  1  0.61652200  -0.00523358  0.00246777  1
  O  O408  1  0.61715416  0.00268458  0.50891367  1
  O  O409  1  0.60274428  0.50568703  -0.01109866  1
  O  O410  1  0.62330693  0.50718028  0.50886405  1
  O  O411  1  0.38323073  0.36316851  0.12963491  1
  O  O412  1  0.38490140  0.36200310  0.61131440  1
  O  O413  1  0.37028985  0.86805652  0.12053751  1
  O  O414  1  0.36588471  0.87748428  0.61751076  1
  O  O415  1  0.87998945  0.36625377  0.11121989  1
  O  O416  1  0.87689341  0.37427098  0.62184345  1
  O  O417  1  0.85818689  0.86663528  0.13453765  1
  O  O418  1  0.86981784  0.87016585  0.62052344  1
  O  O419  1  0.13616333  0.13148192  0.37549770  1
  O  O420  1  0.13151623  0.12953143  0.88122543  1
  O  O421  1  0.13330197  0.63073025  0.37347087  1
  O  O422  1  0.13365883  0.63491798  0.87046277  1
  O  O423  1  0.62895416  0.12975138  0.38201999  1
  O  O424  1  0.62685614  0.13922353  0.87749413  1
  O  O425  1  0.62961046  0.63444621  0.37883845  1
  O  O426  1  0.64176739  0.63281778  0.86731103  1
