# generated using pymatgen
data_V85Zn86O256
_symmetry_space_group_name_H-M   'P 1'
_cell_length_a   16.92876221
_cell_length_b   16.92548119
_cell_length_c   16.91635128
_cell_angle_alpha   90.02190643
_cell_angle_beta   89.99506774
_cell_angle_gamma   90.05484689
_symmetry_Int_Tables_number   1
_chemical_formula_structural   V85Zn86O256
_chemical_formula_sum   'V85 Zn86 O256'
_cell_volume   4846.99633827
_cell_formula_units_Z   1
loop_
 _symmetry_equiv_pos_site_id
 _symmetry_equiv_pos_as_xyz
  1  'x, y, z'
loop_
 _atom_site_type_symbol
 _atom_site_label
 _atom_site_symmetry_multiplicity
 _atom_site_fract_x
 _atom_site_fract_y
 _atom_site_fract_z
 _atom_site_occupancy
  V  V0  1  0.37608797  -0.00354247  0.87682993  1
  V  V1  1  0.49959503  0.50610975  0.00559650  1
  V  V2  1  -0.00757505  0.37590531  0.88405543  1
  V  V3  1  0.62383133  0.63339430  -0.00051327  1
  V  V4  1  0.74980197  0.12618656  0.87555148  1
  V  V5  1  0.87339424  0.74621043  0.62183616  1
  V  V6  1  0.37771584  0.12255318  0.25691756  1
  V  V7  1  0.24639269  -0.00756238  0.75273599  1
  V  V8  1  0.38349599  0.74687914  0.62571472  1
  V  V9  1  0.37483177  0.87377751  0.01048642  1
  V  V10  1  0.13034167  0.24943270  0.38762673  1
  V  V11  1  0.87212166  0.12517302  0.75127520  1
  V  V12  1  0.37643495  0.37617583  -0.00048184  1
  V  V13  1  -0.00355504  0.25001872  0.75303463  1
  V  V14  1  0.25328069  0.12369423  0.38271620  1
  V  V15  1  0.50034135  0.00129258  -0.00061765  1
  V  V16  1  0.74569319  0.13569967  0.37364132  1
  V  V17  1  0.74827486  0.63055630  0.86970487  1
  V  V18  1  0.38237802  0.51438143  0.37768494  1
  V  V19  1  0.12357857  0.37782798  0.75055187  1
  V  V20  1  0.74534826  -0.00305924  0.74856719  1
  V  V21  1  0.25304475  0.37527087  0.12570499  1
  V  V22  1  0.12383631  0.61371574  0.49519241  1
  V  V23  1  0.87593927  0.12715670  0.24750521  1
  V  V24  1  0.87767428  0.38431724  0.50271281  1
  V  V25  1  0.00571909  0.75857741  0.74700014  1
  V  V26  1  0.87530514  0.75523797  0.11157231  1
  V  V27  1  0.62963572  0.37802879  0.26731186  1
  V  V28  1  0.75341098  0.49865180  0.74019489  1
  V  V29  1  0.49844874  0.12396159  0.62349680  1
  V  V30  1  0.00517666  0.24812030  0.25421690  1
  V  V31  1  -0.00713675  0.62673207  0.12653282  1
  V  V32  1  0.37285314  0.87501787  0.49367149  1
  V  V33  1  0.87300384  -0.01291993  0.88163030  1
  V  V34  1  0.13242557  0.74887563  0.37582242  1
  V  V35  1  0.74761695  -0.00145351  0.24859357  1
  V  V36  1  0.62284254  0.13579154  0.49504591  1
  V  V37  1  0.50078472  0.72698551  0.24693463  1
  V  V38  1  0.12575308  0.50107274  0.12416923  1
  V  V39  1  0.12838357  0.87279766  0.24691148  1
  V  V40  1  0.25025102  0.75180379  0.00628248  1
  V  V41  1  0.37449149  0.49832444  0.87177166  1
  V  V42  1  0.12320252  0.24850975  0.87729312  1
  V  V43  1  -0.00086401  0.12508382  0.62651912  1
  V  V44  1  0.50135697  0.12877549  0.12655463  1
  V  V45  1  0.87972643  0.26526780  0.12242904  1
  V  V46  1  0.62079808  0.85770069  0.75329877  1
  V  V47  1  0.24845859  0.86906612  0.62742726  1
  V  V48  1  0.75665477  0.63135703  0.39127007  1
  V  V49  1  0.37850397  0.25237271  0.12851440  1
  V  V50  1  0.74717032  0.86924182  0.61540923  1
  V  V51  1  0.62602054  0.25395419  0.87515097  1
  V  V52  1  0.62624003  0.13178403  0.00274692  1
  V  V53  1  0.25530871  0.51798385  0.25557456  1
  V  V54  1  0.62217777  -0.00222950  0.62431696  1
  V  V55  1  -0.00072686  -0.00041227  0.50043513  1
  V  V56  1  0.12371207  -0.00800337  0.62989159  1
  V  V57  1  0.50055817  0.37702035  0.87281771  1
  V  V58  1  0.62774006  0.38071105  0.73363789  1
  V  V59  1  0.24897673  0.62538844  0.87220517  1
  V  V60  1  0.74958688  0.51753652  0.25047993  1
  V  V61  1  0.75190568  0.87620230  0.11588323  1
  V  V62  1  0.24870416  0.12184359  0.87790371  1
  V  V63  1  0.62053218  0.50220183  0.12874531  1
  V  V64  1  0.37512712  0.12391058  0.74989865  1
  V  V65  1  0.24841349  0.50208666  0.74245452  1
  V  V66  1  0.51308484  0.61125439  0.60530852  1
  V  V67  1  0.49961093  0.25110256  0.74489054  1
  V  V68  1  0.86754380  0.49806559  0.88436104  1
  V  V69  1  0.13253530  0.37246893  0.25277894  1
  V  V70  1  0.37805421  0.37133038  0.48926378  1
  V  V71  1  0.87296552  0.00016616  0.37766990  1
  V  V72  1  0.49638999  -0.00048687  0.49280119  1
  V  V73  1  0.62637466  0.74344639  0.38560729  1
  V  V74  1  0.49946795  0.87580048  0.36743819  1
  V  V75  1  0.25138974  0.25012317  -0.00018796  1
  V  V76  1  -0.01016299  0.74936744  0.25264462  1
  V  V77  1  0.25631851  -0.00540778  0.25334344  1
  V  V78  1  0.12859889  -0.00160307  0.12565012  1
  V  V79  1  0.38797824  0.62598626  0.74660406  1
  V  V80  1  0.37946472  0.73428804  0.12936413  1
  V  V81  1  0.12063081  0.62647715  -0.00409009  1
  V  V82  1  0.50206288  0.85996535  0.87299758  1
  V  V83  1  -0.00325158  0.61623053  0.62852741  1
  V  V84  1  0.50746904  0.25753227  0.26259122  1
  Zn  Zn85  1  -0.00828641  0.49659840  0.00661859  1
  Zn  Zn86  1  0.00542007  0.38658293  0.38231339  1
  Zn  Zn87  1  0.24612057  0.36227821  0.61450789  1
  Zn  Zn88  1  0.13110093  0.75706427  0.86467744  1
  Zn  Zn89  1  0.11975827  0.49334517  0.61709220  1
  Zn  Zn90  1  0.62558879  0.00024889  0.12481219  1
  Zn  Zn91  1  0.74780347  0.75672373  -0.01014949  1
  Zn  Zn92  1  0.75286576  0.38238008  0.12211605  1
  Zn  Zn93  1  0.12248954  0.12069130  0.00300934  1
  Zn  Zn94  1  0.88118479  0.50665475  0.37320087  1
  Zn  Zn95  1  0.62543942  0.87014040  0.24732005  1
  Zn  Zn96  1  -0.00005252  0.87420143  0.37645414  1
  Zn  Zn97  1  0.86952860  0.87214992  0.49714995  1
  Zn  Zn98  1  0.13086982  0.12647083  0.50483951  1
  Zn  Zn99  1  0.76308049  0.26095361  -0.00449258  1
  Zn  Zn100  1  0.00968525  0.87442366  0.87817841  1
  Zn  Zn101  1  0.74856431  0.25944131  0.50490861  1
  Zn  Zn102  1  0.86876810  0.25896174  0.62400645  1
  Zn  Zn103  1  0.00237569  0.12215757  0.12337009  1
  Zn  Zn104  1  0.25073581  0.74144536  0.49705758  1
  Zn  Zn105  1  0.36723363  0.24884337  0.61250773  1
  Zn  Zn106  1  -0.00942638  -0.00805732  0.00915725  1
  Zn  Zn107  1  0.19176560  0.18403029  0.19061207  1
  Zn  Zn108  1  0.18391378  0.18479523  0.69054521  1
  Zn  Zn109  1  0.18266889  0.69221624  0.18207012  1
  Zn  Zn110  1  0.18614327  0.68435825  0.68066584  1
  Zn  Zn111  1  0.69112172  0.19480735  0.18809362  1
  Zn  Zn112  1  0.68438475  0.18842366  0.68499840  1
  Zn  Zn113  1  0.68261925  0.68975666  0.18377750  1
  Zn  Zn114  1  0.68918682  0.68366367  0.68363332  1
  Zn  Zn115  1  0.31524167  0.31131219  0.31828227  1
  Zn  Zn116  1  0.30892700  0.30965462  0.80210437  1
  Zn  Zn117  1  0.31460947  0.80815043  0.30943356  1
  Zn  Zn118  1  0.31580866  0.80905648  0.81327534  1
  Zn  Zn119  1  0.81416563  0.32130984  0.31600967  1
  Zn  Zn120  1  0.81076127  0.31584327  0.81042959  1
  Zn  Zn121  1  0.81028094  0.81260838  0.31004337  1
  Zn  Zn122  1  0.81439976  0.80771303  0.79947993  1
  Zn  Zn123  1  0.19586376  0.43785761  0.43565579  1
  Zn  Zn124  1  0.18537043  0.43900841  0.93528334  1
  Zn  Zn125  1  0.18656719  0.93787611  0.43730184  1
  Zn  Zn126  1  0.18520370  0.92945546  0.93961201  1
  Zn  Zn127  1  0.69347328  0.44546809  0.45210358  1
  Zn  Zn128  1  0.68708577  0.43744172  0.94021258  1
  Zn  Zn129  1  0.68130129  0.94005119  0.43363995  1
  Zn  Zn130  1  0.68321971  0.93879202  0.93600813  1
  Zn  Zn131  1  0.31172443  0.06099152  0.06829591  1
  Zn  Zn132  1  0.31401282  0.05783783  0.56437795  1
  Zn  Zn133  1  0.31000837  0.56187161  0.06246509  1
  Zn  Zn134  1  0.31263840  0.55961982  0.55824698  1
  Zn  Zn135  1  0.81066116  0.06799709  0.06300011  1
  Zn  Zn136  1  0.80815292  0.07176560  0.56427516  1
  Zn  Zn137  1  0.80862019  0.56614921  0.06198845  1
  Zn  Zn138  1  0.81503981  0.56081869  0.55907459  1
  Zn  Zn139  1  0.44171406  0.44261750  0.19686204  1
  Zn  Zn140  1  0.43469500  0.43573751  0.67685481  1
  Zn  Zn141  1  0.43706936  0.93955463  0.18571781  1
  Zn  Zn142  1  0.43675992  0.93429338  0.68761728  1
  Zn  Zn143  1  0.94988935  0.45022663  0.21447899  1
  Zn  Zn144  1  0.93223839  0.43738838  0.69164810  1
  Zn  Zn145  1  0.93834589  0.93406399  0.18859822  1
  Zn  Zn146  1  0.93165159  0.93560556  0.68791717  1
  Zn  Zn147  1  0.06574465  0.06263641  0.31395149  1
  Zn  Zn148  1  0.06100520  0.05790954  0.81360551  1
  Zn  Zn149  1  0.06713834  0.56585812  0.30966324  1
  Zn  Zn150  1  0.05622857  0.56428564  0.81068075  1
  Zn  Zn151  1  0.56277414  0.06335952  0.31274386  1
  Zn  Zn152  1  0.56291116  0.06045931  0.81439069  1
  Zn  Zn153  1  0.56081193  0.55288419  0.42953531  1
  Zn  Zn154  1  0.56704411  0.56173609  0.81211693  1
  Zn  Zn155  1  0.43717011  0.19079523  0.43634265  1
  Zn  Zn156  1  0.43797799  0.18903391  0.93585556  1
  Zn  Zn157  1  0.43268083  0.69091477  0.43264268  1
  Zn  Zn158  1  0.43447798  0.68449135  0.93830501  1
  Zn  Zn159  1  0.93699870  0.19231365  0.43898362  1
  Zn  Zn160  1  0.94028085  0.17928191  0.94131168  1
  Zn  Zn161  1  0.94149087  0.68742932  0.44195708  1
  Zn  Zn162  1  0.93461698  0.68503965  0.93079612  1
  Zn  Zn163  1  0.06329917  0.31044329  0.06504837  1
  Zn  Zn164  1  0.05445520  0.31414883  0.56363134  1
  Zn  Zn165  1  0.06157528  0.81675811  0.05981018  1
  Zn  Zn166  1  0.06120025  0.81014256  0.56018266  1
  Zn  Zn167  1  0.56495736  0.31829585  0.06654121  1
  Zn  Zn168  1  0.55617020  0.32049214  0.55434771  1
  Zn  Zn169  1  0.56151655  0.81359816  0.06659766  1
  Zn  Zn170  1  0.55870506  0.81138522  0.56369137  1
  O  O171  1  0.12597012  0.11400368  0.12714572  1
  O  O172  1  0.11415654  0.11692403  0.62597185  1
  O  O173  1  0.11593100  0.62186142  0.11500637  1
  O  O174  1  0.11388700  0.61956922  0.61539496  1
  O  O175  1  0.62184927  0.12803681  0.11795209  1
  O  O176  1  0.61531076  0.11662048  0.61689462  1
  O  O177  1  0.62870879  0.61342770  0.11393161  1
  O  O178  1  0.60918879  0.63029976  0.62407237  1
  O  O179  1  0.36935694  0.38701620  0.38224148  1
  O  O180  1  0.37997191  0.37890445  0.87728805  1
  O  O181  1  0.38275754  0.86729223  0.38615176  1
  O  O182  1  0.38259385  0.87916026  0.88304552  1
  O  O183  1  0.88367416  0.37945649  0.38292954  1
  O  O184  1  0.88264698  0.38124009  0.87343966  1
  O  O185  1  0.87423924  0.88769659  0.37588793  1
  O  O186  1  0.86768651  0.88664874  0.86892596  1
  O  O187  1  0.24472754  0.00868160  0.36354754  1
  O  O188  1  0.25622386  0.00465830  0.87435876  1
  O  O189  1  0.25237021  0.50279834  0.35822013  1
  O  O190  1  0.25478541  0.50655930  0.86675249  1
  O  O191  1  0.75609280  0.00580298  0.36717282  1
  O  O192  1  0.75518300  0.00424209  0.86847341  1
  O  O193  1  0.74822661  0.52016026  0.36685309  1
  O  O194  1  0.75323411  0.50523079  0.86941926  1
  O  O195  1  0.24698880  0.49425851  0.13354757  1
  O  O196  1  0.24496179  0.49912628  0.63651099  1
  O  O197  1  0.24461367  1.00384691  0.14281631  1
  O  O198  1  0.24242782  0.99196888  0.63031702  1
  O  O199  1  0.74232283  0.50441918  0.13530154  1
  O  O200  1  0.75615652  0.50706781  0.64167286  1
  O  O201  1  0.75146014  0.99495073  0.13160352  1
  O  O202  1  0.74296632  0.99509056  0.63216803  1
  O  O203  1  0.01913995  0.35917161  0.24447909  1
  O  O204  1  0.00516494  0.37040026  0.75971889  1
  O  O205  1  0.00895916  0.86652258  0.25371870  1
  O  O206  1  -0.00313398  0.86189866  0.74923387  1
  O  O207  1  0.51618384  0.36980603  0.24805644  1
  O  O208  1  0.50814094  0.36978080  0.74986727  1
  O  O209  1  0.50019717  0.87945923  0.26142638  1
  O  O210  1  0.50866484  0.88033899  0.76022892  1
  O  O211  1  0.49620355  0.13118106  0.24488986  1
  O  O212  1  0.49807783  0.13152069  0.74512471  1
  O  O213  1  0.50154169  0.63228511  0.24948059  1
  O  O214  1  0.48988552  0.61954522  0.74806746  1
  O  O215  1  0.99408236  0.13286312  0.25097499  1
  O  O216  1  0.99457476  0.12932426  0.74618963  1
  O  O217  1  1.01092397  0.63950399  0.23661632  1
  O  O218  1  1.00224276  0.63401199  0.73408960  1
  O  O219  1  0.37072639  0.25641518  0.00512365  1
  O  O220  1  0.37363205  0.26290636  0.49474755  1
  O  O221  1  0.37122060  0.75452628  0.00754357  1
  O  O222  1  0.37026900  0.75764576  0.50572592  1
  O  O223  1  0.88168803  0.24583846  0.01873732  1
  O  O224  1  0.87434947  0.26131707  0.50161924  1
  O  O225  1  0.87166369  0.74686586  0.00860237  1
  O  O226  1  0.88426539  0.75735501  0.51454430  1
  O  O227  1  0.12170193  0.24809491  0.49134864  1
  O  O228  1  0.13389874  0.24638083  0.99523009  1
  O  O229  1  0.12626667  0.74382133  0.49057541  1
  O  O230  1  0.13418802  0.74010050  1.00231616  1
  O  O231  1  0.62393972  0.23897988  0.50356760  1
  O  O232  1  0.61989298  0.24181843  0.99468130  1
  O  O233  1  0.62021759  0.75614194  0.48379307  1
  O  O234  1  0.62382250  0.73710935  1.00506086  1
  O  O235  1  0.49589931  0.24551182  0.13097937  1
  O  O236  1  0.49646745  0.24308180  0.63123686  1
  O  O237  1  0.49482869  0.75153317  0.13941151  1
  O  O238  1  0.48792389  0.73996931  0.61970801  1
  O  O239  1  0.99435165  0.24470159  0.13335621  1
  O  O240  1  0.99746805  0.23905965  0.63404323  1
  O  O241  1  0.99277865  0.74659726  0.12914351  1
  O  O242  1  0.99632856  0.74417327  0.63168911  1
  O  O243  1  0.01235268  0.24776352  0.36679008  1
  O  O244  1  0.00257083  0.25553255  0.87328252  1
  O  O245  1  0.00825931  0.75121886  0.36696080  1
  O  O246  1  -0.00275765  0.74650721  0.85621392  1
  O  O247  1  0.50383375  0.24626683  0.36136667  1
  O  O248  1  0.50764395  0.25529639  0.86721593  1
  O  O249  1  0.50724621  0.75410059  0.36465325  1
  O  O250  1  0.49444567  0.76088014  0.87702764  1
  O  O251  1  0.25250761  0.11694182  0.48758129  1
  O  O252  1  0.25334839  0.12895410  0.98990527  1
  O  O253  1  0.22903074  0.62550857  0.50947155  1
  O  O254  1  0.24275184  0.62974923  0.99303466  1
  O  O255  1  0.73733215  0.11828797  0.48723615  1
  O  O256  1  0.74199383  0.13418681  0.99487712  1
  O  O257  1  0.75079023  0.62891367  0.49003554  1
  O  O258  1  0.74114516  0.62876467  0.98822363  1
  O  O259  1  0.25611110  0.37125269  0.00393136  1
  O  O260  1  0.26324933  0.37935870  0.50204855  1
  O  O261  1  0.26294749  0.86324786  -0.00280117  1
  O  O262  1  0.25907854  0.87750369  0.50877264  1
  O  O263  1  0.74481759  0.37118005  0.00792413  1
  O  O264  1  0.76882304  0.37269078  0.49199080  1
  O  O265  1  0.74277618  0.87451700  0.01048176  1
  O  O266  1  0.74537577  0.88292819  0.51260987  1
  O  O267  1  0.13902797  0.49159066  0.24387416  1
  O  O268  1  0.13027124  0.49257217  0.75197261  1
  O  O269  1  0.13195466  0.99242145  0.24576002  1
  O  O270  1  0.13043528  1.00181098  0.73779119  1
  O  O271  1  0.63524129  0.49098360  0.24427814  1
  O  O272  1  0.63324617  0.48645553  0.75112483  1
  O  O273  1  0.63883284  1.00199608  0.24834182  1
  O  O274  1  0.63406468  0.99673959  0.74624482  1
  O  O275  1  0.36908746  0.00978255  0.24686617  1
  O  O276  1  0.36847884  0.00500391  0.75524321  1
  O  O277  1  0.36070097  0.49715486  0.25698156  1
  O  O278  1  0.36674234  0.50434900  0.75224975  1
  O  O279  1  0.86768319  0.00739471  0.25618975  1
  O  O280  1  0.86084224  0.00315755  0.75625896  1
  O  O281  1  0.85017199  0.49727660  0.24936031  1
  O  O282  1  0.85797880  0.49275835  0.76190182  1
  O  O283  1  0.12663658  0.36746612  0.36809868  1
  O  O284  1  0.11812959  0.37007313  0.86687769  1
  O  O285  1  0.12239710  0.86846684  0.36679314  1
  O  O286  1  0.12550724  0.87059329  0.86890579  1
  O  O287  1  0.63319394  0.37997772  0.36515645  1
  O  O288  1  0.61770513  0.36915394  0.86740352  1
  O  O289  1  0.61808722  0.86505415  0.36969301  1
  O  O290  1  0.61454994  0.87891580  0.86591842  1
  O  O291  1  0.38013852  0.13205305  0.13576219  1
  O  O292  1  0.38115051  0.12525485  0.63180829  1
  O  O293  1  0.37825934  0.63501619  0.11757074  1
  O  O294  1  0.38074488  0.62889165  0.62853648  1
  O  O295  1  0.87639412  0.12895842  0.13894443  1
  O  O296  1  0.88940179  0.11491220  0.63465087  1
  O  O297  1  0.88677698  0.63264764  0.12057532  1
  O  O298  1  0.88888123  0.63075346  0.61698202  1
  O  O299  1  0.25791358  0.25420274  0.11993209  1
  O  O300  1  0.26050434  0.25450343  0.65421842  1
  O  O301  1  0.25987272  0.74531943  0.11364082  1
  O  O302  1  0.25884165  0.75592153  0.62196384  1
  O  O303  1  0.77101454  0.25391004  0.12839410  1
  O  O304  1  0.76089729  0.22233112  0.61444657  1
  O  O305  1  0.75817351  0.75870891  0.12414498  1
  O  O306  1  0.75880407  0.75703840  0.62940255  1
  O  O307  1  0.24092577  0.23703454  0.36790908  1
  O  O308  1  0.24503036  0.24084490  0.87759728  1
  O  O309  1  0.23670722  0.75151965  0.37442376  1
  O  O310  1  0.25300339  0.74112722  0.88545581  1
  O  O311  1  0.75492880  0.23718233  0.37435529  1
  O  O312  1  0.74269326  0.24514082  0.87473450  1
  O  O313  1  0.73822970  0.74180277  0.36818851  1
  O  O314  1  0.75563465  0.73508644  0.86989235  1
  O  O315  1  0.00467660  0.11002962  0.00411544  1
  O  O316  1  0.00043937  0.11543026  0.50904120  1
  O  O317  1  0.00686874  0.62400478  0.00415896  1
  O  O318  1  0.01316987  0.62928622  0.51344191  1
  O  O319  1  0.50534556  0.12279032  0.00581239  1
  O  O320  1  0.50344487  0.11803583  0.50129080  1
  O  O321  1  0.50726054  0.61322859  -0.00897241  1
  O  O322  1  0.49762862  0.62545890  0.50204219  1
  O  O323  1  0.48003434  0.37963517  0.49924821  1
  O  O324  1  0.49489327  0.38429322  0.99411179  1
  O  O325  1  0.49425591  0.88048256  0.49013866  1
  O  O326  1  0.49594532  0.88100621  0.99334025  1
  O  O327  1  0.98896517  0.37548702  0.49601613  1
  O  O328  1  1.00946024  0.37823621  0.98773331  1
  O  O329  1  0.99772381  0.88956476  0.49929815  1
  O  O330  1  1.00123850  0.88075101  0.99302810  1
  O  O331  1  0.48100359  0.50788471  0.36044392  1
  O  O332  1  0.49416443  0.49401068  0.88024032  1
  O  O333  1  0.50417404  0.99101607  0.38241213  1
  O  O334  1  0.49229053  0.99734571  0.88268123  1
  O  O335  1  0.98854885  0.48991837  0.32898035  1
  O  O336  1  0.98778354  0.49337935  0.87512428  1
  O  O337  1  0.99229333  1.00188545  0.38331918  1
  O  O338  1  0.98035231  0.99684242  0.86882106  1
  O  O339  1  0.01230857  0.00052503  0.13014222  1
  O  O340  1  0.00578460  0.00205078  0.62219904  1
  O  O341  1  0.00656300  0.50884153  0.12778675  1
  O  O342  1  0.00041069  0.51274059  0.63411147  1
  O  O343  1  0.50265285  0.01009941  0.11818582  1
  O  O344  1  0.50384325  0.00383679  0.61849774  1
  O  O345  1  0.50419208  0.49797557  0.11530760  1
  O  O346  1  0.49909659  0.51439187  0.62569193  1
  O  O347  1  0.24265790  0.37252488  0.24447635  1
  O  O348  1  0.23824077  0.38688304  0.75547858  1
  O  O349  1  0.24407738  0.88318613  0.25631456  1
  O  O350  1  0.26039149  0.87897582  0.73640405  1
  O  O351  1  0.73950594  0.38090452  0.24695650  1
  O  O352  1  0.73715377  0.38423967  0.75121389  1
  O  O353  1  0.74878852  0.88418958  0.24065988  1
  O  O354  1  0.74008030  0.88079138  0.74139404  1
  O  O355  1  0.26070675  0.11826098  0.25914497  1
  O  O356  1  0.25303268  0.11496001  0.76353058  1
  O  O357  1  0.24560673  0.61567599  0.24265693  1
  O  O358  1  0.25475344  0.61829724  0.75333259  1
  O  O359  1  0.75653497  0.12033294  0.25455208  1
  O  O360  1  0.75047020  0.11553169  0.75683907  1
  O  O361  1  0.74401918  0.61949849  0.25409144  1
  O  O362  1  0.73903905  0.61072989  0.76099504  1
  O  O363  1  0.37039958  0.12791204  0.36417902  1
  O  O364  1  0.36884110  0.11836016  0.87074669  1
  O  O365  1  0.36722616  0.61454486  0.37840465  1
  O  O366  1  0.36948551  0.61817194  0.86582772  1
  O  O367  1  0.86977199  0.11766007  0.36598720  1
  O  O368  1  0.86722496  0.11840324  0.86855676  1
  O  O369  1  0.86156413  0.63047211  0.37851624  1
  O  O370  1  0.85813293  0.61455687  0.87613958  1
  O  O371  1  0.13310246  0.37984900  0.13055220  1
  O  O372  1  0.12360338  0.37488252  0.63782658  1
  O  O373  1  0.12540884  0.87933563  0.13963168  1
  O  O374  1  0.13576754  0.88036171  0.61990374  1
  O  O375  1  0.62619168  0.39156831  0.12905587  1
  O  O376  1  0.62425906  0.36718251  0.63584509  1
  O  O377  1  0.63352761  0.87968339  0.12856333  1
  O  O378  1  0.62656527  0.87848498  0.63226468  1
  O  O379  1  0.12277293  0.25350617  0.25672885  1
  O  O380  1  0.11539808  0.25614568  0.75973313  1
  O  O381  1  0.11984383  0.75717905  0.25478612  1
  O  O382  1  0.11050424  0.74525809  0.74485339  1
  O  O383  1  0.62090950  0.26713008  0.24447409  1
  O  O384  1  0.61673387  0.25728936  0.75360300  1
  O  O385  1  0.61180266  0.75009606  0.25493517  1
  O  O386  1  0.62667138  0.75911191  0.74816782  1
  O  O387  1  0.38441637  0.24522682  0.24649926  1
  O  O388  1  0.39161533  0.24259187  0.75763795  1
  O  O389  1  0.38902932  0.75137101  0.24303017  1
  O  O390  1  0.37070367  0.73739118  0.73955140  1
  O  O391  1  0.88557362  0.24528983  0.24638190  1
  O  O392  1  0.88008804  0.24399598  0.74869027  1
  O  O393  1  0.88681850  0.75516868  0.24241799  1
  O  O394  1  0.88767098  0.75005668  0.73308917  1
  O  O395  1  0.37049648  0.49537525  0.48401027  1
  O  O396  1  0.38058613  0.49608708  0.99390922  1
  O  O397  1  0.38800554  0.99035310  0.50509188  1
  O  O398  1  0.37872159  0.99175212  0.99894097  1
  O  O399  1  0.87607502  0.49098083  0.49255434  1
  O  O400  1  0.87379758  0.50213216  0.98972076  1
  O  O401  1  0.88007863  1.00232517  0.49224672  1
  O  O402  1  0.86827339  1.00407098  0.98429404  1
  O  O403  1  0.13706377  -0.00235841  0.01946323  1
  O  O404  1  0.11763197  0.00256474  0.51145306  1
  O  O405  1  0.12511593  0.51167569  0.00525578  1
  O  O406  1  0.12268681  0.50917782  0.49580633  1
  O  O407  1  0.61991074  0.01611191  -0.00057132  1
  O  O408  1  0.61231293  0.00512664  0.50442882  1
  O  O409  1  0.61576617  0.50718892  0.00705330  1
  O  O410  1  0.61939338  0.50214276  0.50628920  1
  O  O411  1  0.37197942  0.37182772  0.12126173  1
  O  O412  1  0.36964261  0.37249846  0.61103714  1
  O  O413  1  0.38256560  0.86630440  0.11351156  1
  O  O414  1  0.37208297  0.86647815  0.61600990  1
  O  O415  1  0.88458924  0.36508233  0.13461984  1
  O  O416  1  0.88071052  0.37632499  0.61082201  1
  O  O417  1  0.86599528  0.86705570  0.12751383  1
  O  O418  1  0.86204443  0.87000010  0.62285334  1
  O  O419  1  0.13470517  0.13164158  0.37849363  1
  O  O420  1  0.13287354  0.12693155  0.87770603  1
  O  O421  1  0.11865002  0.63184304  0.38754181  1
  O  O422  1  0.12885412  0.62920377  0.88080331  1
  O  O423  1  0.63311815  0.12127050  0.38303419  1
  O  O424  1  0.62946497  0.13268257  0.88136730  1
  O  O425  1  0.63299639  0.63886581  0.37696364  1
  O  O426  1  0.63797829  0.61794306  0.88380119  1
