# generated using pymatgen
data_V85Zn86O256
_symmetry_space_group_name_H-M   'P 1'
_cell_length_a   16.93315417
_cell_length_b   16.93628237
_cell_length_c   16.93698327
_cell_angle_alpha   90.02331371
_cell_angle_beta   89.91233143
_cell_angle_gamma   89.97475048
_symmetry_Int_Tables_number   1
_chemical_formula_structural   V85Zn86O256
_chemical_formula_sum   'V85 Zn86 O256'
_cell_volume   4857.26077331
_cell_formula_units_Z   1
loop_
 _symmetry_equiv_pos_site_id
 _symmetry_equiv_pos_as_xyz
  1  'x, y, z'
loop_
 _atom_site_type_symbol
 _atom_site_label
 _atom_site_symmetry_multiplicity
 _atom_site_fract_x
 _atom_site_fract_y
 _atom_site_fract_z
 _atom_site_occupancy
  V  V0  1  0.38011432  0.24507050  0.12479846  1
  V  V1  1  0.00116386  0.62713910  0.61807917  1
  V  V2  1  -0.00876102  0.24734324  0.74587646  1
  V  V3  1  0.12850708  0.75154711  0.86829098  1
  V  V4  1  0.50505918  0.00569916  0.48881948  1
  V  V5  1  0.24855594  0.51553603  0.24905391  1
  V  V6  1  0.24833386  0.24456232  0.50123574  1
  V  V7  1  0.68451532  0.18078041  0.54461745  1
  V  V8  1  0.49982095  0.75392965  0.25135231  1
  V  V9  1  0.87071694  0.62287233  0.74064395  1
  V  V10  1  0.12240643  0.24521253  0.37853767  1
  V  V11  1  0.25201006  0.37421636  0.12936264  1
  V  V12  1  0.63001837  0.24679207  0.37287678  1
  V  V13  1  0.50303333  0.75363220  0.75308115  1
  V  V14  1  0.24815403  -0.00088398  0.74886232  1
  V  V15  1  0.00265507  0.49467787  0.49648720  1
  V  V16  1  0.74404322  0.62271906  0.87431232  1
  V  V17  1  0.88063398  0.00811075  0.87679775  1
  V  V18  1  -0.01070886  0.12871639  0.62534001  1
  V  V19  1  0.88260551  0.12345964  0.24518891  1
  V  V20  1  0.86587899  0.63536192  0.21043926  1
  V  V21  1  0.24660181  0.74981244  0.00032232  1
  V  V22  1  0.50626326  0.37739363  0.87499079  1
  V  V23  1  0.24577191  0.62940367  0.39196578  1
  V  V24  1  0.87586990  0.49857883  0.87139173  1
  V  V25  1  0.74878939  0.12265694  0.37008312  1
  V  V26  1  0.74933281  0.24831492  0.00181542  1
  V  V27  1  0.49354086  0.87874892  0.87284944  1
  V  V28  1  0.37545868  0.12517539  0.74667285  1
  V  V29  1  0.62564029  0.75724157  0.37434731  1
  V  V30  1  0.24348743  0.12310840  0.87913097  1
  V  V31  1  0.12044999  0.38077187  0.25799964  1
  V  V32  1  -0.01032244  0.75078660  0.74397436  1
  V  V33  1  0.12255287  0.49831059  0.12122400  1
  V  V34  1  0.50331920  0.24030803  0.24682097  1
  V  V35  1  0.87655044  -0.00354504  0.37534389  1
  V  V36  1  0.64456221  0.77653853  0.89918616  1
  V  V37  1  -0.00051566  0.86755817  0.38162552  1
  V  V38  1  0.62546371  0.49080131  0.62989288  1
  V  V39  1  0.00564185  0.00608972  0.50015754  1
  V  V40  1  0.88098163  0.24989930  0.12508593  1
  V  V41  1  0.37941539  0.37880383  0.00178310  1
  V  V42  1  0.25084928  0.87027005  0.62010957  1
  V  V43  1  0.37480576  0.50678218  0.36749161  1
  V  V44  1  0.12435498  0.74581480  0.38918599  1
  V  V45  1  0.49489872  0.00842888  0.00823167  1
  V  V46  1  0.75791853  -0.00628306  0.74515133  1
  V  V47  1  0.25177894  0.62377481  0.87259599  1
  V  V48  1  0.12355101  0.87344088  0.25193622  1
  V  V49  1  0.49889261  0.37506651  0.37263041  1
  V  V50  1  0.24658643  0.24693129  0.00243517  1
  V  V51  1  0.00218280  0.01857945  0.00231048  1
  V  V52  1  -0.00970387  0.75537297  0.21800002  1
  V  V53  1  0.74997296  0.75541532  0.51764469  1
  V  V54  1  0.50094712  0.62759721  0.62402597  1
  V  V55  1  0.75342347  0.62779066  0.38181093  1
  V  V56  1  0.24814364  -0.00033231  0.25168032  1
  V  V57  1  0.61792289  0.61969735  -0.00351550  1
  V  V58  1  -0.01956047  0.85256760  0.89648171  1
  V  V59  1  0.37061749  0.87389122  0.00168394  1
  V  V60  1  0.74998288  0.12628079  0.87216413  1
  V  V61  1  0.49951548  0.50218254  0.49725775  1
  V  V62  1  0.12625926  0.00844423  0.62212962  1
  V  V63  1  0.37923001  0.87070509  0.49242916  1
  V  V64  1  0.12697103  0.37537912  0.74858728  1
  V  V65  1  0.87907863  0.49789727  0.37747775  1
  V  V66  1  0.37901889  0.50120983  0.87942555  1
  V  V67  1  -0.00103545  0.25743763  0.25400672  1
  V  V68  1  0.37608812  0.12245898  0.24896006  1
  V  V69  1  0.37534897  0.62576394  0.75114456  1
  V  V70  1  0.62484176  0.37466734  0.25079562  1
  V  V71  1  0.50121706  0.25457693  0.75031670  1
  V  V72  1  0.75569891  -0.01151190  0.23747961  1
  V  V73  1  0.62042883  0.50066337  0.12329060  1
  V  V74  1  0.49430361  0.62276499  0.12678209  1
  V  V75  1  0.62539008  -0.00870170  0.62357742  1
  V  V76  1  0.87498893  0.37978496  0.00099146  1
  V  V77  1  0.74837816  0.49974880  0.25533417  1
  V  V78  1  0.11909682  0.62378315  -0.00043081  1
  V  V79  1  0.12718782  0.50350880  0.61977260  1
  V  V80  1  0.12445355  0.25025640  0.87909385  1
  V  V81  1  0.87044835  0.36526899  0.50423107  1
  V  V82  1  0.12027322  0.01497069  0.12416897  1
  V  V83  1  0.36891314  0.74457894  0.13259464  1
  V  V84  1  0.87231096  0.87196234  0.51691418  1
  Zn  Zn85  1  0.61922042  0.12816281  0.00534900  1
  Zn  Zn86  1  0.74507469  0.48690033  0.74892875  1
  Zn  Zn87  1  0.00092339  0.37664999  0.87439013  1
  Zn  Zn88  1  0.74988887  0.37705733  0.12621754  1
  Zn  Zn89  1  0.37006767  0.00126805  0.87581468  1
  Zn  Zn90  1  0.62514142  0.62868248  0.50097216  1
  Zn  Zn91  1  -0.00637457  0.50287726  0.00402682  1
  Zn  Zn92  1  0.24810435  0.12170669  0.37881220  1
  Zn  Zn93  1  0.62502327  0.25305134  0.87659120  1
  Zn  Zn94  1  0.24185490  0.87434356  0.12415953  1
  Zn  Zn95  1  0.62943456  0.87377372  0.74536052  1
  Zn  Zn96  1  0.11775060  0.87625525  0.74962180  1
  Zn  Zn97  1  0.62698753  -0.00263097  0.12167036  1
  Zn  Zn98  1  0.25189042  0.37591278  0.62183381  1
  Zn  Zn99  1  0.25163506  0.49874118  0.74692194  1
  Zn  Zn100  1  0.50069415  0.12720036  0.62122195  1
  Zn  Zn101  1  0.37950346  -0.00446794  0.37042903  1
  Zn  Zn102  1  0.37268646  0.75008123  0.62167663  1
  Zn  Zn103  1  0.37436566  0.25349448  0.62345623  1
  Zn  Zn104  1  0.75169788  0.35933157  0.62570565  1
  Zn  Zn105  1  0.62813925  0.87176424  0.24153543  1
  Zn  Zn106  1  0.37208651  0.37478525  0.49947600  1
  Zn  Zn107  1  0.18897363  0.18973911  0.19257666  1
  Zn  Zn108  1  0.18363843  0.18729875  0.68683012  1
  Zn  Zn109  1  0.16726718  0.69313781  0.18341258  1
  Zn  Zn110  1  0.18553684  0.68676953  0.68449225  1
  Zn  Zn111  1  0.69091628  0.17913718  0.18099857  1
  Zn  Zn112  1  0.68535362  0.18633814  0.70625320  1
  Zn  Zn113  1  0.69081824  0.68582128  0.18586467  1
  Zn  Zn114  1  0.68227911  0.68473549  0.69493287  1
  Zn  Zn115  1  0.30986437  0.31506624  0.31512735  1
  Zn  Zn116  1  0.31281501  0.31259304  0.81218029  1
  Zn  Zn117  1  0.30974720  0.80910011  0.31368824  1
  Zn  Zn118  1  0.31308071  0.81335294  0.80865043  1
  Zn  Zn119  1  0.81413903  0.31471725  0.31736490  1
  Zn  Zn120  1  0.80909208  0.31551187  0.81078861  1
  Zn  Zn121  1  0.81651459  0.80907476  0.31803716  1
  Zn  Zn122  1  0.81330055  0.81381915  0.91508860  1
  Zn  Zn123  1  0.18805014  0.43516849  0.43730221  1
  Zn  Zn124  1  0.19220697  0.43518368  0.93612514  1
  Zn  Zn125  1  0.18954294  0.93560705  0.43825872  1
  Zn  Zn126  1  0.17784210  0.93721761  0.93940054  1
  Zn  Zn127  1  0.68796861  0.43513505  0.44319152  1
  Zn  Zn128  1  0.68984720  0.43976856  0.94004359  1
  Zn  Zn129  1  0.68911653  0.93588643  0.43550057  1
  Zn  Zn130  1  0.68163428  0.94756057  0.93313858  1
  Zn  Zn131  1  0.30896242  0.06208816  0.06543514  1
  Zn  Zn132  1  0.31551442  0.06149331  0.55993182  1
  Zn  Zn133  1  0.30817332  0.56328313  0.06163718  1
  Zn  Zn134  1  0.31577814  0.56070437  0.56261055  1
  Zn  Zn135  1  0.81945798  0.06564271  0.05931926  1
  Zn  Zn136  1  0.81954824  0.05380326  0.56605398  1
  Zn  Zn137  1  0.80356438  0.57569652  0.06364918  1
  Zn  Zn138  1  0.81197183  0.56148513  0.56031251  1
  Zn  Zn139  1  0.43736713  0.43683054  0.19052294  1
  Zn  Zn140  1  0.43515829  0.43699867  0.68759210  1
  Zn  Zn141  1  0.43541286  0.93128324  0.18609909  1
  Zn  Zn142  1  0.43702759  0.94134341  0.68162650  1
  Zn  Zn143  1  0.93419504  0.44557679  0.18707906  1
  Zn  Zn144  1  0.93820295  0.43490209  0.68417047  1
  Zn  Zn145  1  0.94085347  0.93220517  0.18340767  1
  Zn  Zn146  1  0.93875964  0.93892873  0.69598389  1
  Zn  Zn147  1  0.06147644  0.06395608  0.31316056  1
  Zn  Zn148  1  0.06222153  0.06525486  0.81131843  1
  Zn  Zn149  1  0.05364339  0.57584144  0.30678586  1
  Zn  Zn150  1  0.06074638  0.56263818  0.80898915  1
  Zn  Zn151  1  0.56908081  0.06003263  0.30775137  1
  Zn  Zn152  1  0.56404648  0.06367766  0.81486143  1
  Zn  Zn153  1  0.56363893  0.57176210  0.31112976  1
  Zn  Zn154  1  0.55902628  0.56005848  0.81081854  1
  Zn  Zn155  1  0.43509457  0.18545518  0.43438338  1
  Zn  Zn156  1  0.43061921  0.18939839  0.93244724  1
  Zn  Zn157  1  0.43523303  0.68790629  0.43323271  1
  Zn  Zn158  1  0.44119826  0.68979092  0.94224624  1
  Zn  Zn159  1  0.93961957  0.18506892  0.43432399  1
  Zn  Zn160  1  0.93632228  0.19110362  0.93385321  1
  Zn  Zn161  1  0.93321140  0.68784662  0.44213428  1
  Zn  Zn162  1  0.94015659  0.67802039  0.93007649  1
  Zn  Zn163  1  0.06046909  0.31499343  0.06448095  1
  Zn  Zn164  1  0.06206644  0.31591952  0.56090271  1
  Zn  Zn165  1  0.04286697  0.81685068  0.06889012  1
  Zn  Zn166  1  0.06392259  0.81710229  0.56580397  1
  Zn  Zn167  1  0.56204718  0.31446611  0.06295306  1
  Zn  Zn168  1  0.55228622  0.31592446  0.56315827  1
  Zn  Zn169  1  0.56080621  0.81801903  0.06737147  1
  Zn  Zn170  1  0.55940671  0.81456196  0.55902791  1
  O  O171  1  0.12499152  0.11413493  0.13565522  1
  O  O172  1  0.11772003  0.11277228  0.62753167  1
  O  O173  1  0.14282033  0.60745978  0.10879577  1
  O  O174  1  0.11669234  0.61225239  0.62889382  1
  O  O175  1  0.62978562  0.11243654  0.11773919  1
  O  O176  1  0.62974984  0.12241396  0.61309457  1
  O  O177  1  0.61796105  0.61981095  0.11694794  1
  O  O178  1  0.61131713  0.61744025  0.62503037  1
  O  O179  1  0.38201584  0.38608557  0.37352687  1
  O  O180  1  0.37866243  0.38215224  0.88337587  1
  O  O181  1  0.37004979  0.87593313  0.38813008  1
  O  O182  1  0.37552553  0.87554950  0.88594398  1
  O  O183  1  0.86948817  0.39035593  0.38485387  1
  O  O184  1  0.87568322  0.38283678  0.88210603  1
  O  O185  1  0.88486347  0.87877934  0.38346546  1
  O  O186  1  0.88170008  0.89694773  0.86774720  1
  O  O187  1  0.24988466  0.00159908  0.36265845  1
  O  O188  1  0.24547409  0.00607477  0.86825966  1
  O  O189  1  0.25354485  0.51089655  0.36991776  1
  O  O190  1  0.26175566  0.50501437  0.87142233  1
  O  O191  1  0.75817368  0.00511514  0.36685139  1
  O  O192  1  0.75749628  0.00858699  0.87010155  1
  O  O193  1  0.75219861  0.50630396  0.37298613  1
  O  O194  1  0.75700472  0.50615068  0.87072537  1
  O  O195  1  0.24669641  0.49233189  0.13320496  1
  O  O196  1  0.24186260  0.49957900  0.62550799  1
  O  O197  1  0.24052284  0.99715421  0.13548984  1
  O  O198  1  0.24449044  0.99624733  0.63037545  1
  O  O199  1  0.73658311  0.50168871  0.13686281  1
  O  O200  1  0.72983040  0.50479389  0.62092653  1
  O  O201  1  0.76282884  0.99789533  0.13584765  1
  O  O202  1  0.74390155  1.00691394  0.63782430  1
  O  O203  1  0.00712875  0.37010023  0.24647456  1
  O  O204  1  0.01062599  0.36548792  0.74913567  1
  O  O205  1  0.00639760  0.87109847  0.26916560  1
  O  O206  1  -0.00281079  0.86378626  0.76322137  1
  O  O207  1  0.50507493  0.36257838  0.25443242  1
  O  O208  1  0.49117109  0.36702926  0.76215140  1
  O  O209  1  0.50079441  0.85895190  0.24653185  1
  O  O210  1  0.49437285  0.86913863  0.75544549  1
  O  O211  1  0.49586907  0.13362837  0.25245970  1
  O  O212  1  0.49006824  0.13088776  0.75166897  1
  O  O213  1  0.50348823  0.63585964  0.23470297  1
  O  O214  1  0.49491097  0.63326428  0.74474574  1
  O  O215  1  0.98757374  0.13313437  0.25508511  1
  O  O216  1  1.00495561  0.13943503  0.74265433  1
  O  O217  1  0.97817523  0.64221651  0.24763941  1
  O  O218  1  0.99262607  0.62733732  0.73811820  1
  O  O219  1  0.36919116  0.25498525  0.00912505  1
  O  O220  1  0.36342373  0.25099897  0.49831584  1
  O  O221  1  0.36758076  0.75585060  0.00799945  1
  O  O222  1  0.38356410  0.76596103  0.50257549  1
  O  O223  1  0.86960800  0.25728460  0.00691936  1
  O  O224  1  0.88186311  0.26721701  0.48902925  1
  O  O225  1  0.91148426  0.78264244  -0.04106615  1
  O  O226  1  0.86364853  0.75993894  0.50121948  1
  O  O227  1  0.13300029  0.25605405  0.48992844  1
  O  O228  1  0.12861028  0.25868886  0.98752700  1
  O  O229  1  0.12540379  0.75777553  0.48878814  1
  O  O230  1  0.12947081  0.74160902  0.98898194  1
  O  O231  1  0.62107497  0.24563202  0.49268045  1
  O  O232  1  0.63845251  0.25231458  1.00164408  1
  O  O233  1  0.62973734  0.75154002  0.49187053  1
  O  O234  1  0.60704318  0.73833800  0.99019102  1
  O  O235  1  0.48855390  0.25405729  0.13204489  1
  O  O236  1  0.49672973  0.24594811  0.63324751  1
  O  O237  1  0.48865986  0.74230751  0.12818055  1
  O  O238  1  0.50143332  0.74347872  0.63401271  1
  O  O239  1  0.98869393  0.25565977  0.13534956  1
  O  O240  1  1.00957711  0.24349966  0.63685391  1
  O  O241  1  1.05076703  0.72433465  0.13679457  1
  O  O242  1  1.00882718  0.74073195  0.63221751  1
  O  O243  1  0.00611205  0.24956795  0.36260117  1
  O  O244  1  0.00819892  0.25124322  0.86483109  1
  O  O245  1  0.00515214  0.75663863  0.38158669  1
  O  O246  1  0.01378661  0.74449407  0.86032724  1
  O  O247  1  0.51042306  0.25125880  0.36740669  1
  O  O248  1  0.49768222  0.26018219  0.87045279  1
  O  O249  1  0.51136121  0.73833992  0.36331149  1
  O  O250  1  0.50143762  0.76420700  0.87158537  1
  O  O251  1  0.25300103  0.13785598  0.49726903  1
  O  O252  1  0.25493232  0.13235734  0.99056323  1
  O  O253  1  0.24898106  0.62376447  0.49049789  1
  O  O254  1  0.24330164  0.63045647  0.98945842  1
  O  O255  1  0.75218842  0.12135900  0.49247211  1
  O  O256  1  0.75352068  0.13410216  0.99160857  1
  O  O257  1  0.74697672  0.63485514  0.49766292  1
  O  O258  1  0.73244187  0.62328755  0.98752159  1
  O  O259  1  0.26035790  0.36711523  0.00660791  1
  O  O260  1  0.25208736  0.36156962  0.49843265  1
  O  O261  1  0.25344800  0.86953077  0.00090616  1
  O  O262  1  0.26575749  0.88463774  0.50870779  1
  O  O263  1  0.76006350  0.36757987  0.00078749  1
  O  O264  1  0.76370514  0.37590236  0.50597987  1
  O  O265  1  0.71488524  0.84233848  -0.04080636  1
  O  O266  1  0.76023843  0.86852659  0.49820390  1
  O  O267  1  0.12771777  0.49771590  0.24359458  1
  O  O268  1  0.12549086  0.49160873  0.74308234  1
  O  O269  1  0.12911433  0.99455487  0.24786791  1
  O  O270  1  0.13146811  0.99753263  0.74359319  1
  O  O271  1  0.63108434  0.49713099  0.24831642  1
  O  O272  1  0.61999209  0.49954855  0.73311131  1
  O  O273  1  0.64590017  0.99636244  0.24981476  1
  O  O274  1  0.63316015  1.00388190  0.73975340  1
  O  O275  1  0.36809573  0.00411099  0.24810458  1
  O  O276  1  0.36620072  0.00695844  0.75130540  1
  O  O277  1  0.36546300  0.49885576  0.25990600  1
  O  O278  1  0.37446778  0.50934501  0.75826205  1
  O  O279  1  0.87460199  0.00382315  0.25153073  1
  O  O280  1  0.86412057  0.00498496  0.75536572  1
  O  O281  1  0.86532771  0.50559670  0.26127980  1
  O  O282  1  0.87488437  0.50510491  0.75521270  1
  O  O283  1  0.12846909  0.36780697  0.36199676  1
  O  O284  1  0.12358955  0.36960811  0.86736412  1
  O  O285  1  0.12009168  0.86957545  0.37075505  1
  O  O286  1  0.11903198  0.86030343  0.87256441  1
  O  O287  1  0.62071464  0.36688768  0.37070979  1
  O  O288  1  0.60953318  0.37792829  0.88391980  1
  O  O289  1  0.63296493  0.86050260  0.36580254  1
  O  O290  1  0.60835776  0.87936820  0.86403177  1
  O  O291  1  0.37059800  0.13325440  0.13664530  1
  O  O292  1  0.37394947  0.12708355  0.63730645  1
  O  O293  1  0.38123545  0.63242261  0.11835875  1
  O  O294  1  0.38536298  0.62670653  0.62998864  1
  O  O295  1  0.87276763  0.13723467  0.13379650  1
  O  O296  1  0.88946517  0.12403498  0.62308369  1
  O  O297  1  0.89743176  0.57744303  0.13257258  1
  O  O298  1  0.88147536  0.61786795  0.63446977  1
  O  O299  1  0.25971430  0.25535947  0.12484991  1
  O  O300  1  0.24688827  0.25057828  0.61257212  1
  O  O301  1  0.25251924  0.75093884  0.12099425  1
  O  O302  1  0.25078083  0.76624769  0.63123587  1
  O  O303  1  0.76179066  0.25351681  0.11945303  1
  O  O304  1  0.73618260  0.23732212  0.61250040  1
  O  O305  1  0.79532122  0.67947038  0.13886442  1
  O  O306  1  0.73759014  0.74772508  0.61645256  1
  O  O307  1  0.24208902  0.24822931  0.38275020  1
  O  O308  1  0.24329777  0.24392049  0.88001232  1
  O  O309  1  0.24258929  0.73515355  0.37185649  1
  O  O310  1  0.24508315  0.74500086  0.87646134  1
  O  O311  1  0.73895064  0.24191837  0.36891915  1
  O  O312  1  0.75027864  0.24437187  0.88329475  1
  O  O313  1  0.74526395  0.74247692  0.38257863  1
  O  O314  1  0.74191007  0.73143254  0.86225054  1
  O  O315  1  0.00154697  0.11786370  -0.00240245  1
  O  O316  1  -0.00244403  0.11439613  0.50552432  1
  O  O317  1  0.01450496  0.62019697  -0.00497081  1
  O  O318  1  -0.00740086  0.61612846  0.51292550  1
  O  O319  1  0.49101307  0.11075114  -0.00776218  1
  O  O320  1  0.49536379  0.11001509  0.50031435  1
  O  O321  1  0.50749942  0.62275191  0.01118600  1
  O  O322  1  0.49949728  0.62027275  0.50721902  1
  O  O323  1  0.49652368  0.38530895  0.48981657  1
  O  O324  1  0.48575206  0.36953812  0.99407728  1
  O  O325  1  0.48694090  0.88809134  0.50443224  1
  O  O326  1  0.48761884  0.88213374  0.99247413  1
  O  O327  1  0.99070913  0.38805475  0.50157129  1
  O  O328  1  0.98624688  0.37664096  0.99716706  1
  O  O329  1  0.99477367  0.88248134  0.49583295  1
  O  O330  1  1.01616839  0.89137681  0.98576563  1
  O  O331  1  0.49296676  0.50201433  0.37708062  1
  O  O332  1  0.48709725  0.49343194  0.87273549  1
  O  O333  1  0.50338701  1.00118487  0.38476064  1
  O  O334  1  0.49239336  0.99089543  0.87952397  1
  O  O335  1  0.99048473  0.51085008  0.38244900  1
  O  O336  1  0.98710824  0.49983414  0.87617820  1
  O  O337  1  0.99744956  0.99341874  0.38335743  1
  O  O338  1  0.99647415  1.00337219  0.88395655  1
  O  O339  1  0.00439250  0.00039023  0.11112704  1
  O  O340  1  0.00647083  0.00671351  0.62114687  1
  O  O341  1  0.02009163  0.48736825  0.12092992  1
  O  O342  1  0.00705092  0.50579837  0.61712627  1
  O  O343  1  0.49258157  -0.00281044  0.10973071  1
  O  O344  1  0.51040189  0.00728930  0.61736990  1
  O  O345  1  0.51066366  0.50706432  0.13521186  1
  O  O346  1  0.50526643  0.50547228  0.61661814  1
  O  O347  1  0.24215719  0.38528877  0.24738619  1
  O  O348  1  0.23847420  0.37521594  0.74812863  1
  O  O349  1  0.24070566  0.88094458  0.25062177  1
  O  O350  1  0.25120074  0.88798158  0.74346029  1
  O  O351  1  0.74497230  0.38634876  0.25224038  1
  O  O352  1  0.75045393  0.37366341  0.73763772  1
  O  O353  1  0.76160911  0.88697070  0.25129286  1
  O  O354  1  0.74776978  0.89569404  0.75595675  1
  O  O355  1  0.25827322  0.11670480  0.25201042  1
  O  O356  1  0.25303304  0.11590597  0.75404652  1
  O  O357  1  0.23986132  0.61629291  0.25035504  1
  O  O358  1  0.25851287  0.62576857  0.75502403  1
  O  O359  1  0.76358789  0.11503414  0.25495468  1
  O  O360  1  0.74963912  0.11724621  0.76553339  1
  O  O361  1  0.75878922  0.61369311  0.26369115  1
  O  O362  1  0.75586281  0.61532182  0.75287459  1
  O  O363  1  0.37278649  0.12102279  0.36011729  1
  O  O364  1  0.36029482  0.12467240  0.86336026  1
  O  O365  1  0.35874898  0.61991576  0.37594225  1
  O  O366  1  0.37395204  0.61936000  0.87343155  1
  O  O367  1  0.86689699  0.11866104  0.36819025  1
  O  O368  1  0.86810905  0.11670743  0.87866001  1
  O  O369  1  0.86196285  0.61495196  0.38505450  1
  O  O370  1  0.86570270  0.61631881  0.86584853  1
  O  O371  1  0.13448111  0.37797169  0.13366352  1
  O  O372  1  0.12616755  0.38583902  0.63167083  1
  O  O373  1  0.12073274  0.88442423  0.14163348  1
  O  O374  1  0.13303964  0.88773138  0.62788109  1
  O  O375  1  0.62604855  0.38313287  0.13262162  1
  O  O376  1  0.62455492  0.38859282  0.61539436  1
  O  O377  1  0.62654330  0.88231029  0.12781495  1
  O  O378  1  0.62072836  0.88732388  0.62738740  1
  O  O379  1  0.11709198  0.26007619  0.25336353  1
  O  O380  1  0.12176019  0.25725574  0.76003625  1
  O  O381  1  0.11436586  0.76061746  0.26531414  1
  O  O382  1  0.11890008  0.75159331  0.75458517  1
  O  O383  1  0.62015952  0.25178601  0.25270847  1
  O  O384  1  0.60684266  0.24763842  0.75754406  1
  O  O385  1  0.62121442  0.74793732  0.25367390  1
  O  O386  1  0.61378434  0.75302108  0.76271274  1
  O  O387  1  0.38169893  0.24369717  0.24518277  1
  O  O388  1  0.38213489  0.24254969  0.74991693  1
  O  O389  1  0.37952841  0.75309981  0.23883665  1
  O  O390  1  0.38639088  0.74405771  0.74902255  1
  O  O391  1  0.88036055  0.24675154  0.24611990  1
  O  O392  1  0.89319045  0.25496352  0.75415778  1
  O  O393  1  0.88063261  0.74006412  0.25257209  1
  O  O394  1  0.88815160  0.73579114  0.75328166  1
  O  O395  1  0.38517930  0.50134125  0.48838423  1
  O  O396  1  0.36902884  0.49053953  0.99290907  1
  O  O397  1  0.38747103  0.99381078  0.49597274  1
  O  O398  1  0.37783849  0.99214221  0.99896037  1
  O  O399  1  0.88174690  0.49326604  0.49496348  1
  O  O400  1  0.87051203  0.49515367  0.99105872  1
  O  O401  1  0.88442418  0.99147207  0.49432989  1
  O  O402  1  0.89133476  1.00185548  0.99391709  1
  O  O403  1  0.11592372  0.00447619  0.01035928  1
  O  O404  1  0.11514268  -0.00532834  0.50677744  1
  O  O405  1  0.12745184  0.50380598  0.00398706  1
  O  O406  1  0.11626979  0.49399250  0.50677595  1
  O  O407  1  0.60381850  0.00125021  -0.00314809  1
  O  O408  1  0.61312477  -0.00698295  0.50432484  1
  O  O409  1  0.62597790  0.50515618  0.01236754  1
  O  O410  1  0.61202534  0.50424047  0.50373980  1
  O  O411  1  0.37165498  0.36941422  0.12046205  1
  O  O412  1  0.37097209  0.37315978  0.61962886  1
  O  O413  1  0.36910015  0.86558874  0.11427024  1
  O  O414  1  0.36757871  0.87577112  0.61535306  1
  O  O415  1  0.87137916  0.37236498  0.11817485  1
  O  O416  1  0.87443000  0.37544650  0.60949680  1
  O  O417  1  0.94647152  0.82632788  0.14213252  1
  O  O418  1  0.88130970  0.88067016  0.61575421  1
  O  O419  1  0.12751725  0.14106422  0.36715778  1
  O  O420  1  0.13623724  0.13474774  0.86975435  1
  O  O421  1  0.13527542  0.63119099  0.37226283  1
  O  O422  1  0.13167926  0.63031126  0.87713133  1
  O  O423  1  0.64020130  0.12895893  0.37041385  1
  O  O424  1  0.63379322  0.12852651  0.88411602  1
  O  O425  1  0.63813951  0.63304499  0.37695395  1
  O  O426  1  0.62794206  0.61981610  0.88146331  1
