# generated using pymatgen
data_V85Zn86O256
_symmetry_space_group_name_H-M   'P 1'
_cell_length_a   16.93300576
_cell_length_b   16.93319876
_cell_length_c   16.93323073
_cell_angle_alpha   89.96607579
_cell_angle_beta   90.02238568
_cell_angle_gamma   90.04728029
_symmetry_Int_Tables_number   1
_chemical_formula_structural   V85Zn86O256
_chemical_formula_sum   'V85 Zn86 O256'
_cell_volume   4855.26156171
_cell_formula_units_Z   1
loop_
 _symmetry_equiv_pos_site_id
 _symmetry_equiv_pos_as_xyz
  1  'x, y, z'
loop_
 _atom_site_type_symbol
 _atom_site_label
 _atom_site_symmetry_multiplicity
 _atom_site_fract_x
 _atom_site_fract_y
 _atom_site_fract_z
 _atom_site_occupancy
  V  V0  1  0.62321949  0.38325252  0.24587196  1
  V  V1  1  0.00691110  0.75312965  0.24890968  1
  V  V2  1  0.06015024  0.82004348  0.42280334  1
  V  V3  1  0.38617700  0.87830586  0.49542645  1
  V  V4  1  0.38833180  -0.00207827  0.37679440  1
  V  V5  1  -0.00577916  0.00218710  0.49739047  1
  V  V6  1  0.74498765  0.36856535  0.12162342  1
  V  V7  1  0.87442047  0.35978916  0.00708632  1
  V  V8  1  0.61549708  0.11983903  0.50001636  1
  V  V9  1  0.11882378  0.00602963  0.62790872  1
  V  V10  1  0.75309567  0.12009807  0.37151782  1
  V  V11  1  0.50054305  0.12328906  0.12471261  1
  V  V12  1  0.00287563  0.24891900  0.73758635  1
  V  V13  1  0.50206494  0.62733098  0.62584113  1
  V  V14  1  0.12375458  0.88198764  0.24726612  1
  V  V15  1  0.50079070  0.75214058  0.75195033  1
  V  V16  1  0.49976405  0.37757388  0.38032116  1
  V  V17  1  0.49893315  0.25006145  0.25065684  1
  V  V18  1  0.25851041  0.12701145  0.87058367  1
  V  V19  1  0.37467297  0.62650132  0.74851672  1
  V  V20  1  0.12294764  0.25308948  0.36462955  1
  V  V21  1  0.00105789  0.49869109  0.00213146  1
  V  V22  1  0.86857676  0.74915889  0.12029286  1
  V  V23  1  0.24353802  0.38737523  0.61994555  1
  V  V24  1  0.12873258  0.62691131  0.00150711  1
  V  V25  1  0.23040073  0.63327158  0.38026384  1
  V  V26  1  -0.00032552  0.37455051  0.87343073  1
  V  V27  1  0.24720106  0.11582130  0.37159501  1
  V  V28  1  0.37071933  0.11776630  0.25019221  1
  V  V29  1  0.87252871  0.12218111  0.24300879  1
  V  V30  1  0.11423855  -0.00033386  0.11583147  1
  V  V31  1  0.37334726  0.24821355  0.12525393  1
  V  V32  1  0.12893837  0.49797127  0.12630121  1
  V  V33  1  0.25219342  0.62351356  0.87786796  1
  V  V34  1  0.75384317  0.75188691  0.50104458  1
  V  V35  1  0.87654982  0.50016019  0.87766499  1
  V  V36  1  0.00227517  0.62479589  0.12593437  1
  V  V37  1  0.63132711  0.75231650  0.88787289  1
  V  V38  1  0.37488426  0.37484146  0.50244642  1
  V  V39  1  0.74649953  0.62376252  0.37664428  1
  V  V40  1  0.24532384  0.49523751  0.25633226  1
  V  V41  1  0.01047686  0.62194963  0.62183007  1
  V  V42  1  0.63438184  0.87926225  0.25912501  1
  V  V43  1  0.49677745  0.87318197  0.88652824  1
  V  V44  1  0.12401347  0.38477347  0.74671809  1
  V  V45  1  0.75237979  0.37577659  0.62387544  1
  V  V46  1  0.75250006  0.49613013  0.75100908  1
  V  V47  1  0.00059416  0.87457856  0.87349345  1
  V  V48  1  0.75425274  0.63260219  0.88308921  1
  V  V49  1  0.87121188  0.49329465  0.38226366  1
  V  V50  1  0.12212570  0.75145719  0.87005457  1
  V  V51  1  0.88167517  0.62999504  0.75025205  1
  V  V52  1  0.87919704  0.25359752  0.61633396  1
  V  V53  1  0.63242382  -0.00148396  0.12582817  1
  V  V54  1  0.11655940  0.12767471  0.50103362  1
  V  V55  1  0.62501132  0.87614886  0.75091110  1
  V  V56  1  0.49708409  0.76051898  0.25800489  1
  V  V57  1  0.62122139  0.25889607  0.86682444  1
  V  V58  1  0.75084363  0.13179347  0.87725377  1
  V  V59  1  0.26064994  0.75331639  0.00170987  1
  V  V60  1  0.12574144  0.24888997  0.87173165  1
  V  V61  1  0.74774918  0.25327900  0.49914805  1
  V  V62  1  0.38143011  0.49379727  0.87281438  1
  V  V63  1  -0.00655934  0.36984619  0.37787587  1
  V  V64  1  0.24668581  0.37392229  0.13011478  1
  V  V65  1  0.88286862  0.00431558  0.88004861  1
  V  V66  1  0.37595589  -0.00331790  0.87902984  1
  V  V67  1  0.48986432  0.12013726  0.63775293  1
  V  V68  1  0.87825377  0.12541411  0.74041619  1
  V  V69  1  0.87209151  0.87570492  -0.00009006  1
  V  V70  1  -0.00467486  0.25200022  0.23854009  1
  V  V71  1  0.62756832  0.13100726  0.00015458  1
  V  V72  1  0.24772475  0.24879285  0.50010654  1
  V  V73  1  0.25576768  0.00340159  0.74739927  1
  V  V74  1  0.24919092  0.24983409  -0.00056138  1
  V  V75  1  0.62341367  0.49909036  0.63336930  1
  V  V76  1  0.37340188  0.62784990  0.25429132  1
  V  V77  1  0.25814411  0.88281347  0.12536927  1
  V  V78  1  0.87783787  -0.01187748  0.37090773  1
  V  V79  1  0.62606830  0.25126519  0.37698016  1
  V  V80  1  0.87569606  0.62248215  0.25100604  1
  V  V81  1  0.87864939  0.75311095  0.62809029  1
  V  V82  1  0.75156161  0.00181843  0.74884938  1
  V  V83  1  0.75458869  0.87721810  0.62127483  1
  V  V84  1  0.37183876  0.75384792  0.62157085  1
  Zn  Zn85  1  0.48848400  0.26312031  0.76072118  1
  Zn  Zn86  1  0.11968383  0.11803720  -0.00620564  1
  Zn  Zn87  1  0.51478308  0.62105473  0.13106741  1
  Zn  Zn88  1  0.37023712  0.50380520  0.38053977  1
  Zn  Zn89  1  0.62178384  0.75461939  0.38144681  1
  Zn  Zn90  1  0.24975395  0.87839711  0.62272507  1
  Zn  Zn91  1  0.38191336  0.37166780  -0.00769419  1
  Zn  Zn92  1  0.51058822  0.49569282  0.01246257  1
  Zn  Zn93  1  0.00687350  0.50854486  0.49811183  1
  Zn  Zn94  1  0.49690155  -0.00249440  0.00350550  1
  Zn  Zn95  1  0.74885070  0.87398730  0.12135454  1
  Zn  Zn96  1  0.63105477  0.61792462  0.01299136  1
  Zn  Zn97  1  0.24335964  0.50653254  0.74339494  1
  Zn  Zn98  1  0.38028539  0.75469285  0.12286394  1
  Zn  Zn99  1  0.24158051  0.75293799  0.49604148  1
  Zn  Zn100  1  -0.01165759  0.12400602  0.11249490  1
  Zn  Zn101  1  0.74080265  0.50628615  0.24110481  1
  Zn  Zn102  1  0.37144680  0.24266814  0.63243007  1
  Zn  Zn103  1  0.12369069  0.87852347  0.75199619  1
  Zn  Zn104  1  0.50009653  0.50210884  0.50346729  1
  Zn  Zn105  1  0.62049150  -0.00326390  0.61875856  1
  Zn  Zn106  1  0.62549496  0.62567368  0.50296528  1
  Zn  Zn107  1  0.18487906  0.18267365  0.18697244  1
  Zn  Zn108  1  0.18844396  0.18702707  0.68563088  1
  Zn  Zn109  1  0.19245436  0.68966983  0.18901104  1
  Zn  Zn110  1  0.18959363  0.69165768  0.68946883  1
  Zn  Zn111  1  0.68913657  0.19209129  0.18724422  1
  Zn  Zn112  1  0.68498901  0.18682639  0.68596062  1
  Zn  Zn113  1  0.68395615  0.69030565  0.18958055  1
  Zn  Zn114  1  0.69049260  0.68709446  0.69451244  1
  Zn  Zn115  1  0.31223455  0.30990159  0.31407261  1
  Zn  Zn116  1  0.31056948  0.31275588  0.80402410  1
  Zn  Zn117  1  0.30729034  0.81549996  0.31432381  1
  Zn  Zn118  1  0.31127709  0.81576969  0.81150639  1
  Zn  Zn119  1  0.81039352  0.30965099  0.30493411  1
  Zn  Zn120  1  0.81333464  0.31201705  0.81160092  1
  Zn  Zn121  1  0.81319259  0.80787137  0.31026039  1
  Zn  Zn122  1  0.81406905  0.81494982  0.81143788  1
  Zn  Zn123  1  0.17994408  0.43827588  0.43485079  1
  Zn  Zn124  1  0.19215944  0.43674995  0.93831037  1
  Zn  Zn125  1  0.19608029  0.94203624  0.44472276  1
  Zn  Zn126  1  0.19176154  0.93592781  0.93930570  1
  Zn  Zn127  1  0.68539827  0.43932056  0.44275412  1
  Zn  Zn128  1  0.69363693  0.43461875  0.94150142  1
  Zn  Zn129  1  0.69282395  0.93961339  0.43742578  1
  Zn  Zn130  1  0.69052251  0.94322166  0.93882066  1
  Zn  Zn131  1  0.30895957  0.06085567  0.05918322  1
  Zn  Zn132  1  0.31052533  0.05956232  0.55846215  1
  Zn  Zn133  1  0.34473498  0.55013696  0.07904302  1
  Zn  Zn134  1  0.31097303  0.56627935  0.55675860  1
  Zn  Zn135  1  0.81054961  0.06107487  0.05881329  1
  Zn  Zn136  1  0.81128070  0.06457473  0.55838863  1
  Zn  Zn137  1  0.81153350  0.55610149  0.06537927  1
  Zn  Zn138  1  0.81652490  0.56431709  0.56244728  1
  Zn  Zn139  1  0.43255458  0.43637622  0.19052316  1
  Zn  Zn140  1  0.43289165  0.43735004  0.69280014  1
  Zn  Zn141  1  0.44139152  0.93993178  0.19048928  1
  Zn  Zn142  1  0.43780426  0.94091104  0.68873471  1
  Zn  Zn143  1  0.93516962  0.43553913  0.18856094  1
  Zn  Zn144  1  0.93619661  0.43884591  0.68478665  1
  Zn  Zn145  1  0.93732461  0.93598198  0.18950764  1
  Zn  Zn146  1  0.93962677  0.93873148  0.68891645  1
  Zn  Zn147  1  0.05782287  0.06265363  0.30833343  1
  Zn  Zn148  1  0.06264993  0.06622448  0.81197373  1
  Zn  Zn149  1  0.06038819  0.55646305  0.31112721  1
  Zn  Zn150  1  0.06088494  0.56634170  0.81231937  1
  Zn  Zn151  1  0.56518773  0.06236629  0.31139149  1
  Zn  Zn152  1  0.56282462  0.06157600  0.81318424  1
  Zn  Zn153  1  0.55825806  0.56531486  0.31379238  1
  Zn  Zn154  1  0.58608134  0.54029892  0.84553608  1
  Zn  Zn155  1  0.43607407  0.18922199  0.43900935  1
  Zn  Zn156  1  0.43947398  0.18727548  0.93690258  1
  Zn  Zn157  1  0.43410445  0.68883937  0.43684685  1
  Zn  Zn158  1  0.44345151  0.68028416  0.94078530  1
  Zn  Zn159  1  0.93658599  0.18711346  0.43293781  1
  Zn  Zn160  1  0.94221918  0.18592595  0.93150050  1
  Zn  Zn161  1  0.93175730  0.68353687  0.44280652  1
  Zn  Zn162  1  0.94038746  0.69078112  0.93964361  1
  Zn  Zn163  1  0.06523555  0.31103829  0.06097175  1
  Zn  Zn164  1  0.06789466  0.33852472  0.54772285  1
  Zn  Zn165  1  0.06079687  0.81477869  0.05732014  1
  Zn  Zn166  1  0.05706743  0.81759690  0.58496223  1
  Zn  Zn167  1  0.56143554  0.31174440  0.05709711  1
  Zn  Zn168  1  0.54659833  0.32531514  0.59842811  1
  Zn  Zn169  1  0.56249584  0.80805787  0.06995073  1
  Zn  Zn170  1  0.56465746  0.81252536  0.56249127  1
  O  O171  1  0.12858042  0.10529168  0.12418726  1
  O  O172  1  0.12692885  0.11638128  0.61444543  1
  O  O173  1  0.12306552  0.61951633  0.12078382  1
  O  O174  1  0.10897484  0.63244240  0.63377989  1
  O  O175  1  0.62267969  0.12094333  0.12036494  1
  O  O176  1  0.61821236  0.12324603  0.61260211  1
  O  O177  1  0.63041192  0.61686352  0.12767787  1
  O  O178  1  0.61773061  0.62107838  0.62902384  1
  O  O179  1  0.38124626  0.37442213  0.38589540  1
  O  O180  1  0.36224380  0.39101136  0.87141316  1
  O  O181  1  0.37020493  0.88314115  0.38521579  1
  O  O182  1  0.38620116  0.88127213  0.87200620  1
  O  O183  1  0.87697271  0.38655178  0.36047130  1
  O  O184  1  0.87913855  0.37957051  0.88371660  1
  O  O185  1  0.86846648  0.88855017  0.36951305  1
  O  O186  1  0.87989682  0.88368552  0.87881921  1
  O  O187  1  0.25769245  0.01297485  0.37710269  1
  O  O188  1  0.25561105  0.00622814  0.87001802  1
  O  O189  1  0.24534546  0.50654049  0.37139872  1
  O  O190  1  0.25151619  0.51453033  0.87181657  1
  O  O191  1  0.76200281  0.01226936  0.38125751  1
  O  O192  1  0.76071807  0.00921779  0.86744682  1
  O  O193  1  0.75507667  0.50606506  0.37263160  1
  O  O194  1  0.75942344  0.50604057  0.86695112  1
  O  O195  1  0.25153993  0.49075784  0.13367734  1
  O  O196  1  0.24722027  0.49099848  0.62049948  1
  O  O197  1  0.24132553  0.98666854  0.12121584  1
  O  O198  1  0.24230358  1.00234002  0.63253815  1
  O  O199  1  0.75905706  0.47947097  0.12996704  1
  O  O200  1  0.74918668  0.49592922  0.63095938  1
  O  O201  1  0.73605178  0.99856727  0.12339891  1
  O  O202  1  0.75019641  0.99291452  0.62966948  1
  O  O203  1  -0.00700969  0.35825854  0.25497584  1
  O  O204  1  0.00539650  0.37069246  0.75271134  1
  O  O205  1  0.00896075  0.86563640  0.24867555  1
  O  O206  1  0.00184661  0.87939896  0.76628100  1
  O  O207  1  0.50201792  0.37085141  0.25833282  1
  O  O208  1  0.50976611  0.36008963  0.70423569  1
  O  O209  1  0.50810296  0.86477489  0.24975973  1
  O  O210  1  0.50875327  0.87164006  0.75738606  1
  O  O211  1  0.49385537  0.13074601  0.24506781  1
  O  O212  1  0.50401249  0.12855712  0.73848999  1
  O  O213  1  0.48904652  0.63380673  0.25166003  1
  O  O214  1  0.49210183  0.63523120  0.73809929  1
  O  O215  1  0.99050003  0.13323057  0.24244146  1
  O  O216  1  0.99090031  0.13704085  0.75201453  1
  O  O217  1  0.99550808  0.63082254  0.24600458  1
  O  O218  1  0.98827200  0.62350083  0.74324899  1
  O  O219  1  0.36393599  0.24816478  0.00480584  1
  O  O220  1  0.36316147  0.25602393  0.49926391  1
  O  O221  1  0.36411380  0.74509536  0.00125925  1
  O  O222  1  0.37338918  0.76042399  0.50581284  1
  O  O223  1  0.87757701  0.26234076  -0.00682562  1
  O  O224  1  0.86592809  0.23559745  0.51284315  1
  O  O225  1  0.87920188  0.75779556  0.01046270  1
  O  O226  1  0.86258366  0.74774349  0.51114384  1
  O  O227  1  0.12843103  0.24395666  0.49040793  1
  O  O228  1  0.13739697  0.25323227  0.99076335  1
  O  O229  1  0.11521501  0.76756557  0.49076167  1
  O  O230  1  0.13333141  0.74587483  0.99140873  1
  O  O231  1  0.63322703  0.23829820  0.49359419  1
  O  O232  1  0.62417631  0.23652668  0.99095600  1
  O  O233  1  0.63790143  0.74745360  0.50063342  1
  O  O234  1  0.62533233  0.74859465  0.98993054  1
  O  O235  1  0.49314993  0.24248931  0.13088214  1
  O  O236  1  0.49293029  0.22405929  0.60939100  1
  O  O237  1  0.49686718  0.74587739  0.14144085  1
  O  O238  1  0.49099895  0.74745457  0.63008701  1
  O  O239  1  1.00471670  0.24825894  0.13570341  1
  O  O240  1  0.99362904  0.26201342  0.63198798  1
  O  O241  1  0.99362835  0.74415411  0.13186752  1
  O  O242  1  0.98642242  0.74066611  0.62613992  1
  O  O243  1  0.00579114  0.24728007  0.36062152  1
  O  O244  1  0.00396752  0.25833974  0.85986955  1
  O  O245  1  -0.00208323  0.75329822  0.37138343  1
  O  O246  1  0.01084497  0.75845738  0.87834347  1
  O  O247  1  0.50370782  0.26085457  0.37209015  1
  O  O248  1  0.51484611  0.24792951  0.87494226  1
  O  O249  1  0.50483373  0.74469423  0.36256901  1
  O  O250  1  0.50823883  0.75605061  0.87049123  1
  O  O251  1  0.23984069  0.13066884  0.49201608  1
  O  O252  1  0.24440391  0.13283265  0.99153546  1
  O  O253  1  0.24815872  0.63102276  0.48601194  1
  O  O254  1  0.24478281  0.63339396  0.99274993  1
  O  O255  1  0.74262259  0.13434632  0.49242894  1
  O  O256  1  0.74271458  0.12154362  0.98835478  1
  O  O257  1  0.75047122  0.63220490  0.49334871  1
  O  O258  1  0.75377675  0.61904718  0.98602795  1
  O  O259  1  0.25604914  0.36675134  0.00808752  1
  O  O260  1  0.25445756  0.36689096  0.50149776  1
  O  O261  1  0.24793597  0.86710282  0.01378447  1
  O  O262  1  0.26092893  0.87028950  0.50405911  1
  O  O263  1  0.76331511  0.37532265  0.00878086  1
  O  O264  1  0.74931484  0.36098611  0.50393845  1
  O  O265  1  0.76514791  0.87848277  -0.00020847  1
  O  O266  1  0.74667556  0.86927514  0.51363516  1
  O  O267  1  0.13694356  0.50260158  0.24214986  1
  O  O268  1  0.12353690  0.48887389  0.75313644  1
  O  O269  1  0.11977082  0.98861116  0.23990467  1
  O  O270  1  0.12967225  1.00341371  0.74163643  1
  O  O271  1  0.62073850  0.48630497  0.25501504  1
  O  O272  1  0.63747807  0.50546407  0.74256133  1
  O  O273  1  0.61953988  0.98594520  0.24397413  1
  O  O274  1  0.63212918  0.98918957  0.75092759  1
  O  O275  1  0.37710316  0.01127350  0.25659052  1
  O  O276  1  0.36663484  -0.00177760  0.76228949  1
  O  O277  1  0.36050255  0.50856570  0.25869858  1
  O  O278  1  0.36565650  0.50786130  0.75418542  1
  O  O279  1  0.88151073  0.00824231  0.25947819  1
  O  O280  1  0.87197393  0.00966785  0.75450856  1
  O  O281  1  0.87740099  0.51357572  0.25614965  1
  O  O282  1  0.87169327  0.50698398  0.75777167  1
  O  O283  1  0.11426793  0.35791610  0.36921538  1
  O  O284  1  0.12206232  0.36888404  0.86661496  1
  O  O285  1  0.12688389  0.87926531  0.36822059  1
  O  O286  1  0.11777582  0.86972847  0.87834211  1
  O  O287  1  0.61768714  0.37086531  0.37141801  1
  O  O288  1  0.63800131  0.35581566  0.87614636  1
  O  O289  1  0.63018895  0.87629767  0.36350024  1
  O  O290  1  0.62246036  0.87070986  0.87026486  1
  O  O291  1  0.37632787  0.12693562  0.13235024  1
  O  O292  1  0.38660886  0.11883818  0.62031034  1
  O  O293  1  0.35303774  0.64040869  0.14958733  1
  O  O294  1  0.37946697  0.63349784  0.62763415  1
  O  O295  1  0.87059419  0.11711093  0.13809148  1
  O  O296  1  0.87005116  0.13250781  0.63520766  1
  O  O297  1  0.88036435  0.62966159  0.13172491  1
  O  O298  1  0.87859956  0.63391088  0.63343169  1
  O  O299  1  0.25031814  0.25310459  0.11816169  1
  O  O300  1  0.24903544  0.25267025  0.61017690  1
  O  O301  1  0.24791346  0.76300477  0.11655036  1
  O  O302  1  0.26148486  0.75237689  0.62230095  1
  O  O303  1  0.75519021  0.26742244  0.13152284  1
  O  O304  1  0.75480329  0.25706070  0.61995054  1
  O  O305  1  0.76603839  0.75148812  0.13288864  1
  O  O306  1  0.75694236  0.75609936  0.62164833  1
  O  O307  1  0.24140638  0.24310382  0.38201524  1
  O  O308  1  0.24755462  0.24433333  0.88006835  1
  O  O309  1  0.24354341  0.73748545  0.37356858  1
  O  O310  1  0.24694944  0.74374282  0.88249794  1
  O  O311  1  0.74733632  0.24431810  0.38188403  1
  O  O312  1  0.74480405  0.23672678  0.86793841  1
  O  O313  1  0.75097380  0.74245941  0.38423243  1
  O  O314  1  0.74503168  0.74412055  0.87153937  1
  O  O315  1  0.00767694  0.13291190  0.00191521  1
  O  O316  1  0.01023022  0.11963538  0.49502577  1
  O  O317  1  0.00771633  0.61946867  0.00663896  1
  O  O318  1  0.00004332  0.62611427  0.51523447  1
  O  O319  1  0.50763685  0.12291420  0.00836052  1
  O  O320  1  0.51445476  0.12317567  0.49330994  1
  O  O321  1  0.50799815  0.61889165  0.00722771  1
  O  O322  1  0.50033307  0.62715044  0.51346828  1
  O  O323  1  0.49163714  0.37357503  0.49825230  1
  O  O324  1  0.49313062  0.38278324  1.00773564  1
  O  O325  1  0.48607614  0.87126655  0.50132678  1
  O  O326  1  0.50575434  0.87401599  0.98952198  1
  O  O327  1  0.97787350  0.34719820  0.47500744  1
  O  O328  1  0.99172705  0.37718174  0.99572479  1
  O  O329  1  1.00721344  0.87933049  0.48891720  1
  O  O330  1  0.98731364  0.87290011  0.98680223  1
  O  O331  1  0.49842601  0.48800514  0.38020970  1
  O  O332  1  0.48042269  0.49890180  0.85838320  1
  O  O333  1  0.48756586  1.00454330  0.37255691  1
  O  O334  1  0.49331915  0.99133527  0.87573594  1
  O  O335  1  0.99211471  0.48769072  0.37482605  1
  O  O336  1  0.99648186  0.49407939  0.88106002  1
  O  O337  1  0.99124075  1.00362027  0.38341635  1
  O  O338  1  0.98863017  0.99741419  0.87091706  1
  O  O339  1  0.01148572  -0.00014241  0.12431445  1
  O  O340  1  0.00648192  -0.00499776  0.61261510  1
  O  O341  1  0.00668280  0.50395638  0.12235473  1
  O  O342  1  -0.00766642  0.51839902  0.62440486  1
  O  O343  1  0.50987906  0.00642419  0.12430053  1
  O  O344  1  0.50410587  0.01341635  0.62708042  1
  O  O345  1  0.45699878  0.51779188  0.11848476  1
  O  O346  1  0.50841336  0.51104254  0.62809879  1
  O  O347  1  0.25265569  0.38245559  0.24519935  1
  O  O348  1  0.24019796  0.37954449  0.73824678  1
  O  O349  1  0.23810413  0.86813298  0.23522952  1
  O  O350  1  0.24675561  0.89021898  0.74920506  1
  O  O351  1  0.73868681  0.37662140  0.24246975  1
  O  O352  1  0.75862822  0.38855827  0.74224682  1
  O  O353  1  0.73656254  0.87006672  0.24634901  1
  O  O354  1  0.74440842  0.88082663  0.74184272  1
  O  O355  1  0.25915017  0.13175635  0.25991269  1
  O  O356  1  0.24608562  0.11444924  0.75735698  1
  O  O357  1  0.24965743  0.61943337  0.26461531  1
  O  O358  1  0.25622807  0.62708508  0.75847415  1
  O  O359  1  0.75635072  0.13289957  0.26205354  1
  O  O360  1  0.75692493  0.11993866  0.75367644  1
  O  O361  1  0.75893166  0.62557647  0.25954451  1
  O  O362  1  0.76307813  0.61562666  0.75625334  1
  O  O363  1  0.36808520  0.11997380  0.37010961  1
  O  O364  1  0.36401366  0.11889564  0.87795200  1
  O  O365  1  0.36448617  0.62490139  0.36792264  1
  O  O366  1  0.36839021  0.62076769  0.86776058  1
  O  O367  1  0.86842543  0.11911345  0.36561113  1
  O  O368  1  0.86935629  0.12134827  0.86512131  1
  O  O369  1  0.86667948  0.61888829  0.36895969  1
  O  O370  1  0.87346301  0.62308751  0.86925289  1
  O  O371  1  0.13861637  0.38065572  0.12003801  1
  O  O372  1  0.13476465  0.36128544  0.63833477  1
  O  O373  1  0.12827292  0.88387208  0.12859333  1
  O  O374  1  0.12861675  0.89048477  0.63055564  1
  O  O375  1  0.63390236  0.36990110  0.13173386  1
  O  O376  1  0.64409890  0.38604384  0.61973589  1
  O  O377  1  0.62692509  0.88152516  0.13343943  1
  O  O378  1  0.63268890  0.87663239  0.63367454  1
  O  O379  1  0.11071804  0.24010226  0.25455548  1
  O  O380  1  0.11841728  0.25455923  0.75356765  1
  O  O381  1  0.11332737  0.75860048  0.24459209  1
  O  O382  1  0.13277472  0.75665121  0.76598940  1
  O  O383  1  0.61736379  0.25957184  0.25759082  1
  O  O384  1  0.62388943  0.24374581  0.76446177  1
  O  O385  1  0.61642492  0.76330711  0.25431970  1
  O  O386  1  0.62276365  0.76297371  0.75579978  1
  O  O387  1  0.37993523  0.23900797  0.24732516  1
  O  O388  1  0.37623924  0.24708351  0.74595085  1
  O  O389  1  0.38536756  0.75003758  0.25596002  1
  O  O390  1  0.37898549  0.74769647  0.74199124  1
  O  O391  1  0.88766515  0.23928887  0.25267392  1
  O  O392  1  0.88127399  0.24541698  0.73837994  1
  O  O393  1  0.88635333  0.74016163  0.24638686  1
  O  O394  1  0.86894885  0.74082520  0.74189786  1
  O  O395  1  0.37776584  0.49029418  0.49895992  1
  O  O396  1  0.36955105  0.50091306  0.97809220  1
  O  O397  1  0.37228171  0.98702613  0.49252470  1
  O  O398  1  0.37636590  1.00245471  0.98563433  1
  O  O399  1  0.87983417  0.50380348  0.48570572  1
  O  O400  1  0.88414974  0.49357174  0.99418103  1
  O  O401  1  0.88762094  1.00686021  0.49287631  1
  O  O402  1  0.87413001  0.99403350  0.98928630  1
  O  O403  1  0.12615623  -0.00284658  0.01225050  1
  O  O404  1  0.11704025  0.00845144  0.50451748  1
  O  O405  1  0.12126023  0.50492075  0.00537162  1
  O  O406  1  0.09927155  0.44682479  0.50908473  1
  O  O407  1  0.62196305  0.01035364  0.00682191  1
  O  O408  1  0.63260201  0.01593938  0.49987622  1
  O  O409  1  0.61558737  0.51178576  -0.04116674  1
  O  O410  1  0.62376207  0.50512267  0.51718865  1
  O  O411  1  0.36140682  0.36203851  0.12924918  1
  O  O412  1  0.36088862  0.37280732  0.61303815  1
  O  O413  1  0.36177737  0.87615904  0.13214928  1
  O  O414  1  0.37552036  0.87027863  0.61638461  1
  O  O415  1  0.87300467  0.37330802  0.11181427  1
  O  O416  1  0.86490719  0.36715993  0.62524181  1
  O  O417  1  0.87571607  0.86794929  0.11780171  1
  O  O418  1  0.86717488  0.86595817  0.63339939  1
  O  O419  1  0.13038898  0.13000500  0.37849571  1
  O  O420  1  0.13670835  0.13239146  0.87360516  1
  O  O421  1  0.13136091  0.62136422  0.37583013  1
  O  O422  1  0.13175305  0.63244316  0.87912243  1
  O  O423  1  0.63302257  0.12897078  0.38044775  1
  O  O424  1  0.63319083  0.12676947  0.88189166  1
  O  O425  1  0.63707727  0.62523687  0.37643390  1
  O  O426  1  0.64120361  0.64122131  0.86392540  1
