# generated using pymatgen
data_V85Zn86O256
_symmetry_space_group_name_H-M   'P 1'
_cell_length_a   16.94626670
_cell_length_b   16.94157402
_cell_length_c   16.95025990
_cell_angle_alpha   90.00197453
_cell_angle_beta   89.93528058
_cell_angle_gamma   90.00078848
_symmetry_Int_Tables_number   1
_chemical_formula_structural   V85Zn86O256
_chemical_formula_sum   'V85 Zn86 O256'
_cell_volume   4866.35602474
_cell_formula_units_Z   1
loop_
 _symmetry_equiv_pos_site_id
 _symmetry_equiv_pos_as_xyz
  1  'x, y, z'
loop_
 _atom_site_type_symbol
 _atom_site_label
 _atom_site_symmetry_multiplicity
 _atom_site_fract_x
 _atom_site_fract_y
 _atom_site_fract_z
 _atom_site_occupancy
  V  V0  1  0.24719778  0.86538737  0.12156164  1
  V  V1  1  0.12130042  0.87762678  0.25374288  1
  V  V2  1  0.37471204  0.00662254  0.87570584  1
  V  V3  1  0.24796934  0.62577671  0.88855560  1
  V  V4  1  0.00770364  -0.00658760  0.50036189  1
  V  V5  1  0.62545238  0.49935507  0.12819479  1
  V  V6  1  0.75092282  0.37509148  0.12596127  1
  V  V7  1  0.62615278  0.24897804  0.87182990  1
  V  V8  1  0.87667562  0.37573605  0.00049910  1
  V  V9  1  0.12951965  0.48723033  0.62758409  1
  V  V10  1  0.37492091  0.86964822  0.00103312  1
  V  V11  1  0.87167226  0.12392611  0.25692701  1
  V  V12  1  0.37779589  0.63267488  0.25693111  1
  V  V13  1  0.37497183  0.37409453  0.00332165  1
  V  V14  1  0.00027622  0.12726513  0.12056837  1
  V  V15  1  0.50128098  0.49918319  0.00266107  1
  V  V16  1  0.61801103  0.75131100  0.38028404  1
  V  V17  1  0.25754417  0.49875930  0.25572282  1
  V  V18  1  0.49996002  0.63403657  0.13060095  1
  V  V19  1  -0.00050115  0.48685667  0.50010660  1
  V  V20  1  0.74961172  0.00088718  0.25499717  1
  V  V21  1  0.86996384  -0.00657657  0.38493401  1
  V  V22  1  0.75538330  0.87385856  0.12708079  1
  V  V23  1  0.87583686  0.50359790  0.87136792  1
  V  V24  1  0.24597281  0.12399676  0.87995555  1
  V  V25  1  0.37397497  0.50147496  0.87765621  1
  V  V26  1  0.75000311  0.50157347  0.25626902  1
  V  V27  1  0.25246328  0.62018306  0.38309188  1
  V  V28  1  0.87544959  0.24961906  0.12693891  1
  V  V29  1  0.75290771  0.87858651  0.60836968  1
  V  V30  1  0.87609498  -0.00560882  0.87169495  1
  V  V31  1  0.24376637  0.25379378  0.49689100  1
  V  V32  1  0.31800878  0.07121189  0.71031832  1
  V  V33  1  0.62728860  -0.00049425  0.12497708  1
  V  V34  1  0.75803140  0.24587882  0.49990980  1
  V  V35  1  -0.01685194  0.74014858  0.75842662  1
  V  V36  1  0.12760470  0.00720956  0.12211623  1
  V  V37  1  0.49930648  0.37991870  0.37597525  1
  V  V38  1  0.88571838  0.62331228  0.24828934  1
  V  V39  1  0.25415712  0.75669443  0.49697970  1
  V  V40  1  0.05367136  0.91104086  0.81534792  1
  V  V41  1  0.24753545  0.12753838  0.37466865  1
  V  V42  1  0.32512483  0.80246424  0.67003407  1
  V  V43  1  0.00342746  0.25699473  0.74925772  1
  V  V44  1  0.12314182  0.50417078  0.13084230  1
  V  V45  1  0.62061634  0.37575783  0.74432241  1
  V  V46  1  0.52001976  0.11862962  0.62108192  1
  V  V47  1  0.63212951  0.88278604  0.74478127  1
  V  V48  1  0.75101876  0.50102235  0.74772093  1
  V  V49  1  0.00776027  0.37993082  0.87385101  1
  V  V50  1  0.75147896  0.75084345  0.00130931  1
  V  V51  1  0.00494846  -0.00400349  -0.00237359  1
  V  V52  1  0.37626652  0.24935921  0.12617078  1
  V  V53  1  0.50576594  0.75203361  0.74328799  1
  V  V54  1  0.62741987  0.12569069  -0.00176730  1
  V  V55  1  0.86615983  0.74245581  0.60496290  1
  V  V56  1  0.25011642  0.00065858  0.25173919  1
  V  V57  1  0.50117483  0.12591857  0.12479227  1
  V  V58  1  0.38340537  0.87180001  0.48482618  1
  V  V59  1  0.12164195  0.37158873  0.26588333  1
  V  V60  1  0.50170957  0.24996105  0.25303817  1
  V  V61  1  0.50184265  0.00020628  -0.00108335  1
  V  V62  1  0.00649636  0.63026255  0.61539814  1
  V  V63  1  0.62631672  0.75152297  0.87285232  1
  V  V64  1  0.24291811  0.24914914  0.00340422  1
  V  V65  1  0.12666323  0.25575730  0.87786808  1
  V  V66  1  0.87693276  0.48715635  0.38176800  1
  V  V67  1  0.63252782  0.62515910  0.50092409  1
  V  V68  1  0.12109345  0.74763748  0.87754074  1
  V  V69  1  0.75322191  0.12702878  0.87240956  1
  V  V70  1  0.00682064  0.12119989  0.62336232  1
  V  V71  1  0.37203949  0.37621611  0.50134670  1
  V  V72  1  0.12395357  0.74636747  0.38056241  1
  V  V73  1  0.62680022  0.23671280  0.38537497  1
  V  V74  1  0.36901605  0.24611667  0.62439401  1
  V  V75  1  0.62596875  0.62428287  0.00142462  1
  V  V76  1  0.61265153  0.86522435  0.24994976  1
  V  V77  1  0.75099168  0.62368163  0.87230969  1
  V  V78  1  0.36784303  0.62417832  0.75111448  1
  V  V79  1  0.49396255  0.50164086  0.50083524  1
  V  V80  1  0.49441379  0.24322919  0.74803509  1
  V  V81  1  0.87655885  0.12799280  0.74667332  1
  V  V82  1  0.51392140  -0.00059274  0.49295949  1
  V  V83  1  0.49557531  0.62308075  0.62519296  1
  V  V84  1  0.00163278  0.50904142  0.00683665  1
  Zn  Zn85  1  0.75422210  0.63075246  0.38055314  1
  Zn  Zn86  1  0.87889615  0.87322194  -0.00332777  1
  Zn  Zn87  1  0.75147061  0.25122964  -0.00132110  1
  Zn  Zn88  1  0.24766948  0.37396696  0.13106422  1
  Zn  Zn89  1  0.74805722  0.00393653  0.74009430  1
  Zn  Zn90  1  0.88372024  0.74297901  0.12374817  1
  Zn  Zn91  1  0.12355349  0.63653591  0.01451932  1
  Zn  Zn92  1  0.62328554  0.49869536  0.62432429  1
  Zn  Zn93  1  0.37332549  0.74868794  0.12340260  1
  Zn  Zn94  1  0.37582959  0.12410156  0.25239851  1
  Zn  Zn95  1  0.50263131  0.87709575  0.87239532  1
  Zn  Zn96  1  0.38069187  -0.00245210  0.37121839  1
  Zn  Zn97  1  0.23474085  0.48587705  0.75545140  1
  Zn  Zn98  1  0.50070844  0.37215470  0.87515518  1
  Zn  Zn99  1  -0.00381543  0.26175265  0.26404660  1
  Zn  Zn100  1  0.00648939  0.74260166  0.24628979  1
  Zn  Zn101  1  0.17671082  -0.06110304  0.67080853  1
  Zn  Zn102  1  0.88221289  0.25898508  0.61558165  1
  Zn  Zn103  1  -0.00820375  0.86853151  0.37634722  1
  Zn  Zn104  1  0.62592858  0.37447317  0.25355450  1
  Zn  Zn105  1  0.76274020  0.38128130  0.61204902  1
  Zn  Zn106  1  0.12641887  0.12469166  0.50220893  1
  Zn  Zn107  1  0.18611171  0.18857447  0.19045301  1
  Zn  Zn108  1  0.18145023  0.19808385  0.68495469  1
  Zn  Zn109  1  0.18806362  0.68631255  0.19500480  1
  Zn  Zn110  1  0.15455401  0.74036043  0.66793412  1
  Zn  Zn111  1  0.68705219  0.18819046  0.19021303  1
  Zn  Zn112  1  0.69177301  0.19322159  0.68339229  1
  Zn  Zn113  1  0.69184776  0.68657141  0.19064331  1
  Zn  Zn114  1  0.68868634  0.68658051  0.68413362  1
  Zn  Zn115  1  0.31419619  0.31329221  0.31714671  1
  Zn  Zn116  1  0.31298386  0.31337643  0.81406461  1
  Zn  Zn117  1  0.31173398  0.81128321  0.31015506  1
  Zn  Zn118  1  0.30523842  0.81564295  0.83597457  1
  Zn  Zn119  1  0.80874600  0.31100452  0.31544184  1
  Zn  Zn120  1  0.81506443  0.31805529  0.80585672  1
  Zn  Zn121  1  0.80696885  0.80938462  0.31569441  1
  Zn  Zn122  1  0.81090417  0.81372849  0.80873720  1
  Zn  Zn123  1  0.18588692  0.44171440  0.44435619  1
  Zn  Zn124  1  0.18779611  0.44071356  0.94392611  1
  Zn  Zn125  1  0.18906244  0.93571234  0.43688850  1
  Zn  Zn126  1  0.19178820  0.94215585  0.94230645  1
  Zn  Zn127  1  0.68331533  0.43411521  0.43822059  1
  Zn  Zn128  1  0.68728935  0.43404638  0.93560446  1
  Zn  Zn129  1  0.68489233  0.93362228  0.43095960  1
  Zn  Zn130  1  0.69157139  0.93819086  0.93372294  1
  Zn  Zn131  1  0.31290999  0.06291706  0.06263835  1
  Zn  Zn132  1  0.31557903  0.05819938  0.54702551  1
  Zn  Zn133  1  0.31161760  0.56168259  0.06957751  1
  Zn  Zn134  1  0.31194058  0.56615553  0.56438632  1
  Zn  Zn135  1  0.81440203  0.06221954  0.06023363  1
  Zn  Zn136  1  0.80997949  0.06956340  0.56022141  1
  Zn  Zn137  1  0.81400826  0.56149864  0.06466346  1
  Zn  Zn138  1  0.81627469  0.56119349  0.56599376  1
  Zn  Zn139  1  0.43679107  0.43990133  0.18970032  1
  Zn  Zn140  1  0.40820925  0.42413299  0.70025484  1
  Zn  Zn141  1  0.43488827  0.93848621  0.18371496  1
  Zn  Zn142  1  0.45049836  0.93970742  0.68326135  1
  Zn  Zn143  1  0.93939096  0.43860657  0.19177686  1
  Zn  Zn144  1  0.93880104  0.44267454  0.68812719  1
  Zn  Zn145  1  0.93838760  0.93901794  0.18793191  1
  Zn  Zn146  1  0.92613826  0.93630529  0.67630319  1
  Zn  Zn147  1  0.04354087  0.09625932  0.33035188  1
  Zn  Zn148  1  0.06848585  0.07676540  0.81048324  1
  Zn  Zn149  1  0.06741063  0.55801545  0.32075339  1
  Zn  Zn150  1  0.06208972  0.56815353  0.80867920  1
  Zn  Zn151  1  0.56361041  0.06062060  0.31054533  1
  Zn  Zn152  1  0.56160153  0.06348584  0.80963522  1
  Zn  Zn153  1  0.56166641  0.56430795  0.31663541  1
  Zn  Zn154  1  0.56009274  0.56280454  0.81252945  1
  Zn  Zn155  1  0.43541627  0.18332435  0.43805698  1
  Zn  Zn156  1  0.43590565  0.18678772  0.93660800  1
  Zn  Zn157  1  0.43964198  0.68991235  0.43519051  1
  Zn  Zn158  1  0.44163133  0.68882750  0.93630848  1
  Zn  Zn159  1  0.93571257  0.18518092  0.43672532  1
  Zn  Zn160  1  0.93903971  0.18762126  0.93868450  1
  Zn  Zn161  1  0.93957911  0.67938899  0.43153314  1
  Zn  Zn162  1  0.93498319  0.68571346  0.94004455  1
  Zn  Zn163  1  0.06253480  0.31951791  0.06988818  1
  Zn  Zn164  1  0.06424690  0.31369862  0.56540592  1
  Zn  Zn165  1  0.05893636  0.81457823  0.06526580  1
  Zn  Zn166  1  0.05477307  0.81619934  0.55875951  1
  Zn  Zn167  1  0.56570139  0.31228748  0.06332853  1
  Zn  Zn168  1  0.56013579  0.31052975  0.56256963  1
  Zn  Zn169  1  0.56474410  0.81441714  0.06236588  1
  Zn  Zn170  1  0.56488523  0.81496348  0.56242127  1
  O  O171  1  0.11704699  0.11487650  0.13115902  1
  O  O172  1  0.11135265  0.12477204  0.62783272  1
  O  O173  1  0.13129448  0.61149773  0.12956093  1
  O  O174  1  0.10682375  0.63797017  0.62814351  1
  O  O175  1  0.62070986  0.12033318  0.11901267  1
  O  O176  1  0.61798730  0.12631219  0.62319370  1
  O  O177  1  0.61958440  0.61884779  0.12195372  1
  O  O178  1  0.61307078  0.62549199  0.61822588  1
  O  O179  1  0.38938740  0.36714079  0.38843556  1
  O  O180  1  0.38117028  0.37900607  0.89183367  1
  O  O181  1  0.37888644  0.87405856  0.38081577  1
  O  O182  1  0.37659806  0.88841486  0.88302292  1
  O  O183  1  0.87627902  0.38787137  0.36696936  1
  O  O184  1  0.88130073  0.38579337  0.88133140  1
  O  O185  1  0.87602273  0.88724291  0.36470870  1
  O  O186  1  0.86760492  0.89044090  0.87495619  1
  O  O187  1  0.25571236  0.00209024  0.36591986  1
  O  O188  1  0.25770011  0.01221949  0.87691266  1
  O  O189  1  0.24620134  0.51076733  0.37139705  1
  O  O190  1  0.25536104  0.50704322  0.87486100  1
  O  O191  1  0.75463083  -0.00460121  0.36375789  1
  O  O192  1  0.75930401  0.01047324  0.87021453  1
  O  O193  1  0.75571810  0.49948812  0.37054773  1
  O  O194  1  0.75706030  0.50276348  0.87102060  1
  O  O195  1  0.24393721  0.49712945  0.13766863  1
  O  O196  1  0.22976508  0.51141069  0.62286286  1
  O  O197  1  0.24364631  0.99630581  0.12949024  1
  O  O198  1  0.25837223  1.01408743  0.64163655  1
  O  O199  1  0.74608803  0.49261216  0.13252188  1
  O  O200  1  0.74471035  0.49850282  0.63332404  1
  O  O201  1  0.74480666  0.99229956  0.12860717  1
  O  O202  1  0.76181102  0.98396203  0.62318996  1
  O  O203  1  0.01509115  0.37680538  0.25217895  1
  O  O204  1  -0.00388380  0.37039178  0.76570235  1
  O  O205  1  0.01470936  0.88125754  0.25281841  1
  O  O206  1  -0.01225486  0.86412469  0.74851366  1
  O  O207  1  0.49934632  0.36888442  0.25793346  1
  O  O208  1  0.50369917  0.36370013  0.75242041  1
  O  O209  1  0.51482625  0.87825717  0.24022042  1
  O  O210  1  0.51091724  0.86800290  0.74917500  1
  O  O211  1  0.49902990  0.13230726  0.24326720  1
  O  O212  1  0.50550789  0.12949122  0.73346648  1
  O  O213  1  0.48986354  0.61375140  0.24093530  1
  O  O214  1  0.49677295  0.63550464  0.74476273  1
  O  O215  1  0.98402739  0.11098206  0.23011521  1
  O  O216  1  0.99432068  0.13408860  0.74471840  1
  O  O217  1  0.98816530  0.61813637  0.25558918  1
  O  O218  1  0.99489877  0.63684174  0.74036755  1
  O  O219  1  0.36983106  0.25753896  0.00462735  1
  O  O220  1  0.36802526  0.25273243  0.50706374  1
  O  O221  1  0.38102111  0.76554255  -0.00153054  1
  O  O222  1  0.37209263  0.76029192  0.49786733  1
  O  O223  1  0.87470967  0.25847355  0.00659925  1
  O  O224  1  0.86355751  0.24977994  0.49513770  1
  O  O225  1  0.86352881  0.75221266  0.00181590  1
  O  O226  1  0.87506603  0.74398370  0.50615585  1
  O  O227  1  0.14036501  0.24921391  0.50919437  1
  O  O228  1  0.13808869  0.25890142  1.00032833  1
  O  O229  1  0.13527619  0.75588379  0.48703982  1
  O  O230  1  0.11079898  0.74912108  0.98434621  1
  O  O231  1  0.62161964  0.24653034  0.48816076  1
  O  O232  1  0.62651312  0.24424218  0.99062293  1
  O  O233  1  0.61768742  0.74243929  0.48845080  1
  O  O234  1  0.63506254  0.74667640  0.99536583  1
  O  O235  1  0.49780771  0.24680215  0.13345178  1
  O  O236  1  0.49203590  0.23423070  0.62606023  1
  O  O237  1  0.50108708  0.73666451  0.11988148  1
  O  O238  1  0.50393556  0.74369121  0.63622353  1
  O  O239  1  0.99483852  0.24267385  0.12885002  1
  O  O240  1  1.00109701  0.24396607  0.63413297  1
  O  O241  1  0.99573975  0.75545346  0.13431216  1
  O  O242  1  0.98583985  0.74403255  0.62932306  1
  O  O243  1  0.01084345  0.20515262  0.35892684  1
  O  O244  1  0.00667057  0.25915084  0.87344972  1
  O  O245  1  0.00911892  0.74944985  0.36959537  1
  O  O246  1  -0.00445788  0.74768216  0.86510103  1
  O  O247  1  0.50642274  0.25251410  0.36995452  1
  O  O248  1  0.50600809  0.24503031  0.86415072  1
  O  O249  1  0.51802122  0.73992803  0.36568204  1
  O  O250  1  0.50675600  0.75263293  0.86243580  1
  O  O251  1  0.24915733  0.13328241  0.49340121  1
  O  O252  1  0.25677686  0.13679019  0.99156585  1
  O  O253  1  0.26101305  0.63818441  0.48967733  1
  O  O254  1  0.24790856  0.62134185  0.99203299  1
  O  O255  1  0.74542788  0.14447283  0.50283824  1
  O  O256  1  0.74457891  0.12755676  0.99199372  1
  O  O257  1  0.73517970  0.61806148  0.50290830  1
  O  O258  1  0.74471908  0.63113624  0.99679903  1
  O  O259  1  0.25984146  0.36872744  0.00435592  1
  O  O260  1  0.26116290  0.36875143  0.49394892  1
  O  O261  1  0.26166610  0.88131138  0.00997168  1
  O  O262  1  0.26335769  0.86469218  0.49607037  1
  O  O263  1  0.75783604  0.37545593  0.00787633  1
  O  O264  1  0.73589965  0.35651669  0.50150580  1
  O  O265  1  0.75017266  0.86723514  0.00756509  1
  O  O266  1  0.74433167  0.87394319  0.50995294  1
  O  O267  1  0.13425296  0.49284811  0.24889047  1
  O  O268  1  0.12152103  0.50523242  0.73396435  1
  O  O269  1  0.13786277  0.99387221  0.24273613  1
  O  O270  1  0.11019624  0.98253585  0.75760250  1
  O  O271  1  0.63294083  0.49878005  0.24670094  1
  O  O272  1  0.62728129  0.49069676  0.75128128  1
  O  O273  1  0.63145287  0.99070461  0.24531517  1
  O  O274  1  0.62673090  0.98659166  0.75252268  1
  O  O275  1  0.36295913  0.00022292  0.24764939  1
  O  O276  1  0.38161281  -0.00008199  0.75830046  1
  O  O277  1  0.36261373  0.50780733  0.24659191  1
  O  O278  1  0.39940290  0.51756665  0.76832270  1
  O  O279  1  0.86557698  0.00452286  0.25303608  1
  O  O280  1  0.87768401  0.01280132  0.75484446  1
  O  O281  1  0.86964620  0.50627742  0.25726926  1
  O  O282  1  0.86476316  0.49923494  0.76090511  1
  O  O283  1  0.12763457  0.37993541  0.36469335  1
  O  O284  1  0.11758953  0.37269331  0.88029857  1
  O  O285  1  0.12415451  0.86838984  0.36752836  1
  O  O286  1  0.12723130  0.86850575  0.87827219  1
  O  O287  1  0.61145938  0.36511083  0.37299217  1
  O  O288  1  0.62167126  0.36596258  0.86590665  1
  O  O289  1  0.62352472  0.86390381  0.36080539  1
  O  O290  1  0.62735814  0.86790510  0.86579538  1
  O  O291  1  0.38354840  0.13229384  0.12561732  1
  O  O292  1  0.37381544  0.12541481  0.63232170  1
  O  O293  1  0.38322253  0.62780491  0.13129038  1
  O  O294  1  0.38653088  0.62130792  0.63629913  1
  O  O295  1  0.87842238  0.13330663  0.12796033  1
  O  O296  1  0.88504746  0.13221973  0.63301065  1
  O  O297  1  0.87093449  0.62220617  0.14327932  1
  O  O298  1  0.88192203  0.63715678  0.62356593  1
  O  O299  1  0.25754094  0.25017151  0.11914239  1
  O  O300  1  0.26314316  0.24595018  0.61950484  1
  O  O301  1  0.24695499  0.76235183  0.12636090  1
  O  O302  1  0.26239935  0.73875471  0.61689723  1
  O  O303  1  0.75478000  0.25992469  0.12549257  1
  O  O304  1  0.75434401  0.25484798  0.61179283  1
  O  O305  1  0.75306333  0.75623382  0.11795948  1
  O  O306  1  0.76168010  0.75274394  0.62474863  1
  O  O307  1  0.25518677  0.24136046  0.38481077  1
  O  O308  1  0.24826989  0.24715075  0.88291871  1
  O  O309  1  0.24622188  0.74458137  0.38167187  1
  O  O310  1  0.23532265  0.73791326  0.87192201  1
  O  O311  1  0.73472702  0.25348003  0.38247494  1
  O  O312  1  0.74545115  0.24446715  0.87262280  1
  O  O313  1  0.72855765  0.74411201  0.36607066  1
  O  O314  1  0.74703573  0.74447644  0.88133452  1
  O  O315  1  -0.00475629  0.11580610  0.01219798  1
  O  O316  1  0.00290174  0.11581727  0.50874045  1
  O  O317  1  0.00092594  0.61201853  -0.00113691  1
  O  O318  1  -0.00122274  0.61908044  0.51300646  1
  O  O319  1  0.50688629  0.12038828  0.00411218  1
  O  O320  1  0.49470224  0.11290337  0.51228377  1
  O  O321  1  0.50594985  0.61829124  0.00765993  1
  O  O322  1  0.50127043  0.61908005  0.50767881  1
  O  O323  1  0.49694425  0.38289483  0.49467733  1
  O  O324  1  0.49472219  0.38247825  1.00176187  1
  O  O325  1  0.49684413  0.88873979  0.50508621  1
  O  O326  1  0.49534219  0.88343091  0.99858757  1
  O  O327  1  0.99869412  0.38767113  0.50747901  1
  O  O328  1  0.99558081  0.38361166  0.99158445  1
  O  O329  1  0.99441443  0.88897218  0.49581999  1
  O  O330  1  0.99624396  0.89105854  1.00180936  1
  O  O331  1  0.50199626  0.49072601  0.38494773  1
  O  O332  1  0.49747076  0.50097732  0.89180147  1
  O  O333  1  0.49883275  1.00693637  0.38819418  1
  O  O334  1  0.49315285  1.00079578  0.88088932  1
  O  O335  1  0.99535758  0.50417648  0.39366072  1
  O  O336  1  0.99478995  0.49669169  0.87940342  1
  O  O337  1  0.99112727  1.00322955  0.38816227  1
  O  O338  1  1.00041726  0.99433766  0.87479624  1
  O  O339  1  0.00752617  0.00434070  0.11571355  1
  O  O340  1  -0.00980870  0.00554041  0.60965958  1
  O  O341  1  0.00801708  0.49473836  0.11706526  1
  O  O342  1  0.00643990  0.51248971  0.62090034  1
  O  O343  1  0.50729557  0.00569746  0.11868021  1
  O  O344  1  0.50366352  0.01244531  0.61510025  1
  O  O345  1  0.50437072  0.50619239  0.11698955  1
  O  O346  1  0.50179216  0.50911366  0.61855605  1
  O  O347  1  0.24595423  0.38318218  0.25373383  1
  O  O348  1  0.29963191  0.39591427  0.74237370  1
  O  O349  1  0.24287499  0.88120187  0.24232058  1
  O  O350  1  0.26708334  0.85861449  0.73195343  1
  O  O351  1  0.74959127  0.38564173  0.24445570  1
  O  O352  1  0.73835466  0.38730216  0.75273906  1
  O  O353  1  0.74196817  0.88174543  0.24169055  1
  O  O354  1  0.74506047  0.87847311  0.74053860  1
  O  O355  1  0.25201838  0.11822071  0.25526308  1
  O  O356  1  0.25017587  0.13494211  0.76068801  1
  O  O357  1  0.25914134  0.61832741  0.26013832  1
  O  O358  1  0.26647981  0.61687632  0.76050671  1
  O  O359  1  0.75738808  0.11105132  0.23946869  1
  O  O360  1  0.75948730  0.12550674  0.75188502  1
  O  O361  1  0.75559702  0.61091916  0.25155397  1
  O  O362  1  0.73906788  0.61012974  0.75745957  1
  O  O363  1  0.36437627  0.11988720  0.37233112  1
  O  O364  1  0.36759707  0.11453995  0.87564887  1
  O  O365  1  0.36804242  0.62766679  0.36720859  1
  O  O366  1  0.36795208  0.62433638  0.87410988  1
  O  O367  1  0.87047945  0.11304380  0.36034450  1
  O  O368  1  0.87319407  0.11785088  0.86822602  1
  O  O369  1  0.87112416  0.61251351  0.36575618  1
  O  O370  1  0.86695489  0.61093401  0.88197221  1
  O  O371  1  0.12905289  0.38869349  0.13475838  1
  O  O372  1  0.12660311  0.38785850  0.62937530  1
  O  O373  1  0.13201631  0.88596374  0.13008800  1
  O  O374  1  0.13685274  0.84728882  0.62580377  1
  O  O375  1  0.63265945  0.38142949  0.12822373  1
  O  O376  1  0.62235762  0.37411788  0.63780720  1
  O  O377  1  0.63460876  0.87775420  0.13269111  1
  O  O378  1  0.64250078  0.86565089  0.63210473  1
  O  O379  1  0.12773665  0.26959760  0.24552016  1
  O  O380  1  0.11114753  0.25093366  0.75918044  1
  O  O381  1  0.12855950  0.76013542  0.26144523  1
  O  O382  1  0.10121425  0.75543126  0.76779763  1
  O  O383  1  0.61469716  0.25216346  0.25709429  1
  O  O384  1  0.61697577  0.25524651  0.75243640  1
  O  O385  1  0.62524609  0.76118364  0.24998649  1
  O  O386  1  0.62120159  0.75664735  0.75363221  1
  O  O387  1  0.38732242  0.25024215  0.24610061  1
  O  O388  1  0.38793478  0.24893163  0.74210709  1
  O  O389  1  0.37127453  0.73717325  0.24439696  1
  O  O390  1  0.38055848  0.74895670  0.74629836  1
  O  O391  1  0.87443973  0.24150406  0.24609604  1
  O  O392  1  0.88801695  0.24019286  0.75825103  1
  O  O393  1  0.87294415  0.73135537  0.25449180  1
  O  O394  1  0.88146510  0.74780816  0.74652109  1
  O  O395  1  0.38461487  0.49146500  0.50758319  1
  O  O396  1  0.38173826  0.49373626  0.99983861  1
  O  O397  1  0.38546142  0.98683732  0.49605155  1
  O  O398  1  0.38176868  0.99416397  0.99415569  1
  O  O399  1  0.88723243  0.50260115  0.49578356  1
  O  O400  1  0.88242299  0.49402662  0.99651813  1
  O  O401  1  0.87857150  1.00791078  0.48807727  1
  O  O402  1  0.88430123  1.00134053  0.98792522  1
  O  O403  1  0.11856444  0.00092382  0.00935201  1
  O  O404  1  0.11170390  -0.00192586  0.50046643  1
  O  O405  1  0.11759389  0.50287431  0.01195462  1
  O  O406  1  0.11116747  0.49943395  0.51352637  1
  O  O407  1  0.62253313  0.00503113  0.00409909  1
  O  O408  1  0.61299437  -0.00291686  0.49489325  1
  O  O409  1  0.61894330  0.50278880  0.00596803  1
  O  O410  1  0.61259819  0.50784915  0.50103770  1
  O  O411  1  0.37496063  0.36958216  0.11698351  1
  O  O412  1  0.38941076  0.35838313  0.60767319  1
  O  O413  1  0.36679326  0.87233915  0.11796620  1
  O  O414  1  0.38099383  0.86937038  0.61723615  1
  O  O415  1  0.87137735  0.36925554  0.12223108  1
  O  O416  1  0.87183354  0.36855820  0.64116837  1
  O  O417  1  0.86282858  0.87656966  0.12373427  1
  O  O418  1  0.86137364  0.85797196  0.62335315  1
  O  O419  1  0.14486716  0.11268975  0.38120915  1
  O  O420  1  0.13767619  0.13677073  0.87759404  1
  O  O421  1  0.13860846  0.63455567  0.37007753  1
  O  O422  1  0.13196247  0.63044338  0.87741311  1
  O  O423  1  0.62319693  0.13907977  0.36968862  1
  O  O424  1  0.63263287  0.13016098  0.87652136  1
  O  O425  1  0.62713300  0.63133654  0.38427794  1
  O  O426  1  0.62964216  0.63087287  0.88283904  1
