# generated using pymatgen
data_V85Zn86O256
_symmetry_space_group_name_H-M   'P 1'
_cell_length_a   16.96798475
_cell_length_b   16.95275163
_cell_length_c   16.95420944
_cell_angle_alpha   90.03816004
_cell_angle_beta   89.90074329
_cell_angle_gamma   89.94949995
_symmetry_Int_Tables_number   1
_chemical_formula_structural   V85Zn86O256
_chemical_formula_sum   'V85 Zn86 O256'
_cell_volume   4876.93639023
_cell_formula_units_Z   1
loop_
 _symmetry_equiv_pos_site_id
 _symmetry_equiv_pos_as_xyz
  1  'x, y, z'
loop_
 _atom_site_type_symbol
 _atom_site_label
 _atom_site_symmetry_multiplicity
 _atom_site_fract_x
 _atom_site_fract_y
 _atom_site_fract_z
 _atom_site_occupancy
  V  V0  1  -0.00478881  0.87383736  0.87376412  1
  V  V1  1  0.37364591  0.12405988  0.24800658  1
  V  V2  1  0.49778647  0.12880862  0.63040791  1
  V  V3  1  0.87535851  0.25312947  0.61811568  1
  V  V4  1  0.75237017  0.37824584  0.62633448  1
  V  V5  1  0.37343971  0.75210914  0.63296210  1
  V  V6  1  0.74355037  0.75001937  0.49130219  1
  V  V7  1  0.62632356  0.87687119  0.75085450  1
  V  V8  1  0.62151914  0.62482539  0.00211870  1
  V  V9  1  0.31234905  0.06147132  0.81369112  1
  V  V10  1  0.87143047  0.87628213  -0.00010252  1
  V  V11  1  0.75272911  0.12652473  0.37697801  1
  V  V12  1  0.50759570  0.87796057  0.37739688  1
  V  V13  1  0.50124331  0.00566451  -0.00643195  1
  V  V14  1  0.37811154  0.24772510  0.11897187  1
  V  V15  1  -0.00782763  0.74265386  0.74816544  1
  V  V16  1  -0.00066206  0.87298527  0.37411397  1
  V  V17  1  0.37540664  0.37664531  -0.00430361  1
  V  V18  1  0.25219229  0.38059934  0.62803217  1
  V  V19  1  0.12592161  0.74091482  0.37334824  1
  V  V20  1  0.37754315  0.88249840  -0.00318015  1
  V  V21  1  0.12177245  0.37970742  0.25003171  1
  V  V22  1  -0.00238829  0.00121695  -0.00099674  1
  V  V23  1  0.49988322  0.00590915  0.50124529  1
  V  V24  1  0.50002594  0.62295243  0.62611000  1
  V  V25  1  0.87334696  -0.00093057  0.37395586  1
  V  V26  1  0.37348197  0.25147856  0.63141744  1
  V  V27  1  0.64191579  0.49913636  0.12385856  1
  V  V28  1  0.49993630  0.75108659  0.75281700  1
  V  V29  1  0.37015052  0.62763293  0.75360064  1
  V  V30  1  0.74761994  0.61545177  0.36531648  1
  V  V31  1  -0.00477728  0.25063005  0.75986072  1
  V  V32  1  0.13435599  0.62453390  -0.00252318  1
  V  V33  1  0.37978672  0.74461282  0.12691082  1
  V  V34  1  -0.00045309  0.13279891  0.12497639  1
  V  V35  1  0.87286612  0.87323783  0.50131692  1
  V  V36  1  0.11714099  0.37878755  0.76383627  1
  V  V37  1  0.07150881  0.45196905  0.56541042  1
  V  V38  1  0.24869657  0.37524924  0.12517179  1
  V  V39  1  0.50480689  0.12304569  0.12378280  1
  V  V40  1  0.12463179  0.00032994  0.62461471  1
  V  V41  1  0.24976338  0.24955527  0.50658261  1
  V  V42  1  0.12236689  0.00228202  0.12534789  1
  V  V43  1  0.62381263  0.62582885  0.49592115  1
  V  V44  1  0.24968291  0.87492244  0.62213169  1
  V  V45  1  0.75094148  0.51387432  0.75789592  1
  V  V46  1  0.47977138  0.26460892  0.28189933  1
  V  V47  1  0.12390910  0.87663451  0.74762906  1
  V  V48  1  0.11808892  0.62836624  0.50515267  1
  V  V49  1  0.86968156  0.00978383  0.87447894  1
  V  V50  1  0.27317737  0.72804148  0.47770564  1
  V  V51  1  0.37692138  0.87839943  0.49780419  1
  V  V52  1  0.63958329  0.24946943  0.87584299  1
  V  V53  1  0.50082165  0.25136045  0.75340328  1
  V  V54  1  0.87284460  0.75082783  0.12664879  1
  V  V55  1  0.50287005  0.74919231  0.25330982  1
  V  V56  1  0.50284177  0.49984178  -0.00218443  1
  V  V57  1  0.25299512  0.75343974  -0.01174188  1
  V  V58  1  0.87105040  0.73988400  0.62503936  1
  V  V59  1  0.63936557  0.12585650  -0.00027106  1
  V  V60  1  0.12433891  0.25032556  0.37279021  1
  V  V61  1  0.88625013  0.49306194  0.37716633  1
  V  V62  1  0.24398374  0.50706627  0.75128920  1
  V  V63  1  -0.00186058  0.62342659  0.12189948  1
  V  V64  1  0.12658455  0.74729969  0.87286519  1
  V  V65  1  0.63045175  0.25597556  0.37364520  1
  V  V66  1  0.24862346  0.24158402  -0.01027237  1
  V  V67  1  0.25129485  0.87635904  0.12530266  1
  V  V68  1  0.12569583  0.87467699  0.25077748  1
  V  V69  1  0.76390103  0.35403997  0.12030815  1
  V  V70  1  0.62757481  0.74548376  0.87480756  1
  V  V71  1  0.87569299  0.13402227  0.24817639  1
  V  V72  1  0.24993889  0.12355095  0.37690966  1
  V  V73  1  0.62236254  0.88622335  0.24784552  1
  V  V74  1  0.88284974  0.36779519  -0.01434088  1
  V  V75  1  0.62750255  0.13082152  0.50347021  1
  V  V76  1  0.74378310  0.88303763  0.12487400  1
  V  V77  1  0.37104220  0.50748708  0.87694136  1
  V  V78  1  0.13057517  0.50338433  0.12809292  1
  V  V79  1  0.49377048  0.49398382  0.48937170  1
  V  V80  1  0.74905579  0.00743370  0.75117004  1
  V  V81  1  0.74755787  0.74820675  -0.00161958  1
  V  V82  1  0.50573890  0.37442134  0.86937718  1
  V  V83  1  0.63177119  0.37556240  0.24692292  1
  V  V84  1  0.62300396  0.49200779  0.63071840  1
  Zn  Zn85  1  0.48402505  0.59340093  0.15480494  1
  Zn  Zn86  1  -0.00257910  0.25480272  0.24958377  1
  Zn  Zn87  1  0.75588546  0.26247185  0.49796225  1
  Zn  Zn88  1  0.00327092  0.48953440  -0.00802285  1
  Zn  Zn89  1  0.37451540  0.00125328  0.37531494  1
  Zn  Zn90  1  0.86483481  0.61589691  0.24062675  1
  Zn  Zn91  1  0.00119771  0.37696934  0.38775535  1
  Zn  Zn92  1  0.12805299  0.11917996  -0.01382160  1
  Zn  Zn93  1  -0.00224678  0.61946417  0.62444700  1
  Zn  Zn94  1  0.62682460  0.00254176  0.62664359  1
  Zn  Zn95  1  0.88275100  0.51382279  0.86745689  1
  Zn  Zn96  1  -0.00465509  0.74816124  0.24905466  1
  Zn  Zn97  1  0.12407893  0.24290733  0.87160139  1
  Zn  Zn98  1  0.38152611  0.37902629  0.45759028  1
  Zn  Zn99  1  0.74332805  0.00548444  0.24648668  1
  Zn  Zn100  1  0.00022793  -0.00003950  0.50158353  1
  Zn  Zn101  1  0.49902859  0.88057200  0.87379885  1
  Zn  Zn102  1  0.74820940  0.87556759  0.62442270  1
  Zn  Zn103  1  0.86849265  0.13193479  0.75298529  1
  Zn  Zn104  1  0.12396432  0.11812963  0.50030685  1
  Zn  Zn105  1  0.24968883  -0.00005349  0.25245440  1
  Zn  Zn106  1  -0.00787434  0.11876187  0.62708591  1
  Zn  Zn107  1  0.18839173  0.18918922  0.18603330  1
  Zn  Zn108  1  0.18567265  0.18466937  0.69770437  1
  Zn  Zn109  1  0.18474202  0.69456511  0.18137153  1
  Zn  Zn110  1  0.18672500  0.68931717  0.68255596  1
  Zn  Zn111  1  0.68447475  0.18827240  0.18946890  1
  Zn  Zn112  1  0.68748028  0.19272744  0.69072114  1
  Zn  Zn113  1  0.67693438  0.69140450  0.18370182  1
  Zn  Zn114  1  0.68671902  0.68661753  0.68231400  1
  Zn  Zn115  1  0.30539898  0.32744326  0.31795597  1
  Zn  Zn116  1  0.31512816  0.31699233  0.80983633  1
  Zn  Zn117  1  0.31230424  0.69806910  0.30709514  1
  Zn  Zn118  1  0.30966499  0.89535219  0.81184742  1
  Zn  Zn119  1  0.81282565  0.32048111  0.31051603  1
  Zn  Zn120  1  0.81001749  0.32445258  0.80464547  1
  Zn  Zn121  1  0.80619130  0.80969833  0.31062846  1
  Zn  Zn122  1  0.80909792  0.81375311  0.81177963  1
  Zn  Zn123  1  0.20192997  0.43600887  0.42923709  1
  Zn  Zn124  1  0.18989302  0.43851658  0.93894076  1
  Zn  Zn125  1  0.19078305  0.93236361  0.43833094  1
  Zn  Zn126  1  0.18313360  0.93772453  0.93738146  1
  Zn  Zn127  1  0.68574779  0.44029311  0.43992619  1
  Zn  Zn128  1  0.69357699  0.43161422  0.93991468  1
  Zn  Zn129  1  0.68665740  0.94218754  0.43789166  1
  Zn  Zn130  1  0.68461855  0.94053120  0.93656332  1
  Zn  Zn131  1  0.31313844  0.06134055  0.06044391  1
  Zn  Zn132  1  0.31176782  0.06347152  0.56988222  1
  Zn  Zn133  1  0.31195651  0.55876080  0.18812353  1
  Zn  Zn134  1  0.31222826  0.56278546  0.56350637  1
  Zn  Zn135  1  0.81568520  0.06513105  0.06579348  1
  Zn  Zn136  1  0.81100998  0.06403371  0.56467603  1
  Zn  Zn137  1  0.82239398  0.56934295  0.02943067  1
  Zn  Zn138  1  0.80984000  0.55936218  0.55812682  1
  Zn  Zn139  1  0.44262238  0.42754252  0.18319515  1
  Zn  Zn140  1  0.43647172  0.43823801  0.68908411  1
  Zn  Zn141  1  0.43816789  0.94029307  0.18519765  1
  Zn  Zn142  1  0.44123605  0.94098660  0.68668108  1
  Zn  Zn143  1  0.93551902  0.44276213  0.18780054  1
  Zn  Zn144  1  0.92983345  0.43450750  0.69585100  1
  Zn  Zn145  1  0.93541156  0.94022392  0.18884033  1
  Zn  Zn146  1  0.93596738  0.93422720  0.68786650  1
  Zn  Zn147  1  0.06094951  0.06184000  0.31265966  1
  Zn  Zn148  1  0.06034052  0.06544011  0.81115440  1
  Zn  Zn149  1  0.05969235  0.56288757  0.30772527  1
  Zn  Zn150  1  0.06245008  0.56484191  0.81377696  1
  Zn  Zn151  1  0.56010653  0.06961895  0.31386990  1
  Zn  Zn152  1  0.56411375  0.06727738  0.81489077  1
  Zn  Zn153  1  0.56351025  0.55646100  0.31271227  1
  Zn  Zn154  1  0.56575203  0.56455185  0.81273979  1
  Zn  Zn155  1  0.43187908  0.19707139  0.43980636  1
  Zn  Zn156  1  0.43733515  0.18517070  0.93472671  1
  Zn  Zn157  1  0.44857274  0.69307592  0.43997306  1
  Zn  Zn158  1  0.43921087  0.68846594  0.94022881  1
  Zn  Zn159  1  0.94192160  0.18571581  0.44157087  1
  Zn  Zn160  1  0.93437698  0.19051602  0.94198095  1
  Zn  Zn161  1  0.93259150  0.68331999  0.43529458  1
  Zn  Zn162  1  0.93888488  0.68213272  0.93714076  1
  Zn  Zn163  1  0.06361755  0.31211982  0.05867952  1
  Zn  Zn164  1  0.06617317  0.29037790  0.57064978  1
  Zn  Zn165  1  0.05951612  0.81270415  0.06122264  1
  Zn  Zn166  1  0.06108497  0.80784914  0.55981423  1
  Zn  Zn167  1  0.56729843  0.31173996  0.05896873  1
  Zn  Zn168  1  0.56134328  0.31607431  0.55996583  1
  Zn  Zn169  1  0.56247046  0.81660115  0.06523703  1
  Zn  Zn170  1  0.56334953  0.81196901  0.56548264  1
  O  O171  1  0.12072649  0.11246250  0.12561723  1
  O  O172  1  0.13018383  0.10675204  0.62916658  1
  O  O173  1  0.12061394  0.61964473  0.11818960  1
  O  O174  1  0.11658802  0.62990660  0.61471787  1
  O  O175  1  0.61674967  0.13523219  0.11154705  1
  O  O176  1  0.61864763  0.12978161  0.61743426  1
  O  O177  1  0.61218946  0.61383868  0.12248347  1
  O  O178  1  0.61974915  0.61731660  0.61383700  1
  O  O179  1  0.41139920  0.30339688  0.36037079  1
  O  O180  1  0.38371703  0.38573026  0.87682962  1
  O  O181  1  0.38913209  0.88008237  0.39211856  1
  O  O182  1  0.38214136  0.86720910  0.89242479  1
  O  O183  1  0.88079210  0.38627418  0.37497047  1
  O  O184  1  0.86721471  0.38430118  0.88460080  1
  O  O185  1  0.87857226  0.87943432  0.37936699  1
  O  O186  1  0.87844496  0.87953461  0.88196865  1
  O  O187  1  0.25285452  0.00914884  0.37449638  1
  O  O188  1  0.25389297  -0.00999230  0.86571932  1
  O  O189  1  0.30235832  0.42036555  0.38605721  1
  O  O190  1  0.26125598  0.49505302  0.86620169  1
  O  O191  1  0.75766552  0.00861507  0.37282813  1
  O  O192  1  0.75959058  -0.00731271  0.86606324  1
  O  O193  1  0.75186796  0.51265163  0.37497069  1
  O  O194  1  0.74102803  0.49678454  0.85841134  1
  O  O195  1  0.23971176  0.49032769  0.12292410  1
  O  O196  1  0.25743666  0.49161856  0.63818559  1
  O  O197  1  0.24182340  0.99140108  0.12426664  1
  O  O198  1  0.24309475  0.98271834  0.61788638  1
  O  O199  1  0.74123070  0.50022949  0.11832515  1
  O  O200  1  0.74161653  0.49847658  0.62924948  1
  O  O201  1  0.75803488  0.98690482  0.12893558  1
  O  O202  1  0.74719646  0.99607297  0.63372784  1
  O  O203  1  0.01326982  0.37279838  0.24772346  1
  O  O204  1  0.00845973  0.36775330  0.74643611  1
  O  O205  1  0.00744583  0.87495376  0.25626469  1
  O  O206  1  0.00404716  0.86339223  0.75443633  1
  O  O207  1  0.51129049  0.35610746  0.24026122  1
  O  O208  1  0.49950274  0.36994908  0.76214222  1
  O  O209  1  0.50298163  0.87588076  0.25892405  1
  O  O210  1  0.50759561  0.86933149  0.75120610  1
  O  O211  1  0.49170743  0.13959545  0.24449161  1
  O  O212  1  0.50373058  0.13231419  0.73765035  1
  O  O213  1  0.51474367  0.64705879  0.25810557  1
  O  O214  1  0.49254942  0.63138309  0.74587239  1
  O  O215  1  0.99280250  0.12548601  0.24407083  1
  O  O216  1  0.99307073  0.13461096  0.74477168  1
  O  O217  1  0.99866777  0.62888370  0.23330451  1
  O  O218  1  1.00251711  0.63946063  0.74629322  1
  O  O219  1  0.36641948  0.25458178  0.00108872  1
  O  O220  1  0.36157339  0.26096210  0.50905520  1
  O  O221  1  0.36936923  0.75893786  0.00560913  1
  O  O222  1  0.38110856  0.76244011  0.51740955  1
  O  O223  1  0.87355284  0.26654170  -0.00102873  1
  O  O224  1  0.87523125  0.24941033  0.51389295  1
  O  O225  1  0.86840486  0.75885599  0.01043387  1
  O  O226  1  0.86666533  0.75664563  0.50327354  1
  O  O227  1  0.13626993  0.24162475  0.49632352  1
  O  O228  1  0.13988340  0.24793595  0.99833953  1
  O  O229  1  0.13240527  0.74359524  0.49059810  1
  O  O230  1  0.13123519  0.75083343  0.99184735  1
  O  O231  1  0.62831599  0.24350285  0.49459584  1
  O  O232  1  0.62356773  0.23883806  0.98722858  1
  O  O233  1  0.63122471  0.73990900  0.50452529  1
  O  O234  1  0.62376828  0.74526183  0.99437482  1
  O  O235  1  0.48663588  0.24214829  0.11487786  1
  O  O236  1  0.49415359  0.24955626  0.63178517  1
  O  O237  1  0.49184505  0.75947188  0.13757507  1
  O  O238  1  0.49414632  0.74408736  0.63263050  1
  O  O239  1  1.01071038  0.23510200  0.12794886  1
  O  O240  1  0.98661618  0.24687939  0.63531809  1
  O  O241  1  0.98921339  0.74616014  0.12499480  1
  O  O242  1  0.98842148  0.75212649  0.63198013  1
  O  O243  1  0.01399631  0.25407048  0.37905546  1
  O  O244  1  -0.00064962  0.24656286  0.86319229  1
  O  O245  1  0.00326508  0.75992857  0.37217059  1
  O  O246  1  0.00335140  0.75377198  0.86965388  1
  O  O247  1  0.52734228  0.22241231  0.37532507  1
  O  O248  1  0.50106647  0.25634612  0.86855663  1
  O  O249  1  0.49851623  0.76396809  0.36383483  1
  O  O250  1  0.51054689  0.75276597  0.87016548  1
  O  O251  1  0.25086933  0.13176585  0.49392167  1
  O  O252  1  0.24955384  0.13839061  1.00417799  1
  O  O253  1  0.23636696  0.63217599  0.51081859  1
  O  O254  1  0.23598284  0.64163558  1.00397609  1
  O  O255  1  0.74335800  0.12972383  0.49393120  1
  O  O256  1  0.73785741  0.12138645  1.00442189  1
  O  O257  1  0.74149173  0.63083594  0.49123443  1
  O  O258  1  0.72833400  0.63752711  1.01634243  1
  O  O259  1  0.25422330  0.36643939  0.00885742  1
  O  O260  1  0.23741995  0.36437473  0.52198388  1
  O  O261  1  0.25676278  0.87343813  0.00621858  1
  O  O262  1  0.26284016  0.86260059  0.50161857  1
  O  O263  1  0.76136931  0.37554911  0.01472455  1
  O  O264  1  0.74156874  0.37741676  0.51730318  1
  O  O265  1  0.74998402  0.87032907  0.00758080  1
  O  O266  1  0.75467222  0.86799252  0.49760594  1
  O  O267  1  0.12521367  0.49244240  0.24185185  1
  O  O268  1  0.13622306  0.49500975  0.75590871  1
  O  O269  1  0.12481404  0.99315469  0.24245205  1
  O  O270  1  0.11641149  0.98231155  0.74265893  1
  O  O271  1  0.61490460  0.48548005  0.23738705  1
  O  O272  1  0.63136262  0.50724746  0.73824220  1
  O  O273  1  0.62259996  0.99240964  0.25343629  1
  O  O274  1  0.63044368  0.99370110  0.75214037  1
  O  O275  1  0.37398010  0.01337348  0.25044126  1
  O  O276  1  0.36895145  -0.01034496  0.76013543  1
  O  O277  1  0.41199876  0.52496697  0.22200298  1
  O  O278  1  0.36745937  0.50614484  0.75813437  1
  O  O279  1  0.87400005  0.00813359  0.26338855  1
  O  O280  1  0.86631971  -0.00158508  0.75757468  1
  O  O281  1  0.87606724  0.50397130  0.26564696  1
  O  O282  1  0.85783160  0.50306174  0.75119385  1
  O  O283  1  0.12512841  0.36910103  0.36608914  1
  O  O284  1  0.12991190  0.36985065  0.86553794  1
  O  O285  1  0.11635537  0.87066539  0.36802163  1
  O  O286  1  0.11711923  0.86674542  0.86702596  1
  O  O287  1  0.63290623  0.36666715  0.36465606  1
  O  O288  1  0.61816384  0.35935258  0.88383442  1
  O  O289  1  0.61380707  0.88207717  0.37039755  1
  O  O290  1  0.62122166  0.86943851  0.86519012  1
  O  O291  1  0.37929102  0.13000271  0.13010364  1
  O  O292  1  0.38335340  0.14122870  0.61903624  1
  O  O293  1  0.37927575  0.64404871  0.11559870  1
  O  O294  1  0.37994424  0.63470234  0.63089026  1
  O  O295  1  0.88599510  0.11944145  0.13698556  1
  O  O296  1  0.87038265  0.13891019  0.62948660  1
  O  O297  1  0.88147343  0.63251924  0.12047167  1
  O  O298  1  0.87663528  0.63701713  0.61562660  1
  O  O299  1  0.25927907  0.25342444  0.11401143  1
  O  O300  1  0.25486372  0.25264983  0.62467405  1
  O  O301  1  0.25580757  0.76440684  0.11552248  1
  O  O302  1  0.25962370  0.75671141  0.61398766  1
  O  O303  1  0.75130056  0.25581435  0.12457368  1
  O  O304  1  0.75874537  0.25919006  0.62713702  1
  O  O305  1  0.75336356  0.76062366  0.12034717  1
  O  O306  1  0.75504521  0.75252621  0.61293505  1
  O  O307  1  0.23980595  0.24459727  0.38499847  1
  O  O308  1  0.25359132  0.25763994  0.88828350  1
  O  O309  1  0.23469236  0.76235854  0.37856231  1
  O  O310  1  0.24060106  0.76294840  0.88621433  1
  O  O311  1  0.74604571  0.24495786  0.37738340  1
  O  O312  1  0.73705319  0.25406672  0.86459230  1
  O  O313  1  0.75249641  0.74006054  0.38611289  1
  O  O314  1  0.73583341  0.75699788  0.88286864  1
  O  O315  1  0.00067070  0.11825684  0.00824548  1
  O  O316  1  0.00566395  0.11927875  0.50822811  1
  O  O317  1  0.01641452  0.63221635  0.01266158  1
  O  O318  1  0.01259263  0.63080558  0.49966435  1
  O  O319  1  0.50412857  0.12112279  0.00663358  1
  O  O320  1  0.50579536  0.12749109  0.51083001  1
  O  O321  1  0.50778504  0.61459275  0.00019048  1
  O  O322  1  0.50742583  0.61981468  0.50571393  1
  O  O323  1  0.49481906  0.38813218  0.49837033  1
  O  O324  1  0.49624820  0.37726702  0.98733606  1
  O  O325  1  0.49921458  0.88290416  0.49699915  1
  O  O326  1  0.49445798  0.88790479  1.00380040  1
  O  O327  1  1.02143478  0.38322382  0.50962228  1
  O  O328  1  0.98932329  0.37018820  0.99855341  1
  O  O329  1  0.98971361  0.87360639  0.49054511  1
  O  O330  1  0.99246870  0.88189593  0.99462089  1
  O  O331  1  0.49795923  0.50416736  0.39039329  1
  O  O332  1  0.49924733  0.49278357  0.87987361  1
  O  O333  1  0.49654804  0.99911646  0.38346846  1
  O  O334  1  0.50363534  1.00123508  0.88849126  1
  O  O335  1  0.99164724  0.49816263  0.37569540  1
  O  O336  1  0.99626038  0.50846323  0.88036147  1
  O  O337  1  0.99288467  0.98895583  0.37686673  1
  O  O338  1  0.99019574  0.99252494  0.87812403  1
  O  O339  1  0.00621922  0.00562561  0.12050515  1
  O  O340  1  0.00897869  -0.00381048  0.62324102  1
  O  O341  1  0.01282071  0.50758810  0.12126512  1
  O  O342  1  0.00052131  0.49938339  0.62275617  1
  O  O343  1  0.49708533  0.01750249  0.11907740  1
  O  O344  1  0.50311516  0.01232677  0.62051441  1
  O  O345  1  0.51472060  0.48579103  0.10330079  1
  O  O346  1  0.50643322  0.50550403  0.62372304  1
  O  O347  1  0.23738721  0.36347533  0.23178356  1
  O  O348  1  0.23904777  0.37958903  0.74214101  1
  O  O349  1  0.23444594  0.87904580  0.23939666  1
  O  O350  1  0.23609569  0.86270979  0.73446866  1
  O  O351  1  0.74002006  0.37024256  0.23611044  1
  O  O352  1  0.74550800  0.38939911  0.73385900  1
  O  O353  1  0.73896747  0.87753913  0.24459699  1
  O  O354  1  0.74073962  0.88333549  0.74752075  1
  O  O355  1  0.25711489  0.12463664  0.25663588  1
  O  O356  1  0.26141326  0.11851150  0.74895945  1
  O  O357  1  0.24877389  0.63035689  0.24561972  1
  O  O358  1  0.25557204  0.61791953  0.74471374  1
  O  O359  1  0.75655706  0.12457597  0.25744368  1
  O  O360  1  0.74737814  0.11163579  0.74891008  1
  O  O361  1  0.74191849  0.63438806  0.26340717  1
  O  O362  1  0.74545028  0.61344026  0.74700173  1
  O  O363  1  0.36417444  0.12797143  0.36780467  1
  O  O364  1  0.36990659  0.11714828  0.87394833  1
  O  O365  1  0.34311730  0.66711468  0.41219406  1
  O  O366  1  0.38081967  0.61425642  0.87168881  1
  O  O367  1  0.86848605  0.11883541  0.37405002  1
  O  O368  1  0.87667061  0.11271680  0.87516925  1
  O  O369  1  0.86126108  0.62136797  0.36782299  1
  O  O370  1  0.85678296  0.61083479  0.92373491  1
  O  O371  1  0.13065850  0.38212077  0.12749094  1
  O  O372  1  0.12503932  0.38567558  0.62926107  1
  O  O373  1  0.12783832  0.88334523  0.12931267  1
  O  O374  1  0.13040270  0.87696438  0.62773841  1
  O  O375  1  0.63762370  0.37689100  0.12702453  1
  O  O376  1  0.62626333  0.38730930  0.62376842  1
  O  O377  1  0.63300183  0.87844929  0.13259699  1
  O  O378  1  0.62476001  0.87726993  0.63868733  1
  O  O379  1  0.12384633  0.25529043  0.25877107  1
  O  O380  1  0.11486020  0.26072977  0.74709872  1
  O  O381  1  0.11937455  0.75984473  0.25525428  1
  O  O382  1  0.11725150  0.75675848  0.75538578  1
  O  O383  1  0.61945296  0.25678619  0.25913295  1
  O  O384  1  0.61261499  0.24477052  0.76435876  1
  O  O385  1  0.61002557  0.76922350  0.24364417  1
  O  O386  1  0.62289340  0.75535969  0.75628721  1
  O  O387  1  0.37526986  0.24015518  0.23451559  1
  O  O388  1  0.38851477  0.25333934  0.74499976  1
  O  O389  1  0.38963559  0.75523567  0.24110779  1
  O  O390  1  0.37893484  0.74850614  0.74109307  1
  O  O391  1  0.87931723  0.23715599  0.26156088  1
  O  O392  1  0.87951366  0.25274075  0.74397828  1
  O  O393  1  0.87251376  0.74830535  0.23628503  1
  O  O394  1  0.87917614  0.75665733  0.73842907  1
  O  O395  1  0.39207975  0.50151665  0.50912737  1
  O  O396  1  0.38719516  0.49191818  0.99011681  1
  O  O397  1  0.38193181  0.99458829  0.50398428  1
  O  O398  1  0.38530637  0.99309491  1.00522140  1
  O  O399  1  0.87060583  0.50913221  0.47673230  1
  O  O400  1  0.88402573  0.47405432  1.01756734  1
  O  O401  1  0.87268436  0.99160297  0.49008010  1
  O  O402  1  0.87748781  0.99524568  0.99303653  1
  O  O403  1  0.11726298  -0.00026873  0.00829594  1
  O  O404  1  0.12416258  -0.00429961  0.50942863  1
  O  O405  1  0.12684193  0.50936091  0.00593686  1
  O  O406  1  0.13284016  0.50532878  0.49856188  1
  O  O407  1  0.61876854  0.01678585  -0.00350562  1
  O  O408  1  0.61979495  0.01563267  0.50184353  1
  O  O409  1  0.62356896  0.50714252  0.00133671  1
  O  O410  1  0.61246211  0.50627017  0.50788689  1
  O  O411  1  0.36812083  0.36550308  0.11744996  1
  O  O412  1  0.36529779  0.36433836  0.63290104  1
  O  O413  1  0.36664947  0.87278302  0.11821078  1
  O  O414  1  0.36912286  0.87198017  0.62060383  1
  O  O415  1  0.86395181  0.36847037  0.13484823  1
  O  O416  1  0.86738309  0.36379512  0.62688792  1
  O  O417  1  0.86873150  0.86964918  0.12113624  1
  O  O418  1  0.87283398  0.86861449  0.61089630  1
  O  O419  1  0.13541593  0.13042189  0.37371346  1
  O  O420  1  0.12814881  0.12775887  0.87255763  1
  O  O421  1  0.11878159  0.63702046  0.37797799  1
  O  O422  1  0.12466696  0.64072958  0.88099923  1
  O  O423  1  0.64107580  0.12744933  0.38041613  1
  O  O424  1  0.62258057  0.13776665  0.88727794  1
  O  O425  1  0.63430303  0.61733171  0.38633891  1
  O  O426  1  0.62070432  0.63543029  0.88615019  1
