# generated using pymatgen
data_V85Zn86O256
_symmetry_space_group_name_H-M   'P 1'
_cell_length_a   16.93741132
_cell_length_b   16.93952307
_cell_length_c   16.94104584
_cell_angle_alpha   90.01699582
_cell_angle_beta   90.02766037
_cell_angle_gamma   90.02831099
_symmetry_Int_Tables_number   1
_chemical_formula_structural   V85Zn86O256
_chemical_formula_sum   'V85 Zn86 O256'
_cell_volume   4860.58237740
_cell_formula_units_Z   1
loop_
 _symmetry_equiv_pos_site_id
 _symmetry_equiv_pos_as_xyz
  1  'x, y, z'
loop_
 _atom_site_type_symbol
 _atom_site_label
 _atom_site_symmetry_multiplicity
 _atom_site_fract_x
 _atom_site_fract_y
 _atom_site_fract_z
 _atom_site_occupancy
  V  V0  1  0.49883417  0.25214526  0.23565406  1
  V  V1  1  0.74965176  0.63388007  0.87980729  1
  V  V2  1  0.37065711  0.13226676  0.76218980  1
  V  V3  1  0.60827573  0.74308263  0.87151357  1
  V  V4  1  0.51118975  0.86599582  0.37756529  1
  V  V5  1  0.86960736  0.75112655  0.62215116  1
  V  V6  1  0.62531981  0.24471191  0.37055753  1
  V  V7  1  0.00722211  0.49860138  0.00093195  1
  V  V8  1  0.87398809  0.37157969  0.49962279  1
  V  V9  1  0.25085401  0.50921244  0.75697529  1
  V  V10  1  0.25640393  0.75600906  0.50458280  1
  V  V11  1  0.12449189  0.62704200  0.49973278  1
  V  V12  1  0.37585702  0.50165622  0.37336487  1
  V  V13  1  0.12838829  0.74766489  0.87616832  1
  V  V14  1  0.86769373  0.75043880  0.11876630  1
  V  V15  1  0.87895570  0.87553204  -0.00462950  1
  V  V16  1  0.75190629  0.63126736  0.39437108  1
  V  V17  1  0.00014326  0.12184252  0.12031853  1
  V  V18  1  0.25222989  0.12543171  0.37456770  1
  V  V19  1  0.12380338  0.75199082  0.37560869  1
  V  V20  1  0.51422989  0.50735966  0.00213608  1
  V  V21  1  0.38709530  0.75213735  0.12567487  1
  V  V22  1  0.12460990  0.87411152  0.24824643  1
  V  V23  1  0.25052859  0.62781322  0.37379672  1
  V  V24  1  0.60829450  0.37022385  0.75287668  1
  V  V25  1  0.25175245  0.37828270  0.62573743  1
  V  V26  1  0.12699775  0.37677020  0.75067526  1
  V  V27  1  0.37672843  0.37719095  0.49929921  1
  V  V28  1  0.25761433  0.74960292  -0.00266900  1
  V  V29  1  0.25495168  0.24810527  0.00485600  1
  V  V30  1  0.38044270  -0.00586724  0.38995785  1
  V  V31  1  0.87593831  0.62389384  0.75135889  1
  V  V32  1  0.87489294  0.49833355  0.87457975  1
  V  V33  1  -0.00457477  0.87648561  0.37493083  1
  V  V34  1  0.12572697  0.37997284  0.24073802  1
  V  V35  1  0.12655973  0.25055669  0.37253078  1
  V  V36  1  0.87059782  0.24627155  0.12262803  1
  V  V37  1  0.74882583  0.87908472  0.62895236  1
  V  V38  1  0.86955389  0.00614091  0.36833353  1
  V  V39  1  0.86699998  0.49424975  0.36918334  1
  V  V40  1  0.50417522  0.51179621  0.50065640  1
  V  V41  1  0.00102983  0.62675133  0.62497625  1
  V  V42  1  0.87307641  0.12051172  0.74774587  1
  V  V43  1  0.62017983  0.11044880  0.00067124  1
  V  V44  1  0.12342432  0.12442255  0.50086285  1
  V  V45  1  0.24854986  0.50446323  0.24190341  1
  V  V46  1  0.36188184  -0.00021757  0.88652925  1
  V  V47  1  0.49368819  0.11484637  0.62547431  1
  V  V48  1  0.87588623  0.37095928  -0.00074305  1
  V  V49  1  0.12659748  -0.00087696  0.12331203  1
  V  V50  1  0.73287326  0.00184961  0.24525023  1
  V  V51  1  0.86864796  0.87391424  0.49605782  1
  V  V52  1  -0.00098329  0.24885554  0.74842262  1
  V  V53  1  0.74777845  0.24319808  0.49518575  1
  V  V54  1  0.74877949  0.12559472  0.87564547  1
  V  V55  1  0.13435751  0.24270435  0.87371852  1
  V  V56  1  0.62872933  0.38469001  0.24508906  1
  V  V57  1  -0.00017897  0.75475985  0.75669027  1
  V  V58  1  -0.00368413  0.74846145  0.24786695  1
  V  V59  1  0.38223727  0.37675100  0.00554226  1
  V  V60  1  0.61729572  0.12138564  0.50000802  1
  V  V61  1  0.38968333  0.62994832  0.24849080  1
  V  V62  1  0.12294331  0.87876898  0.75415142  1
  V  V63  1  0.74760616  0.49630937  0.75297754  1
  V  V64  1  0.37554368  0.12801017  0.24679682  1
  V  V65  1  0.25667772  0.87363602  0.12126972  1
  V  V66  1  0.74530076  0.37082546  0.62724959  1
  V  V67  1  0.50119537  0.37468658  0.37273184  1
  V  V68  1  -0.00018497  0.24868269  0.24780546  1
  V  V69  1  0.73575923  0.87781586  0.12041349  1
  V  V70  1  0.50077094  0.10529864  0.12155971  1
  V  V71  1  0.50060607  0.89624470  0.87789286  1
  V  V72  1  0.74852763  0.38636835  0.12759678  1
  V  V73  1  0.25392565  0.87764139  0.62680516  1
  V  V74  1  0.00154478  0.37411950  0.37437055  1
  V  V75  1  0.60868689  0.25020817  0.87370440  1
  V  V76  1  0.38251056  0.63537795  0.74968494  1
  V  V77  1  0.00580834  0.62015162  0.12502585  1
  V  V78  1  0.00119208  0.49973912  0.49928305  1
  V  V79  1  0.37929063  0.49799575  0.87561255  1
  V  V80  1  0.62325454  0.51051706  0.62433478  1
  V  V81  1  0.13321044  0.62111219  0.00033309  1
  V  V82  1  0.86649105  0.61811448  0.24732597  1
  V  V83  1  0.38536030  0.25330917  0.62987297  1
  V  V84  1  0.00108900  0.37402541  0.87451177  1
  Zn  Zn85  1  0.51832846  0.62653443  0.12335023  1
  Zn  Zn86  1  0.12218292  0.00158542  0.62714466  1
  Zn  Zn87  1  0.86854498  0.12334620  0.24862395  1
  Zn  Zn88  1  0.87355432  0.24865237  0.62438748  1
  Zn  Zn89  1  0.24487574  0.00861349  0.75318784  1
  Zn  Zn90  1  0.25195895  0.25227768  0.50044851  1
  Zn  Zn91  1  -0.00247768  0.00144668  0.50095455  1
  Zn  Zn92  1  0.25112490  0.37832329  0.12381075  1
  Zn  Zn93  1  0.60563388  0.87179440  0.74023308  1
  Zn  Zn94  1  0.73853825  0.00105958  0.75085523  1
  Zn  Zn95  1  0.42509910  0.82172325  0.56147419  1
  Zn  Zn96  1  0.12611667  0.50170516  0.62583811  1
  Zn  Zn97  1  -0.00101244  0.12317360  0.62364308  1
  Zn  Zn98  1  0.87694332  -0.00404931  0.87316216  1
  Zn  Zn99  1  0.25273702  -0.00034525  0.25014251  1
  Zn  Zn100  1  0.74409120  0.24871639  0.00028289  1
  Zn  Zn101  1  0.00485920  -0.00750366  -0.00639131  1
  Zn  Zn102  1  0.68592519  0.68896462  0.04455455  1
  Zn  Zn103  1  0.49805496  0.64819347  0.62605147  1
  Zn  Zn104  1  0.61972993  -0.00230025  0.62221025  1
  Zn  Zn105  1  0.62755525  0.74921394  0.37970908  1
  Zn  Zn106  1  0.13200357  0.12063820  -0.00602372  1
  Zn  Zn107  1  0.18852065  0.18882520  0.18435973  1
  Zn  Zn108  1  0.19110829  0.19213950  0.68466773  1
  Zn  Zn109  1  0.18992683  0.68872027  0.18555706  1
  Zn  Zn110  1  0.18988741  0.69030483  0.68644570  1
  Zn  Zn111  1  0.68365562  0.18436085  0.18519538  1
  Zn  Zn112  1  0.68182725  0.18670160  0.68864386  1
  Zn  Zn113  1  0.67681196  0.68978243  0.21041741  1
  Zn  Zn114  1  0.68755834  0.69066801  0.69379518  1
  Zn  Zn115  1  0.31357245  0.31253493  0.30933016  1
  Zn  Zn116  1  0.31665314  0.31684557  0.81589392  1
  Zn  Zn117  1  0.31472269  0.81374619  0.30993195  1
  Zn  Zn118  1  0.31245348  0.81799703  0.81466860  1
  Zn  Zn119  1  0.80988557  0.30861071  0.30975570  1
  Zn  Zn120  1  0.80897291  0.30693541  0.81287260  1
  Zn  Zn121  1  0.78724703  0.80321021  0.30014145  1
  Zn  Zn122  1  0.81085674  0.81214716  0.80948796  1
  Zn  Zn123  1  0.18906263  0.43991823  0.43421762  1
  Zn  Zn124  1  0.19210010  0.43415151  0.93628812  1
  Zn  Zn125  1  0.18961402  0.93999737  0.43758645  1
  Zn  Zn126  1  0.18749038  0.93232347  0.93763631  1
  Zn  Zn127  1  0.68586248  0.43574365  0.43770366  1
  Zn  Zn128  1  0.68962528  0.43163459  0.93564160  1
  Zn  Zn129  1  0.69137097  0.94005281  0.43785969  1
  Zn  Zn130  1  0.68962860  0.93270946  0.93433672  1
  Zn  Zn131  1  0.31281874  0.06655078  0.06701043  1
  Zn  Zn132  1  0.30615545  0.06482320  0.56715400  1
  Zn  Zn133  1  0.31852181  0.56491806  0.06374083  1
  Zn  Zn134  1  0.31473560  0.56616363  0.56524279  1
  Zn  Zn135  1  0.80814496  0.05813043  0.06113495  1
  Zn  Zn136  1  0.81249901  0.06134659  0.56157496  1
  Zn  Zn137  1  0.81788892  0.55878926  0.06068868  1
  Zn  Zn138  1  0.81842764  0.55379385  0.56824639  1
  Zn  Zn139  1  0.44099462  0.44214633  0.18325081  1
  Zn  Zn140  1  0.43681216  0.44500625  0.68619089  1
  Zn  Zn141  1  0.43465532  0.93674556  0.19697382  1
  Zn  Zn142  1  0.43312128  0.94335377  0.70059190  1
  Zn  Zn143  1  0.93816811  0.43584546  0.18484561  1
  Zn  Zn144  1  0.93705048  0.43567483  0.68561097  1
  Zn  Zn145  1  0.93373757  0.93606110  0.18453197  1
  Zn  Zn146  1  0.93997183  0.93920654  0.68586387  1
  Zn  Zn147  1  0.06162441  0.06163372  0.30887724  1
  Zn  Zn148  1  0.05732441  0.06098870  0.81497670  1
  Zn  Zn149  1  0.06053607  0.56152535  0.31264589  1
  Zn  Zn150  1  0.06505001  0.56506837  0.81519066  1
  Zn  Zn151  1  0.55609606  0.06098657  0.31534974  1
  Zn  Zn152  1  0.55864550  0.06502241  0.80572694  1
  Zn  Zn153  1  0.56894333  0.56376255  0.31589545  1
  Zn  Zn154  1  0.55958337  0.56090815  0.81491182  1
  Zn  Zn155  1  0.43772828  0.19009133  0.43711178  1
  Zn  Zn156  1  0.43502584  0.18605138  0.94482308  1
  Zn  Zn157  1  0.44125996  0.69098936  0.43338792  1
  Zn  Zn158  1  0.43380550  0.67988425  0.93538548  1
  Zn  Zn159  1  0.93673904  0.18695117  0.43584262  1
  Zn  Zn160  1  0.93978833  0.18278456  0.93505131  1
  Zn  Zn161  1  0.92881869  0.68908903  0.43502920  1
  Zn  Zn162  1  0.93798417  0.68789391  0.93875151  1
  Zn  Zn163  1  0.06465261  0.30847009  0.06093906  1
  Zn  Zn164  1  0.06537690  0.31068011  0.56276441  1
  Zn  Zn165  1  0.06178713  0.80882949  0.06198028  1
  Zn  Zn166  1  0.06165084  0.81466162  0.56528795  1
  Zn  Zn167  1  0.56486812  0.31410425  0.05771227  1
  Zn  Zn168  1  0.56220085  0.31471570  0.56078489  1
  Zn  Zn169  1  0.55783521  0.81997519  0.04845972  1
  Zn  Zn170  1  0.58597628  0.79824007  0.54891711  1
  O  O171  1  0.12007239  0.11553584  0.12347406  1
  O  O172  1  0.12499459  0.12957200  0.61331330  1
  O  O173  1  0.11553778  0.63053890  0.11610903  1
  O  O174  1  0.11860391  0.62468304  0.61761959  1
  O  O175  1  0.60959685  0.12745137  0.11579919  1
  O  O176  1  0.61071145  0.12757330  0.61879326  1
  O  O177  1  0.63146467  0.63693801  0.12797386  1
  O  O178  1  0.62350069  0.61281191  0.63554127  1
  O  O179  1  0.37992745  0.38213814  0.37843995  1
  O  O180  1  0.37301346  0.38774970  0.88730205  1
  O  O181  1  0.36338196  0.89285994  0.37699713  1
  O  O182  1  0.37738096  0.89531661  0.87202252  1
  O  O183  1  0.87987861  0.37710497  0.37776077  1
  O  O184  1  0.88003468  0.37689769  0.87900852  1
  O  O185  1  0.87993238  0.87949964  0.38035159  1
  O  O186  1  0.86585759  0.87146981  0.89225141  1
  O  O187  1  0.25301114  0.01386918  0.37173415  1
  O  O188  1  0.25728295  0.00034152  0.87516934  1
  O  O189  1  0.25767866  0.50801363  0.36675997  1
  O  O190  1  0.25850442  0.49639063  0.86489999  1
  O  O191  1  0.75847801  -0.00897111  0.35622004  1
  O  O192  1  0.75375017  0.01215537  0.87191058  1
  O  O193  1  0.76385622  0.50203789  0.38012592  1
  O  O194  1  0.75595889  0.50320471  0.86980525  1
  O  O195  1  0.25247218  0.50228605  0.13872587  1
  O  O196  1  0.25024101  0.49032534  0.63080305  1
  O  O197  1  0.24467795  0.99227028  0.12633568  1
  O  O198  1  0.24064222  0.99310044  0.62839083  1
  O  O199  1  0.76047422  0.48505117  0.12573511  1
  O  O200  1  0.74271966  0.48856218  0.62990595  1
  O  O201  1  0.74700173  0.98997839  0.13174892  1
  O  O202  1  0.74859302  0.99179497  0.62719474  1
  O  O203  1  0.00774343  0.37011630  0.25423636  1
  O  O204  1  0.00534883  0.36946276  0.75438138  1
  O  O205  1  0.00347313  0.86782422  0.25444530  1
  O  O206  1  0.00701748  0.86393988  0.74573594  1
  O  O207  1  0.50436522  0.36913115  0.25200236  1
  O  O208  1  0.50948243  0.37850983  0.74702491  1
  O  O209  1  0.48708226  0.88133481  0.27877998  1
  O  O210  1  0.49159599  0.87464414  0.77057758  1
  O  O211  1  0.49611985  0.13069834  0.23916957  1
  O  O212  1  0.48231784  0.12733043  0.73921679  1
  O  O213  1  0.49267102  0.62029632  0.24861413  1
  O  O214  1  0.48700237  0.62222368  0.74717616  1
  O  O215  1  1.00024773  0.13148516  0.23666804  1
  O  O216  1  0.99219954  0.13454897  0.74791056  1
  O  O217  1  0.99487199  0.62857665  0.24258193  1
  O  O218  1  0.99540488  0.63001036  0.74415450  1
  O  O219  1  0.36514100  0.26407284  -0.00604651  1
  O  O220  1  0.37358459  0.26143805  0.50717845  1
  O  O221  1  0.36313604  0.73910236  0.00739103  1
  O  O222  1  0.35986847  0.74703276  0.49539946  1
  O  O223  1  0.87599999  0.25467410  0.00659091  1
  O  O224  1  0.86567779  0.25420305  0.49915239  1
  O  O225  1  0.87949180  0.75651794  0.01077403  1
  O  O226  1  0.88587782  0.76021518  0.51419535  1
  O  O227  1  0.12722966  0.24327847  0.49017750  1
  O  O228  1  0.13726849  0.25148781  0.99101514  1
  O  O229  1  0.12820865  0.74377959  0.49410450  1
  O  O230  1  0.13163356  0.74360954  0.99372877  1
  O  O231  1  0.62943769  0.24592760  0.49160893  1
  O  O232  1  0.62422718  0.24367547  0.98678972  1
  O  O233  1  0.65323094  0.74137293  0.48681836  1
  O  O234  1  0.62887004  0.75951760  0.97627000  1
  O  O235  1  0.50237093  0.25023712  0.13448114  1
  O  O236  1  0.48812094  0.24898124  0.62300572  1
  O  O237  1  0.48941863  0.75150738  0.11558216  1
  O  O238  1  0.50331900  0.75983466  0.61440581  1
  O  O239  1  0.99139520  0.24452285  0.12841878  1
  O  O240  1  0.99932779  0.25242318  0.63870823  1
  O  O241  1  0.99323677  0.73831813  0.12882428  1
  O  O242  1  0.99390208  0.74394598  0.63522356  1
  O  O243  1  0.00487600  0.25501831  0.36704522  1
  O  O244  1  0.00690037  0.25460041  0.86474077  1
  O  O245  1  0.00093766  0.75989104  0.36916444  1
  O  O246  1  0.00690530  0.74404715  0.86337154  1
  O  O247  1  0.50617307  0.25771733  0.36607754  1
  O  O248  1  0.51013098  0.24598027  0.87711195  1
  O  O249  1  0.50781369  0.75829388  0.37229105  1
  O  O250  1  0.50788928  0.74405281  0.87272422  1
  O  O251  1  0.24204730  0.13076110  0.49130840  1
  O  O252  1  0.25139150  0.14337487  1.00398125  1
  O  O253  1  0.24338579  0.63143616  0.49556314  1
  O  O254  1  0.23885287  0.63124935  1.00819762  1
  O  O255  1  0.74137826  0.13954226  0.50779827  1
  O  O256  1  0.74044268  0.12596485  0.99349123  1
  O  O257  1  0.76023321  0.61313872  0.49166970  1
  O  O258  1  0.75594756  0.61840581  0.98717450  1
  O  O259  1  0.25982730  0.37000202  0.00388957  1
  O  O260  1  0.25781634  0.37834411  0.50706377  1
  O  O261  1  0.24560517  0.86375715  0.01267166  1
  O  O262  1  0.23950620  0.86674959  0.51099393  1
  O  O263  1  0.75790584  0.37029805  0.00823510  1
  O  O264  1  0.75233214  0.36561077  0.50736877  1
  O  O265  1  0.76068096  0.88143492  0.01274361  1
  O  O266  1  0.76333092  0.87993849  0.50917957  1
  O  O267  1  0.13518173  0.49145869  0.25839551  1
  O  O268  1  0.13314618  0.49540917  0.75061228  1
  O  O269  1  0.12722879  0.99404409  0.23848028  1
  O  O270  1  0.12568274  0.99197383  0.75233870  1
  O  O271  1  0.62124562  0.48348798  0.25310738  1
  O  O272  1  0.62919353  0.49046832  0.74593764  1
  O  O273  1  0.63442078  1.00237694  0.25398370  1
  O  O274  1  0.62126780  0.99413215  0.74227754  1
  O  O275  1  0.37184776  0.01583680  0.26033485  1
  O  O276  1  0.36751991  0.01724634  0.76176224  1
  O  O277  1  0.36938501  0.50844128  0.25410129  1
  O  O278  1  0.36797003  0.50162764  0.75845844  1
  O  O279  1  0.87382790  0.00272842  0.25577454  1
  O  O280  1  0.87469625  0.01312587  0.74988946  1
  O  O281  1  0.88349016  0.50465324  0.25874434  1
  O  O282  1  0.86986017  0.50331326  0.75482430  1
  O  O283  1  0.12174143  0.36887696  0.36747079  1
  O  O284  1  0.11940720  0.36701549  0.86849684  1
  O  O285  1  0.11665559  0.87231106  0.36934531  1
  O  O286  1  0.12714399  0.86278209  0.86446059  1
  O  O287  1  0.62073206  0.36535203  0.36741747  1
  O  O288  1  0.62890952  0.35890929  0.86720543  1
  O  O289  1  0.61236849  0.88306995  0.38028629  1
  O  O290  1  0.60993838  0.87383901  0.87237693  1
  O  O291  1  0.38835063  0.12354385  0.13365462  1
  O  O292  1  0.37772978  0.13589348  0.62894395  1
  O  O293  1  0.37913974  0.63427356  0.13419474  1
  O  O294  1  0.37873442  0.61937771  0.64299751  1
  O  O295  1  0.88227561  0.13046868  0.12181657  1
  O  O296  1  0.87548603  0.12990030  0.63285473  1
  O  O297  1  0.88095010  0.62925926  0.12995532  1
  O  O298  1  0.88045704  0.63149527  0.63065618  1
  O  O299  1  0.24502777  0.25726272  0.10954972  1
  O  O300  1  0.25959872  0.26546803  0.62305406  1
  O  O301  1  0.25744292  0.75661219  0.11809683  1
  O  O302  1  0.24522548  0.76060808  0.61531925  1
  O  O303  1  0.76205280  0.25063083  0.12386211  1
  O  O304  1  0.74638579  0.25998968  0.61916701  1
  O  O305  1  0.75649877  0.76072778  0.12068699  1
  O  O306  1  0.76490297  0.75630728  0.63466738  1
  O  O307  1  0.24597350  0.24101690  0.37481015  1
  O  O308  1  0.24291124  0.25940205  0.88665328  1
  O  O309  1  0.24257877  0.74666263  0.38063064  1
  O  O310  1  0.24275040  0.75503290  0.88673026  1
  O  O311  1  0.73913740  0.25283595  0.38283487  1
  O  O312  1  0.74224259  0.23735111  0.87732946  1
  O  O313  1  0.79007771  0.72610773  0.38819822  1
  O  O314  1  0.75230282  0.73572937  0.87193737  1
  O  O315  1  0.00734331  0.12870697  0.01241068  1
  O  O316  1  0.00901851  0.12639859  0.50041436  1
  O  O317  1  0.00913905  0.61980107  0.00649460  1
  O  O318  1  0.00416625  0.62164214  0.50401641  1
  O  O319  1  0.50278666  0.12655878  0.01535306  1
  O  O320  1  0.50681546  0.13451645  0.51078631  1
  O  O321  1  0.50153682  0.61173883  0.00091222  1
  O  O322  1  0.49414781  0.61442124  0.50309449  1
  O  O323  1  0.49351278  0.38241265  0.49272362  1
  O  O324  1  0.48750132  0.38250792  1.00316475  1
  O  O325  1  0.49269126  0.87142492  0.48298684  1
  O  O326  1  0.48720628  0.86853107  0.97449362  1
  O  O327  1  0.99561057  0.37727776  0.49470866  1
  O  O328  1  0.99774946  0.37855060  0.99481200  1
  O  O329  1  0.99240071  0.87664160  0.49055627  1
  O  O330  1  0.98425316  0.87269745  1.00584002  1
  O  O331  1  0.49695383  0.49628547  0.38208496  1
  O  O332  1  0.49136225  0.50130455  0.88771708  1
  O  O333  1  0.48419045  1.00001755  0.38037409  1
  O  O334  1  0.48897949  1.00000447  0.87564416  1
  O  O335  1  0.99359241  0.49128093  0.38065871  1
  O  O336  1  0.99507186  0.49379361  0.87910566  1
  O  O337  1  0.99338422  0.98803830  0.37171041  1
  O  O338  1  0.98977501  1.00725318  0.88326315  1
  O  O339  1  0.00817859  0.00635876  0.12201518  1
  O  O340  1  0.00518236  0.00418329  0.61921741  1
  O  O341  1  -0.00381273  0.51180456  0.11769850  1
  O  O342  1  0.00075144  0.50748917  0.61787254  1
  O  O343  1  0.49825120  0.00694927  0.12874996  1
  O  O344  1  0.49318796  0.01164314  0.62442289  1
  O  O345  1  0.49870900  0.50523286  0.10794077  1
  O  O346  1  0.50926718  0.49971263  0.61555261  1
  O  O347  1  0.24379611  0.38379558  0.24846174  1
  O  O348  1  0.24708108  0.38383937  0.74284635  1
  O  O349  1  0.24135727  0.87477585  0.23916767  1
  O  O350  1  0.24035782  0.87663959  0.74354949  1
  O  O351  1  0.74130963  0.36876761  0.23979539  1
  O  O352  1  0.74489914  0.37729611  0.74237897  1
  O  O353  1  0.76087182  0.89115349  0.22875672  1
  O  O354  1  0.75557844  0.88051304  0.73729463  1
  O  O355  1  0.25816914  0.12791588  0.25531664  1
  O  O356  1  0.26559711  0.12855295  0.74488628  1
  O  O357  1  0.25412030  0.61993773  0.25603164  1
  O  O358  1  0.25463802  0.61236402  0.74296211  1
  O  O359  1  0.75065776  0.10752959  0.23958300  1
  O  O360  1  0.75626556  0.12584998  0.75574942  1
  O  O361  1  0.76636010  0.61961237  0.26206535  1
  O  O362  1  0.75787609  0.61578639  0.75629178  1
  O  O363  1  0.36810382  0.12182805  0.37066389  1
  O  O364  1  0.37739811  0.12272134  0.86632835  1
  O  O365  1  0.37106622  0.62191718  0.36649741  1
  O  O366  1  0.37442136  0.61059471  0.86274086  1
  O  O367  1  0.87883173  0.10996829  0.37239023  1
  O  O368  1  0.86453203  0.12859822  0.86641021  1
  O  O369  1  0.87964343  0.60848507  0.36706514  1
  O  O370  1  0.87042337  0.61859378  0.87015354  1
  O  O371  1  0.12376607  0.37453054  0.13770918  1
  O  O372  1  0.13440550  0.37732313  0.63090412  1
  O  O373  1  0.12991676  0.87998181  0.12876114  1
  O  O374  1  0.13040599  0.87400184  0.63887312  1
  O  O375  1  0.63809881  0.36691289  0.13128678  1
  O  O376  1  0.63009436  0.37901272  0.63346771  1
  O  O377  1  0.63690337  0.86874970  0.11716080  1
  O  O378  1  0.63666275  0.87734010  0.62323400  1
  O  O379  1  0.12113738  0.25808801  0.25414216  1
  O  O380  1  0.12096988  0.25622640  0.75569594  1
  O  O381  1  0.11771530  0.75373513  0.25590617  1
  O  O382  1  0.11968134  0.75262755  0.75813663  1
  O  O383  1  0.61755326  0.25335769  0.25574349  1
  O  O384  1  0.62507392  0.25598661  0.76308494  1
  O  O385  1  0.67704536  0.76997291  0.28136529  1
  O  O386  1  0.63308636  0.75927385  0.76829471  1
  O  O387  1  0.38530270  0.23864631  0.25616262  1
  O  O388  1  0.37152450  0.24351799  0.74450123  1
  O  O389  1  0.36967000  0.73945152  0.24018022  1
  O  O390  1  0.36582426  0.73278102  0.75871166  1
  O  O391  1  0.88071396  0.24513991  0.24143235  1
  O  O392  1  0.88322463  0.24205085  0.74935364  1
  O  O393  1  0.87807776  0.74053761  0.23684405  1
  O  O394  1  0.88408888  0.74489944  0.74511314  1
  O  O395  1  0.38165358  0.49549336  0.49471754  1
  O  O396  1  0.37764049  0.49282171  0.99382301  1
  O  O397  1  0.36697436  1.00872614  0.48729793  1
  O  O398  1  0.36987557  1.01185950  0.98469618  1
  O  O399  1  0.88290860  0.48920304  0.49310715  1
  O  O400  1  0.88646161  0.49091738  0.99288625  1
  O  O401  1  0.87511931  0.99288117  0.48817891  1
  O  O402  1  0.87793844  0.98477412  1.00353358  1
  O  O403  1  0.12602098  0.00005840  0.01056814  1
  O  O404  1  0.12252525  0.01541703  0.49544069  1
  O  O405  1  0.11987370  0.50878411  -0.00859404  1
  O  O406  1  0.11964284  0.50928577  0.49902461  1
  O  O407  1  0.62461195  0.01161884  -0.00898729  1
  O  O408  1  0.63260877  0.01885337  0.50051552  1
  O  O409  1  0.61212592  0.49190990  -0.00625095  1
  O  O410  1  0.61606494  0.49303907  0.51082823  1
  O  O411  1  0.37241865  0.38082916  0.11007049  1
  O  O412  1  0.37052556  0.37261185  0.62069914  1
  O  O413  1  0.36624575  0.86779489  0.13243301  1
  O  O414  1  0.35923703  0.88381446  0.63138508  1
  O  O415  1  0.87086862  0.36461231  0.12057505  1
  O  O416  1  0.86412691  0.37222125  0.61864599  1
  O  O417  1  0.87028805  0.86513558  0.11651943  1
  O  O418  1  0.87230795  0.86922136  0.61696342  1
  O  O419  1  0.13159484  0.13099264  0.37643628  1
  O  O420  1  0.12359151  0.13926610  0.87437733  1
  O  O421  1  0.12861760  0.63163894  0.38040506  1
  O  O422  1  0.12335829  0.63772591  0.88491141  1
  O  O423  1  0.61457026  0.13786022  0.38230751  1
  O  O424  1  0.62709130  0.13326660  0.87792759  1
  O  O425  1  0.64898095  0.62366137  0.37044542  1
  O  O426  1  0.63221096  0.63587414  0.86877801  1
