# generated using pymatgen
data_V85Zn86O256
_symmetry_space_group_name_H-M   'P 1'
_cell_length_a   16.97118429
_cell_length_b   16.95405436
_cell_length_c   16.97768956
_cell_angle_alpha   90.09077294
_cell_angle_beta   89.98175210
_cell_angle_gamma   89.94884426
_symmetry_Int_Tables_number   1
_chemical_formula_structural   V85Zn86O256
_chemical_formula_sum   'V85 Zn86 O256'
_cell_volume   4884.98875734
_cell_formula_units_Z   1
loop_
 _symmetry_equiv_pos_site_id
 _symmetry_equiv_pos_as_xyz
  1  'x, y, z'
loop_
 _atom_site_type_symbol
 _atom_site_label
 _atom_site_symmetry_multiplicity
 _atom_site_fract_x
 _atom_site_fract_y
 _atom_site_fract_z
 _atom_site_occupancy
  V  V0  1  0.49703510  0.24677767  0.75276826  1
  V  V1  1  0.37908026  0.11969070  0.25814256  1
  V  V2  1  0.88355572  0.87382602  0.00690440  1
  V  V3  1  0.00153321  0.49483793  0.50409773  1
  V  V4  1  -0.00435663  0.50104777  0.00992487  1
  V  V5  1  0.76323270  0.61673187  0.37670609  1
  V  V6  1  0.62563490  0.25022712  0.87379540  1
  V  V7  1  0.86530568  0.50128288  0.86940014  1
  V  V8  1  0.75100314  0.24482406  -0.00135289  1
  V  V9  1  0.25605926  0.00419136  0.74579052  1
  V  V10  1  0.37344284  0.50112154  0.87719343  1
  V  V11  1  0.62815599  0.12446944  -0.00339028  1
  V  V12  1  0.24271913  0.37791272  0.62563846  1
  V  V13  1  0.50065146  0.50348092  0.00172816  1
  V  V14  1  0.62908702  -0.01354545  0.62827884  1
  V  V15  1  0.87732929  0.73044088  0.62445860  1
  V  V16  1  -0.01310173  0.64298909  0.13847580  1
  V  V17  1  0.37633437  0.50120768  0.37415660  1
  V  V18  1  0.25667854  0.12712134  0.87044850  1
  V  V19  1  0.14334008  -0.00392995  0.12943389  1
  V  V20  1  0.62669409  0.75809615  0.86964161  1
  V  V21  1  0.74625812  0.62550533  0.86389047  1
  V  V22  1  0.12582915  0.24601944  0.37409558  1
  V  V23  1  -0.00024408  0.37597635  0.87629345  1
  V  V24  1  0.25154484  0.62349358  0.37083985  1
  V  V25  1  0.62587005  0.49998374  0.12922729  1
  V  V26  1  0.37921294  0.62721824  0.24904667  1
  V  V27  1  0.12545677  0.61660553  0.50303110  1
  V  V28  1  0.49744396  0.50891746  0.50913383  1
  V  V29  1  -0.00381544  -0.00300118  0.49697795  1
  V  V30  1  0.63054202  0.00278150  0.12269046  1
  V  V31  1  0.49918015  0.37358329  0.37455305  1
  V  V32  1  0.74851268  0.37374698  0.12433265  1
  V  V33  1  0.87521697  0.12428101  0.25017312  1
  V  V34  1  0.24637480  0.50035406  0.74906020  1
  V  V35  1  0.86566268  0.37162186  0.49842583  1
  V  V36  1  0.87712716  0.24230159  0.12224386  1
  V  V37  1  0.37039603  0.87858518  -0.00224474  1
  V  V38  1  0.49907612  0.37564675  0.87598341  1
  V  V39  1  0.62596284  0.25411177  0.37667303  1
  V  V40  1  0.61927488  0.37142275  0.24909671  1
  V  V41  1  0.50115523  0.13140045  0.12744722  1
  V  V42  1  0.50210337  0.12554069  0.62343817  1
  V  V43  1  0.37346836  0.24719713  0.63207438  1
  V  V44  1  0.87324596  0.37216621  0.00099250  1
  V  V45  1  0.24808034  0.75358268  0.00144054  1
  V  V46  1  0.74408140  0.76143508  0.50654989  1
  V  V47  1  0.75744963  0.12323918  0.86061416  1
  V  V48  1  0.12485258  0.25059911  0.87429404  1
  V  V49  1  -0.00182251  0.37954570  0.37172971  1
  V  V50  1  0.25020630  0.75021135  0.49762531  1
  V  V51  1  0.75066711  0.14241269  0.37790754  1
  V  V52  1  0.13168106  0.36810052  0.23914239  1
  V  V53  1  0.86832795  0.00234269  0.37897748  1
  V  V54  1  0.62129544  0.62733149  0.50421058  1
  V  V55  1  0.12512087  0.11706696  0.00051430  1
  V  V56  1  0.50119963  0.00044795  -0.00430859  1
  V  V57  1  0.24984395  0.25040552  0.50149092  1
  V  V58  1  0.12142121  -0.00015446  0.62706241  1
  V  V59  1  0.37875393  0.74601207  0.62513818  1
  V  V60  1  0.89178213  -0.00704271  0.87314011  1
  V  V61  1  0.62678868  0.75302763  0.37185107  1
  V  V62  1  0.11801118  0.75067509  0.37490480  1
  V  V63  1  0.12703331  0.86811740  0.24513558  1
  V  V64  1  0.74480670  0.00415954  0.25130662  1
  V  V65  1  0.37356280  0.25470609  0.13238428  1
  V  V66  1  0.00233731  0.10790086  0.12138062  1
  V  V67  1  0.74837563  0.38274799  0.63417527  1
  V  V68  1  0.62782031  0.13200952  0.50568665  1
  V  V69  1  0.86950747  0.24657211  0.63130505  1
  V  V70  1  0.86662545  0.88017432  0.51548842  1
  V  V71  1  0.00266229  0.24321524  0.24819470  1
  V  V72  1  0.12055106  0.12403892  0.49875652  1
  V  V73  1  0.25184820  0.25677626  0.00372495  1
  V  V74  1  0.25229576  0.49337138  0.24138001  1
  V  V75  1  0.68164047  0.83152275  0.18641737  1
  V  V76  1  0.37590589  0.00120976  0.86748155  1
  V  V77  1  0.12588672  0.62616558  0.00686575  1
  V  V78  1  0.37988735  0.62503512  0.74650038  1
  V  V79  1  0.75104327  -0.01887326  0.74994848  1
  V  V80  1  0.49818178  0.87738582  0.85752385  1
  V  V81  1  0.37549761  0.37514624  0.50115607  1
  V  V82  1  0.25108672  0.87536021  0.62110619  1
  V  V83  1  0.50275914  0.76130938  0.24462844  1
  V  V84  1  0.37268390  0.75784238  0.12464258  1
  Zn  Zn85  1  -0.00776595  0.12695104  0.63108288  1
  Zn  Zn86  1  0.37197824  0.90995645  0.47056237  1
  Zn  Zn87  1  0.49483143  0.89368529  0.37141845  1
  Zn  Zn88  1  -0.00668879  0.24738391  0.75343080  1
  Zn  Zn89  1  0.62779696  0.51177715  0.63307687  1
  Zn  Zn90  1  0.12153453  0.37856824  0.74872671  1
  Zn  Zn91  1  0.37002018  0.37965962  0.00791733  1
  Zn  Zn92  1  0.11311449  0.87398382  0.76658380  1
  Zn  Zn93  1  0.92635176  0.66030343  0.77505705  1
  Zn  Zn94  1  0.09866225  0.75455686  0.87328019  1
  Zn  Zn95  1  0.77300254  0.50311962  0.25158241  1
  Zn  Zn96  1  0.50422435  0.75252609  0.74366355  1
  Zn  Zn97  1  0.07331302  0.55077077  0.66771230  1
  Zn  Zn98  1  0.75323513  0.75661500  0.00698146  1
  Zn  Zn99  1  0.62352768  0.38314233  0.75178676  1
  Zn  Zn100  1  0.50213265  0.62717473  0.12411190  1
  Zn  Zn101  1  0.26677406  -0.01604389  0.27313937  1
  Zn  Zn102  1  0.25426817  0.11885712  0.37757068  1
  Zn  Zn103  1  0.12613734  0.49905133  0.12707607  1
  Zn  Zn104  1  0.63066842  0.62944435  0.00096345  1
  Zn  Zn105  1  0.24843466  0.62538555  0.87713547  1
  Zn  Zn106  1  -0.03230270  0.84159660  0.34426770  1
  Zn  Zn107  1  0.19534697  0.18006239  0.18875879  1
  Zn  Zn108  1  0.18212450  0.18722853  0.68872045  1
  Zn  Zn109  1  0.18709778  0.68916778  0.18523700  1
  Zn  Zn110  1  0.18944435  0.68852080  0.68850350  1
  Zn  Zn111  1  0.68568516  0.19114974  0.19079541  1
  Zn  Zn112  1  0.68911165  0.19924955  0.68741122  1
  Zn  Zn113  1  0.69469086  0.66812169  0.19083717  1
  Zn  Zn114  1  0.68728147  0.69220499  0.68749460  1
  Zn  Zn115  1  0.31352980  0.30785948  0.31299498  1
  Zn  Zn116  1  0.31316603  0.31535494  0.81318793  1
  Zn  Zn117  1  0.31190279  0.81351639  0.31249048  1
  Zn  Zn118  1  0.27326687  0.79666782  0.79784027  1
  Zn  Zn119  1  0.82292513  0.33589754  0.30004999  1
  Zn  Zn120  1  0.81101570  0.31578154  0.81184383  1
  Zn  Zn121  1  0.80454589  0.81385104  0.32357875  1
  Zn  Zn122  1  0.81752880  0.81103949  0.81450875  1
  Zn  Zn123  1  0.18717002  0.43533276  0.43169423  1
  Zn  Zn124  1  0.18517825  0.44000295  0.94036676  1
  Zn  Zn125  1  0.18504947  0.93464645  0.43514854  1
  Zn  Zn126  1  0.18601525  0.93598893  0.93522181  1
  Zn  Zn127  1  0.68449680  0.44132709  0.44164654  1
  Zn  Zn128  1  0.68517818  0.43840385  0.93884622  1
  Zn  Zn129  1  0.65507086  0.95803659  0.42377916  1
  Zn  Zn130  1  0.69195212  0.93232467  0.93560360  1
  Zn  Zn131  1  0.31472150  0.06799941  0.06024950  1
  Zn  Zn132  1  0.31152587  0.06516495  0.55616225  1
  Zn  Zn133  1  0.31496822  0.56743316  0.06586101  1
  Zn  Zn134  1  0.31103973  0.56289453  0.56252924  1
  Zn  Zn135  1  0.81612099  0.05194272  0.05699553  1
  Zn  Zn136  1  0.80253255  0.06648539  0.56468641  1
  Zn  Zn137  1  0.80981318  0.56741367  0.05910188  1
  Zn  Zn138  1  0.81025711  0.55635409  0.54992953  1
  Zn  Zn139  1  0.43989344  0.43743156  0.18871755  1
  Zn  Zn140  1  0.43619334  0.43521680  0.68984006  1
  Zn  Zn141  1  0.44210506  0.93927383  0.18420800  1
  Zn  Zn142  1  0.42360089  0.95453390  0.65274458  1
  Zn  Zn143  1  0.93921150  0.43276383  0.18790907  1
  Zn  Zn144  1  0.93482205  0.44825770  0.69270309  1
  Zn  Zn145  1  0.93327114  0.83259692  0.18037295  1
  Zn  Zn146  1  0.93537636  0.94141488  0.69318016  1
  Zn  Zn147  1  0.06163550  0.05131471  0.30933592  1
  Zn  Zn148  1  0.06687271  0.06819134  0.80698128  1
  Zn  Zn149  1  0.06436025  0.56004284  0.31086567  1
  Zn  Zn150  1  0.04855232  0.57954529  0.83479877  1
  Zn  Zn151  1  0.55995536  0.06710016  0.31122874  1
  Zn  Zn152  1  0.56632726  0.06260546  0.80658581  1
  Zn  Zn153  1  0.56371153  0.56622022  0.31588970  1
  Zn  Zn154  1  0.56405197  0.56637210  0.81202229  1
  Zn  Zn155  1  0.44331369  0.19057347  0.44159005  1
  Zn  Zn156  1  0.43602633  0.18780271  0.94106947  1
  Zn  Zn157  1  0.44992101  0.71945668  0.44701439  1
  Zn  Zn158  1  0.43860872  0.68938531  0.93389930  1
  Zn  Zn159  1  0.93710663  0.19311359  0.44171649  1
  Zn  Zn160  1  0.93890171  0.17958260  0.93481014  1
  Zn  Zn161  1  0.93790940  0.68570622  0.45370469  1
  Zn  Zn162  1  0.93311993  0.68879340  0.94950993  1
  Zn  Zn163  1  0.06094114  0.30551478  0.06078565  1
  Zn  Zn164  1  0.05720578  0.31155466  0.56319083  1
  Zn  Zn165  1  0.06304967  0.81880695  0.05750608  1
  Zn  Zn166  1  0.03658639  0.83318343  0.60158745  1
  Zn  Zn167  1  0.55888263  0.31340107  0.05940421  1
  Zn  Zn168  1  0.56354565  0.31399888  0.56062999  1
  Zn  Zn169  1  0.55558693  0.81155636  0.04864598  1
  Zn  Zn170  1  0.55207187  0.81839668  0.55364684  1
  O  O171  1  0.12360925  0.12031365  0.11904893  1
  O  O172  1  0.12630747  0.11512547  0.61471765  1
  O  O173  1  0.11427780  0.62468322  0.11987262  1
  O  O174  1  0.13467047  0.62507945  0.60973535  1
  O  O175  1  0.61865357  0.12323597  0.11903770  1
  O  O176  1  0.62043311  0.13675460  0.61829588  1
  O  O177  1  0.62310619  0.61313478  0.12216726  1
  O  O178  1  0.62766660  0.62907256  0.60912939  1
  O  O179  1  0.38223282  0.37810392  0.37911041  1
  O  O180  1  0.38035146  0.38648544  0.87885162  1
  O  O181  1  0.37944460  0.88662633  0.36113260  1
  O  O182  1  0.38009170  0.88678099  0.88192512  1
  O  O183  1  0.88794097  0.35486957  0.39338420  1
  O  O184  1  0.87904194  0.37594070  0.88609972  1
  O  O185  1  0.86944505  0.89396605  0.39150014  1
  O  O186  1  0.87863191  0.88796908  0.87385578  1
  O  O187  1  0.25480790  0.00584606  0.38572938  1
  O  O188  1  0.25509899  0.00838684  0.86576626  1
  O  O189  1  0.25606919  0.50465865  0.36422906  1
  O  O190  1  0.25831908  0.49795018  0.86956910  1
  O  O191  1  0.74856712  0.01423267  0.36915541  1
  O  O192  1  0.74846430  0.00652207  0.86010430  1
  O  O193  1  0.74604597  0.51368893  0.37814878  1
  O  O194  1  0.75326360  0.51490781  0.88780369  1
  O  O195  1  0.25096407  0.50134546  0.13798276  1
  O  O196  1  0.25761895  0.48851656  0.63471239  1
  O  O197  1  0.24427357  1.00727453  0.12771198  1
  O  O198  1  0.24217737  0.99848988  0.62886385  1
  O  O199  1  0.74293334  0.49307832  0.12854095  1
  O  O200  1  0.74758075  0.48640054  0.61822946  1
  O  O201  1  0.73779713  1.00817064  0.13113674  1
  O  O202  1  0.74233820  1.00258323  0.64067297  1
  O  O203  1  0.01331374  0.36185227  0.25598186  1
  O  O204  1  0.00082927  0.37621994  0.76715312  1
  O  O205  1  0.02322052  0.88852410  0.25417798  1
  O  O206  1  0.01724301  0.86965120  0.70932122  1
  O  O207  1  0.51007298  0.37962255  0.25954525  1
  O  O208  1  0.49670857  0.36351204  0.75869805  1
  O  O209  1  0.50369304  0.86471108  0.24844450  1
  O  O210  1  0.48844683  0.87723660  0.75747249  1
  O  O211  1  0.49259018  0.12515764  0.23910246  1
  O  O212  1  0.50539432  0.14037369  0.74345386  1
  O  O213  1  0.49289959  0.62974923  0.24588264  1
  O  O214  1  0.48283199  0.63106469  0.75773637  1
  O  O215  1  0.99429078  0.12453583  0.24313875  1
  O  O216  1  1.00786843  0.13524759  0.74265144  1
  O  O217  1  1.00340758  0.61795280  0.23439733  1
  O  O218  1  0.98838989  0.57247886  0.73875695  1
  O  O219  1  0.36798344  0.25155139  0.01161267  1
  O  O220  1  0.37006812  0.25691705  0.50689646  1
  O  O221  1  0.37508270  0.75872556  0.00804497  1
  O  O222  1  0.35569278  0.72854135  0.51189567  1
  O  O223  1  0.87076335  0.25100833  0.00354765  1
  O  O224  1  0.88083513  0.26481978  0.51478487  1
  O  O225  1  0.87189478  0.76561130  0.00185055  1
  O  O226  1  0.86228308  0.75999519  0.50638283  1
  O  O227  1  0.12718598  0.24330793  0.49355630  1
  O  O228  1  0.13283676  0.24253641  0.99199061  1
  O  O229  1  0.14054039  0.73631340  0.48944906  1
  O  O230  1  0.13324587  0.74356378  1.00183074  1
  O  O231  1  0.62496330  0.24901658  0.48596495  1
  O  O232  1  0.62989286  0.24439938  0.99346052  1
  O  O233  1  0.62835496  0.74520320  0.49273747  1
  O  O234  1  0.62629819  0.75001873  0.98471638  1
  O  O235  1  0.48946483  0.23912791  0.11693631  1
  O  O236  1  0.49418596  0.24812689  0.63291295  1
  O  O237  1  0.49606425  0.74906323  0.12926508  1
  O  O238  1  0.48226405  0.75403837  0.62653146  1
  O  O239  1  0.99636527  0.23833596  0.13110816  1
  O  O240  1  0.98393486  0.25517074  0.62984536  1
  O  O241  1  0.99811922  0.74689091  0.12771805  1
  O  O242  1  0.97679399  0.73575839  0.60465786  1
  O  O243  1  0.00856508  0.25259675  0.36788613  1
  O  O244  1  0.00802526  0.25751791  0.87830322  1
  O  O245  1  0.01580042  0.74575715  0.39143032  1
  O  O246  1  0.00009039  0.69723372  0.85888440  1
  O  O247  1  0.50784205  0.26674680  0.38022947  1
  O  O248  1  0.50250696  0.25330679  0.87060622  1
  O  O249  1  0.51472076  0.73834405  0.35361662  1
  O  O250  1  0.50444143  0.76195703  0.87163341  1
  O  O251  1  0.23784121  0.13313140  0.50051013  1
  O  O252  1  0.24498025  0.13643642  0.99235631  1
  O  O253  1  0.24304391  0.62188821  0.48757573  1
  O  O254  1  0.24072402  0.63227443  1.00723979  1
  O  O255  1  0.73909048  0.13019078  0.49066135  1
  O  O256  1  0.74529807  0.12740392  0.99164135  1
  O  O257  1  0.74029769  0.63099112  0.49159227  1
  O  O258  1  0.74868121  0.63680427  0.99370085  1
  O  O259  1  0.25003139  0.36113382  -0.00242370  1
  O  O260  1  0.25489691  0.37096095  0.50605848  1
  O  O261  1  0.26384893  0.87108691  -0.00097729  1
  O  O262  1  0.25714845  0.86434099  0.50179921  1
  O  O263  1  0.75381566  0.36632586  0.00527754  1
  O  O264  1  0.76312372  0.37794024  0.50130151  1
  O  O265  1  0.76776308  0.87211425  -0.00916047  1
  O  O266  1  0.75053027  0.86473847  0.49341139  1
  O  O267  1  0.13450491  0.48652387  0.24855031  1
  O  O268  1  0.13934051  0.49876111  0.75287367  1
  O  O269  1  0.13672982  0.99273020  0.24467522  1
  O  O270  1  0.13441987  0.99997148  0.73912498  1
  O  O271  1  0.62230387  0.49358964  0.23900242  1
  O  O272  1  0.60845574  0.49442126  0.74168827  1
  O  O273  1  0.63695600  1.01045176  0.23830072  1
  O  O274  1  0.63959819  1.00369205  0.73914334  1
  O  O275  1  0.37833026  0.01574291  0.24178435  1
  O  O276  1  0.36208331  0.00141389  0.74726177  1
  O  O277  1  0.37043418  0.50452144  0.25439152  1
  O  O278  1  0.36924610  0.50409768  0.75859010  1
  O  O279  1  0.85920436  0.00889496  0.26422192  1
  O  O280  1  0.86057585  -0.00182940  0.75826760  1
  O  O281  1  0.86643413  0.44338850  0.26776983  1
  O  O282  1  0.86054989  0.48196647  0.77222118  1
  O  O283  1  0.11935544  0.36069267  0.36822291  1
  O  O284  1  0.11570771  0.36823988  0.87896805  1
  O  O285  1  0.12642271  0.86130122  0.36760465  1
  O  O286  1  0.12302683  0.86640058  0.87953255  1
  O  O287  1  0.62004408  0.37357593  0.36974306  1
  O  O288  1  0.61703294  0.36773364  0.87738534  1
  O  O289  1  0.62839729  0.85434176  0.37678648  1
  O  O290  1  0.61159830  0.87042670  0.87680720  1
  O  O291  1  0.38386517  0.13365764  0.13137954  1
  O  O292  1  0.38693900  0.14089211  0.61857550  1
  O  O293  1  0.37863295  0.63877143  0.13164670  1
  O  O294  1  0.36671395  0.63168181  0.63583426  1
  O  O295  1  0.88400786  0.12236927  0.12647507  1
  O  O296  1  0.87036067  0.14364535  0.61798939  1
  O  O297  1  0.88928483  0.62124240  0.12607830  1
  O  O298  1  0.86597612  0.63134185  0.61750068  1
  O  O299  1  0.26481444  0.24340951  0.11852915  1
  O  O300  1  0.25708232  0.25334237  0.62215030  1
  O  O301  1  0.26116736  0.74892045  0.11502953  1
  O  O302  1  0.24983473  0.75948956  0.61494132  1
  O  O303  1  0.75500185  0.25237173  0.11826587  1
  O  O304  1  0.76169233  0.26450194  0.62454566  1
  O  O305  1  0.73657342  0.76108708  0.13282866  1
  O  O306  1  0.75511441  0.74726104  0.61181131  1
  O  O307  1  0.24256391  0.24528239  0.38307495  1
  O  O308  1  0.24664124  0.24488440  0.88142019  1
  O  O309  1  0.24626079  0.74003909  0.37867827  1
  O  O310  1  0.26654003  0.74255158  0.89835103  1
  O  O311  1  0.74616342  0.24536333  0.36592002  1
  O  O312  1  0.74731656  0.24303670  0.87940963  1
  O  O313  1  0.74307877  0.73904836  0.38489143  1
  O  O314  1  0.74371023  0.74052330  0.87153876  1
  O  O315  1  0.01434301  0.12989356  0.00832843  1
  O  O316  1  0.00951993  0.12322435  0.50410623  1
  O  O317  1  0.00408412  0.61666046  0.01673205  1
  O  O318  1  0.01146306  0.60621142  0.49332896  1
  O  O319  1  0.50661174  0.11905814  0.00594819  1
  O  O320  1  0.51548170  0.13347813  0.51066507  1
  O  O321  1  0.50203946  0.61327938  0.00017016  1
  O  O322  1  0.50742442  0.61986630  0.48993326  1
  O  O323  1  0.49399507  0.38420821  0.49408425  1
  O  O324  1  0.49556505  0.38634753  0.99407160  1
  O  O325  1  0.47421400  0.83544583  0.47619833  1
  O  O326  1  0.48807886  0.88480475  0.98996275  1
  O  O327  1  0.99755630  0.37717956  0.48899035  1
  O  O328  1  0.99439589  0.37799597  0.99428453  1
  O  O329  1  0.98548491  0.88762438  0.50464569  1
  O  O330  1  0.98549612  0.87083622  0.99422308  1
  O  O331  1  0.49498018  0.49184955  0.38174998  1
  O  O332  1  0.49321643  0.49647031  0.88402834  1
  O  O333  1  0.54914585  0.99108983  0.38907588  1
  O  O334  1  0.49535646  0.99859245  0.87495644  1
  O  O335  1  1.00767407  0.48304024  0.37838700  1
  O  O336  1  0.98852141  0.49286100  0.89360640  1
  O  O337  1  0.98532020  1.00876416  0.38747427  1
  O  O338  1  0.98936545  1.00410193  0.86513530  1
  O  O339  1  0.01952434  0.01029484  0.12579696  1
  O  O340  1  0.00516695  0.00717288  0.61332620  1
  O  O341  1  0.00204330  0.49196378  0.11631886  1
  O  O342  1  0.00721061  0.47706834  0.60825404  1
  O  O343  1  0.51197057  0.01084173  0.11868611  1
  O  O344  1  0.52089282  0.02020425  0.64145511  1
  O  O345  1  0.50584390  0.50042586  0.11758644  1
  O  O346  1  0.49312343  0.49661692  0.61044096  1
  O  O347  1  0.24358528  0.38108706  0.25716734  1
  O  O348  1  0.25022389  0.38250027  0.74264258  1
  O  O349  1  0.23527072  0.87470982  0.25053967  1
  O  O350  1  0.24365056  0.88969192  0.73610314  1
  O  O351  1  0.73013802  0.37060973  0.23945233  1
  O  O352  1  0.74474075  0.37485244  0.73718802  1
  O  O353  1  0.74313583  0.88674867  0.25309667  1
  O  O354  1  0.74754518  0.88324493  0.75356606  1
  O  O355  1  0.26944287  0.12321028  0.25581778  1
  O  O356  1  0.24382296  0.11964370  0.76069571  1
  O  O357  1  0.25524649  0.61777529  0.25386683  1
  O  O358  1  0.25944709  0.61383272  0.75432175  1
  O  O359  1  0.75556662  0.12299548  0.25677915  1
  O  O360  1  0.74679524  0.12862576  0.75995495  1
  O  O361  1  0.75704484  0.61821626  0.26813559  1
  O  O362  1  0.74374943  0.62313836  0.76440222  1
  O  O363  1  0.38508529  0.13320628  0.36041891  1
  O  O364  1  0.36370791  0.11959447  0.88084422  1
  O  O365  1  0.36326101  0.62204439  0.36709549  1
  O  O366  1  0.37284437  0.61236858  0.87240520  1
  O  O367  1  0.86672628  0.12207975  0.37610764  1
  O  O368  1  0.86592203  0.11049160  0.87857007  1
  O  O369  1  0.86126134  0.62583387  0.39021487  1
  O  O370  1  0.86096271  0.61768584  0.87393506  1
  O  O371  1  0.12393096  0.36882821  0.13680449  1
  O  O372  1  0.13951258  0.36416967  0.62744013  1
  O  O373  1  0.12508938  0.88224252  0.13465682  1
  O  O374  1  0.13859285  0.89237467  0.60647404  1
  O  O375  1  0.62491546  0.37810731  0.13118070  1
  O  O376  1  0.64215089  0.37227374  0.62011399  1
  O  O377  1  0.61952313  0.88549406  0.11946109  1
  O  O378  1  0.61449192  0.88892072  0.61877512  1
  O  O379  1  0.12648506  0.24957286  0.25629569  1
  O  O380  1  0.12870876  0.25609719  0.76645279  1
  O  O381  1  0.12776754  0.75885239  0.25764234  1
  O  O382  1  0.15986089  0.75778305  0.76998974  1
  O  O383  1  0.62197251  0.25762149  0.26302479  1
  O  O384  1  0.61614980  0.25814378  0.75855714  1
  O  O385  1  0.62553951  0.75444739  0.24750147  1
  O  O386  1  0.61989923  0.74676872  0.76254871  1
  O  O387  1  0.37396297  0.24100932  0.23791096  1
  O  O388  1  0.38153304  0.25302418  0.74243011  1
  O  O389  1  0.38402509  0.74796502  0.24169387  1
  O  O390  1  0.36412257  0.73973752  0.74097938  1
  O  O391  1  0.88113174  0.24311634  0.24139098  1
  O  O392  1  0.87421410  0.25789601  0.73614490  1
  O  O393  1  0.89604044  0.78372795  0.27197629  1
  O  O394  1  0.86929748  0.74781747  0.73014080  1
  O  O395  1  0.37872020  0.49601788  0.49218625  1
  O  O396  1  0.38014927  0.49960221  0.99616006  1
  O  O397  1  0.39175342  0.99084878  0.54461981  1
  O  O398  1  0.38015413  0.99625627  0.99396851  1
  O  O399  1  0.88639738  0.48210590  0.50008730  1
  O  O400  1  0.87917859  0.49094996  0.99882442  1
  O  O401  1  0.87462270  0.99967109  0.49973547  1
  O  O402  1  0.87374607  0.99208174  0.97943622  1
  O  O403  1  0.13703687  0.01232656  0.00812713  1
  O  O404  1  0.11355079  0.00737001  0.50068547  1
  O  O405  1  0.11593195  0.50535826  0.00749763  1
  O  O406  1  0.12019006  0.50616711  0.49263035  1
  O  O407  1  0.62255971  0.00543219  0.00413434  1
  O  O408  1  0.63793459  0.01627995  0.52533886  1
  O  O409  1  0.61662615  0.49798877  0.01309140  1
  O  O410  1  0.61377123  0.50941779  0.50408711  1
  O  O411  1  0.38158903  0.35877879  0.12713894  1
  O  O412  1  0.36671027  0.36492006  0.62073699  1
  O  O413  1  0.38291450  0.86592060  0.11598556  1
  O  O414  1  0.35807861  0.86052604  0.63053864  1
  O  O415  1  0.87061613  0.36224063  0.11545355  1
  O  O416  1  0.86411170  0.37335154  0.61869999  1
  O  O417  1  0.87895630  0.89671556  0.10590370  1
  O  O418  1  0.86867360  0.87352051  0.61651578  1
  O  O419  1  0.12243318  0.13345949  0.38007248  1
  O  O420  1  0.13481020  0.13097233  0.88340021  1
  O  O421  1  0.13588147  0.62801768  0.37608564  1
  O  O422  1  0.13272285  0.62039155  0.89787182  1
  O  O423  1  0.63144059  0.13857023  0.38058543  1
  O  O424  1  0.63246667  0.13152746  0.87864802  1
  O  O425  1  0.63319101  0.63301822  0.38262660  1
  O  O426  1  0.63340839  0.63143837  0.87900868  1
