# generated using pymatgen
data_V85Zn86O256
_symmetry_space_group_name_H-M   'P 1'
_cell_length_a   16.94697284
_cell_length_b   16.94698079
_cell_length_c   16.94320846
_cell_angle_alpha   90.04817205
_cell_angle_beta   90.00728703
_cell_angle_gamma   89.97552725
_symmetry_Int_Tables_number   1
_chemical_formula_structural   V85Zn86O256
_chemical_formula_sum   'V85 Zn86 O256'
_cell_volume   4866.08765629
_cell_formula_units_Z   1
loop_
 _symmetry_equiv_pos_site_id
 _symmetry_equiv_pos_as_xyz
  1  'x, y, z'
loop_
 _atom_site_type_symbol
 _atom_site_label
 _atom_site_symmetry_multiplicity
 _atom_site_fract_x
 _atom_site_fract_y
 _atom_site_fract_z
 _atom_site_occupancy
  V  V0  1  0.11472760  0.50113236  0.61820504  1
  V  V1  1  0.61902690  0.87387940  0.74915928  1
  V  V2  1  -0.00176069  0.88055020  0.87211009  1
  V  V3  1  0.12965798  0.49582777  0.11967328  1
  V  V4  1  0.62389954  0.37900404  0.74922397  1
  V  V5  1  0.75221998  0.62309673  0.38293273  1
  V  V6  1  0.25653484  0.00387525  0.75053185  1
  V  V7  1  0.62165502  0.37923339  0.24361131  1
  V  V8  1  0.36420981  0.37730086  0.00540823  1
  V  V9  1  0.62609257  0.12796023  0.50118527  1
  V  V10  1  0.86901160  0.12872432  0.24997958  1
  V  V11  1  0.24650238  -0.00465094  0.23001051  1
  V  V12  1  0.37720561  0.75487828  0.12785712  1
  V  V13  1  0.74675362  0.38316249  0.62381536  1
  V  V14  1  0.25240888  0.75509981  0.00370990  1
  V  V15  1  0.87630130  0.00267517  0.38013802  1
  V  V16  1  0.37536679  0.74484068  0.62677515  1
  V  V17  1  0.50837296  0.62237084  0.12873043  1
  V  V18  1  0.12598798  -0.00114734  0.62377535  1
  V  V19  1  0.75319574  0.12918576  0.88753627  1
  V  V20  1  0.61677416  0.74686391  0.87522193  1
  V  V21  1  0.37817713  0.00091915  0.37410105  1
  V  V22  1  0.25280931  0.49153199  0.24958443  1
  V  V23  1  0.38074914  0.00378710  0.87534133  1
  V  V24  1  0.60581387  0.12838264  0.00525434  1
  V  V25  1  0.54444372  0.69086448  0.69022953  1
  V  V26  1  0.24699961  0.62551965  0.88103103  1
  V  V27  1  0.12647810  0.12515439  0.49914645  1
  V  V28  1  0.37184559  0.25144880  0.12400948  1
  V  V29  1  0.50778833  0.50417364  0.51021789  1
  V  V30  1  0.00373733  0.36625962  0.87663834  1
  V  V31  1  0.12453511  0.24579251  0.37238714  1
  V  V32  1  -0.00415249  0.74928444  0.74238797  1
  V  V33  1  0.87761710  0.86000525  0.50077165  1
  V  V34  1  0.51252861  0.75140896  0.25237515  1
  V  V35  1  0.75631094  0.86899912  0.62197567  1
  V  V36  1  0.50811509  0.87459270  0.37155628  1
  V  V37  1  0.75290194  0.62255100  0.87640465  1
  V  V38  1  0.12701421  0.36774736  0.75238768  1
  V  V39  1  0.12383360  0.12880812  -0.00673542  1
  V  V40  1  0.24493818  0.74081340  0.49877826  1
  V  V41  1  0.87409147  0.12123446  0.75419846  1
  V  V42  1  0.24993665  0.13478252  0.87134990  1
  V  V43  1  0.06836652  0.67400661  0.05581592  1
  V  V44  1  0.50199899  0.49621260  0.00827617  1
  V  V45  1  0.37777537  0.62422117  0.25475975  1
  V  V46  1  -0.00181607  0.00465270  -0.00317710  1
  V  V47  1  0.12322613  0.74666757  0.87382812  1
  V  V48  1  0.61422195  -0.00349557  0.12020874  1
  V  V49  1  0.37641671  0.25402791  0.62006037  1
  V  V50  1  0.25254315  0.11942675  0.37309526  1
  V  V51  1  0.49440406  0.37658902  0.38044262  1
  V  V52  1  0.74564752  0.49948769  0.24243855  1
  V  V53  1  0.24894852  0.49957038  0.74918099  1
  V  V54  1  -0.00259139  0.24942608  0.24985360  1
  V  V55  1  0.38118711  0.87933052  0.00028020  1
  V  V56  1  0.00132143  0.49671423  0.00419169  1
  V  V57  1  0.37449531  0.49989360  0.87837047  1
  V  V58  1  0.37653822  0.62780851  0.75156651  1
  V  V59  1  0.00040740  0.12506345  0.62583775  1
  V  V60  1  0.88030088  0.62491561  0.23680872  1
  V  V61  1  0.88106487  0.50122047  0.37619486  1
  V  V62  1  0.25327973  0.37718737  0.61484151  1
  V  V63  1  0.19824066  0.67949548  0.31902864  1
  V  V64  1  0.87337992  0.24940492  0.62534409  1
  V  V65  1  0.75225408  -0.00027079  0.75759496  1
  V  V66  1  0.63861053  0.75072376  0.38387644  1
  V  V67  1  0.50217785  0.00009607  0.49899144  1
  V  V68  1  0.74537434  -0.01019597  0.24745192  1
  V  V69  1  0.86940161  0.87980064  -0.00695084  1
  V  V70  1  0.62586260  0.62120842  0.00485255  1
  V  V71  1  0.62640794  0.00245967  0.62685589  1
  V  V72  1  0.25033384  0.87328782  0.62362275  1
  V  V73  1  0.87840346  0.62283056  0.74355735  1
  V  V74  1  0.86556231  0.37243955  -0.00174154  1
  V  V75  1  0.37043503  0.50018092  0.38601988  1
  V  V76  1  0.38337231  0.12433179  0.24229190  1
  V  V77  1  0.86472627  0.25089729  0.12103846  1
  V  V78  1  0.00655388  0.12379218  0.12801420  1
  V  V79  1  0.75327608  0.74958547  0.00574673  1
  V  V80  1  0.88384974  0.37753762  0.49985366  1
  V  V81  1  0.62436662  0.25271059  0.37340331  1
  V  V82  1  0.49343174  0.12456362  0.63080680  1
  V  V83  1  0.12611787  0.37059331  0.24296375  1
  V  V84  1  0.49781516  0.24806843  0.75339024  1
  Zn  Zn85  1  0.37842178  0.87130605  0.49994793  1
  Zn  Zn86  1  0.87829568  0.49809995  0.87447516  1
  Zn  Zn87  1  0.62663249  0.25199654  0.88161211  1
  Zn  Zn88  1  0.74730881  0.87292081  0.12575039  1
  Zn  Zn89  1  0.74700261  0.12680805  0.37415318  1
  Zn  Zn90  1  0.00464054  0.24544048  0.75493623  1
  Zn  Zn91  1  -0.00716598  0.62784232  0.61232686  1
  Zn  Zn92  1  0.25675358  0.25205718  0.49530885  1
  Zn  Zn93  1  0.74923047  0.49885293  0.74945998  1
  Zn  Zn94  1  0.62635933  0.62458224  0.51346691  1
  Zn  Zn95  1  0.12521935  0.87346065  0.74970942  1
  Zn  Zn96  1  0.24089972  0.25446440  0.00303369  1
  Zn  Zn97  1  0.73919503  0.37395668  0.11850171  1
  Zn  Zn98  1  0.00305943  0.37613223  0.37714590  1
  Zn  Zn99  1  0.50087394  0.24842826  0.24566945  1
  Zn  Zn100  1  0.91008579  0.77742487  0.15610506  1
  Zn  Zn101  1  0.05977847  0.83358100  0.28896105  1
  Zn  Zn102  1  0.12332648  0.61986274  0.48938563  1
  Zn  Zn103  1  0.49799878  0.87431930  0.87262086  1
  Zn  Zn104  1  -0.00162835  -0.00481384  0.49753039  1
  Zn  Zn105  1  0.75080679  0.25202498  0.49914697  1
  Zn  Zn106  1  0.49978468  0.37150380  0.87887929  1
  Zn  Zn107  1  0.19134337  0.18139011  0.18632875  1
  Zn  Zn108  1  0.19252425  0.18764200  0.68688328  1
  Zn  Zn109  1  0.20006659  0.82038178  0.17887134  1
  Zn  Zn110  1  0.18649150  0.68506078  0.68954468  1
  Zn  Zn111  1  0.68376903  0.18648308  0.18419417  1
  Zn  Zn112  1  0.68648914  0.19147556  0.69089299  1
  Zn  Zn113  1  0.69411879  0.68807027  0.19376170  1
  Zn  Zn114  1  0.70794359  0.68904828  0.68779299  1
  Zn  Zn115  1  0.31266533  0.31187622  0.31181355  1
  Zn  Zn116  1  0.31730975  0.31374371  0.80901975  1
  Zn  Zn117  1  0.32376651  0.81762482  0.31379400  1
  Zn  Zn118  1  0.31323009  0.81377828  0.81112445  1
  Zn  Zn119  1  0.80859042  0.31498886  0.31336233  1
  Zn  Zn120  1  0.81251229  0.30908361  0.81239339  1
  Zn  Zn121  1  0.89184243  0.80641454  0.32180924  1
  Zn  Zn122  1  0.81184477  0.80944876  0.81407798  1
  Zn  Zn123  1  0.18659150  0.43636571  0.43358299  1
  Zn  Zn124  1  0.18538786  0.43650316  0.93479453  1
  Zn  Zn125  1  0.18879032  0.92791074  0.43646691  1
  Zn  Zn126  1  0.18698522  0.93988658  0.93883990  1
  Zn  Zn127  1  0.68918436  0.43807291  0.43667945  1
  Zn  Zn128  1  0.68326985  0.43839840  0.93532292  1
  Zn  Zn129  1  0.69376336  0.93723810  0.43536885  1
  Zn  Zn130  1  0.68294999  0.94078921  0.93749363  1
  Zn  Zn131  1  0.31627527  0.06770279  0.05676344  1
  Zn  Zn132  1  0.31481756  0.06288017  0.56077149  1
  Zn  Zn133  1  0.31201570  0.56819434  0.06752573  1
  Zn  Zn134  1  0.31133532  0.56418569  0.56261233  1
  Zn  Zn135  1  0.81570215  0.05842097  0.06447324  1
  Zn  Zn136  1  0.80893992  0.06194784  0.56629643  1
  Zn  Zn137  1  0.81169388  0.55631269  0.06155443  1
  Zn  Zn138  1  0.81593224  0.56042207  0.55995825  1
  Zn  Zn139  1  0.43560918  0.43363943  0.18891925  1
  Zn  Zn140  1  0.43579507  0.43564634  0.68950247  1
  Zn  Zn141  1  0.43713239  0.93554890  0.19014848  1
  Zn  Zn142  1  0.43643047  0.93568471  0.68706141  1
  Zn  Zn143  1  0.93673461  0.43729505  0.18594313  1
  Zn  Zn144  1  0.93689247  0.43545985  0.69119713  1
  Zn  Zn145  1  0.93214985  0.94924405  0.18288863  1
  Zn  Zn146  1  0.93773021  0.93879912  0.68677336  1
  Zn  Zn147  1  0.08436815  0.01538425  0.33036838  1
  Zn  Zn148  1  0.06721876  0.06150393  0.81060828  1
  Zn  Zn149  1  0.05584867  0.55817008  0.30084121  1
  Zn  Zn150  1  0.06250582  0.55882370  0.81304545  1
  Zn  Zn151  1  0.56635570  0.06248260  0.30964351  1
  Zn  Zn152  1  0.56499028  0.06451145  0.81614787  1
  Zn  Zn153  1  0.56362300  0.56201730  0.31956429  1
  Zn  Zn154  1  0.56513809  0.55367163  0.82113013  1
  Zn  Zn155  1  0.44034006  0.18772887  0.43736536  1
  Zn  Zn156  1  0.43211964  0.18865641  0.93699465  1
  Zn  Zn157  1  0.43852584  0.68420155  0.44016186  1
  Zn  Zn158  1  0.43722516  0.68561015  0.94049932  1
  Zn  Zn159  1  0.93878748  0.18589295  0.43756912  1
  Zn  Zn160  1  0.93338052  0.18896151  0.93755800  1
  Zn  Zn161  1  0.95778083  0.68606138  0.42616589  1
  Zn  Zn162  1  0.93249077  0.69250819  0.93067664  1
  Zn  Zn163  1  0.05874138  0.30942774  0.06358625  1
  Zn  Zn164  1  0.06406957  0.31031349  0.56443969  1
  Zn  Zn165  1  0.05583476  0.85127625  0.07875611  1
  Zn  Zn166  1  0.06167943  0.81051580  0.55639283  1
  Zn  Zn167  1  0.55463609  0.30732144  0.06374487  1
  Zn  Zn168  1  0.56161488  0.31559871  0.56210925  1
  Zn  Zn169  1  0.56340919  0.81395183  0.06131727  1
  Zn  Zn170  1  0.56985522  0.81793690  0.55590532  1
  O  O171  1  0.11044759  0.13067463  0.11777011  1
  O  O172  1  0.12396468  0.11957017  0.61842998  1
  O  O173  1  0.11825866  0.61544976  0.11925740  1
  O  O174  1  0.12577015  0.60667381  0.62990553  1
  O  O175  1  0.62718965  0.11650820  0.11126318  1
  O  O176  1  0.61762037  0.12292150  0.61979361  1
  O  O177  1  0.61423692  0.62966452  0.12375255  1
  O  O178  1  0.61901143  0.64037909  0.63293994  1
  O  O179  1  0.38344137  0.38372840  0.37050028  1
  O  O180  1  0.37664580  0.38367484  0.88309874  1
  O  O181  1  0.38925598  0.88294235  0.38012111  1
  O  O182  1  0.37594671  0.88101960  0.88157493  1
  O  O183  1  0.87471271  0.38037408  0.38352409  1
  O  O184  1  0.88145938  0.37492573  0.88157975  1
  O  O185  1  0.85933741  0.88807498  0.39622937  1
  O  O186  1  0.88452977  0.87049943  0.88201070  1
  O  O187  1  0.25874532  0.00945826  0.37346067  1
  O  O188  1  0.25555498  0.00431994  0.86599861  1
  O  O189  1  0.25989044  0.49438371  0.36568123  1
  O  O190  1  0.25329620  0.50910794  0.87193988  1
  O  O191  1  0.75261060  0.00614268  0.36239868  1
  O  O192  1  0.74464156  0.01006456  0.86385161  1
  O  O193  1  0.75871560  0.50441423  0.36712418  1
  O  O194  1  0.75028251  0.51337036  0.87583603  1
  O  O195  1  0.24172527  0.50764104  0.13624601  1
  O  O196  1  0.24645133  0.49259517  0.63089855  1
  O  O197  1  0.26003298  0.99905133  0.13141245  1
  O  O198  1  0.24793806  0.99380197  0.62943796  1
  O  O199  1  0.74891832  0.49559909  0.13801797  1
  O  O200  1  0.75423464  0.48666808  0.62763955  1
  O  O201  1  0.74489281  0.99974726  0.13508091  1
  O  O202  1  0.74327891  0.99564520  0.63876256  1
  O  O203  1  0.00763478  0.36664350  0.24955270  1
  O  O204  1  0.00789221  0.37334392  0.75946736  1
  O  O205  1  -0.04467104  0.85521778  0.23613515  1
  O  O206  1  0.00020090  0.86898237  0.75616627  1
  O  O207  1  0.50607192  0.37570149  0.26166939  1
  O  O208  1  0.50678623  0.36826822  0.75191772  1
  O  O209  1  0.49878205  0.86610781  0.26291542  1
  O  O210  1  0.51492762  0.87697981  0.74913425  1
  O  O211  1  0.48662795  0.12704378  0.25787038  1
  O  O212  1  0.50864108  0.13331785  0.74094299  1
  O  O213  1  0.49881350  0.63008242  0.24556373  1
  O  O214  1  0.49664440  0.62144099  0.75344402  1
  O  O215  1  0.98478595  0.13005487  0.24017461  1
  O  O216  1  0.99269735  0.12432288  0.74600658  1
  O  O217  1  0.98018685  0.62337164  0.24655780  1
  O  O218  1  0.99322886  0.63152337  0.75174050  1
  O  O219  1  0.37204092  0.25842237  0.00893673  1
  O  O220  1  0.37613713  0.24519915  0.51401950  1
  O  O221  1  0.36962583  0.75482210  0.00740637  1
  O  O222  1  0.36572370  0.74809122  0.50750249  1
  O  O223  1  0.87835090  0.26033915  0.00895494  1
  O  O224  1  0.87256036  0.25362149  0.50830799  1
  O  O225  1  0.86360567  0.75810767  -0.00465639  1
  O  O226  1  0.87555424  0.76263269  0.49609118  1
  O  O227  1  0.12800691  0.24094731  0.49259195  1
  O  O228  1  0.12323399  0.23590921  1.00237314  1
  O  O229  1  0.14132549  0.75305289  0.49877073  1
  O  O230  1  0.13057811  0.74257474  0.99960214  1
  O  O231  1  0.62409863  0.24348960  0.49310387  1
  O  O232  1  0.62011743  0.23436122  1.00155892  1
  O  O233  1  0.62457352  0.74395153  0.48789945  1
  O  O234  1  0.63022128  0.74290418  0.99171210  1
  O  O235  1  0.48024915  0.25091915  0.12953845  1
  O  O236  1  0.49537853  0.24390371  0.62935716  1
  O  O237  1  0.49933952  0.74465418  0.13404689  1
  O  O238  1  0.49372563  0.75543212  0.62263926  1
  O  O239  1  0.98818629  0.24329782  0.13132407  1
  O  O240  1  0.98949750  0.24375747  0.62801801  1
  O  O241  1  1.00701457  0.73968674  0.10409335  1
  O  O242  1  1.00831062  0.74837408  0.63943688  1
  O  O243  1  0.00742010  0.24876586  0.36665573  1
  O  O244  1  -0.00240725  0.26178767  0.87432899  1
  O  O245  1  -0.00889729  0.76422566  0.35862476  1
  O  O246  1  0.00774925  0.75885679  0.86899861  1
  O  O247  1  0.50797918  0.25840286  0.37449312  1
  O  O248  1  0.49976379  0.24974217  0.86657214  1
  O  O249  1  0.50845554  0.75558256  0.37116817  1
  O  O250  1  0.51272558  0.74802351  0.87773891  1
  O  O251  1  0.24222911  0.12604119  0.49327150  1
  O  O252  1  0.23928210  0.12527502  0.99026612  1
  O  O253  1  0.24244967  0.63283899  0.50123057  1
  O  O254  1  0.25764698  0.63720961  0.98858014  1
  O  O255  1  0.73585327  0.12783152  0.50181996  1
  O  O256  1  0.75251355  0.11983337  0.98821222  1
  O  O257  1  0.74637169  0.61721759  0.48791073  1
  O  O258  1  0.74705702  0.63004876  0.99546076  1
  O  O259  1  0.26014839  0.37350030  -0.00481663  1
  O  O260  1  0.24561852  0.37126743  0.51124291  1
  O  O261  1  0.25737712  0.86178086  -0.00534456  1
  O  O262  1  0.25545861  0.86979748  0.51041086  1
  O  O263  1  0.76106002  0.38224329  0.00011099  1
  O  O264  1  0.75798477  0.37240393  0.50799420  1
  O  O265  1  0.75525750  0.86749510  -0.00833053  1
  O  O266  1  0.75756418  0.88330164  0.51619379  1
  O  O267  1  0.12988399  0.49087908  0.23959812  1
  O  O268  1  0.13102437  0.49007129  0.74241041  1
  O  O269  1  0.14964241  1.02042036  0.23770522  1
  O  O270  1  0.13610845  0.99712562  0.73826245  1
  O  O271  1  0.63209936  0.49037025  0.25814954  1
  O  O272  1  0.62645246  0.48438344  0.75378811  1
  O  O273  1  0.63813743  1.00962005  0.23703813  1
  O  O274  1  0.63162143  0.99199054  0.74734849  1
  O  O275  1  0.37065592  0.00717083  0.25448450  1
  O  O276  1  0.36296782  -0.00652515  0.75556347  1
  O  O277  1  0.36677127  0.50382693  0.25396076  1
  O  O278  1  0.36900489  0.50625038  0.75689733  1
  O  O279  1  0.86189821  0.01080499  0.25547485  1
  O  O280  1  0.86736629  0.01245388  0.74528732  1
  O  O281  1  0.86604513  0.50489372  0.25439840  1
  O  O282  1  0.87395109  0.50702568  0.75593822  1
  O  O283  1  0.12393003  0.36775085  0.36215007  1
  O  O284  1  0.11799226  0.37669566  0.86479687  1
  O  O285  1  0.11123182  0.90775570  0.36202979  1
  O  O286  1  0.11913408  0.86341302  0.87579079  1
  O  O287  1  0.61872664  0.36864808  0.36806205  1
  O  O288  1  0.62145038  0.36984858  0.86784766  1
  O  O289  1  0.62293461  0.86166948  0.38039963  1
  O  O290  1  0.62502179  0.86538986  0.86589485  1
  O  O291  1  0.37425556  0.13446684  0.13108413  1
  O  O292  1  0.38828888  0.12947423  0.62330532  1
  O  O293  1  0.38720522  0.63667228  0.13135209  1
  O  O294  1  0.37234537  0.63692550  0.63167051  1
  O  O295  1  0.87936953  0.13290005  0.12969939  1
  O  O296  1  0.87816261  0.13152711  0.63173297  1
  O  O297  1  0.87124570  0.61892381  0.13602628  1
  O  O298  1  0.87523746  0.62091752  0.63792242  1
  O  O299  1  0.26372945  0.24405020  0.12175092  1
  O  O300  1  0.25989328  0.25748167  0.62421833  1
  O  O301  1  0.26307286  0.74903824  0.11701208  1
  O  O302  1  0.25516920  0.75491714  0.61986714  1
  O  O303  1  0.76093531  0.25375695  0.12900238  1
  O  O304  1  0.76225357  0.25566811  0.62615726  1
  O  O305  1  0.74005820  0.75294169  0.11036307  1
  O  O306  1  0.75546333  0.76983945  0.62733404  1
  O  O307  1  0.24536629  0.23610343  0.37360097  1
  O  O308  1  0.25804603  0.23761753  0.87393172  1
  O  O309  1  0.25750857  0.74421597  0.37905907  1
  O  O310  1  0.24234289  0.74550410  0.88026972  1
  O  O311  1  0.73589373  0.24944313  0.37734626  1
  O  O312  1  0.74550756  0.23259477  0.87050748  1
  O  O313  1  0.73860235  0.74173751  0.37208089  1
  O  O314  1  0.73995429  0.73890394  0.88028205  1
  O  O315  1  0.00253664  0.12059235  0.00188558  1
  O  O316  1  0.01292276  0.12259873  0.50590963  1
  O  O317  1  0.00469594  0.61934249  -0.00608208  1
  O  O318  1  0.01121745  0.62802090  0.50179276  1
  O  O319  1  0.50796563  0.12209853  -0.00313317  1
  O  O320  1  0.51009753  0.12027016  0.50725586  1
  O  O321  1  0.50419694  0.61870326  0.01046922  1
  O  O322  1  0.50423782  0.60929554  0.49887018  1
  O  O323  1  0.50481854  0.38481875  0.48773666  1
  O  O324  1  0.48910423  0.38268273  1.00173842  1
  O  O325  1  0.50137558  0.88238879  0.49003690  1
  O  O326  1  0.48573055  0.86831359  0.99420563  1
  O  O327  1  0.98798128  0.36838239  0.49885646  1
  O  O328  1  0.99373429  0.38009803  0.99442514  1
  O  O329  1  0.98176873  0.87884369  0.50994221  1
  O  O330  1  0.99347714  0.88397432  0.99262733  1
  O  O331  1  0.49167914  0.49295683  0.38251243  1
  O  O332  1  0.49112759  0.50007348  0.89199609  1
  O  O333  1  0.50142017  0.99204737  0.37679186  1
  O  O334  1  0.48467384  0.99841702  0.86586580  1
  O  O335  1  0.98537520  0.49462513  0.36669324  1
  O  O336  1  1.00363768  0.48966223  0.88792727  1
  O  O337  1  0.97941988  1.00971201  0.37592428  1
  O  O338  1  1.00543053  0.98683447  0.87622488  1
  O  O339  1  -0.00715659  0.01304601  0.11202327  1
  O  O340  1  0.01083982  0.00684206  0.62516852  1
  O  O341  1  0.00858291  0.49450472  0.11201865  1
  O  O342  1  0.01293116  0.49890567  0.62925160  1
  O  O343  1  0.51589890  -0.00218985  0.13365059  1
  O  O344  1  0.50566572  0.00672932  0.62230825  1
  O  O345  1  0.49247968  0.50811546  0.11694593  1
  O  O346  1  0.49337068  0.49210472  0.60799566  1
  O  O347  1  0.24257436  0.38379886  0.25086669  1
  O  O348  1  0.24414831  0.38010637  0.74361032  1
  O  O349  1  0.26081173  0.89065327  0.25073761  1
  O  O350  1  0.24786653  0.87961143  0.73724707  1
  O  O351  1  0.73938515  0.38287341  0.24938726  1
  O  O352  1  0.74352948  0.37384102  0.74357138  1
  O  O353  1  0.75250482  0.89153320  0.24780983  1
  O  O354  1  0.74472156  0.88078964  0.74497399  1
  O  O355  1  0.26402172  0.11659121  0.25581733  1
  O  O356  1  0.24662942  0.11511371  0.75726584  1
  O  O357  1  0.25634822  0.61782466  0.25840839  1
  O  O358  1  0.25505975  0.62083016  0.76197427  1
  O  O359  1  0.75945670  0.12348695  0.24813194  1
  O  O360  1  0.75461440  0.11835841  0.75706754  1
  O  O361  1  0.75105905  0.61309338  0.26050865  1
  O  O362  1  0.75971295  0.62117809  0.75937258  1
  O  O363  1  0.36976632  0.12138426  0.36988279  1
  O  O364  1  0.36327971  0.11423874  0.88211325  1
  O  O365  1  0.38330690  0.61304827  0.36640718  1
  O  O366  1  0.36814737  0.62038785  0.87187620  1
  O  O367  1  0.86853470  0.12335505  0.36705153  1
  O  O368  1  0.86333399  0.12728380  0.86805597  1
  O  O369  1  0.86755172  0.61618824  0.36755203  1
  O  O370  1  0.86738464  0.62212608  0.86779118  1
  O  O371  1  0.12332848  0.37890956  0.13467824  1
  O  O372  1  0.13103141  0.38379181  0.63018278  1
  O  O373  1  0.10302010  0.87063781  0.17294254  1
  O  O374  1  0.13289900  0.88272256  0.62363525  1
  O  O375  1  0.62071315  0.36777866  0.13907713  1
  O  O376  1  0.63651550  0.36604023  0.63356519  1
  O  O377  1  0.62942154  0.89092249  0.11598059  1
  O  O378  1  0.63628464  0.88031248  0.63065199  1
  O  O379  1  0.12176117  0.25291430  0.25212416  1
  O  O380  1  0.12354714  0.26352402  0.74072722  1
  O  O381  1  0.14702728  0.73987214  0.25824857  1
  O  O382  1  0.11923689  0.75190854  0.75911543  1
  O  O383  1  0.62134362  0.25482544  0.25725781  1
  O  O384  1  0.61390594  0.25843297  0.75241943  1
  O  O385  1  0.61702532  0.74658887  0.26114784  1
  O  O386  1  0.62029036  0.75161397  0.75214157  1
  O  O387  1  0.37377660  0.24304501  0.24091980  1
  O  O388  1  0.38968882  0.25407302  0.73833208  1
  O  O389  1  0.38709402  0.74558311  0.24478234  1
  O  O390  1  0.37386400  0.74205698  0.74192823  1
  O  O391  1  0.87687362  0.24624107  0.24536788  1
  O  O392  1  0.87701352  0.23802366  0.74343672  1
  O  O393  1  0.85171756  0.72800272  0.24306036  1
  O  O394  1  0.88467213  0.73922219  0.75721778  1
  O  O395  1  0.38106555  0.50452467  0.48990248  1
  O  O396  1  0.37765673  0.49509962  0.99999667  1
  O  O397  1  0.38542743  1.00021033  0.49287376  1
  O  O398  1  0.36828952  0.98951149  0.98974536  1
  O  O399  1  0.87273748  0.48957300  0.48957209  1
  O  O400  1  0.88477178  0.49155933  0.99815604  1
  O  O401  1  0.87388006  1.00488406  0.49223068  1
  O  O402  1  0.88571515  0.99423078  0.99509185  1
  O  O403  1  0.11032608  0.00951842  -0.00368848  1
  O  O404  1  0.12664254  0.00628770  0.51166402  1
  O  O405  1  0.12152254  0.49325453  0.01223458  1
  O  O406  1  0.12977903  0.49700336  0.51507565  1
  O  O407  1  0.62710027  0.01074946  0.01148129  1
  O  O408  1  0.62217732  0.00734370  0.50558380  1
  O  O409  1  0.61397879  0.50722446  -0.00081516  1
  O  O410  1  0.61278008  0.50196388  0.49797877  1
  O  O411  1  0.37265050  0.36509408  0.11888218  1
  O  O412  1  0.36475086  0.36712358  0.62839961  1
  O  O413  1  0.38312425  0.86277285  0.11817662  1
  O  O414  1  0.36867257  0.86331710  0.62406629  1
  O  O415  1  0.87334963  0.36778816  0.11608755  1
  O  O416  1  0.87076396  0.36795480  0.62015786  1
  O  O417  1  0.86690410  0.87538913  0.10496984  1
  O  O418  1  0.86393223  0.88401406  0.61597177  1
  O  O419  1  0.13321464  0.12040060  0.38240875  1
  O  O420  1  0.13489452  0.12193543  0.88106598  1
  O  O421  1  0.13008131  0.61905864  0.36718072  1
  O  O422  1  0.13237138  0.63580772  0.87167952  1
  O  O423  1  0.62333829  0.13385314  0.38327786  1
  O  O424  1  0.63407676  0.12333107  0.89051171  1
  O  O425  1  0.63231418  0.63561881  0.37738150  1
  O  O426  1  0.63192342  0.62984620  0.88117778  1
