# generated using pymatgen
data_V85Zn86O256
_symmetry_space_group_name_H-M   'P 1'
_cell_length_a   16.94589194
_cell_length_b   16.94649608
_cell_length_c   16.93774072
_cell_angle_alpha   90.01329194
_cell_angle_beta   90.02363706
_cell_angle_gamma   89.89864119
_symmetry_Int_Tables_number   1
_chemical_formula_structural   V85Zn86O256
_chemical_formula_sum   'V85 Zn86 O256'
_cell_volume   4864.06198478
_cell_formula_units_Z   1
loop_
 _symmetry_equiv_pos_site_id
 _symmetry_equiv_pos_as_xyz
  1  'x, y, z'
loop_
 _atom_site_type_symbol
 _atom_site_label
 _atom_site_symmetry_multiplicity
 _atom_site_fract_x
 _atom_site_fract_y
 _atom_site_fract_z
 _atom_site_occupancy
  V  V0  1  0.49872546  0.38322631  0.87605070  1
  V  V1  1  0.63048126  0.12769365  -0.01404285  1
  V  V2  1  0.11608874  0.50604900  0.12619038  1
  V  V3  1  0.36736324  -0.00201868  0.37795727  1
  V  V4  1  0.49857358  0.24700670  0.24859927  1
  V  V5  1  0.49892048  0.37035620  0.37472356  1
  V  V6  1  -0.00033064  0.24876105  0.25063738  1
  V  V7  1  0.50782741  -0.00088756  -0.00166896  1
  V  V8  1  0.74533655  0.75365402  -0.00772908  1
  V  V9  1  0.00006021  0.12485695  0.11947508  1
  V  V10  1  0.87404409  0.37564826  0.50651183  1
  V  V11  1  0.50375927  0.12374098  0.12302346  1
  V  V12  1  -0.00306832  0.12843884  0.62611026  1
  V  V13  1  0.74899439  0.24817460  -0.01345613  1
  V  V14  1  0.37642603  0.38774040  -0.00370801  1
  V  V15  1  0.00117491  0.62750228  0.62470151  1
  V  V16  1  0.71650651  0.52845156  0.22976021  1
  V  V17  1  0.87067577  0.12323773  0.24861007  1
  V  V18  1  0.37502362  0.24774998  0.62519665  1
  V  V19  1  0.86094269  0.11593892  0.75607660  1
  V  V20  1  0.12316500  0.37170951  0.74919755  1
  V  V21  1  0.37745341  -0.00298872  0.87607055  1
  V  V22  1  0.74872058  0.88558629  0.63190849  1
  V  V23  1  0.62666532  0.24626934  0.37641302  1
  V  V24  1  0.12363935  0.12534382  0.00172369  1
  V  V25  1  0.12159380  0.87921660  0.73974940  1
  V  V26  1  0.37603454  0.50445902  0.37122986  1
  V  V27  1  -0.01364519  0.25141146  0.74493268  1
  V  V28  1  0.88259094  0.62672326  0.23764103  1
  V  V29  1  0.12421188  0.87788788  0.25731445  1
  V  V30  1  0.00131260  0.74530522  0.24029390  1
  V  V31  1  0.00409097  -0.00075190  0.50569822  1
  V  V32  1  0.12498270  0.37300488  0.24888079  1
  V  V33  1  0.00296991  0.86250351  0.38156728  1
  V  V34  1  0.06632600  -0.04855042  0.06695918  1
  V  V35  1  0.51890763  0.51304096  0.01031290  1
  V  V36  1  0.37855127  0.87431793  -0.00107715  1
  V  V37  1  0.24849108  0.76258162  0.49712255  1
  V  V38  1  0.87530495  0.62553056  0.75265766  1
  V  V39  1  0.37363167  0.12414383  0.75061580  1
  V  V40  1  0.25816950  0.50155638  0.75324364  1
  V  V41  1  0.11879197  0.62359812  -0.00124652  1
  V  V42  1  0.87837266  -0.01329223  0.88564136  1
  V  V43  1  0.12020293  0.75663129  0.87203234  1
  V  V44  1  0.12404960  0.50128784  0.62334030  1
  V  V45  1  0.73371137  0.51471370  0.75886536  1
  V  V46  1  0.87130770  0.75226721  0.62923138  1
  V  V47  1  0.25355996  0.74756528  -0.00059940  1
  V  V48  1  0.39355368  0.74797174  0.12985688  1
  V  V49  1  0.75385605  0.25090901  0.50696273  1
  V  V50  1  0.36674636  0.12229408  0.25254099  1
  V  V51  1  0.62424042  0.62603379  0.49895748  1
  V  V52  1  0.37618336  0.24913576  0.12206608  1
  V  V53  1  0.74879925  0.36992404  0.12815726  1
  V  V54  1  0.24933291  0.24556617  0.49671472  1
  V  V55  1  0.87596935  -0.00207748  0.37647498  1
  V  V56  1  0.87302885  0.49871051  0.37068091  1
  V  V57  1  0.37287666  0.76876934  0.61558425  1
  V  V58  1  0.13001811  0.24366652  0.37451131  1
  V  V59  1  0.62608314  0.87696686  0.76039870  1
  V  V60  1  -0.00098084  0.37818512  0.87763392  1
  V  V61  1  0.24873868  0.12271996  0.87416137  1
  V  V62  1  0.75748551  0.87045221  0.13724205  1
  V  V63  1  0.25011278  -0.00851880  0.73774411  1
  V  V64  1  0.49114935  0.62736184  0.62239106  1
  V  V65  1  0.62513437  0.36900419  0.75350593  1
  V  V66  1  0.75266490  0.62826210  0.37552385  1
  V  V67  1  0.24837907  0.37347672  0.62243474  1
  V  V68  1  0.25006382  0.37574256  0.12207930  1
  V  V69  1  0.62376714  0.49532845  0.62118887  1
  V  V70  1  0.87105999  0.50384945  0.87770276  1
  V  V71  1  0.63771342  -0.00134937  0.13636682  1
  V  V72  1  0.50009374  -0.00677876  0.50531903  1
  V  V73  1  0.62465795  0.76045897  0.36459274  1
  V  V74  1  0.37295566  0.37179158  0.49719491  1
  V  V75  1  0.62509770  0.37358499  0.24685023  1
  V  V76  1  0.50272556  0.87753677  0.36130224  1
  V  V77  1  0.25212454  0.24982364  -0.00332076  1
  V  V78  1  0.75153895  0.11982567  0.37450564  1
  V  V79  1  0.12929329  0.11967931  0.50186532  1
  V  V80  1  0.49943436  0.49706070  0.49669421  1
  V  V81  1  0.74829820  0.75424482  0.50393231  1
  V  V82  1  0.25168488  0.88077266  0.12490548  1
  V  V83  1  0.50015678  0.24714978  0.75808115  1
  V  V84  1  0.24996428  0.50412352  0.24983669  1
  Zn  Zn85  1  0.51260202  0.85968760  0.88382459  1
  Zn  Zn86  1  0.25266485  0.61931849  0.87838528  1
  Zn  Zn87  1  0.63090068  0.00482019  0.62897828  1
  Zn  Zn88  1  -0.00075210  0.50104075  0.49774697  1
  Zn  Zn89  1  0.12419328  0.63607406  0.49554238  1
  Zn  Zn90  1  0.12166594  0.24758877  0.87281044  1
  Zn  Zn91  1  0.71093557  0.62151701  0.90370161  1
  Zn  Zn92  1  -0.00390805  0.75944047  0.75609084  1
  Zn  Zn93  1  0.37594648  0.62968125  0.75539393  1
  Zn  Zn94  1  0.75169546  0.37500509  0.62943568  1
  Zn  Zn95  1  0.88240815  0.86979590  0.00402959  1
  Zn  Zn96  1  0.50250998  0.12513976  0.62411830  1
  Zn  Zn97  1  0.87478557  0.87766007  0.50455360  1
  Zn  Zn98  1  0.24163147  0.00418023  0.25073416  1
  Zn  Zn99  1  0.87437614  0.37613074  0.00295995  1
  Zn  Zn100  1  0.24039814  0.63768591  0.37510501  1
  Zn  Zn101  1  0.49940193  0.74951895  0.75619008  1
  Zn  Zn102  1  0.37982374  0.63040612  0.24340352  1
  Zn  Zn103  1  0.62472244  0.12349504  0.50361373  1
  Zn  Zn104  1  -0.00496424  0.50423475  0.00532522  1
  Zn  Zn105  1  0.87365002  0.24868064  0.12190042  1
  Zn  Zn106  1  -0.00127860  0.37417227  0.37705421  1
  Zn  Zn107  1  0.18643899  0.18618282  0.18213195  1
  Zn  Zn108  1  0.18422489  0.18449027  0.68501627  1
  Zn  Zn109  1  0.18883626  0.68922507  0.18805887  1
  Zn  Zn110  1  0.19206149  0.69181731  0.68161698  1
  Zn  Zn111  1  0.68785772  0.18540477  0.18392491  1
  Zn  Zn112  1  0.68521226  0.18814406  0.68572938  1
  Zn  Zn113  1  0.68941663  0.69835742  0.18434217  1
  Zn  Zn114  1  0.67336047  0.67930472  0.70892061  1
  Zn  Zn115  1  0.31019700  0.31213948  0.31024050  1
  Zn  Zn116  1  0.31279882  0.31426627  0.81431059  1
  Zn  Zn117  1  0.31492875  0.81763356  0.31386980  1
  Zn  Zn118  1  0.31759946  0.80788245  0.81166325  1
  Zn  Zn119  1  0.81143467  0.31113521  0.31392766  1
  Zn  Zn120  1  0.81221031  0.31862771  0.81076350  1
  Zn  Zn121  1  0.81679457  0.81179798  0.31303657  1
  Zn  Zn122  1  0.80800796  0.81387031  0.81836303  1
  Zn  Zn123  1  0.18300265  0.44197031  0.43302363  1
  Zn  Zn124  1  0.18470748  0.43744677  0.93677175  1
  Zn  Zn125  1  0.18758839  0.93388862  0.44051654  1
  Zn  Zn126  1  0.19353818  0.93206903  0.92777371  1
  Zn  Zn127  1  0.69022426  0.43839583  0.43003164  1
  Zn  Zn128  1  0.68512351  0.43182934  0.93835285  1
  Zn  Zn129  1  0.68562561  0.93875526  0.44070942  1
  Zn  Zn130  1  0.70105077  0.94290000  0.93777243  1
  Zn  Zn131  1  0.31380757  0.06135959  0.06283002  1
  Zn  Zn132  1  0.31645436  0.06119880  0.56014719  1
  Zn  Zn133  1  0.31318143  0.56740200  0.06484499  1
  Zn  Zn134  1  0.30784773  0.56518820  0.55574217  1
  Zn  Zn135  1  0.81444034  0.05979963  0.05479033  1
  Zn  Zn136  1  0.81862249  0.06803021  0.56346887  1
  Zn  Zn137  1  0.80931811  0.56479265  0.06123053  1
  Zn  Zn138  1  0.81105424  0.56238281  0.56456676  1
  Zn  Zn139  1  0.43955256  0.43817992  0.18384117  1
  Zn  Zn140  1  0.43875931  0.43419765  0.68346373  1
  Zn  Zn141  1  0.43778997  0.93962006  0.18559945  1
  Zn  Zn142  1  0.44225893  0.93591845  0.69139784  1
  Zn  Zn143  1  0.93308152  0.43644451  0.18946813  1
  Zn  Zn144  1  0.93486599  0.44235635  0.68944793  1
  Zn  Zn145  1  0.93151818  0.93357756  0.19716181  1
  Zn  Zn146  1  0.93804596  0.94179397  0.68999253  1
  Zn  Zn147  1  0.06044236  0.05990112  0.31586812  1
  Zn  Zn148  1  0.06055579  0.05900177  0.81279450  1
  Zn  Zn149  1  0.06157030  0.56154251  0.31588175  1
  Zn  Zn150  1  0.06449041  0.56461382  0.81247614  1
  Zn  Zn151  1  0.55872215  0.06188020  0.31408264  1
  Zn  Zn152  1  0.56554076  0.05695734  0.81024360  1
  Zn  Zn153  1  0.56520844  0.58905846  0.28195404  1
  Zn  Zn154  1  0.55139371  0.55865739  0.81050608  1
  Zn  Zn155  1  0.43717961  0.17991836  0.43730512  1
  Zn  Zn156  1  0.43950535  0.18802183  0.93629857  1
  Zn  Zn157  1  0.44233561  0.68209996  0.41838535  1
  Zn  Zn158  1  0.43665641  0.68087886  0.93375769  1
  Zn  Zn159  1  0.93839580  0.18932492  0.43817595  1
  Zn  Zn160  1  0.93524759  0.18942897  0.93437571  1
  Zn  Zn161  1  0.93532478  0.68615485  0.44187876  1
  Zn  Zn162  1  0.93279078  0.69224472  0.94120257  1
  Zn  Zn163  1  0.06247296  0.31200995  0.06141704  1
  Zn  Zn164  1  0.05918569  0.31162363  0.56122729  1
  Zn  Zn165  1  0.06704459  0.78928939  0.06874173  1
  Zn  Zn166  1  0.06478133  0.81353163  0.56709943  1
  Zn  Zn167  1  0.56530593  0.31388198  0.05968522  1
  Zn  Zn168  1  0.56264874  0.30778765  0.56393066  1
  Zn  Zn169  1  0.57112179  0.81707240  0.06577405  1
  Zn  Zn170  1  0.56323772  0.81498103  0.56444053  1
  O  O171  1  0.11857463  0.12291842  0.11153537  1
  O  O172  1  0.11304978  0.12911015  0.61181792  1
  O  O173  1  0.13014906  0.61588547  0.11682252  1
  O  O174  1  0.11703628  0.61749070  0.62730766  1
  O  O175  1  0.62200618  0.11607265  0.11684318  1
  O  O176  1  0.62078519  0.12168901  0.62240738  1
  O  O177  1  0.63809599  0.59806079  0.19188982  1
  O  O178  1  0.61310514  0.61633878  0.61913014  1
  O  O179  1  0.37921603  0.37738472  0.37869483  1
  O  O180  1  0.38389936  0.37168129  0.88505471  1
  O  O181  1  0.39070898  0.88554778  0.36971071  1
  O  O182  1  0.37547451  0.88156943  0.88385972  1
  O  O183  1  0.87246274  0.38431164  0.38038314  1
  O  O184  1  0.88157651  0.38794798  0.87518295  1
  O  O185  1  0.88253913  0.88321054  0.37956799  1
  O  O186  1  0.87989764  0.88117373  0.87801662  1
  O  O187  1  0.26358435  -0.00785353  0.37237472  1
  O  O188  1  0.25954563  0.00731916  0.86974643  1
  O  O189  1  0.25938208  0.48325914  0.35668318  1
  O  O190  1  0.24265506  0.49560944  0.85579881  1
  O  O191  1  0.75757707  0.01256757  0.38285489  1
  O  O192  1  0.77538418  0.00552809  0.87889583  1
  O  O193  1  0.75074456  0.51285242  0.35899604  1
  O  O194  1  0.75718153  0.50358861  0.87709041  1
  O  O195  1  0.24572038  0.49645020  0.13505966  1
  O  O196  1  0.24233534  0.49205728  0.63093142  1
  O  O197  1  0.25497316  0.98532473  0.12673305  1
  O  O198  1  0.25483222  1.00362460  0.63970779  1
  O  O199  1  0.75315870  0.49211920  0.13846074  1
  O  O200  1  0.73328565  0.50196812  0.63002829  1
  O  O201  1  0.74197609  0.99659032  0.12229360  1
  O  O202  1  0.75491378  0.98787218  0.61666570  1
  O  O203  1  0.00440915  0.36136257  0.24884409  1
  O  O204  1  0.00406588  0.37019261  0.75351004  1
  O  O205  1  0.00325968  0.86432093  0.25961995  1
  O  O206  1  0.01643007  0.87713800  0.74589384  1
  O  O207  1  0.50458219  0.36563062  0.25398708  1
  O  O208  1  0.50179499  0.36929388  0.75798109  1
  O  O209  1  0.50420897  0.88325227  0.26216581  1
  O  O210  1  0.51203858  0.87546355  0.75724458  1
  O  O211  1  0.49122410  0.12940158  0.24285004  1
  O  O212  1  0.49330101  0.13192954  0.75190731  1
  O  O213  1  0.47091471  0.63371554  0.30943014  1
  O  O214  1  0.49486218  0.62542287  0.73562688  1
  O  O215  1  0.99568304  0.13180018  0.24177197  1
  O  O216  1  1.00230629  0.13574554  0.74198409  1
  O  O217  1  0.99836954  0.63826338  0.25825878  1
  O  O218  1  0.99213009  0.62606261  0.74030477  1
  O  O219  1  0.37042038  0.25601768  0.00436360  1
  O  O220  1  0.36925655  0.25199148  0.50233913  1
  O  O221  1  0.36954442  0.75542126  0.01136725  1
  O  O222  1  0.36911442  0.74465980  0.51112708  1
  O  O223  1  0.86269109  0.25278798  0.00110604  1
  O  O224  1  0.86589392  0.26199610  0.49165835  1
  O  O225  1  0.86220754  0.75535039  -0.00047379  1
  O  O226  1  0.86387768  0.75113831  0.50902967  1
  O  O227  1  0.12861560  0.24421152  0.49157531  1
  O  O228  1  0.13253769  0.24166174  0.99747808  1
  O  O229  1  0.14171683  0.75345029  0.50806732  1
  O  O230  1  0.13344480  0.74309558  0.99149268  1
  O  O231  1  0.63235173  0.24739248  0.49085546  1
  O  O232  1  0.63818820  0.24194633  1.00356524  1
  O  O233  1  0.63573821  0.74631354  0.49785621  1
  O  O234  1  0.64377073  0.75357483  1.00781167  1
  O  O235  1  0.49617627  0.24492094  0.12861786  1
  O  O236  1  0.49103285  0.25082830  0.63713585  1
  O  O237  1  0.49225596  0.75679669  0.12626948  1
  O  O238  1  0.48926662  0.74229084  0.61993393  1
  O  O239  1  0.99874588  0.24153367  0.13239362  1
  O  O240  1  1.00179203  0.24280398  0.63344783  1
  O  O241  1  0.99207833  0.74892641  0.14139027  1
  O  O242  1  0.98861788  0.74532880  0.62767515  1
  O  O243  1  0.00998158  0.24975545  0.36637677  1
  O  O244  1  0.00024663  0.26278367  0.86625273  1
  O  O245  1  -0.00270912  0.76002345  0.37686118  1
  O  O246  1  0.01609343  0.74278467  0.87270175  1
  O  O247  1  0.50760572  0.25024161  0.36993355  1
  O  O248  1  0.49545385  0.25925087  0.86307005  1
  O  O249  1  0.51079394  0.77205503  0.38648377  1
  O  O250  1  0.49763730  0.74905059  0.87115673  1
  O  O251  1  0.24057981  0.13186778  0.50567826  1
  O  O252  1  0.24293596  0.12750284  0.99540810  1
  O  O253  1  0.24253459  0.64013754  0.50415909  1
  O  O254  1  0.24093372  0.63310536  1.00143848  1
  O  O255  1  0.75221284  0.13408531  0.49215741  1
  O  O256  1  0.74525943  0.13981520  1.00360308  1
  O  O257  1  0.74518798  0.63209854  0.49495111  1
  O  O258  1  0.74830793  0.64131884  1.00688775  1
  O  O259  1  0.25717137  0.37144360  0.00163414  1
  O  O260  1  0.25302699  0.36673754  0.50322412  1
  O  O261  1  0.25728619  0.86999557  0.00577660  1
  O  O262  1  0.25261197  0.86325328  0.50159138  1
  O  O263  1  0.74794921  0.36468439  0.00953376  1
  O  O264  1  0.75607780  0.36837288  0.49729407  1
  O  O265  1  0.75320242  0.86706737  0.00934527  1
  O  O266  1  0.75203011  0.86747103  0.50792667  1
  O  O267  1  0.13138693  0.49449913  0.24281331  1
  O  O268  1  0.12879651  0.48939185  0.74050588  1
  O  O269  1  0.12342618  0.98574241  0.25376084  1
  O  O270  1  0.13794598  0.98972539  0.75614130  1
  O  O271  1  0.62232030  0.47778796  0.27095895  1
  O  O272  1  0.61567535  0.48175420  0.73644275  1
  O  O273  1  0.62465531  1.01069501  0.23405708  1
  O  O274  1  0.62306812  0.98541392  0.74408224  1
  O  O275  1  0.37314539  0.00738406  0.25539453  1
  O  O276  1  0.36711356  0.00327398  0.75488124  1
  O  O277  1  0.36937175  0.50075529  0.25464371  1
  O  O278  1  0.35930586  0.49387152  0.74285836  1
  O  O279  1  0.88243902  0.01029087  0.26702468  1
  O  O280  1  0.87329840  0.01257600  0.75264209  1
  O  O281  1  0.87727782  0.50905143  0.26135398  1
  O  O282  1  0.86467528  0.50705401  0.75820420  1
  O  O283  1  0.12113355  0.36649841  0.36572550  1
  O  O284  1  0.11621990  0.37381292  0.86644084  1
  O  O285  1  0.11514410  0.87627145  0.36890018  1
  O  O286  1  0.12845629  0.86512984  0.86404451  1
  O  O287  1  0.62180646  0.35963253  0.37128181  1
  O  O288  1  0.61345783  0.37653752  0.86489300  1
  O  O289  1  0.61639844  0.87315997  0.37715737  1
  O  O290  1  0.63085094  0.88295613  0.86416950  1
  O  O291  1  0.38337013  0.12967756  0.12876325  1
  O  O292  1  0.37666478  0.13246372  0.63283791  1
  O  O293  1  0.37523042  0.64323369  0.12543268  1
  O  O294  1  0.38682241  0.61873813  0.62288869  1
  O  O295  1  0.88271184  0.12343622  0.13207018  1
  O  O296  1  0.88841134  0.12368478  0.63739046  1
  O  O297  1  0.87859759  0.61501759  0.13923446  1
  O  O298  1  0.88475677  0.63154477  0.62678799  1
  O  O299  1  0.25517087  0.25519109  0.11616726  1
  O  O300  1  0.25492077  0.25483717  0.61980850  1
  O  O301  1  0.24625242  0.76235374  0.11289951  1
  O  O302  1  0.26589424  0.75068709  0.61649828  1
  O  O303  1  0.75250340  0.25803978  0.12055578  1
  O  O304  1  0.74671043  0.25440414  0.61027757  1
  O  O305  1  0.75214254  0.76601162  0.12206745  1
  O  O306  1  0.75998064  0.75599099  0.62037912  1
  O  O307  1  0.23716180  0.25133108  0.37750267  1
  O  O308  1  0.24736347  0.24118739  0.87899346  1
  O  O309  1  0.26051598  0.75202743  0.39047929  1
  O  O310  1  0.24418837  0.75271270  0.88801795  1
  O  O311  1  0.74359512  0.24021450  0.38061215  1
  O  O312  1  0.75030476  0.25911109  0.88812980  1
  O  O313  1  0.74737886  0.74836226  0.38479208  1
  O  O314  1  0.74684372  0.74386707  0.88724839  1
  O  O315  1  0.00560817  0.13233942  0.01131804  1
  O  O316  1  0.00396712  0.11973563  0.50621503  1
  O  O317  1  0.01449622  0.62482067  -0.00368205  1
  O  O318  1  0.00369700  0.62371967  0.51183402  1
  O  O319  1  0.50806453  0.12014104  0.00481451  1
  O  O320  1  0.50334742  0.11224373  0.49989629  1
  O  O321  1  0.49843362  0.61028315  0.00117393  1
  O  O322  1  0.50626308  0.61683896  0.50088779  1
  O  O323  1  0.49365316  0.37522652  0.49457542  1
  O  O324  1  0.49479124  0.37827359  0.99216807  1
  O  O325  1  0.50422170  0.89039522  0.49357799  1
  O  O326  1  0.49865839  0.88390672  1.00124971  1
  O  O327  1  0.98843761  0.37666683  0.49755912  1
  O  O328  1  0.99827631  0.37723747  0.99003240  1
  O  O329  1  0.99990412  0.88180978  0.49760743  1
  O  O330  1  1.01135204  0.88190075  1.01773610  1
  O  O331  1  0.48977188  0.48569051  0.38180719  1
  O  O332  1  0.50021321  0.48981625  0.88685476  1
  O  O333  1  0.49654294  0.99246841  0.38227135  1
  O  O334  1  0.49573040  0.99909869  0.88787832  1
  O  O335  1  0.98687569  0.49563245  0.37789329  1
  O  O336  1  0.99482503  0.49089778  0.87344724  1
  O  O337  1  0.99354849  0.99207323  0.38622357  1
  O  O338  1  0.97820675  1.00921699  0.86871284  1
  O  O339  1  0.00244869  0.00533917  0.12911669  1
  O  O340  1  -0.00299495  0.00724932  0.61214756  1
  O  O341  1  0.01296507  0.49344016  0.12597197  1
  O  O342  1  0.00597163  0.50914946  0.62501866  1
  O  O343  1  0.50977780  0.00303164  0.11473306  1
  O  O344  1  0.49578080  0.00190006  0.61284971  1
  O  O345  1  0.50349905  0.49314276  0.10932404  1
  O  O346  1  0.50715672  0.50233585  0.61588026  1
  O  O347  1  0.24373703  0.37843190  0.23936171  1
  O  O348  1  0.24169223  0.38007342  0.74431121  1
  O  O349  1  0.23907220  0.87376773  0.24187973  1
  O  O350  1  0.24627917  0.88771632  0.75468754  1
  O  O351  1  0.74049175  0.37263356  0.24382973  1
  O  O352  1  0.73884443  0.38635587  0.75063995  1
  O  O353  1  0.75621491  0.87352524  0.23760769  1
  O  O354  1  0.74006102  0.87002658  0.74223284  1
  O  O355  1  0.26189800  0.12253221  0.24044023  1
  O  O356  1  0.25115509  0.11596327  0.75561538  1
  O  O357  1  0.25518300  0.61768429  0.25361265  1
  O  O358  1  0.24854267  0.60779716  0.74366617  1
  O  O359  1  0.76333980  0.13180828  0.25739099  1
  O  O360  1  0.76371628  0.13250805  0.74569915  1
  O  O361  1  0.76650054  0.63070563  0.25889471  1
  O  O362  1  0.77321484  0.62366732  0.72773977  1
  O  O363  1  0.37936776  0.11373879  0.36230604  1
  O  O364  1  0.36982399  0.11835777  0.87005537  1
  O  O365  1  0.35474618  0.60246711  0.39560915  1
  O  O366  1  0.36386591  0.62580590  0.86835109  1
  O  O367  1  0.87038866  0.12038182  0.36913180  1
  O  O368  1  0.87829044  0.12849316  0.85723074  1
  O  O369  1  0.86532725  0.61837375  0.37673370  1
  O  O370  1  0.88206962  0.61441150  0.86642199  1
  O  O371  1  0.13140065  0.38116897  0.12842048  1
  O  O372  1  0.12754384  0.37863720  0.63234557  1
  O  O373  1  0.12660766  0.88293387  0.12566637  1
  O  O374  1  0.13009838  0.87457526  0.64096116  1
  O  O375  1  0.63392525  0.37007035  0.13599791  1
  O  O376  1  0.62606992  0.38068876  0.62830897  1
  O  O377  1  0.63924488  0.89144696  0.12515163  1
  O  O378  1  0.63499415  0.88049055  0.62942823  1
  O  O379  1  0.11939681  0.24968448  0.25470839  1
  O  O380  1  0.11943132  0.26151732  0.74988057  1
  O  O381  1  0.11272581  0.76093787  0.24459665  1
  O  O382  1  0.12953741  0.76200923  0.75480927  1
  O  O383  1  0.62024341  0.25417212  0.25655132  1
  O  O384  1  0.61524855  0.26095714  0.74392165  1
  O  O385  1  0.62821797  0.75338617  0.26563932  1
  O  O386  1  0.61759473  0.77118032  0.73982192  1
  O  O387  1  0.37864887  0.24239629  0.24392785  1
  O  O388  1  0.37981429  0.24481103  0.74618696  1
  O  O389  1  0.36845639  0.75531468  0.23089914  1
  O  O390  1  0.37535657  0.74902485  0.73088747  1
  O  O391  1  0.88451883  0.24149062  0.25091324  1
  O  O392  1  0.88353791  0.24854712  0.75018638  1
  O  O393  1  0.89119223  0.74016190  0.26011240  1
  O  O394  1  0.87709613  0.74463957  0.74590325  1
  O  O395  1  0.37718148  0.48703372  0.49556277  1
  O  O396  1  0.37542716  0.48896996  1.00665801  1
  O  O397  1  0.38695111  1.00589218  0.48899263  1
  O  O398  1  0.38602574  0.99492973  0.99751966  1
  O  O399  1  0.86954267  0.49392200  0.48853384  1
  O  O400  1  0.87678742  0.49893659  0.99298448  1
  O  O401  1  0.88423872  1.00162705  0.49084458  1
  O  O402  1  0.88194143  0.99289995  0.99230861  1
  O  O403  1  0.12514785  0.00272073  -0.00131106  1
  O  O404  1  0.11809867  0.00897589  0.49448291  1
  O  O405  1  0.12511084  0.50702269  0.00818710  1
  O  O406  1  0.12208171  0.49113548  0.51717493  1
  O  O407  1  0.62251788  0.00763824  0.00555184  1
  O  O408  1  0.61240454  0.00343675  0.50270506  1
  O  O409  1  0.61959501  0.50556064  -0.00301067  1
  O  O410  1  0.62103342  0.50272647  0.50225870  1
  O  O411  1  0.36973780  0.36742713  0.11765384  1
  O  O412  1  0.36889829  0.36675627  0.61714023  1
  O  O413  1  0.36946462  0.86810395  0.11912138  1
  O  O414  1  0.38140709  0.86689117  0.62080513  1
  O  O415  1  0.86289878  0.37224180  0.12528761  1
  O  O416  1  0.86974344  0.38598935  0.61141255  1
  O  O417  1  0.86094037  0.88670681  0.12313001  1
  O  O418  1  0.86960199  0.86758330  0.62757246  1
  O  O419  1  0.11899865  0.13257661  0.38665804  1
  O  O420  1  0.12798877  0.12456850  0.88617645  1
  O  O421  1  0.13644747  0.59598224  0.38846918  1
  O  O422  1  0.13338973  0.63042112  0.88047618  1
  O  O423  1  0.63330402  0.13245533  0.37313163  1
  O  O424  1  0.62124190  0.12243691  0.88678216  1
  O  O425  1  0.63927904  0.63527320  0.37962099  1
  O  O426  1  0.65524142  0.60470263  0.80904007  1
