# generated using pymatgen
data_V85Zn86O256
_symmetry_space_group_name_H-M   'P 1'
_cell_length_a   16.95474018
_cell_length_b   16.95699433
_cell_length_c   16.95712412
_cell_angle_alpha   90.02548166
_cell_angle_beta   89.99677271
_cell_angle_gamma   89.88125774
_symmetry_Int_Tables_number   1
_chemical_formula_structural   V85Zn86O256
_chemical_formula_sum   'V85 Zn86 O256'
_cell_volume   4875.18652588
_cell_formula_units_Z   1
loop_
 _symmetry_equiv_pos_site_id
 _symmetry_equiv_pos_as_xyz
  1  'x, y, z'
loop_
 _atom_site_type_symbol
 _atom_site_label
 _atom_site_symmetry_multiplicity
 _atom_site_fract_x
 _atom_site_fract_y
 _atom_site_fract_z
 _atom_site_occupancy
  V  V0  1  0.12469013  0.12392104  -0.00256795  1
  V  V1  1  -0.00612126  -0.00289963  0.00005646  1
  V  V2  1  0.62988635  0.48450581  0.62485188  1
  V  V3  1  0.74781806  0.24742331  -0.01095634  1
  V  V4  1  0.37210683  0.00219795  0.87605564  1
  V  V5  1  0.62554494  0.62755711  0.50497070  1
  V  V6  1  0.87041759  0.01593345  0.87843085  1
  V  V7  1  0.74955466  0.48580746  0.74496468  1
  V  V8  1  0.24845545  0.24443287  0.49520584  1
  V  V9  1  -0.00071442  0.62535409  0.62441186  1
  V  V10  1  0.12482483  0.37122608  0.75073904  1
  V  V11  1  0.74124233  0.37713321  0.12414830  1
  V  V12  1  -0.00078228  0.12774739  0.12286921  1
  V  V13  1  0.24428706  0.87283163  0.13604792  1
  V  V14  1  0.87193348  0.62548374  0.74896905  1
  V  V15  1  0.62116454  0.35671893  0.25244026  1
  V  V16  1  0.56937255  0.05507646  0.67883236  1
  V  V17  1  0.37392023  0.87459602  0.00269022  1
  V  V18  1  0.50117140  0.36038762  0.37455268  1
  V  V19  1  0.62265184  0.87254798  0.25164729  1
  V  V20  1  0.00015404  0.37147185  0.38005582  1
  V  V21  1  0.11150552  0.00599667  0.62019920  1
  V  V22  1  -0.00640985  0.49960455  0.49977531  1
  V  V23  1  0.73699355  0.49972690  0.24681190  1
  V  V24  1  0.12132447  0.50059973  0.12583304  1
  V  V25  1  0.49812847  0.13894974  0.12890209  1
  V  V26  1  -0.01284760  0.87502183  0.87837505  1
  V  V27  1  0.87575585  0.27256395  0.61633004  1
  V  V28  1  0.38282160  -0.00338778  0.37113884  1
  V  V29  1  0.25104612  0.62217278  0.87804199  1
  V  V30  1  0.12306364  -0.00435473  0.12545922  1
  V  V31  1  0.38621291  0.24225229  0.62819308  1
  V  V32  1  0.62940246  0.12518707  -0.00258357  1
  V  V33  1  0.11239651  0.12899386  0.49916614  1
  V  V34  1  0.37651613  0.13789293  0.24875804  1
  V  V35  1  0.38460174  0.36989208  -0.01166540  1
  V  V36  1  0.75161872  0.75607972  0.49799434  1
  V  V37  1  0.24952106  0.75212612  0.50078015  1
  V  V38  1  0.62676570  0.87614141  0.74261226  1
  V  V39  1  0.62309321  -0.00355830  0.12655085  1
  V  V40  1  0.37470557  0.37726162  0.50090058  1
  V  V41  1  0.49788094  0.75089280  0.74917638  1
  V  V42  1  0.87304095  0.25379693  0.12541141  1
  V  V43  1  0.12357912  0.49868621  0.62315671  1
  V  V44  1  0.88984398  0.88145494  0.49375755  1
  V  V45  1  0.74936261  0.62530756  0.87289385  1
  V  V46  1  0.11703152  0.74811480  0.37352542  1
  V  V47  1  0.62358478  0.75200137  0.37360750  1
  V  V48  1  0.24851226  0.00476906  0.74616926  1
  V  V49  1  0.49810661  0.75136819  0.25460981  1
  V  V50  1  0.87645180  0.62534262  0.23500165  1
  V  V51  1  0.06499105  0.92132963  0.30896098  1
  V  V52  1  0.75212674  0.00705860  0.74602730  1
  V  V53  1  0.50228887  0.87856191  0.87645616  1
  V  V54  1  0.87890379  0.12626590  0.73023704  1
  V  V55  1  0.76103071  0.87175119  0.12102694  1
  V  V56  1  0.75893517  0.75315252  0.00227760  1
  V  V57  1  0.62039715  0.61648483  0.00372674  1
  V  V58  1  0.12350124  0.75117991  0.87472266  1
  V  V59  1  0.25199668  0.37229913  0.62329771  1
  V  V60  1  0.75328758  0.00022836  0.25381349  1
  V  V61  1  0.00140368  0.25373604  0.25187931  1
  V  V62  1  0.12292472  0.87840768  0.75000005  1
  V  V63  1  0.25178153  0.24760300  0.00355113  1
  V  V64  1  0.74571675  0.26243358  0.49749706  1
  V  V65  1  0.25310659  0.49971916  0.75113707  1
  V  V66  1  0.49733777  0.50054052  0.49510819  1
  V  V67  1  0.37676612  0.61558508  0.25586407  1
  V  V68  1  0.38501547  0.87520937  0.49713395  1
  V  V69  1  0.24852216  0.74987605  0.00025247  1
  V  V70  1  0.62426329  0.12114981  0.48400270  1
  V  V71  1  0.25000943  0.49823880  0.25537080  1
  V  V72  1  0.37650015  0.74672944  0.12738714  1
  V  V73  1  0.11891390  0.62281479  0.00352769  1
  V  V74  1  0.00094851  0.37507001  0.87844809  1
  V  V75  1  0.26037615  0.36972474  0.12676246  1
  V  V76  1  0.12744450  0.37091180  0.25427563  1
  V  V77  1  0.56547089  0.31295830  0.81137066  1
  V  V78  1  -0.00130480  0.75025627  0.75047830  1
  V  V79  1  0.87420964  0.49781104  0.37302293  1
  V  V80  1  0.00152668  0.74065214  0.23649672  1
  V  V81  1  0.75199985  0.62576251  0.37250363  1
  V  V82  1  0.25199475  0.61987003  0.37871603  1
  V  V83  1  0.49991122  0.00004231  0.00392376  1
  V  V84  1  0.87433082  0.75213007  0.62290667  1
  Zn  Zn85  1  0.39668357  0.50421370  0.88695516  1
  Zn  Zn86  1  0.12526455  0.24790699  0.87285911  1
  Zn  Zn87  1  0.25170185  -0.00040994  0.25351405  1
  Zn  Zn88  1  0.88359676  -0.00100012  0.37666570  1
  Zn  Zn89  1  0.87468668  0.12521238  0.25338006  1
  Zn  Zn90  1  0.50462403  0.00069204  0.50151262  1
  Zn  Zn91  1  0.25164893  0.12608065  0.87472396  1
  Zn  Zn92  1  0.74832214  0.88092354  0.62116076  1
  Zn  Zn93  1  0.75465383  0.13124404  0.37247853  1
  Zn  Zn94  1  0.12452584  0.62529450  0.50061818  1
  Zn  Zn95  1  0.24917962  0.87766010  0.62265023  1
  Zn  Zn96  1  -0.00576235  0.50117341  0.00441145  1
  Zn  Zn97  1  0.00376033  0.24451939  0.74265039  1
  Zn  Zn98  1  0.37495974  0.62840990  0.75162356  1
  Zn  Zn99  1  0.38568876  0.12465726  0.74699664  1
  Zn  Zn100  1  0.87433908  0.49770474  0.87595111  1
  Zn  Zn101  1  0.87353289  0.37733811  -0.00165178  1
  Zn  Zn102  1  0.62537153  0.75368986  0.87877858  1
  Zn  Zn103  1  0.49787112  0.62614230  0.62593541  1
  Zn  Zn104  1  0.37346862  0.74942050  0.62499041  1
  Zn  Zn105  1  0.51225444  0.61213179  0.12938602  1
  Zn  Zn106  1  0.25059907  0.12522506  0.37478539  1
  Zn  Zn107  1  0.18881987  0.18605688  0.18735865  1
  Zn  Zn108  1  0.19085319  0.18579407  0.68210780  1
  Zn  Zn109  1  0.18750584  0.68538190  0.18872001  1
  Zn  Zn110  1  0.18615085  0.68643115  0.68749055  1
  Zn  Zn111  1  0.68859930  0.18447835  0.18326263  1
  Zn  Zn112  1  0.69830806  0.19581517  0.68521166  1
  Zn  Zn113  1  0.68961076  0.68723687  0.18256169  1
  Zn  Zn114  1  0.68674920  0.69172045  0.68770365  1
  Zn  Zn115  1  0.31605555  0.31382458  0.31966559  1
  Zn  Zn116  1  0.31238046  0.30672616  0.81230795  1
  Zn  Zn117  1  0.31206823  0.81059658  0.31850836  1
  Zn  Zn118  1  0.31094704  0.81626812  0.81256480  1
  Zn  Zn119  1  0.81227780  0.31474887  0.31432580  1
  Zn  Zn120  1  0.81690403  0.30856760  0.81050384  1
  Zn  Zn121  1  0.81742576  0.81369591  0.31040969  1
  Zn  Zn122  1  0.80949361  0.81451513  0.81385254  1
  Zn  Zn123  1  0.18442184  0.43658320  0.43883105  1
  Zn  Zn124  1  0.19113099  0.43651374  0.93908122  1
  Zn  Zn125  1  0.19709655  0.94533152  0.44329283  1
  Zn  Zn126  1  0.18574425  0.93658503  0.93861753  1
  Zn  Zn127  1  0.68210869  0.43834382  0.43349902  1
  Zn  Zn128  1  0.68768041  0.43697748  0.93292076  1
  Zn  Zn129  1  0.68509440  0.93855620  0.43514725  1
  Zn  Zn130  1  0.68947264  0.94050749  0.93445943  1
  Zn  Zn131  1  0.31153249  0.06246995  0.06915831  1
  Zn  Zn132  1  0.31291496  0.06161023  0.56185925  1
  Zn  Zn133  1  0.34872153  0.53811625  0.08534623  1
  Zn  Zn134  1  0.31552023  0.56357448  0.56762895  1
  Zn  Zn135  1  0.81264639  0.06372036  0.06692469  1
  Zn  Zn136  1  0.80626129  0.06193157  0.55780524  1
  Zn  Zn137  1  0.80749091  0.55958899  0.05862524  1
  Zn  Zn138  1  0.81185938  0.56172240  0.56131243  1
  Zn  Zn139  1  0.44186774  0.43250744  0.19101195  1
  Zn  Zn140  1  0.46357935  0.45535792  0.71879515  1
  Zn  Zn141  1  0.43741837  0.93705255  0.19046877  1
  Zn  Zn142  1  0.42998600  0.93082636  0.68816638  1
  Zn  Zn143  1  0.93532947  0.43808716  0.18766225  1
  Zn  Zn144  1  0.93874419  0.43870215  0.69216495  1
  Zn  Zn145  1  0.93340552  0.93727966  0.18239533  1
  Zn  Zn146  1  0.93318916  0.93636740  0.68639948  1
  Zn  Zn147  1  0.06040570  0.08530606  0.31879231  1
  Zn  Zn148  1  0.05805215  0.06304422  0.81184297  1
  Zn  Zn149  1  0.06318179  0.56389719  0.31210917  1
  Zn  Zn150  1  0.06350373  0.55993649  0.81321297  1
  Zn  Zn151  1  0.55901674  0.06356401  0.31130508  1
  Zn  Zn152  1  0.57384674  0.15608895  0.82395106  1
  Zn  Zn153  1  0.56070904  0.56286552  0.31817935  1
  Zn  Zn154  1  0.57033416  0.56360236  0.81379209  1
  Zn  Zn155  1  0.43674745  0.18307432  0.44081909  1
  Zn  Zn156  1  0.43711720  0.18886984  0.94167121  1
  Zn  Zn157  1  0.43732434  0.68804042  0.43720521  1
  Zn  Zn158  1  0.43834151  0.68814166  0.93638294  1
  Zn  Zn159  1  0.92970411  0.18944971  0.43778003  1
  Zn  Zn160  1  0.93820034  0.19275331  0.93572326  1
  Zn  Zn161  1  0.93654050  0.68662907  0.43369164  1
  Zn  Zn162  1  0.93569430  0.68502985  0.93803143  1
  Zn  Zn163  1  0.06653788  0.31459767  0.06381379  1
  Zn  Zn164  1  0.06034453  0.30989995  0.56267467  1
  Zn  Zn165  1  0.06079825  0.81329267  0.06059070  1
  Zn  Zn166  1  0.06573936  0.81435991  0.56382936  1
  Zn  Zn167  1  0.56664055  0.31480065  0.05898011  1
  Zn  Zn168  1  0.56353793  0.30795621  0.55979958  1
  Zn  Zn169  1  0.56640377  0.80499157  0.06393733  1
  Zn  Zn170  1  0.56202713  0.81309833  0.56428310  1
  O  O171  1  0.11934787  0.11717428  0.11679463  1
  O  O172  1  0.12461679  0.11427523  0.61623063  1
  O  O173  1  0.13512747  0.61368553  0.11483982  1
  O  O174  1  0.11664616  0.61687628  0.62400038  1
  O  O175  1  0.61733684  0.11400648  0.12137572  1
  O  O176  1  0.62518497  0.12078224  0.62551309  1
  O  O177  1  0.62641368  0.62453913  0.11024765  1
  O  O178  1  0.62524358  0.62821788  0.61128944  1
  O  O179  1  0.38710660  0.37348196  0.38860639  1
  O  O180  1  0.37286839  0.37116490  0.88554052  1
  O  O181  1  0.37166113  0.88259362  0.38399271  1
  O  O182  1  0.37871073  0.88418866  0.88213565  1
  O  O183  1  0.88531258  0.39033629  0.36652762  1
  O  O184  1  0.88613994  0.37533145  0.87481591  1
  O  O185  1  0.87328301  0.87671904  0.38928563  1
  O  O186  1  0.88484650  0.88470097  0.86834301  1
  O  O187  1  0.26379702  0.00379582  0.37200853  1
  O  O188  1  0.25721675  0.00010513  0.87019196  1
  O  O189  1  0.24272960  0.51248540  0.37295629  1
  O  O190  1  0.24696736  0.50828566  0.86555585  1
  O  O191  1  0.74918768  -0.00234894  0.35955850  1
  O  O192  1  0.76256555  -0.00712602  0.86249784  1
  O  O193  1  0.75645560  0.50349107  0.36790308  1
  O  O194  1  0.75051873  0.50867926  0.86286535  1
  O  O195  1  0.24605302  0.48844959  0.13601212  1
  O  O196  1  0.24016648  0.49308573  0.62720825  1
  O  O197  1  0.24174437  0.99084586  0.13050674  1
  O  O198  1  0.24209105  0.99934320  0.63336158  1
  O  O199  1  0.75414015  0.48525103  0.13338851  1
  O  O200  1  0.73857822  0.50455248  0.62781804  1
  O  O201  1  0.74274935  0.99273536  0.13272829  1
  O  O202  1  0.75713535  0.99681970  0.64025837  1
  O  O203  1  0.00726548  0.37180736  0.25689413  1
  O  O204  1  0.01337829  0.37513412  0.75482701  1
  O  O205  1  0.00129143  0.86547346  0.24968838  1
  O  O206  1  0.00351351  0.87037621  0.75713233  1
  O  O207  1  0.50503749  0.37717117  0.26546364  1
  O  O208  1  0.50984298  0.35322381  0.73871399  1
  O  O209  1  0.51004615  0.86311247  0.24291988  1
  O  O210  1  0.50530549  0.87119079  0.75764858  1
  O  O211  1  0.48766888  0.12254589  0.24232414  1
  O  O212  1  0.50789189  0.10729505  0.74310807  1
  O  O213  1  0.49230451  0.62971367  0.25099352  1
  O  O214  1  0.50399202  0.64419257  0.75262600  1
  O  O215  1  0.99877969  0.13723938  0.24129585  1
  O  O216  1  0.98326257  0.12780435  0.75285591  1
  O  O217  1  0.99291983  0.63225680  0.24883316  1
  O  O218  1  0.99336401  0.62959975  0.74579472  1
  O  O219  1  0.36479584  0.25747995  -0.00103624  1
  O  O220  1  0.36762298  0.25290512  0.50695390  1
  O  O221  1  0.36981558  0.75252975  0.00929598  1
  O  O222  1  0.36681018  0.75745449  0.49771105  1
  O  O223  1  0.86483143  0.25218472  0.00789255  1
  O  O224  1  0.86563119  0.25193085  0.51083605  1
  O  O225  1  0.85850639  0.74523645  -0.00253526  1
  O  O226  1  0.86828803  0.75715878  0.50087187  1
  O  O227  1  0.13193915  0.23622189  0.50928698  1
  O  O228  1  0.13008363  0.23882804  1.00020411  1
  O  O229  1  0.13088202  0.74935841  0.49179475  1
  O  O230  1  0.12907496  0.74315462  0.99475528  1
  O  O231  1  0.63865181  0.23732867  0.50696980  1
  O  O232  1  0.63794834  0.24072527  1.00264961  1
  O  O233  1  0.63095252  0.74667998  0.49441468  1
  O  O234  1  0.63474554  0.74051178  0.99663240  1
  O  O235  1  0.50562405  0.23723379  0.12115778  1
  O  O236  1  0.48411068  0.24841781  0.61649779  1
  O  O237  1  0.49121843  0.74197553  0.13440956  1
  O  O238  1  0.49832102  0.75030416  0.63566795  1
  O  O239  1  0.99213356  0.25033817  0.13014673  1
  O  O240  1  0.98163199  0.25573521  0.62503782  1
  O  O241  1  1.00441904  0.75021792  0.13771619  1
  O  O242  1  0.99597816  0.74539402  0.63067134  1
  O  O243  1  -0.00757538  0.26087343  0.36563423  1
  O  O244  1  0.00381516  0.26165840  0.86919671  1
  O  O245  1  0.01268071  0.74573391  0.36868130  1
  O  O246  1  0.00191612  0.75756537  0.87119694  1
  O  O247  1  0.49900731  0.26223484  0.38155035  1
  O  O248  1  0.50892481  0.24339080  0.86915012  1
  O  O249  1  0.50753674  0.74474367  0.36243556  1
  O  O250  1  0.49868444  0.76477326  0.87057595  1
  O  O251  1  0.24322329  0.13210968  0.50077387  1
  O  O252  1  0.24246069  0.12873199  1.00181077  1
  O  O253  1  0.24992966  0.63152568  0.49401222  1
  O  O254  1  0.23907864  0.63086905  0.98629953  1
  O  O255  1  0.73830971  0.13008723  0.49652383  1
  O  O256  1  0.74350613  0.13958626  1.01299520  1
  O  O257  1  0.74581106  0.63655809  0.49397821  1
  O  O258  1  0.74380284  0.63393729  0.99301665  1
  O  O259  1  0.25078504  0.36384164  0.00924728  1
  O  O260  1  0.25655816  0.37042879  0.50214873  1
  O  O261  1  0.25577047  0.86931065  0.00806317  1
  O  O262  1  0.25784941  0.86593409  0.50028675  1
  O  O263  1  0.74628773  0.36484357  0.00714514  1
  O  O264  1  0.74049461  0.36167196  0.49569496  1
  O  O265  1  0.74297501  0.86177124  0.00507783  1
  O  O266  1  0.75035997  0.86474107  0.49961021  1
  O  O267  1  0.13077054  0.49381413  0.24495614  1
  O  O268  1  0.13314279  0.49303623  0.74293049  1
  O  O269  1  0.11952950  0.99163157  0.25142362  1
  O  O270  1  0.12894863  0.99989678  0.74159556  1
  O  O271  1  0.63510078  0.49856211  0.25507615  1
  O  O272  1  0.63637518  0.50809486  0.73085520  1
  O  O273  1  0.62807949  0.99212705  0.24239640  1
  O  O274  1  0.63157451  0.99792318  0.74374310  1
  O  O275  1  0.37397703  0.00434134  0.25719663  1
  O  O276  1  0.36607592  0.00032888  0.75779108  1
  O  O277  1  0.36687601  0.51061229  0.25592577  1
  O  O278  1  0.35545435  0.49998370  0.73756935  1
  O  O279  1  0.86665299  -0.00018298  0.25093311  1
  O  O280  1  0.87141465  0.01077054  0.75384789  1
  O  O281  1  0.86730203  0.50688594  0.25514495  1
  O  O282  1  0.86636369  0.51009268  0.74839410  1
  O  O283  1  0.11695605  0.37983477  0.36157299  1
  O  O284  1  0.12161393  0.37377130  0.86640341  1
  O  O285  1  0.12808249  0.87085141  0.37346440  1
  O  O286  1  0.11599011  0.87036776  0.86944131  1
  O  O287  1  0.61036497  0.37682899  0.36805812  1
  O  O288  1  0.61730784  0.37713817  0.86814697  1
  O  O289  1  0.63001123  0.86852767  0.35932834  1
  O  O290  1  0.61597794  0.87927162  0.86515696  1
  O  O291  1  0.38355532  0.12031696  0.13879452  1
  O  O292  1  0.37280786  0.13689785  0.62577312  1
  O  O293  1  0.35908301  0.64143524  0.13939697  1
  O  O294  1  0.37926947  0.63112133  0.63255043  1
  O  O295  1  0.88109436  0.13826838  0.12804351  1
  O  O296  1  0.87744577  0.12335978  0.62994574  1
  O  O297  1  0.86826262  0.62082096  0.13614354  1
  O  O298  1  0.87993480  0.63221740  0.62834820  1
  O  O299  1  0.24276241  0.25615227  0.11358524  1
  O  O300  1  0.25515268  0.25630082  0.61433114  1
  O  O301  1  0.25231922  0.75679020  0.11994192  1
  O  O302  1  0.24553138  0.75022469  0.61080889  1
  O  O303  1  0.75659645  0.26009161  0.12203104  1
  O  O304  1  0.76440078  0.24994338  0.61139118  1
  O  O305  1  0.74712302  0.75758312  0.11191325  1
  O  O306  1  0.75663174  0.75258176  0.61459732  1
  O  O307  1  0.25256269  0.24969575  0.39087883  1
  O  O308  1  0.24560615  0.24524703  0.88758922  1
  O  O309  1  0.23936682  0.74241856  0.38297691  1
  O  O310  1  0.24427650  0.74495060  0.87960819  1
  O  O311  1  0.76076771  0.24887725  0.39176452  1
  O  O312  1  0.75705449  0.25065257  0.89082746  1
  O  O313  1  0.74538036  0.74543464  0.37911264  1
  O  O314  1  0.74862594  0.74487687  0.88377081  1
  O  O315  1  0.00616071  0.12134592  0.00464820  1
  O  O316  1  0.01356376  0.13052728  0.49426882  1
  O  O317  1  0.01449025  0.62204556  -0.00670830  1
  O  O318  1  -0.00004536  0.61745573  0.50564736  1
  O  O319  1  0.50629210  0.11794470  0.00901318  1
  O  O320  1  0.51942669  0.12566005  0.49792678  1
  O  O321  1  0.51665204  0.62947826  -0.00353609  1
  O  O322  1  0.50810269  0.61901744  0.50012125  1
  O  O323  1  0.49638611  0.37995395  0.49299909  1
  O  O324  1  0.48302665  0.36895246  1.00349582  1
  O  O325  1  0.48889178  0.87510624  0.50109579  1
  O  O326  1  0.49504251  0.87720079  0.99646059  1
  O  O327  1  1.00623013  0.38183945  0.48650228  1
  O  O328  1  1.00138363  0.37659649  0.99146679  1
  O  O329  1  0.98819587  0.87089865  0.49983577  1
  O  O330  1  1.00266153  0.88301207  0.98960748  1
  O  O331  1  0.50399830  0.49438230  0.39180913  1
  O  O332  1  0.48806204  0.49309729  0.82636367  1
  O  O333  1  0.48790912  1.00231145  0.37820959  1
  O  O334  1  0.48904271  0.98712320  0.88504858  1
  O  O335  1  0.99393698  0.49665552  0.38079645  1
  O  O336  1  0.99986545  0.48701560  0.87466889  1
  O  O337  1  1.00797265  0.98715594  0.36179905  1
  O  O338  1  0.99042389  0.99384247  0.87969792  1
  O  O339  1  0.00370338  0.00485316  0.11956476  1
  O  O340  1  0.01348591  -0.00233862  0.62959840  1
  O  O341  1  0.01712547  0.49236934  0.12539429  1
  O  O342  1  0.00221478  0.50348743  0.61728830  1
  O  O343  1  0.50760527  0.00174721  0.12107144  1
  O  O344  1  0.50425362  -0.00256970  0.62444501  1
  O  O345  1  0.45782745  0.51595756  0.12144062  1
  O  O346  1  0.51636374  0.50442547  0.62034189  1
  O  O347  1  0.24497197  0.37479168  0.24826894  1
  O  O348  1  0.24074765  0.37989788  0.74651410  1
  O  O349  1  0.25262859  0.87244076  0.23885308  1
  O  O350  1  0.24100586  0.88725806  0.75042543  1
  O  O351  1  0.74020912  0.38083192  0.24608019  1
  O  O352  1  0.75551722  0.38682742  0.75271273  1
  O  O353  1  0.74473803  0.87727680  0.24034223  1
  O  O354  1  0.74088359  0.88256690  0.74907777  1
  O  O355  1  0.26147794  0.12264321  0.24999254  1
  O  O356  1  0.24948285  0.11347534  0.75393300  1
  O  O357  1  0.25545771  0.62101143  0.26042392  1
  O  O358  1  0.24684079  0.61877199  0.76108546  1
  O  O359  1  0.75198441  0.11468874  0.24892630  1
  O  O360  1  0.76604366  0.11973558  0.74798506  1
  O  O361  1  0.75429704  0.61858929  0.25320461  1
  O  O362  1  0.75418678  0.62551229  0.75678568  1
  O  O363  1  0.37525394  0.11928953  0.36369174  1
  O  O364  1  0.37712167  0.11239805  0.87268656  1
  O  O365  1  0.36422024  0.63234135  0.36664739  1
  O  O366  1  0.36603838  0.62151705  0.87344978  1
  O  O367  1  0.87439530  0.11604700  0.37147666  1
  O  O368  1  0.87808956  0.11795191  0.86920614  1
  O  O369  1  0.86982141  0.61473784  0.36711656  1
  O  O370  1  0.86389881  0.62377862  0.86871696  1
  O  O371  1  0.13448435  0.38023904  0.13661293  1
  O  O372  1  0.12908741  0.37948798  0.63110510  1
  O  O373  1  0.13357233  0.88169971  0.11956286  1
  O  O374  1  0.12696806  0.88734468  0.63047988  1
  O  O375  1  0.63040224  0.37314391  0.13578880  1
  O  O376  1  0.62636409  0.38655247  0.61843051  1
  O  O377  1  0.63083394  0.87881113  0.13388425  1
  O  O378  1  0.62708562  0.87314117  0.63783431  1
  O  O379  1  0.11212649  0.25704867  0.24434920  1
  O  O380  1  0.12513957  0.25698125  0.74855101  1
  O  O381  1  0.11211807  0.74419867  0.25638915  1
  O  O382  1  0.11801209  0.75623033  0.75488425  1
  O  O383  1  0.63002084  0.25778974  0.25032692  1
  O  O384  1  0.62981050  0.24178864  0.76519789  1
  O  O385  1  0.61875074  0.75382661  0.25101841  1
  O  O386  1  0.61885243  0.76084847  0.75551098  1
  O  O387  1  0.37229184  0.23674596  0.25334490  1
  O  O388  1  0.36875018  0.24434467  0.73394910  1
  O  O389  1  0.38213625  0.74539935  0.24747883  1
  O  O390  1  0.38345697  0.75358181  0.74983863  1
  O  O391  1  0.88455639  0.25339438  0.24225881  1
  O  O392  1  0.87212866  0.24097642  0.73312762  1
  O  O393  1  0.89116637  0.74008104  0.25718817  1
  O  O394  1  0.87930624  0.74608873  0.74433475  1
  O  O395  1  0.38590526  0.48984844  0.51005510  1
  O  O396  1  0.35949298  0.47564407  0.99126292  1
  O  O397  1  0.37814898  0.99242928  0.49373770  1
  O  O398  1  0.37725219  0.99459448  0.99612634  1
  O  O399  1  0.88533720  0.50410530  0.49112273  1
  O  O400  1  0.87685797  0.49600917  0.99577999  1
  O  O401  1  0.87190972  0.98487276  0.49894886  1
  O  O402  1  0.88117285  1.00783752  0.99215415  1
  O  O403  1  0.11676095  0.00682935  0.00403698  1
  O  O404  1  0.12792538  0.00973257  0.51295970  1
  O  O405  1  0.12707105  0.50666889  0.00880830  1
  O  O406  1  0.11173768  0.50147101  0.50516105  1
  O  O407  1  0.62379027  -0.00071559  0.01459994  1
  O  O408  1  0.62539725  0.01410364  0.49786542  1
  O  O409  1  0.63359829  0.51762355  -0.00511948  1
  O  O410  1  0.62268337  0.50863868  0.50846869  1
  O  O411  1  0.36284434  0.37093435  0.12179336  1
  O  O412  1  0.36890369  0.36298996  0.61200197  1
  O  O413  1  0.36869906  0.86344093  0.12286620  1
  O  O414  1  0.36840807  0.87062575  0.61383836  1
  O  O415  1  0.86745016  0.36578668  0.12433963  1
  O  O416  1  0.87400864  0.37094869  0.62482139  1
  O  O417  1  0.86049038  0.87613997  0.12173892  1
  O  O418  1  0.87305519  0.86822693  0.61307022  1
  O  O419  1  0.13332586  0.12101878  0.39376806  1
  O  O420  1  0.12454985  0.12282077  0.88767312  1
  O  O421  1  0.13212771  0.63272926  0.37768895  1
  O  O422  1  0.13009604  0.63196692  0.87882915  1
  O  O423  1  0.62971106  0.12472991  0.38111748  1
  O  O424  1  0.63080218  0.09898716  0.90016315  1
  O  O425  1  0.63219306  0.62993789  0.38600430  1
  O  O426  1  0.63683398  0.62910231  0.88045750  1
