# generated using pymatgen
data_V85Zn86O256
_symmetry_space_group_name_H-M   'P 1'
_cell_length_a   16.96616567
_cell_length_b   16.98046740
_cell_length_c   16.97527931
_cell_angle_alpha   90.05815858
_cell_angle_beta   89.91379095
_cell_angle_gamma   89.94181910
_symmetry_Int_Tables_number   1
_chemical_formula_structural   V85Zn86O256
_chemical_formula_sum   'V85 Zn86 O256'
_cell_volume   4890.45574134
_cell_formula_units_Z   1
loop_
 _symmetry_equiv_pos_site_id
 _symmetry_equiv_pos_as_xyz
  1  'x, y, z'
loop_
 _atom_site_type_symbol
 _atom_site_label
 _atom_site_symmetry_multiplicity
 _atom_site_fract_x
 _atom_site_fract_y
 _atom_site_fract_z
 _atom_site_occupancy
  V  V0  1  0.24852460  0.87851180  0.12720834  1
  V  V1  1  0.01167482  0.00249026  0.50770224  1
  V  V2  1  0.25382533  0.00205332  0.25821180  1
  V  V3  1  0.00494076  -0.00503747  0.00798873  1
  V  V4  1  0.62487914  0.25014527  0.87380458  1
  V  V5  1  0.87720556  0.74620826  0.62423920  1
  V  V6  1  0.74993960  0.13248359  0.38434989  1
  V  V7  1  0.37401004  0.87293356  0.47963934  1
  V  V8  1  0.12437919  0.87639311  0.24763167  1
  V  V9  1  -0.00227897  0.75243098  0.76107984  1
  V  V10  1  0.25295644  0.37249710  0.62101323  1
  V  V11  1  0.25018225  0.62572064  0.87406766  1
  V  V12  1  0.11795725  0.88293824  0.74490544  1
  V  V13  1  0.86974717  0.62185154  0.75857833  1
  V  V14  1  0.43109553  0.80369568  0.68192482  1
  V  V15  1  0.88054730  0.25295346  0.12417059  1
  V  V16  1  0.75618690  0.25254533  0.00124366  1
  V  V17  1  0.12167915  0.75937827  0.87716939  1
  V  V18  1  0.00231326  0.24290923  0.25238261  1
  V  V19  1  0.62705067  0.75245775  0.86903375  1
  V  V20  1  0.25020691  0.50546875  0.25951867  1
  V  V21  1  0.36158705  0.01721379  0.87324312  1
  V  V22  1  0.12541831  0.13574228  0.01540637  1
  V  V23  1  0.49698533  0.12627527  0.12817921  1
  V  V24  1  0.75240384  0.12304065  0.87525401  1
  V  V25  1  0.62293824  0.12623489  0.00145144  1
  V  V26  1  0.00052430  0.62253102  0.12732426  1
  V  V27  1  0.12662890  0.24735929  0.39220012  1
  V  V28  1  0.87289388  0.48968465  0.88406525  1
  V  V29  1  0.13382011  0.62402674  0.49856094  1
  V  V30  1  0.37045428  0.87663449  -0.00617549  1
  V  V31  1  0.50523820  0.26647408  0.25184175  1
  V  V32  1  0.87555048  0.12749430  0.74891319  1
  V  V33  1  0.62555547  0.62505829  0.49820500  1
  V  V34  1  0.86398012  0.37727182  0.50023046  1
  V  V35  1  0.49859620  0.62416034  0.12238640  1
  V  V36  1  0.50253288  0.37779504  0.86693076  1
  V  V37  1  0.12670800  0.49754037  0.12414920  1
  V  V38  1  0.87646835  0.12337063  0.24164419  1
  V  V39  1  0.37655961  0.12493630  0.25962194  1
  V  V40  1  0.62478671  -0.00110739  0.12816624  1
  V  V41  1  0.12579175  0.49930410  0.62698089  1
  V  V42  1  0.37442980  0.75028227  0.12323418  1
  V  V43  1  -0.00432564  0.74796057  0.24947002  1
  V  V44  1  0.11924749  0.62426141  -0.00240513  1
  V  V45  1  0.86386813  0.25401076  0.62057311  1
  V  V46  1  0.49452544  0.00032135  -0.00135064  1
  V  V47  1  0.37742674  0.50375469  0.87359347  1
  V  V48  1  0.00139363  0.62357030  0.62710229  1
  V  V49  1  0.37472775  0.23537931  0.62176510  1
  V  V50  1  0.76386854  0.61879812  0.37854475  1
  V  V51  1  -0.00257678  0.49835005  0.49181855  1
  V  V52  1  0.87707300  0.00334934  0.37535278  1
  V  V53  1  0.50111019  0.49568751  0.49230622  1
  V  V54  1  0.74221992  0.37022184  0.12824112  1
  V  V55  1  0.37491964  0.24980501  0.12593810  1
  V  V56  1  0.13530277  0.74575408  0.37614799  1
  V  V57  1  0.00488961  0.87582040  0.37579421  1
  V  V58  1  0.00045247  0.25140780  0.75401724  1
  V  V59  1  0.24679491  0.74917443  0.00180307  1
  V  V60  1  0.12442725  0.37122766  0.25464265  1
  V  V61  1  0.74992735  0.49470501  0.75044301  1
  V  V62  1  0.88565610  -0.00466014  0.87936766  1
  V  V63  1  0.49951103  0.75130330  0.25148723  1
  V  V64  1  0.12626773  0.37650630  0.75696273  1
  V  V65  1  0.24970613  0.37173512  0.12452154  1
  V  V66  1  0.74455286  0.00227794  0.25243952  1
  V  V67  1  0.37659161  0.37276230  0.49571246  1
  V  V68  1  0.24474934  0.87336111  0.62574902  1
  V  V69  1  0.01013907  0.12192665  0.62198507  1
  V  V70  1  0.62433139  0.26201318  0.37678343  1
  V  V71  1  0.49620159  0.23453136  0.74458518  1
  V  V72  1  0.50917067  0.50368489  -0.00322201  1
  V  V73  1  0.61677407  0.12492420  0.50449196  1
  V  V74  1  0.51140775  0.88810329  0.36725492  1
  V  V75  1  0.24856222  0.12771281  0.38774569  1
  V  V76  1  0.37506811  0.37532400  -0.00224131  1
  V  V77  1  0.68208623  0.83067808  0.19380721  1
  V  V78  1  0.62884578  0.49079967  0.62560427  1
  V  V79  1  0.50128689  0.62559905  0.62886844  1
  V  V80  1  0.37585108  0.62603565  0.74449527  1
  V  V81  1  0.87766604  0.87707395  0.49914133  1
  V  V82  1  0.75134798  0.75075845  0.50077346  1
  V  V83  1  0.18358009  0.19033204  0.80910317  1
  V  V84  1  0.75169898  0.48806054  0.25953362  1
  Zn  Zn85  1  0.49476471  0.00595340  0.50146106  1
  Zn  Zn86  1  0.62939179  0.36960470  0.74376164  1
  Zn  Zn87  1  0.62168380  0.49343825  0.13146324  1
  Zn  Zn88  1  -0.00445697  0.37353060  0.37694435  1
  Zn  Zn89  1  0.37172818  0.62769095  0.25839877  1
  Zn  Zn90  1  0.88077639  0.61407283  0.25437113  1
  Zn  Zn91  1  0.24411642  0.01046403  0.74504917  1
  Zn  Zn92  1  0.24990814  0.50187488  0.74963451  1
  Zn  Zn93  1  0.83649378  0.72684420  0.09840736  1
  Zn  Zn94  1  0.50390059  0.87563014  0.85777667  1
  Zn  Zn95  1  0.25090907  0.24501904  -0.01652386  1
  Zn  Zn96  1  0.74428705  -0.00433569  0.74808167  1
  Zn  Zn97  1  -0.00379701  0.49163997  0.00409665  1
  Zn  Zn98  1  0.11789557  0.00740427  0.13445554  1
  Zn  Zn99  1  0.37529443  0.50414003  0.37834674  1
  Zn  Zn100  1  0.62950076  0.75231193  0.37147583  1
  Zn  Zn101  1  0.83570013  0.86188713  0.00604155  1
  Zn  Zn102  1  0.74343498  0.87999689  0.62767976  1
  Zn  Zn103  1  0.26184599  0.74216434  0.50362486  1
  Zn  Zn104  1  0.64956394  0.64070768  0.00135450  1
  Zn  Zn105  1  0.61693387  -0.00991515  0.63793622  1
  Zn  Zn106  1  0.00152179  0.36764914  0.88562223  1
  Zn  Zn107  1  0.18935991  0.18874495  0.19325254  1
  Zn  Zn108  1  0.19142426  0.18650998  0.56759783  1
  Zn  Zn109  1  0.18346803  0.68850673  0.18571630  1
  Zn  Zn110  1  0.18902177  0.69358932  0.68684139  1
  Zn  Zn111  1  0.68740307  0.18563224  0.19184642  1
  Zn  Zn112  1  0.68710593  0.18441288  0.68881999  1
  Zn  Zn113  1  0.68092340  0.66070368  0.19423927  1
  Zn  Zn114  1  0.68890600  0.68632297  0.68713239  1
  Zn  Zn115  1  0.31094081  0.31125280  0.31446781  1
  Zn  Zn116  1  0.31990166  0.31802632  0.80302161  1
  Zn  Zn117  1  0.31288100  0.80944476  0.31123514  1
  Zn  Zn118  1  0.30317598  0.81827644  0.81570270  1
  Zn  Zn119  1  0.81344956  0.31147391  0.31642858  1
  Zn  Zn120  1  0.81167372  0.31329908  0.81004337  1
  Zn  Zn121  1  0.81821680  0.80881123  0.31902610  1
  Zn  Zn122  1  0.80494118  0.81684815  0.80862340  1
  Zn  Zn123  1  0.18547055  0.43319299  0.44071010  1
  Zn  Zn124  1  0.18925184  0.43794434  0.93838943  1
  Zn  Zn125  1  0.19090072  0.93691564  0.43749859  1
  Zn  Zn126  1  0.18154819  0.94110841  0.93969393  1
  Zn  Zn127  1  0.68839900  0.43777702  0.44049487  1
  Zn  Zn128  1  0.69116169  0.43547101  0.93602085  1
  Zn  Zn129  1  0.68860849  0.94107405  0.44222725  1
  Zn  Zn130  1  0.68125227  0.93366420  0.93158778  1
  Zn  Zn131  1  0.30527275  0.06494474  0.06608242  1
  Zn  Zn132  1  0.31552368  0.05005828  0.56131186  1
  Zn  Zn133  1  0.31421496  0.56107092  0.06317563  1
  Zn  Zn134  1  0.31468843  0.55848494  0.56483728  1
  Zn  Zn135  1  0.79635533  0.03467138  0.04806869  1
  Zn  Zn136  1  0.81197767  0.06300218  0.56514923  1
  Zn  Zn137  1  0.81474847  0.55178283  0.07163113  1
  Zn  Zn138  1  0.81262854  0.55880210  0.56644770  1
  Zn  Zn139  1  0.43279229  0.44073221  0.18580394  1
  Zn  Zn140  1  0.43889372  0.43919028  0.68326298  1
  Zn  Zn141  1  0.43504625  0.93929697  0.18802219  1
  Zn  Zn142  1  0.43777563  0.97918603  0.68961942  1
  Zn  Zn143  1  0.93511599  0.43168141  0.19017923  1
  Zn  Zn144  1  0.93758181  0.43635018  0.68736223  1
  Zn  Zn145  1  0.92957164  0.93110418  0.18126936  1
  Zn  Zn146  1  0.91825107  0.93174646  0.69332796  1
  Zn  Zn147  1  0.06405455  0.06480984  0.31948287  1
  Zn  Zn148  1  0.05726603  0.06265369  0.81213994  1
  Zn  Zn149  1  0.06801995  0.56157960  0.31430759  1
  Zn  Zn150  1  0.05758084  0.56185308  0.81533112  1
  Zn  Zn151  1  0.56575500  0.07083087  0.31333415  1
  Zn  Zn152  1  0.56152873  0.05825722  0.81647966  1
  Zn  Zn153  1  0.56647532  0.56266993  0.31292680  1
  Zn  Zn154  1  0.57097857  0.57367770  0.81304863  1
  Zn  Zn155  1  0.44048105  0.19455443  0.43442405  1
  Zn  Zn156  1  0.43695163  0.19094051  0.93677978  1
  Zn  Zn157  1  0.43738942  0.68671208  0.43434165  1
  Zn  Zn158  1  0.44644822  0.69198225  0.93103437  1
  Zn  Zn159  1  0.93710800  0.18785213  0.43967643  1
  Zn  Zn160  1  0.94208133  0.18400206  0.94137922  1
  Zn  Zn161  1  0.94497130  0.68775206  0.43790342  1
  Zn  Zn162  1  0.81329274  0.68578941  0.93275443  1
  Zn  Zn163  1  0.06057534  0.31122038  0.06530019  1
  Zn  Zn164  1  0.05468394  0.31571820  0.57048860  1
  Zn  Zn165  1  -0.02115968  0.80179756  0.05117254  1
  Zn  Zn166  1  0.06401022  0.81099437  0.56429391  1
  Zn  Zn167  1  0.56180865  0.31285587  0.06004303  1
  Zn  Zn168  1  0.56015580  0.30884770  0.55974985  1
  Zn  Zn169  1  0.55879804  0.81094836  0.05065333  1
  Zn  Zn170  1  0.56416488  0.81757086  0.55294324  1
  O  O171  1  0.12540739  0.12603367  0.11949784  1
  O  O172  1  0.11019086  0.12862731  0.62248904  1
  O  O173  1  0.12303669  0.61656522  0.11784989  1
  O  O174  1  0.11830402  0.62137758  0.62105500  1
  O  O175  1  0.61789532  0.11965458  0.12019752  1
  O  O176  1  0.63033727  0.13533958  0.60389818  1
  O  O177  1  0.60959111  0.61882503  0.11603777  1
  O  O178  1  0.61926121  0.62034410  0.61523180  1
  O  O179  1  0.36622924  0.37702004  0.39210626  1
  O  O180  1  0.38334983  0.38250337  0.87714504  1
  O  O181  1  0.38208923  0.87551736  0.37666876  1
  O  O182  1  0.37395635  0.87789679  0.88745556  1
  O  O183  1  0.87773519  0.36584773  0.39558176  1
  O  O184  1  0.87749133  0.38709974  0.86986958  1
  O  O185  1  0.88492029  0.87942373  0.38301246  1
  O  O186  1  0.86871909  0.89618693  0.88418603  1
  O  O187  1  0.24568335  0.01006406  0.36551522  1
  O  O188  1  0.25974642  -0.00248076  0.87589633  1
  O  O189  1  0.24483976  0.49528524  0.36113899  1
  O  O190  1  0.25926244  0.50834792  0.87319433  1
  O  O191  1  0.75624257  0.00743383  0.36841869  1
  O  O192  1  0.76260805  0.01537011  0.87307987  1
  O  O193  1  0.74897865  0.50327735  0.36781755  1
  O  O194  1  0.76201342  0.49717940  0.86817321  1
  O  O195  1  0.24780778  0.48786293  0.13131100  1
  O  O196  1  0.24281027  0.49213893  0.62845203  1
  O  O197  1  0.24504664  0.99533966  0.13954774  1
  O  O198  1  0.25770822  0.98117693  0.63027551  1
  O  O199  1  0.74780030  0.48546046  0.13585241  1
  O  O200  1  0.73838615  0.50284750  0.63327699  1
  O  O201  1  0.74340283  1.01160624  0.14708036  1
  O  O202  1  0.74436404  1.00114770  0.62761840  1
  O  O203  1  0.00500556  0.36378272  0.25561356  1
  O  O204  1  0.01058924  0.36704011  0.74796330  1
  O  O205  1  0.00743428  0.86807131  0.25493836  1
  O  O206  1  0.00368580  0.86265965  0.74148208  1
  O  O207  1  0.49738843  0.36520915  0.24216625  1
  O  O208  1  0.50141685  0.37369628  0.75954931  1
  O  O209  1  0.49367363  0.86932202  0.26086536  1
  O  O210  1  0.47897598  0.87238796  0.73897282  1
  O  O211  1  0.49087970  0.13175792  0.24630463  1
  O  O212  1  0.49606871  0.13735253  0.75898883  1
  O  O213  1  0.50270315  0.63416860  0.24124938  1
  O  O214  1  0.49507352  0.62235025  0.73586287  1
  O  O215  1  0.99197651  0.13453885  0.25760084  1
  O  O216  1  0.99439717  0.13247249  0.74284102  1
  O  O217  1  1.00299146  0.62940950  0.24655816  1
  O  O218  1  0.99329882  0.62951826  0.74267497  1
  O  O219  1  0.37064325  0.25682823  0.00553657  1
  O  O220  1  0.38683397  0.25848185  0.51437406  1
  O  O221  1  0.36931559  0.75815627  0.00376486  1
  O  O222  1  0.37675398  0.76620113  0.49436042  1
  O  O223  1  0.86775453  0.23951222  0.01216734  1
  O  O224  1  0.87964521  0.25988798  0.51363711  1
  O  O225  1  0.88239867  0.75768250  -0.00486537  1
  O  O226  1  0.87072419  0.75443479  0.50057580  1
  O  O227  1  0.12329601  0.25359967  0.49612911  1
  O  O228  1  0.13005316  0.23909029  1.00455463  1
  O  O229  1  0.12399718  0.73998438  0.49215239  1
  O  O230  1  0.12961910  0.73974671  0.99050185  1
  O  O231  1  0.61911036  0.24260454  0.48522027  1
  O  O232  1  0.63053425  0.24359649  0.99323377  1
  O  O233  1  0.63531354  0.74071236  0.49603024  1
  O  O234  1  0.62640155  0.75325073  0.98621363  1
  O  O235  1  0.49535847  0.24458485  0.13000062  1
  O  O236  1  0.49238338  0.25083047  0.63752163  1
  O  O237  1  0.49515631  0.74504226  0.13140462  1
  O  O238  1  0.49701533  0.74670479  0.62378920  1
  O  O239  1  0.99110475  0.25113002  0.13778005  1
  O  O240  1  0.99196664  0.24224511  0.63572967  1
  O  O241  1  1.01449132  0.73164165  0.13563603  1
  O  O242  1  0.99731394  0.73691407  0.63048395  1
  O  O243  1  0.00965153  0.24884131  0.37149979  1
  O  O244  1  -0.00944257  0.25107858  0.85879585  1
  O  O245  1  0.01178246  0.75527131  0.36855251  1
  O  O246  1  0.00960254  0.74367562  0.86217328  1
  O  O247  1  0.51298899  0.25161101  0.36421070  1
  O  O248  1  0.50098330  0.25875693  0.86428747  1
  O  O249  1  0.50528970  0.75542614  0.36015964  1
  O  O250  1  0.51288058  0.76064247  0.87398862  1
  O  O251  1  0.25262475  0.11993429  0.49251112  1
  O  O252  1  0.23205556  0.12635531  1.00164469  1
  O  O253  1  0.23769559  0.62422043  0.50830458  1
  O  O254  1  0.24332584  0.62965058  0.99627993  1
  O  O255  1  0.74655288  0.12449726  0.48750504  1
  O  O256  1  0.74411704  0.13161251  0.99366482  1
  O  O257  1  0.74586032  0.62793384  0.49652543  1
  O  O258  1  0.76246509  0.63844167  1.02352943  1
  O  O259  1  0.25499638  0.37028440  0.00731537  1
  O  O260  1  0.25685054  0.38041412  0.51382708  1
  O  O261  1  0.25265260  0.87089210  0.00612453  1
  O  O262  1  0.26231146  0.87301759  0.50213696  1
  O  O263  1  0.74738229  0.35877872  0.00750112  1
  O  O264  1  0.76513827  0.38124170  0.50502346  1
  O  O265  1  0.75068334  0.92991060  0.01691592  1
  O  O266  1  0.76129107  0.86557572  0.49472272  1
  O  O267  1  0.13414965  0.49283994  0.24507327  1
  O  O268  1  0.12444797  0.49425679  0.74372041  1
  O  O269  1  0.12978736  0.99322084  0.25352984  1
  O  O270  1  0.12329183  0.98534440  0.75868737  1
  O  O271  1  0.64401198  0.50787780  0.24708877  1
  O  O272  1  0.63290281  0.50214661  0.74313558  1
  O  O273  1  0.63200594  1.00451119  0.24448179  1
  O  O274  1  0.63123925  1.00492205  0.75229752  1
  O  O275  1  0.36600342  0.01268841  0.24735554  1
  O  O276  1  0.36429500  0.00317344  0.76803514  1
  O  O277  1  0.35998929  0.49814872  0.25289501  1
  O  O278  1  0.37540558  0.50993719  0.75532253  1
  O  O279  1  0.87094734  0.00565598  0.25471868  1
  O  O280  1  0.88564288  0.01840578  0.76597991  1
  O  O281  1  0.85899134  0.49688580  0.24902702  1
  O  O282  1  0.86908480  0.50379154  0.75350303  1
  O  O283  1  0.12320967  0.36462209  0.37146762  1
  O  O284  1  0.12639030  0.38215047  0.86033559  1
  O  O285  1  0.12294256  0.86800969  0.36711075  1
  O  O286  1  0.12941259  0.86278509  0.86899016  1
  O  O287  1  0.63043023  0.36088832  0.37980135  1
  O  O288  1  0.61777644  0.36757279  0.87277106  1
  O  O289  1  0.61394945  0.87361748  0.37801884  1
  O  O290  1  0.61992841  0.86592652  0.87086852  1
  O  O291  1  0.37605638  0.13246565  0.13481570  1
  O  O292  1  0.37043683  0.13683300  0.61829995  1
  O  O293  1  0.38398805  0.63007866  0.12916289  1
  O  O294  1  0.38198753  0.62278658  0.63628397  1
  O  O295  1  0.86713866  0.13504517  0.14087060  1
  O  O296  1  0.87944031  0.13667333  0.63199544  1
  O  O297  1  0.88832442  0.62462740  0.13248144  1
  O  O298  1  0.88419239  0.62783735  0.63063933  1
  O  O299  1  0.25588433  0.26238926  0.13084574  1
  O  O300  1  0.26612820  0.25622014  0.62283453  1
  O  O301  1  0.25423061  0.75686901  0.12116812  1
  O  O302  1  0.24688809  0.76453330  0.61913201  1
  O  O303  1  0.75453954  0.25162029  0.12046218  1
  O  O304  1  0.76564404  0.25018659  0.63138492  1
  O  O305  1  0.73831359  0.75437735  0.14920349  1
  O  O306  1  0.75853050  0.74727220  0.61228761  1
  O  O307  1  0.23909300  0.24043143  0.37313041  1
  O  O308  1  0.25006745  0.24854919  0.86427127  1
  O  O309  1  0.23862711  0.75221643  0.37840080  1
  O  O310  1  0.24124841  0.74371236  0.88113109  1
  O  O311  1  0.73686391  0.24277380  0.36819238  1
  O  O312  1  0.74860559  0.24302875  0.88217135  1
  O  O313  1  0.75079356  0.73954177  0.38513863  1
  O  O314  1  0.74249273  0.75707972  0.87678767  1
  O  O315  1  0.02091374  0.11925322  -0.00583604  1
  O  O316  1  -0.00802669  0.11415702  0.50920296  1
  O  O317  1  0.01420414  0.61545826  0.01100483  1
  O  O318  1  0.00721562  0.61778931  0.50888846  1
  O  O319  1  0.49974734  0.11770602  0.00566321  1
  O  O320  1  0.51327623  0.12481439  0.48863246  1
  O  O321  1  0.49160076  0.61501536  0.00693641  1
  O  O322  1  0.50840405  0.62173874  0.50917004  1
  O  O323  1  0.49032469  0.38513466  0.50699707  1
  O  O324  1  0.49601209  0.38138315  0.98794967  1
  O  O325  1  0.49129096  0.87271011  0.47856691  1
  O  O326  1  0.48649860  0.89065485  1.00472446  1
  O  O327  1  0.99394901  0.38497812  0.50156039  1
  O  O328  1  1.00836990  0.37991058  0.99747893  1
  O  O329  1  0.99649084  0.87932049  0.49382515  1
  O  O330  1  1.01330496  0.89580910  0.99594457  1
  O  O331  1  0.50472378  0.50237166  0.38929404  1
  O  O332  1  0.49840326  0.49609911  0.87887606  1
  O  O333  1  0.50351841  0.98952933  0.37148760  1
  O  O334  1  0.48433000  0.99675395  0.88325550  1
  O  O335  1  1.00392488  0.49880352  0.38870475  1
  O  O336  1  0.98320072  0.49763541  0.87396861  1
  O  O337  1  0.99434883  0.99562305  0.38293601  1
  O  O338  1  0.99120245  1.00359479  0.88411315  1
  O  O339  1  -0.00080252  0.00008624  0.11275529  1
  O  O340  1  -0.01237946  0.00987807  0.61783704  1
  O  O341  1  0.00698962  0.50658876  0.13039788  1
  O  O342  1  0.00521670  0.50943339  0.62047704  1
  O  O343  1  0.50099085  0.00808966  0.11942585  1
  O  O344  1  0.50652963  0.00936450  0.61445848  1
  O  O345  1  0.49926727  0.50615431  0.11642002  1
  O  O346  1  0.50788083  0.50997468  0.61714505  1
  O  O347  1  0.24540684  0.38184809  0.24369254  1
  O  O348  1  0.24432112  0.37771610  0.73843285  1
  O  O349  1  0.24546086  0.88362806  0.25037512  1
  O  O350  1  0.23603698  0.87374020  0.74192290  1
  O  O351  1  0.75054809  0.38120838  0.24709884  1
  O  O352  1  0.74678436  0.38774104  0.75111573  1
  O  O353  1  0.74904205  0.88241239  0.25867274  1
  O  O354  1  0.80007145  0.89207424  0.72954045  1
  O  O355  1  0.25725282  0.11951047  0.25877228  1
  O  O356  1  0.23244867  0.12949635  0.74825439  1
  O  O357  1  0.24785880  0.60786617  0.24162597  1
  O  O358  1  0.25896424  0.62643592  0.75441708  1
  O  O359  1  0.75729544  0.11935600  0.26240102  1
  O  O360  1  0.76073433  0.12920136  0.75923467  1
  O  O361  1  0.75790136  0.61343472  0.26317342  1
  O  O362  1  0.76215297  0.61239682  0.74200277  1
  O  O363  1  0.36683729  0.13508752  0.36593841  1
  O  O364  1  0.36954657  0.11522444  0.88334705  1
  O  O365  1  0.37776286  0.61841707  0.37124941  1
  O  O366  1  0.37347866  0.62475464  0.86306995  1
  O  O367  1  0.86774161  0.12339445  0.36891772  1
  O  O368  1  0.86935349  0.12541671  0.86827288  1
  O  O369  1  0.86692927  0.62379344  0.37997965  1
  O  O370  1  0.87389716  0.61292407  0.86242659  1
  O  O371  1  0.13328794  0.37774391  0.13372656  1
  O  O372  1  0.13233295  0.37815630  0.63423684  1
  O  O373  1  0.13130656  0.87721735  0.14292126  1
  O  O374  1  0.13020014  0.87301451  0.63361775  1
  O  O375  1  0.63735279  0.37223350  0.12278501  1
  O  O376  1  0.61764886  0.38727195  0.62528857  1
  O  O377  1  0.61723343  0.88173128  0.12841093  1
  O  O378  1  0.63209525  0.87688981  0.61366539  1
  O  O379  1  0.11737379  0.25315303  0.25809663  1
  O  O380  1  0.11866576  0.25674344  0.75350097  1
  O  O381  1  0.12019996  0.75550529  0.25819420  1
  O  O382  1  0.11711638  0.75645067  0.75729782  1
  O  O383  1  0.61537898  0.24460875  0.26122251  1
  O  O384  1  0.61309715  0.24971583  0.75396446  1
  O  O385  1  0.62020364  0.75504457  0.24861233  1
  O  O386  1  0.63118935  0.73997049  0.76693666  1
  O  O387  1  0.38270073  0.24561987  0.24590989  1
  O  O388  1  0.38745100  0.25317557  0.73583842  1
  O  O389  1  0.38256750  0.74886168  0.24138877  1
  O  O390  1  0.37384269  0.74732644  0.74850503  1
  O  O391  1  0.88312239  0.24345777  0.24847802  1
  O  O392  1  0.88059494  0.24511466  0.74173829  1
  O  O393  1  0.89253118  0.74505012  0.25789163  1
  O  O394  1  0.88164980  0.73909161  0.74683615  1
  O  O395  1  0.38450347  0.49240336  0.50116284  1
  O  O396  1  0.38416774  0.49408823  0.99327669  1
  O  O397  1  0.37971779  0.97726657  0.50124819  1
  O  O398  1  0.37414929  0.99614456  0.99492382  1
  O  O399  1  0.88362813  0.48606810  0.51033810  1
  O  O400  1  0.87434902  0.50047832  0.98662500  1
  O  O401  1  0.87925882  0.99125304  0.49348591  1
  O  O402  1  0.89448798  1.01893501  0.98897339  1
  O  O403  1  0.11763466  0.01146836  0.00501722  1
  O  O404  1  0.11068933  -0.00626018  0.49755878  1
  O  O405  1  0.12961445  0.50800996  0.00849960  1
  O  O406  1  0.11776141  0.50574117  0.50669536  1
  O  O407  1  0.60922712  0.00821697  0.00389038  1
  O  O408  1  0.62341023  0.01859180  0.49388271  1
  O  O409  1  0.61450118  0.49885109  -0.00045439  1
  O  O410  1  0.62100300  0.50595017  0.50742803  1
  O  O411  1  0.36828742  0.37052157  0.11751065  1
  O  O412  1  0.36812654  0.37135150  0.61911599  1
  O  O413  1  0.36793885  0.87201638  0.11518829  1
  O  O414  1  0.37231512  0.86362704  0.62339291  1
  O  O415  1  0.86228661  0.35863860  0.13153671  1
  O  O416  1  0.88187056  0.36144091  0.61763076  1
  O  O417  1  0.88904725  0.85131669  0.11477499  1
  O  O418  1  0.88527247  0.86195569  0.60524692  1
  O  O419  1  0.13560435  0.13577266  0.37513185  1
  O  O420  1  0.12837393  0.13323233  0.87304607  1
  O  O421  1  0.12145365  0.63305053  0.38678821  1
  O  O422  1  0.12907120  0.62917022  0.88147721  1
  O  O423  1  0.63399618  0.13457617  0.38131906  1
  O  O424  1  0.63294054  0.13145725  0.88205666  1
  O  O425  1  0.63480531  0.62561402  0.38762939  1
  O  O426  1  0.62132359  0.63999099  0.88729799  1
