# generated using pymatgen
data_V85Zn86O256
_symmetry_space_group_name_H-M   'P 1'
_cell_length_a   16.93447506
_cell_length_b   16.92482063
_cell_length_c   16.91975512
_cell_angle_alpha   90.05495378
_cell_angle_beta   89.97220660
_cell_angle_gamma   90.03240341
_symmetry_Int_Tables_number   1
_chemical_formula_structural   V85Zn86O256
_chemical_formula_sum   'V85 Zn86 O256'
_cell_volume   4849.41740151
_cell_formula_units_Z   1
loop_
 _symmetry_equiv_pos_site_id
 _symmetry_equiv_pos_as_xyz
  1  'x, y, z'
loop_
 _atom_site_type_symbol
 _atom_site_label
 _atom_site_symmetry_multiplicity
 _atom_site_fract_x
 _atom_site_fract_y
 _atom_site_fract_z
 _atom_site_occupancy
  V  V0  1  -0.00581982  0.24348385  0.25053105  1
  V  V1  1  0.62319070  -0.00862295  0.62640912  1
  V  V2  1  0.36682980  0.75074201  0.62166300  1
  V  V3  1  0.14135691  0.87262519  0.24214690  1
  V  V4  1  0.86559118  0.36361879  0.49590665  1
  V  V5  1  0.87003796  0.24514113  0.64055365  1
  V  V6  1  0.87624272  0.00422356  0.86530858  1
  V  V7  1  0.12628605  0.74827001  0.88230887  1
  V  V8  1  0.37609878  0.87391250  0.00341129  1
  V  V9  1  0.37370874  0.37933608  0.49091625  1
  V  V10  1  0.49679986  0.50488230  0.49056817  1
  V  V11  1  0.12584140  0.87194706  0.75462030  1
  V  V12  1  0.50169248  0.12685696  0.62694681  1
  V  V13  1  -0.00380262  0.12752867  0.63755913  1
  V  V14  1  0.87634966  0.00389161  0.36753759  1
  V  V15  1  -0.00127614  0.37632324  0.37240993  1
  V  V16  1  0.00142224  0.86936078  0.36445379  1
  V  V17  1  0.00261532  0.62463699  0.62597702  1
  V  V18  1  0.24791386  0.12449939  0.87668451  1
  V  V19  1  0.62272393  0.36897496  0.75060097  1
  V  V20  1  0.86097030  0.50793200  0.37219227  1
  V  V21  1  0.37842915  0.62544002  0.75443168  1
  V  V22  1  0.87553495  0.49993966  0.87917598  1
  V  V23  1  0.25176057  0.50155529  0.25800416  1
  V  V24  1  0.37713236  -0.00141304  0.87457781  1
  V  V25  1  -0.00764123  0.12500626  0.12734674  1
  V  V26  1  0.50624184  0.75472367  0.74625976  1
  V  V27  1  0.75396947  0.12840358  0.37660025  1
  V  V28  1  0.12437312  0.51700912  0.12509221  1
  V  V29  1  0.64263510  0.75652760  0.37889145  1
  V  V30  1  0.38062527  0.75078848  0.12867367  1
  V  V31  1  0.24969482  0.50150184  0.74717248  1
  V  V32  1  0.12403081  -0.00202935  0.62625048  1
  V  V33  1  0.24994642  0.11852786  0.37058082  1
  V  V34  1  0.49746750  0.48434131  -0.00277230  1
  V  V35  1  0.88087366  0.37389644  0.01054366  1
  V  V36  1  0.12641383  0.24909725  0.37251990  1
  V  V37  1  0.24912925  0.74744285  0.01041584  1
  V  V38  1  0.62743033  0.25012323  0.38096634  1
  V  V39  1  0.11742800  0.25451964  0.85839591  1
  V  V40  1  0.74645645  -0.00525306  0.74698012  1
  V  V41  1  0.37377937  0.25635651  0.11974612  1
  V  V42  1  0.62923044  0.75206970  0.87255937  1
  V  V43  1  0.13108741  0.75015503  0.37701584  1
  V  V44  1  0.63924526  0.62688434  0.49264812  1
  V  V45  1  0.62549192  0.25618046  0.87594873  1
  V  V46  1  0.86649647  0.87118771  0.49770714  1
  V  V47  1  0.45392181  0.30976726  0.80986644  1
  V  V48  1  0.36978676  0.87275242  0.49592031  1
  V  V49  1  0.00520619  0.51200642  0.00428987  1
  V  V50  1  0.37875222  0.62070232  0.25923250  1
  V  V51  1  0.12507763  0.12158335  0.49925643  1
  V  V52  1  0.25027858  -0.00357753  0.75162322  1
  V  V53  1  -0.00178771  -0.00274940  0.50025950  1
  V  V54  1  0.37869060  0.25197406  0.62270192  1
  V  V55  1  0.86471147  0.87672082  0.00058024  1
  V  V56  1  0.75344042  -0.00086294  0.24505148  1
  V  V57  1  0.62567790  0.49937545  0.62422915  1
  V  V58  1  0.86878310  0.74788077  0.62024715  1
  V  V59  1  0.49957214  -0.00239308  0.49439700  1
  V  V60  1  0.36885278  0.12352154  0.24634600  1
  V  V61  1  0.74593168  0.49868028  0.75497743  1
  V  V62  1  0.25102757  0.62372113  0.88274485  1
  V  V63  1  0.24957153  0.38034412  0.11784541  1
  V  V64  1  0.49697262  0.37646927  0.36734176  1
  V  V65  1  0.62897228  -0.00958536  0.12381704  1
  V  V66  1  0.37746865  -0.00494754  0.36750320  1
  V  V67  1  0.00272187  0.49848251  0.49750077  1
  V  V68  1  0.24644436  0.37858547  0.62210424  1
  V  V69  1  0.50520773  0.87742512  0.86970155  1
  V  V70  1  0.88056102  0.75865554  0.13229807  1
  V  V71  1  0.62262776  0.62634518  0.00307909  1
  V  V72  1  0.37734485  0.12661295  0.75006531  1
  V  V73  1  0.75338303  0.25060763  0.00796410  1
  V  V74  1  -0.00016985  -0.00063311  0.00000388  1
  V  V75  1  0.50122896  0.62670206  0.62217752  1
  V  V76  1  0.64441562  0.37807718  0.24563603  1
  V  V77  1  -0.00153986  0.74886750  0.75158241  1
  V  V78  1  0.50370108  0.75533432  0.26171849  1
  V  V79  1  0.50284558  0.12231272  0.12591984  1
  V  V80  1  0.75343984  0.12850084  0.86688702  1
  V  V81  1  0.08311244  0.44502972  0.68202807  1
  V  V82  1  0.13010258  0.62785370  0.50188372  1
  V  V83  1  0.12217802  0.13159634  0.00188988  1
  V  V84  1  0.87550837  0.62146976  0.23836694  1
  Zn  Zn85  1  0.50097135  0.25185514  0.24859666  1
  Zn  Zn86  1  0.25116204  0.24884585  0.49781467  1
  Zn  Zn87  1  0.62958144  0.12829294  0.50178611  1
  Zn  Zn88  1  0.12413668  0.37907297  0.24664299  1
  Zn  Zn89  1  0.13701336  0.00349918  0.13736304  1
  Zn  Zn90  1  0.74327070  0.86728653  0.62448129  1
  Zn  Zn91  1  0.37391497  0.48168596  0.88273400  1
  Zn  Zn92  1  0.74580701  0.75455471  0.01071832  1
  Zn  Zn93  1  0.25001530  0.25902964  -0.00327520  1
  Zn  Zn94  1  0.24542447  0.86977137  0.62122891  1
  Zn  Zn95  1  0.63594116  0.50284300  0.13357470  1
  Zn  Zn96  1  0.87226406  0.62530906  0.75116385  1
  Zn  Zn97  1  0.86947500  0.25026003  0.13240022  1
  Zn  Zn98  1  0.00539117  0.37619934  0.86602550  1
  Zn  Zn99  1  -0.00171782  0.87270590  0.87764609  1
  Zn  Zn100  1  0.74300426  0.36497540  0.61815315  1
  Zn  Zn101  1  0.62736828  0.12517429  0.00045449  1
  Zn  Zn102  1  0.62722963  0.87620328  0.25332965  1
  Zn  Zn103  1  0.50412812  -0.00146540  -0.00023473  1
  Zn  Zn104  1  0.75031077  0.62710116  0.87618053  1
  Zn  Zn105  1  0.50562720  0.62297340  0.12822421  1
  Zn  Zn106  1  0.25493639  0.62540926  0.38236199  1
  Zn  Zn107  1  0.18600010  0.19069497  0.18619716  1
  Zn  Zn108  1  0.18980955  0.18479899  0.68369995  1
  Zn  Zn109  1  0.18869362  0.69082252  0.19489658  1
  Zn  Zn110  1  0.18590336  0.68381994  0.69004826  1
  Zn  Zn111  1  0.68635883  0.18486681  0.19462086  1
  Zn  Zn112  1  0.68813803  0.18453603  0.68800709  1
  Zn  Zn113  1  0.69841672  0.68641805  0.19106128  1
  Zn  Zn114  1  0.68663981  0.68362600  0.68702619  1
  Zn  Zn115  1  0.31071152  0.31161809  0.30552219  1
  Zn  Zn116  1  0.28755748  0.31125885  0.80493640  1
  Zn  Zn117  1  0.31217195  0.80887491  0.31578927  1
  Zn  Zn118  1  0.31372146  0.81053151  0.81469356  1
  Zn  Zn119  1  0.81380347  0.31007913  0.31573704  1
  Zn  Zn120  1  0.81067328  0.31960282  0.81845819  1
  Zn  Zn121  1  0.81447579  0.81473483  0.30530504  1
  Zn  Zn122  1  0.81415613  0.81710255  0.80979230  1
  Zn  Zn123  1  0.18420156  0.43870377  0.43753797  1
  Zn  Zn124  1  0.18378993  0.43899774  0.93761866  1
  Zn  Zn125  1  0.18979853  0.93613043  0.43429786  1
  Zn  Zn126  1  0.20234434  0.95094764  0.97173591  1
  Zn  Zn127  1  0.68355142  0.43617924  0.43593675  1
  Zn  Zn128  1  0.70611584  0.45299464  0.97350616  1
  Zn  Zn129  1  0.68773457  0.94105797  0.43649137  1
  Zn  Zn130  1  0.68607148  0.94090739  0.93498414  1
  Zn  Zn131  1  0.31177077  0.06077999  0.06447774  1
  Zn  Zn132  1  0.31119461  0.06016286  0.56039923  1
  Zn  Zn133  1  0.31838068  0.56284886  0.06810869  1
  Zn  Zn134  1  0.31378102  0.56147081  0.56413622  1
  Zn  Zn135  1  0.81163337  0.06478768  0.05834682  1
  Zn  Zn136  1  0.81223737  0.06440655  0.56054531  1
  Zn  Zn137  1  0.80805789  0.56700530  0.06541275  1
  Zn  Zn138  1  0.81506949  0.55546050  0.56334149  1
  Zn  Zn139  1  0.43908929  0.44237097  0.18019223  1
  Zn  Zn140  1  0.43336329  0.44503486  0.67916576  1
  Zn  Zn141  1  0.44023537  0.93467546  0.18858092  1
  Zn  Zn142  1  0.43717351  0.93643029  0.68474559  1
  Zn  Zn143  1  0.93796789  0.44109627  0.18892441  1
  Zn  Zn144  1  0.91862956  0.43436365  0.68536303  1
  Zn  Zn145  1  0.94128637  0.93875878  0.18515659  1
  Zn  Zn146  1  0.93684807  0.93415520  0.68713095  1
  Zn  Zn147  1  0.06402937  0.05676209  0.30924405  1
  Zn  Zn148  1  0.06385064  0.06075433  0.81633751  1
  Zn  Zn149  1  0.05920587  0.56792240  0.31035033  1
  Zn  Zn150  1  0.05992338  0.57006249  0.82207484  1
  Zn  Zn151  1  0.56334636  0.06421670  0.30950300  1
  Zn  Zn152  1  0.56583336  0.06675024  0.81004441  1
  Zn  Zn153  1  0.56831493  0.56345969  0.31221266  1
  Zn  Zn154  1  0.56053369  0.55899011  0.82067930  1
  Zn  Zn155  1  0.43883893  0.18789770  0.43711595  1
  Zn  Zn156  1  0.43475026  0.18251735  0.94572341  1
  Zn  Zn157  1  0.43966315  0.69045748  0.43697468  1
  Zn  Zn158  1  0.44137469  0.68745449  0.93738721  1
  Zn  Zn159  1  0.93834198  0.18355166  0.43932709  1
  Zn  Zn160  1  0.93824306  0.18921778  0.93334890  1
  Zn  Zn161  1  0.94048450  0.68793181  0.43428180  1
  Zn  Zn162  1  0.93447574  0.68910015  0.94186077  1
  Zn  Zn163  1  0.06288680  0.31703747  0.06290749  1
  Zn  Zn164  1  0.05460712  0.30424090  0.55676908  1
  Zn  Zn165  1  0.05775688  0.80984028  0.06449872  1
  Zn  Zn166  1  0.05898722  0.81045652  0.56111569  1
  Zn  Zn167  1  0.56500273  0.30917519  0.06509917  1
  Zn  Zn168  1  0.55919867  0.31428948  0.56024479  1
  Zn  Zn169  1  0.56010707  0.81069346  0.06287451  1
  Zn  Zn170  1  0.55826120  0.81303737  0.55455123  1
  O  O171  1  0.11918079  0.12383083  0.11599151  1
  O  O172  1  0.11900928  0.11935025  0.61832963  1
  O  O173  1  0.13068644  0.61659880  0.12791141  1
  O  O174  1  0.11149330  0.63072331  0.61880335  1
  O  O175  1  0.61585542  0.11908354  0.12700128  1
  O  O176  1  0.61563752  0.11971668  0.62188604  1
  O  O177  1  0.62804807  0.62477056  0.11903336  1
  O  O178  1  0.61887123  0.62092209  0.61402088  1
  O  O179  1  0.37890225  0.36780950  0.38435024  1
  O  O180  1  0.37773920  0.36375384  0.85984893  1
  O  O181  1  0.37162780  0.88425476  0.38064897  1
  O  O182  1  0.38690702  0.87739612  0.87857748  1
  O  O183  1  0.88067574  0.38234529  0.37978098  1
  O  O184  1  0.88352405  0.38720860  0.87821862  1
  O  O185  1  0.88358924  0.87962933  0.38014526  1
  O  O186  1  0.87646110  0.88529544  0.88218445  1
  O  O187  1  0.25958283  0.01213613  0.37779067  1
  O  O188  1  0.25536690  0.00679730  0.87331364  1
  O  O189  1  0.24530280  0.50095660  0.36188556  1
  O  O190  1  0.25478055  0.50515956  0.86965919  1
  O  O191  1  0.75933133  0.00494703  0.36878841  1
  O  O192  1  0.75442210  0.00743249  0.86693273  1
  O  O193  1  0.76327593  0.49577321  0.37787348  1
  O  O194  1  0.75811753  0.49876355  0.87287967  1
  O  O195  1  0.24376081  0.49753525  0.13218010  1
  O  O196  1  0.25007206  0.49303852  0.63344844  1
  O  O197  1  0.23189666  0.98670327  0.08014251  1
  O  O198  1  0.24149023  0.99982200  0.63357245  1
  O  O199  1  0.73611682  0.48528323  0.08273027  1
  O  O200  1  0.74301094  0.49554064  0.63562935  1
  O  O201  1  0.74229246  1.01059446  0.13261725  1
  O  O202  1  0.74099684  1.00262232  0.63037829  1
  O  O203  1  0.00123676  0.36946903  0.26073913  1
  O  O204  1  0.01292211  0.39476830  0.74211400  1
  O  O205  1  0.00389431  0.87835473  0.26254122  1
  O  O206  1  0.00809462  0.86768454  0.75353045  1
  O  O207  1  0.49300957  0.37684327  0.26212007  1
  O  O208  1  0.50392071  0.37726072  0.74486275  1
  O  O209  1  0.50554208  0.85904609  0.24920699  1
  O  O210  1  0.49524311  0.86578049  0.75617237  1
  O  O211  1  0.48870183  0.12633624  0.24036555  1
  O  O212  1  0.49239260  0.12088380  0.73589001  1
  O  O213  1  0.49622726  0.63310599  0.25080195  1
  O  O214  1  0.49381988  0.62936609  0.74509828  1
  O  O215  1  1.00823602  0.13162273  0.24095440  1
  O  O216  1  1.00447971  0.11747770  0.73617360  1
  O  O217  1  0.97378116  0.62990613  0.26981481  1
  O  O218  1  0.99822543  0.62969446  0.74237701  1
  O  O219  1  0.36862283  0.24480266  0.01499152  1
  O  O220  1  0.37265655  0.25854143  0.50635232  1
  O  O221  1  0.37370933  0.75239848  0.00986307  1
  O  O222  1  0.38154335  0.75946920  0.50859203  1
  O  O223  1  0.87204367  0.25609543  0.00191547  1
  O  O224  1  0.87979576  0.26132168  0.50013510  1
  O  O225  1  0.86898234  0.76219035  0.00091407  1
  O  O226  1  0.88205079  0.75890439  0.50764576  1
  O  O227  1  0.12540192  0.24199413  0.48702481  1
  O  O228  1  0.12429219  0.24039935  0.99352477  1
  O  O229  1  0.12136331  0.73938953  0.49508554  1
  O  O230  1  0.13641502  0.75878576  0.99322617  1
  O  O231  1  0.61969687  0.25027319  0.48646355  1
  O  O232  1  0.63476791  0.24955786  0.99295306  1
  O  O233  1  0.62116454  0.73929822  0.48938233  1
  O  O234  1  0.62643855  0.74784941  0.99093226  1
  O  O235  1  0.49206114  0.24198638  0.12700582  1
  O  O236  1  0.48763005  0.24339605  0.61953029  1
  O  O237  1  0.49605831  0.74668756  0.13790206  1
  O  O238  1  0.49334700  0.74662418  0.63013835  1
  O  O239  1  1.00266851  0.24317400  0.13462282  1
  O  O240  1  0.98612389  0.23932921  0.62095726  1
  O  O241  1  0.97887737  0.74262758  0.11000336  1
  O  O242  1  0.99058961  0.74178833  0.62997915  1
  O  O243  1  0.00638068  0.25338431  0.37052516  1
  O  O244  1  0.01293528  0.25177374  0.87000518  1
  O  O245  1  0.01219813  0.76191933  0.38372575  1
  O  O246  1  0.00943546  0.74886949  0.87250824  1
  O  O247  1  0.50583234  0.25838760  0.37226710  1
  O  O248  1  0.50512055  0.24421842  0.87572554  1
  O  O249  1  0.50905147  0.74828894  0.36447814  1
  O  O250  1  0.50780834  0.75739631  0.86583327  1
  O  O251  1  0.24346970  0.12666970  0.49095962  1
  O  O252  1  0.24174421  0.12844381  0.98766151  1
  O  O253  1  0.23443059  0.61461897  0.50168776  1
  O  O254  1  0.25988180  0.63078396  0.98950535  1
  O  O255  1  0.74636230  0.11707681  0.48312187  1
  O  O256  1  0.75025779  0.13370872  0.98561932  1
  O  O257  1  0.73686492  0.61935521  0.50593822  1
  O  O258  1  0.73656092  0.63262234  0.99331030  1
  O  O259  1  0.24884948  0.37874162  0.01229778  1
  O  O260  1  0.25596883  0.37619934  0.50596901  1
  O  O261  1  0.27008062  0.85790966  -0.01425580  1
  O  O262  1  0.26401139  0.88143616  0.50400978  1
  O  O263  1  0.76832304  0.35727757  -0.01510091  1
  O  O264  1  0.75983832  0.37918973  0.50090849  1
  O  O265  1  0.76149466  0.87918436  -0.00274311  1
  O  O266  1  0.76374100  0.88160086  0.50275313  1
  O  O267  1  0.13074300  0.50277390  0.24335972  1
  O  O268  1  0.13522999  0.51073648  0.74967852  1
  O  O269  1  0.12687047  0.98074829  0.25185627  1
  O  O270  1  0.12990981  0.99013377  0.74863198  1
  O  O271  1  0.62589089  0.48403667  0.25177043  1
  O  O272  1  0.62675488  0.48983152  0.74912291  1
  O  O273  1  0.63209413  0.99812538  0.24292964  1
  O  O274  1  0.63230547  1.00366668  0.73841748  1
  O  O275  1  0.37945365  0.00523844  0.25920086  1
  O  O276  1  0.36895277  0.00473728  0.75461287  1
  O  O277  1  0.36686154  0.51111832  0.24268437  1
  O  O278  1  0.36597891  0.50842707  0.75161921  1
  O  O279  1  0.87165771  -0.00349895  0.25950201  1
  O  O280  1  0.86897610  -0.00356941  0.75907801  1
  O  O281  1  0.87606725  0.50818158  0.26087328  1
  O  O282  1  0.86290609  0.50105348  0.75843378  1
  O  O283  1  0.11704114  0.36571383  0.37413968  1
  O  O284  1  0.12709936  0.35923813  0.87457812  1
  O  O285  1  0.12061340  0.86932491  0.37021621  1
  O  O286  1  0.12643161  0.86419445  0.86445366  1
  O  O287  1  0.61730001  0.36987424  0.36616430  1
  O  O288  1  0.62314982  0.36060544  0.86629023  1
  O  O289  1  0.62670593  0.86047178  0.37888659  1
  O  O290  1  0.61257843  0.87022760  0.87794381  1
  O  O291  1  0.37835407  0.12706226  0.13060224  1
  O  O292  1  0.37689301  0.13361664  0.63008733  1
  O  O293  1  0.37874688  0.63744162  0.13724401  1
  O  O294  1  0.38070132  0.63074891  0.63346431  1
  O  O295  1  0.88926736  0.12691052  0.12078574  1
  O  O296  1  0.88112853  0.13644326  0.62161624  1
  O  O297  1  0.87669137  0.62887861  0.13290060  1
  O  O298  1  0.88545490  0.62830573  0.62427346  1
  O  O299  1  0.25432805  0.26128240  0.12419320  1
  O  O300  1  0.26057621  0.25770352  0.62386998  1
  O  O301  1  0.25852226  0.74425746  0.11511755  1
  O  O302  1  0.26355191  0.74733270  0.63087104  1
  O  O303  1  0.75134316  0.23910228  0.11292018  1
  O  O304  1  0.76386077  0.24621044  0.62567500  1
  O  O305  1  0.76986205  0.74805088  0.12382288  1
  O  O306  1  0.76383834  0.74845018  0.63141575  1
  O  O307  1  0.24267978  0.23998881  0.37299977  1
  O  O308  1  0.23806245  0.24121124  0.87770907  1
  O  O309  1  0.23736857  0.74698974  0.37819461  1
  O  O310  1  0.24602403  0.74111821  0.88251995  1
  O  O311  1  0.74240025  0.24085548  0.37167075  1
  O  O312  1  0.74410595  0.24383721  0.87688544  1
  O  O313  1  0.74132130  0.75455219  0.37512807  1
  O  O314  1  0.73564492  0.75387322  0.86775202  1
  O  O315  1  0.00485053  0.12258923  0.00640876  1
  O  O316  1  0.00546015  0.11204546  0.50499897  1
  O  O317  1  -0.00127132  0.61038738  -0.00263791  1
  O  O318  1  0.00506591  0.61578494  0.50760716  1
  O  O319  1  0.50206828  0.12084466  0.01427035  1
  O  O320  1  0.49585032  0.11559683  0.51133335  1
  O  O321  1  0.51207197  0.62888869  0.00433784  1
  O  O322  1  0.50480977  0.61891865  0.50287066  1
  O  O323  1  0.49294909  0.38301285  0.48914855  1
  O  O324  1  0.50528038  0.38536052  1.00139352  1
  O  O325  1  0.48685160  0.88991166  0.50418088  1
  O  O326  1  0.49060195  0.87347578  0.99062535  1
  O  O327  1  0.99391168  0.37936417  0.48876691  1
  O  O328  1  0.99374026  0.38122799  0.99449958  1
  O  O329  1  0.99472280  0.88561289  0.49451731  1
  O  O330  1  0.99384638  0.88578884  0.99771661  1
  O  O331  1  0.50417826  0.49405464  0.38409737  1
  O  O332  1  0.48960322  0.50178941  0.88939153  1
  O  O333  1  0.49042750  1.00821553  0.38269374  1
  O  O334  1  0.49663799  0.99402617  0.87295039  1
  O  O335  1  0.99378272  0.49104857  0.38046906  1
  O  O336  1  0.99664998  0.49848611  0.88562001  1
  O  O337  1  0.99394506  0.99481410  0.38146580  1
  O  O338  1  0.98995330  0.99950324  0.87956317  1
  O  O339  1  0.00719520  0.00769518  0.11626959  1
  O  O340  1  0.00365520  0.00364898  0.61792362  1
  O  O341  1  0.00892575  0.49687723  0.11393798  1
  O  O342  1  0.00373851  0.50159501  0.62152722  1
  O  O343  1  0.50883532  0.00568833  0.12575626  1
  O  O344  1  0.50486712  0.00671313  0.61909081  1
  O  O345  1  0.50929238  0.50326529  0.11190861  1
  O  O346  1  0.50630942  0.50602118  0.61257404  1
  O  O347  1  0.24770152  0.38482739  0.24138210  1
  O  O348  1  0.24440103  0.38635792  0.73321630  1
  O  O349  1  0.24075496  0.87045719  0.24848678  1
  O  O350  1  0.24318059  0.87752340  0.74885059  1
  O  O351  1  0.74309266  0.37229343  0.24962570  1
  O  O352  1  0.73969547  0.38373850  0.74833326  1
  O  O353  1  0.74688777  0.89255962  0.25409882  1
  O  O354  1  0.75161165  0.88959324  0.74445014  1
  O  O355  1  0.25963701  0.12574600  0.25346301  1
  O  O356  1  0.25529743  0.12007949  0.75991433  1
  O  O357  1  0.25988807  0.61918921  0.25419360  1
  O  O358  1  0.25788986  0.62018824  0.75824463  1
  O  O359  1  0.74699725  0.11301904  0.26405000  1
  O  O360  1  0.74751827  0.11508780  0.76015653  1
  O  O361  1  0.77511136  0.63239207  0.25927287  1
  O  O362  1  0.74724685  0.61056848  0.75437982  1
  O  O363  1  0.36846938  0.12110870  0.36638123  1
  O  O364  1  0.36735633  0.12124660  0.87070881  1
  O  O365  1  0.37334372  0.63049556  0.36470122  1
  O  O366  1  0.36984741  0.63005275  0.86351729  1
  O  O367  1  0.87008218  0.11412692  0.37831873  1
  O  O368  1  0.86743087  0.11617829  0.87698526  1
  O  O369  1  0.87328490  0.60778352  0.38727808  1
  O  O370  1  0.87336319  0.61320192  0.87411581  1
  O  O371  1  0.13381604  0.38414130  0.12758061  1
  O  O372  1  0.12947636  0.37445970  0.61515733  1
  O  O373  1  0.11957034  0.87003904  0.14112964  1
  O  O374  1  0.12440765  0.87722500  0.63612362  1
  O  O375  1  0.62011107  0.37012713  0.14561906  1
  O  O376  1  0.62380535  0.38016196  0.63068329  1
  O  O377  1  0.62222945  0.88714921  0.12521961  1
  O  O378  1  0.62477670  0.88647464  0.61619645  1
  O  O379  1  0.11679228  0.25155636  0.26038832  1
  O  O380  1  0.12992109  0.24763668  0.75959792  1
  O  O381  1  0.12585878  0.76109504  0.26110329  1
  O  O382  1  0.12036251  0.75464144  0.75699248  1
  O  O383  1  0.62236590  0.26067948  0.26105571  1
  O  O384  1  0.62592374  0.26132344  0.75287377  1
  O  O385  1  0.62121439  0.74835186  0.26336348  1
  O  O386  1  0.61285100  0.74542348  0.75315953  1
  O  O387  1  0.37583969  0.23954437  0.23932925  1
  O  O388  1  0.37995659  0.25003240  0.74623809  1
  O  O389  1  0.38673689  0.74715524  0.24812133  1
  O  O390  1  0.38461167  0.74369013  0.74369660  1
  O  O391  1  0.88940212  0.25174646  0.25102273  1
  O  O392  1  0.87380477  0.25823194  0.73888348  1
  O  O393  1  0.87962536  0.74803405  0.23775297  1
  O  O394  1  0.88208224  0.74800350  0.74406913  1
  O  O395  1  0.38395119  0.49144845  0.50371764  1
  O  O396  1  0.39122671  0.50295999  1.00184274  1
  O  O397  1  0.38017452  0.99604030  0.49024792  1
  O  O398  1  0.38072592  0.99018552  0.99221337  1
  O  O399  1  0.88468599  0.48870018  0.49468744  1
  O  O400  1  0.88612126  0.49434272  0.99569566  1
  O  O401  1  0.88251358  0.99356407  0.49219108  1
  O  O402  1  0.88333185  0.99655114  0.99278722  1
  O  O403  1  0.10700980  0.01662335  -0.01734662  1
  O  O404  1  0.11821158  0.00092136  0.50488743  1
  O  O405  1  0.11315052  0.49946999  0.00625771  1
  O  O406  1  0.10957795  0.50629535  0.49442541  1
  O  O407  1  0.62436479  0.00486427  0.00790343  1
  O  O408  1  0.61491596  0.00353606  0.50443577  1
  O  O409  1  0.60880242  0.51317733  -0.01184615  1
  O  O410  1  0.61821878  0.51015902  0.50116375  1
  O  O411  1  0.36581305  0.36632621  0.13170987  1
  O  O412  1  0.36813927  0.36998511  0.61502534  1
  O  O413  1  0.38133353  0.86267775  0.11731465  1
  O  O414  1  0.37197476  0.86660171  0.61783832  1
  O  O415  1  0.88135766  0.37168896  0.11470090  1
  O  O416  1  0.87101718  0.36031511  0.61438163  1
  O  O417  1  0.88044710  0.86756179  0.11737038  1
  O  O418  1  0.87535242  0.86538637  0.61564343  1
  O  O419  1  0.13215450  0.12763388  0.37671110  1
  O  O420  1  0.12988210  0.13508504  0.87799860  1
  O  O421  1  0.12404327  0.63333902  0.38394133  1
  O  O422  1  0.13704121  0.63850437  0.87346269  1
  O  O423  1  0.63007504  0.13446100  0.37544579  1
  O  O424  1  0.63192149  0.13735860  0.87457842  1
  O  O425  1  0.62585208  0.63372331  0.38657265  1
  O  O426  1  0.62329138  0.63730225  0.88064872  1
