# generated using pymatgen
data_V85Zn86O256
_symmetry_space_group_name_H-M   'P 1'
_cell_length_a   16.93142015
_cell_length_b   16.93343147
_cell_length_c   16.92904495
_cell_angle_alpha   90.05078962
_cell_angle_beta   89.96833285
_cell_angle_gamma   89.88818058
_symmetry_Int_Tables_number   1
_chemical_formula_structural   V85Zn86O256
_chemical_formula_sum   'V85 Zn86 O256'
_cell_volume   4853.66451944
_cell_formula_units_Z   1
loop_
 _symmetry_equiv_pos_site_id
 _symmetry_equiv_pos_as_xyz
  1  'x, y, z'
loop_
 _atom_site_type_symbol
 _atom_site_label
 _atom_site_symmetry_multiplicity
 _atom_site_fract_x
 _atom_site_fract_y
 _atom_site_fract_z
 _atom_site_occupancy
  V  V0  1  0.62298228  0.61941688  0.49338202  1
  V  V1  1  0.74597026  0.74700410  0.48513282  1
  V  V2  1  0.49964484  -0.00144064  -0.00183949  1
  V  V3  1  0.49672788  0.12498991  0.62573215  1
  V  V4  1  0.75199538  0.24167949  -0.00187952  1
  V  V5  1  0.50535009  0.62025899  0.12549181  1
  V  V6  1  0.38223221  0.37843329  0.50017865  1
  V  V7  1  -0.00503395  0.75330768  0.26031130  1
  V  V8  1  0.24856507  0.37306879  0.11896404  1
  V  V9  1  0.82711400  0.40905308  0.02831238  1
  V  V10  1  0.75144642  0.37484083  0.63371855  1
  V  V11  1  0.75339170  0.86597155  0.12567516  1
  V  V12  1  0.01499198  0.12443958  0.12554165  1
  V  V13  1  0.88248848  0.74328222  0.62184415  1
  V  V14  1  0.87800073  0.86968696  0.00240666  1
  V  V15  1  -0.00409046  0.63479374  0.12515107  1
  V  V16  1  0.62253679  0.12855637  0.49928574  1
  V  V17  1  0.87148558  0.61425791  0.24927027  1
  V  V18  1  0.24398854  0.12776324  0.37257771  1
  V  V19  1  0.62773140  0.12148481  -0.00934543  1
  V  V20  1  0.36813168  -0.00002413  0.86959918  1
  V  V21  1  0.87354876  0.24380965  0.12026588  1
  V  V22  1  0.49578655  0.37522654  0.87210402  1
  V  V23  1  -0.00764069  0.49967420  0.49650024  1
  V  V24  1  0.24900176  0.50217921  0.25184548  1
  V  V25  1  0.62837303  0.62250131  -0.00743862  1
  V  V26  1  0.37515789  0.75008348  0.12789620  1
  V  V27  1  0.62615209  0.87366813  0.74994125  1
  V  V28  1  0.87666387  0.62549279  0.75158713  1
  V  V29  1  0.12467599  0.25179700  0.88893129  1
  V  V30  1  0.63117254  0.24917919  0.86789202  1
  V  V31  1  0.12379047  0.74944443  0.87325902  1
  V  V32  1  0.50038197  0.74583648  0.74916179  1
  V  V33  1  0.50028454  0.87384752  0.87382651  1
  V  V34  1  0.62570796  -0.00038841  0.62421817  1
  V  V35  1  0.11611484  0.12923098  0.50552277  1
  V  V36  1  0.63945974  0.37944398  0.24193918  1
  V  V37  1  0.00181595  0.87325713  0.87297821  1
  V  V38  1  0.12781667  0.88294741  0.74821447  1
  V  V39  1  0.25681234  0.49725006  0.75625536  1
  V  V40  1  0.25147349  0.88626087  0.62739573  1
  V  V41  1  0.50638675  0.74656616  0.25591974  1
  V  V42  1  0.75170716  0.00538928  0.75363110  1
  V  V43  1  0.24488281  0.25620913  0.49357603  1
  V  V44  1  0.62544157  0.49506566  0.62465851  1
  V  V45  1  0.25010214  0.75127980  0.00299998  1
  V  V46  1  0.87474037  0.00450601  0.87866064  1
  V  V47  1  0.23947469  0.88385378  0.14199045  1
  V  V48  1  0.74872856  0.00300575  0.24879387  1
  V  V49  1  0.36107771  0.12401742  0.74725030  1
  V  V50  1  0.37160313  0.25022586  0.11487332  1
  V  V51  1  0.12167085  0.36886960  0.26334556  1
  V  V52  1  0.24324283  0.62543603  0.38033119  1
  V  V53  1  0.75135513  0.74921100  -0.00969604  1
  V  V54  1  0.62534249  -0.00152829  0.12302479  1
  V  V55  1  0.37420871  0.87520129  0.00124120  1
  V  V56  1  0.75039067  0.60273236  0.36852787  1
  V  V57  1  0.87565255  0.87478647  0.49570000  1
  V  V58  1  0.88120092  0.12390762  0.75066340  1
  V  V59  1  0.11735984  0.37569750  0.75385286  1
  V  V60  1  0.74988670  0.86924473  0.62411573  1
  V  V61  1  0.87399737  -0.00056474  0.37584269  1
  V  V62  1  0.74672174  0.50322648  0.75759301  1
  V  V63  1  0.87976704  0.24910370  0.62653443  1
  V  V64  1  0.26098505  0.62108475  0.87767128  1
  V  V65  1  0.01383050  0.00247539  0.00527869  1
  V  V66  1  0.49255821  0.49838921  -0.00349387  1
  V  V67  1  0.49965744  0.61769869  0.61995223  1
  V  V68  1  0.50564346  0.87186365  0.37840975  1
  V  V69  1  0.37411772  0.87601685  0.50083206  1
  V  V70  1  0.00181599  0.24945350  0.75272170  1
  V  V71  1  0.49922675  0.12523564  0.12396008  1
  V  V72  1  0.12326474  0.62638995  -0.00041072  1
  V  V73  1  0.87919013  0.49698777  0.87483039  1
  V  V74  1  0.00293808  0.49007882  -0.00290080  1
  V  V75  1  0.24723607  0.37792175  0.62541393  1
  V  V76  1  0.49936418  0.25618288  0.24968725  1
  V  V77  1  0.37319165  0.12252909  0.25180140  1
  V  V78  1  0.50049758  0.25152076  0.75020989  1
  V  V79  1  0.24378957  0.12693977  0.89183551  1
  V  V80  1  0.24871094  0.74823089  0.50473405  1
  V  V81  1  0.38073193  0.50163268  0.37878018  1
  V  V82  1  0.74996523  0.25413554  0.49982332  1
  V  V83  1  0.12393945  0.50227595  0.12654615  1
  V  V84  1  0.62528174  0.87170845  0.25235155  1
  Zn  Zn85  1  0.37675017  0.74725539  0.62667672  1
  Zn  Zn86  1  0.11867596  0.00886893  0.63030091  1
  Zn  Zn87  1  0.50320935  0.37953145  0.37550535  1
  Zn  Zn88  1  0.37768391  0.00053875  0.37143230  1
  Zn  Zn89  1  0.65024554  0.49047217  0.11727089  1
  Zn  Zn90  1  0.62962294  0.74356801  0.86966046  1
  Zn  Zn91  1  0.12702854  0.75586328  0.37281190  1
  Zn  Zn92  1  0.11441082  0.50993963  0.63211739  1
  Zn  Zn93  1  0.74652374  0.12671286  0.37413024  1
  Zn  Zn94  1  -0.00728955  0.25998432  0.26045477  1
  Zn  Zn95  1  0.01579127  0.73842597  0.72896549  1
  Zn  Zn96  1  0.09832229  0.63321740  0.53224370  1
  Zn  Zn97  1  0.38025160  0.61743078  0.75280206  1
  Zn  Zn98  1  0.37353929  0.25073768  0.62413254  1
  Zn  Zn99  1  0.89184821  0.37042105  0.47566515  1
  Zn  Zn100  1  0.62348279  0.25424340  0.37331967  1
  Zn  Zn101  1  0.50044803  0.00056396  0.49885261  1
  Zn  Zn102  1  0.87772195  0.12469351  0.24930009  1
  Zn  Zn103  1  0.37568363  0.62446209  0.25230589  1
  Zn  Zn104  1  0.36927146  0.37580338  -0.00687329  1
  Zn  Zn105  1  -0.00738026  0.00934121  0.50649402  1
  Zn  Zn106  1  0.04471749  0.91038356  0.33376464  1
  Zn  Zn107  1  0.18958998  0.19238587  0.18921608  1
  Zn  Zn108  1  0.18708110  0.19355904  0.68602132  1
  Zn  Zn109  1  0.18353201  0.69201882  0.19198640  1
  Zn  Zn110  1  0.19604540  0.68983353  0.68996676  1
  Zn  Zn111  1  0.68495612  0.19041495  0.18224278  1
  Zn  Zn112  1  0.68965595  0.18530152  0.68722492  1
  Zn  Zn113  1  0.68790270  0.68414925  0.18518827  1
  Zn  Zn114  1  0.69043077  0.68243407  0.68368152  1
  Zn  Zn115  1  0.31212280  0.31421845  0.30967313  1
  Zn  Zn116  1  0.31028108  0.30833911  0.81349304  1
  Zn  Zn117  1  0.31757085  0.80948488  0.31652714  1
  Zn  Zn118  1  0.31160495  0.81051870  0.81008369  1
  Zn  Zn119  1  0.81128897  0.30810687  0.31011072  1
  Zn  Zn120  1  0.81497363  0.31923966  0.82030331  1
  Zn  Zn121  1  0.81828140  0.80866462  0.30879964  1
  Zn  Zn122  1  0.81738095  0.81353361  0.80997795  1
  Zn  Zn123  1  0.17933522  0.44855626  0.44425652  1
  Zn  Zn124  1  0.18511765  0.43749105  0.93670210  1
  Zn  Zn125  1  0.17613779  0.95476696  0.40781360  1
  Zn  Zn126  1  0.19211528  0.93591575  0.93801601  1
  Zn  Zn127  1  0.68547585  0.43242800  0.43860918  1
  Zn  Zn128  1  0.67582388  0.43564641  0.92938168  1
  Zn  Zn129  1  0.68741012  0.93782325  0.43687454  1
  Zn  Zn130  1  0.68948865  0.93436814  0.93481698  1
  Zn  Zn131  1  0.31086823  0.05930938  0.06525087  1
  Zn  Zn132  1  0.30905458  0.06278669  0.55631406  1
  Zn  Zn133  1  0.31328846  0.56320937  0.06467226  1
  Zn  Zn134  1  0.31136030  0.55983636  0.56530934  1
  Zn  Zn135  1  0.81444632  0.06152996  0.06214551  1
  Zn  Zn136  1  0.81074347  0.06570966  0.56608619  1
  Zn  Zn137  1  0.81801664  0.57824714  0.06118549  1
  Zn  Zn138  1  0.81920146  0.55924817  0.55967703  1
  Zn  Zn139  1  0.43550535  0.43759300  0.18606833  1
  Zn  Zn140  1  0.43766315  0.43592851  0.68720572  1
  Zn  Zn141  1  0.43628864  0.93587937  0.18900293  1
  Zn  Zn142  1  0.43737936  0.93831848  0.68709042  1
  Zn  Zn143  1  0.93830806  0.43815491  0.18635724  1
  Zn  Zn144  1  0.93835814  0.43751426  0.68213862  1
  Zn  Zn145  1  0.93536731  0.94049416  0.18336953  1
  Zn  Zn146  1  0.94327149  0.93420063  0.68353846  1
  Zn  Zn147  1  0.06779884  0.07789160  0.30827783  1
  Zn  Zn148  1  0.06204771  0.06358948  0.81653592  1
  Zn  Zn149  1  0.06032330  0.56242879  0.31574848  1
  Zn  Zn150  1  0.06292334  0.56385275  0.80947783  1
  Zn  Zn151  1  0.55992494  0.06213693  0.31345046  1
  Zn  Zn152  1  0.55847492  0.06325068  0.80979633  1
  Zn  Zn153  1  0.56888271  0.55599036  0.30766579  1
  Zn  Zn154  1  0.56284409  0.55795235  0.81155215  1
  Zn  Zn155  1  0.43545323  0.19395710  0.43672572  1
  Zn  Zn156  1  0.43785541  0.18599672  0.93415373  1
  Zn  Zn157  1  0.43560923  0.68638417  0.43841059  1
  Zn  Zn158  1  0.44153126  0.68896676  0.93944614  1
  Zn  Zn159  1  0.93079283  0.19025967  0.43130458  1
  Zn  Zn160  1  0.94210184  0.18539863  0.93967974  1
  Zn  Zn161  1  0.93127360  0.67994316  0.43611836  1
  Zn  Zn162  1  0.93673096  0.68288396  0.93216887  1
  Zn  Zn163  1  0.06146777  0.31306945  0.07112542  1
  Zn  Zn164  1  0.06235240  0.31507839  0.56385502  1
  Zn  Zn165  1  0.06384192  0.81391122  0.06627611  1
  Zn  Zn166  1  0.07866550  0.83506890  0.53460953  1
  Zn  Zn167  1  0.56364251  0.31145109  0.06019882  1
  Zn  Zn168  1  0.56217368  0.31334853  0.56604947  1
  Zn  Zn169  1  0.56468468  0.80905130  0.06295170  1
  Zn  Zn170  1  0.56458244  0.80468495  0.56106270  1
  O  O171  1  0.11445632  0.12950323  0.12856816  1
  O  O172  1  0.13275679  0.12706756  0.61008518  1
  O  O173  1  0.12036559  0.62070057  0.11941361  1
  O  O174  1  0.11906433  0.62579762  0.64433498  1
  O  O175  1  0.61860242  0.11828860  0.11257037  1
  O  O176  1  0.61933378  0.12122447  0.61618360  1
  O  O177  1  0.62069078  0.61801754  0.11460640  1
  O  O178  1  0.62097105  0.61391768  0.61646357  1
  O  O179  1  0.37379226  0.38384432  0.38193738  1
  O  O180  1  0.38859382  0.36289950  0.87764448  1
  O  O181  1  0.38594925  0.87653597  0.38313690  1
  O  O182  1  0.37715479  0.88258693  0.87837732  1
  O  O183  1  0.89317500  0.35767065  0.36336572  1
  O  O184  1  0.86225339  0.39344429  0.89883871  1
  O  O185  1  0.86296647  0.88371160  0.38463019  1
  O  O186  1  0.88261308  0.88320299  0.87991881  1
  O  O187  1  0.26358134  0.02508364  0.38681940  1
  O  O188  1  0.25625879  0.01306424  0.87818434  1
  O  O189  1  0.25660112  0.50723863  0.36958724  1
  O  O190  1  0.24667196  0.50962499  0.87034809  1
  O  O191  1  0.75262957  0.00124215  0.36440070  1
  O  O192  1  0.76095088  -0.00860792  0.86420649  1
  O  O193  1  0.75155551  0.50473045  0.37462570  1
  O  O194  1  0.75035642  0.49633739  0.86233833  1
  O  O195  1  0.24575291  0.49734639  0.13395869  1
  O  O196  1  0.24703540  0.49009721  0.63515567  1
  O  O197  1  0.25701749  0.98246150  0.12637772  1
  O  O198  1  0.24568146  0.98897229  0.62096182  1
  O  O199  1  0.76412735  0.47963576  0.08379577  1
  O  O200  1  0.74634784  0.49207703  0.63129259  1
  O  O201  1  0.74509260  0.99025717  0.12976927  1
  O  O202  1  0.74559757  0.99101191  0.63284504  1
  O  O203  1  0.01883123  0.37811778  0.24020105  1
  O  O204  1  0.01028735  0.36850739  0.75242556  1
  O  O205  1  -0.01313493  0.85959498  0.24901913  1
  O  O206  1  0.00869356  0.86632706  0.75676416  1
  O  O207  1  0.50061081  0.36428567  0.24796274  1
  O  O208  1  0.49496964  0.35964975  0.75414244  1
  O  O209  1  0.50382906  0.86678681  0.25754466  1
  O  O210  1  0.50675283  0.86690207  0.75202449  1
  O  O211  1  0.49624802  0.13575078  0.24428765  1
  O  O212  1  0.48898138  0.13212766  0.74532220  1
  O  O213  1  0.50251198  0.62983059  0.24265840  1
  O  O214  1  0.50027781  0.63021816  0.74448280  1
  O  O215  1  0.99839358  0.13306413  0.23954179  1
  O  O216  1  0.98879818  0.13104374  0.75415657  1
  O  O217  1  0.99250450  0.62910693  0.24460240  1
  O  O218  1  0.98380922  0.62876035  0.75654985  1
  O  O219  1  0.38050623  0.25000527  0.01183250  1
  O  O220  1  0.36340265  0.26073294  0.50253448  1
  O  O221  1  0.37202550  0.75494865  0.00832215  1
  O  O222  1  0.36936499  0.76005862  0.50222745  1
  O  O223  1  0.86474623  0.24419220  0.00328301  1
  O  O224  1  0.86647062  0.25080845  0.51153753  1
  O  O225  1  0.86921041  0.76151300  -0.00782311  1
  O  O226  1  0.86401036  0.75515389  0.50381671  1
  O  O227  1  0.13737546  0.24561183  0.50670614  1
  O  O228  1  0.11955568  0.25448290  0.98732597  1
  O  O229  1  0.13984840  0.73930211  0.50578690  1
  O  O230  1  0.13114837  0.74692853  0.99346336  1
  O  O231  1  0.62991570  0.24466357  0.50021467  1
  O  O232  1  0.62916802  0.23892846  0.99163731  1
  O  O233  1  0.63490488  0.73161841  0.50519638  1
  O  O234  1  0.63274821  0.74205513  0.99706799  1
  O  O235  1  0.49365033  0.24318978  0.12924436  1
  O  O236  1  0.49730517  0.24352669  0.63318976  1
  O  O237  1  0.49546334  0.73942222  0.12933768  1
  O  O238  1  0.50143911  0.73665462  0.63248830  1
  O  O239  1  0.99233514  0.23819289  0.12326463  1
  O  O240  1  0.99263896  0.25385605  0.64101258  1
  O  O241  1  1.00528100  0.73896865  0.13276166  1
  O  O242  1  0.98348054  0.75832883  0.61801033  1
  O  O243  1  -0.01490947  0.26667771  0.37316013  1
  O  O244  1  0.01422077  0.24278569  0.86712290  1
  O  O245  1  -0.00290931  0.74431379  0.36398657  1
  O  O246  1  0.01378936  0.75393524  0.87785373  1
  O  O247  1  0.50184271  0.25487153  0.36403434  1
  O  O248  1  0.50821002  0.25048689  0.86780960  1
  O  O249  1  0.49679630  0.75553501  0.36543511  1
  O  O250  1  0.50364442  0.75610989  0.86732909  1
  O  O251  1  0.24715313  0.13887953  0.49266036  1
  O  O252  1  0.25232993  0.12552652  0.99024151  1
  O  O253  1  0.25820901  0.63432908  0.49435677  1
  O  O254  1  0.24452689  0.63040832  0.99591930  1
  O  O255  1  0.74004732  0.13774325  0.50455817  1
  O  O256  1  0.74031896  0.12881265  0.99834654  1
  O  O257  1  0.74681802  0.62729837  0.48595936  1
  O  O258  1  0.74216540  0.63857993  1.00219737  1
  O  O259  1  0.25225107  0.38438248  0.01385237  1
  O  O260  1  0.25186668  0.37337946  0.50744501  1
  O  O261  1  0.25855408  0.86795743  0.00670039  1
  O  O262  1  0.25983791  0.86666830  0.50846148  1
  O  O263  1  0.73996797  0.35636852  -0.00750320  1
  O  O264  1  0.74997664  0.36377281  0.50962624  1
  O  O265  1  0.75671834  0.87000109  0.00651819  1
  O  O266  1  0.75045363  0.86608947  0.50691822  1
  O  O267  1  0.13461266  0.49768231  0.24638586  1
  O  O268  1  0.13466221  0.48933003  0.75565047  1
  O  O269  1  0.12525913  0.98462606  0.30388151  1
  O  O270  1  0.12174802  0.98694327  0.75308832  1
  O  O271  1  0.62686125  0.48531100  0.23711277  1
  O  O272  1  0.63589344  0.50601024  0.73905155  1
  O  O273  1  0.62958841  0.99277294  0.24427107  1
  O  O274  1  0.63342428  0.99672013  0.74579218  1
  O  O275  1  0.38298785  0.01826421  0.24898937  1
  O  O276  1  0.38043741  0.00787493  0.76275509  1
  O  O277  1  0.36233519  0.50026517  0.25502990  1
  O  O278  1  0.36165863  0.49672166  0.75088324  1
  O  O279  1  0.86459723  0.00016580  0.25651966  1
  O  O280  1  0.87148369  0.00526518  0.75552184  1
  O  O281  1  0.87539288  0.51370874  0.24230701  1
  O  O282  1  0.87010136  0.50269095  0.75749774  1
  O  O283  1  0.13460714  0.38176758  0.36079936  1
  O  O284  1  0.13342460  0.35896598  0.86844367  1
  O  O285  1  0.11025870  0.86254447  0.41785060  1
  O  O286  1  0.12462473  0.86780582  0.86889191  1
  O  O287  1  0.62144027  0.37671092  0.35945659  1
  O  O288  1  0.60939813  0.36022047  0.87333630  1
  O  O289  1  0.61361729  0.87675643  0.36987586  1
  O  O290  1  0.61753990  0.87399872  0.86622970  1
  O  O291  1  0.37769753  0.13171431  0.13022398  1
  O  O292  1  0.37721262  0.12388348  0.63151539  1
  O  O293  1  0.38275286  0.63632775  0.12649084  1
  O  O294  1  0.38632631  0.62360562  0.62782494  1
  O  O295  1  0.88253537  0.13008809  0.12548969  1
  O  O296  1  0.86916344  0.13913542  0.63615596  1
  O  O297  1  0.88474096  0.63000364  0.13383073  1
  O  O298  1  0.86633366  0.63508075  0.63315413  1
  O  O299  1  0.25882370  0.26081819  0.12812800  1
  O  O300  1  0.25293011  0.26473667  0.62016996  1
  O  O301  1  0.25905020  0.75368694  0.12243823  1
  O  O302  1  0.25779718  0.75828687  0.61970841  1
  O  O303  1  0.75716784  0.24307517  0.10910610  1
  O  O304  1  0.75398885  0.25767034  0.62287026  1
  O  O305  1  0.74451296  0.76187168  0.11520491  1
  O  O306  1  0.75419046  0.75593619  0.61613495  1
  O  O307  1  0.25737788  0.24354669  0.38402205  1
  O  O308  1  0.23863145  0.23743587  0.87455396  1
  O  O309  1  0.25078074  0.74348578  0.38453691  1
  O  O310  1  0.24308734  0.74390398  0.88163801  1
  O  O311  1  0.74414381  0.24697992  0.38531269  1
  O  O312  1  0.73728295  0.25031265  0.87533923  1
  O  O313  1  0.74806229  0.75016716  0.38378990  1
  O  O314  1  0.74748341  0.75991242  0.88588258  1
  O  O315  1  -0.00080532  0.11544842  0.01355689  1
  O  O316  1  0.01369911  0.13380265  0.49545973  1
  O  O317  1  0.00547369  0.62278684  0.00710753  1
  O  O318  1  -0.01095873  0.61293908  0.50384713  1
  O  O319  1  0.50539658  0.11723112  0.00357278  1
  O  O320  1  0.50484693  0.12713938  0.50727659  1
  O  O321  1  0.50734968  0.61982167  0.00619934  1
  O  O322  1  0.50948628  0.62825172  0.50752635  1
  O  O323  1  0.48622381  0.37027157  0.49855620  1
  O  O324  1  0.49855225  0.38227632  0.99253745  1
  O  O325  1  0.49650201  0.87112253  0.49409512  1
  O  O326  1  0.49450168  0.87810150  0.99496890  1
  O  O327  1  1.00274896  0.38945473  0.50672655  1
  O  O328  1  1.00937516  0.39074411  1.00336815  1
  O  O329  1  0.97680711  0.87913379  0.50572788  1
  O  O330  1  0.99320724  0.87890433  0.99742387  1
  O  O331  1  0.48452925  0.50018304  0.36575193  1
  O  O332  1  0.50358659  0.48766812  0.88113793  1
  O  O333  1  0.49744454  0.98910541  0.37806232  1
  O  O334  1  0.49189947  0.99391413  0.87910585  1
  O  O335  1  1.00750225  0.50335839  0.39464816  1
  O  O336  1  0.99238481  0.50444184  0.88424757  1
  O  O337  1  0.97999763  1.00290405  0.38294989  1
  O  O338  1  0.99392642  0.99375441  0.88356592  1
  O  O339  1  -0.00135583  0.01352100  0.12039635  1
  O  O340  1  0.00459704  -0.00028788  0.61930778  1
  O  O341  1  0.00604221  0.51196558  0.11723281  1
  O  O342  1  -0.00032074  0.49962656  0.61429977  1
  O  O343  1  0.50480608  0.00369437  0.11827598  1
  O  O344  1  0.50843421  0.00731697  0.62527951  1
  O  O345  1  0.49635118  0.51244299  0.11938836  1
  O  O346  1  0.50959905  0.50872947  0.63220438  1
  O  O347  1  0.24276399  0.38318854  0.24103448  1
  O  O348  1  0.24419014  0.37883547  0.74623692  1
  O  O349  1  0.25659664  0.86829027  0.24054348  1
  O  O350  1  0.24300110  0.87090904  0.73976592  1
  O  O351  1  0.73735799  0.36742223  0.24460766  1
  O  O352  1  0.75379225  0.38299444  0.74076830  1
  O  O353  1  0.74667531  0.88023162  0.24242418  1
  O  O354  1  0.74597890  0.88116617  0.74227831  1
  O  O355  1  0.25689754  0.13431927  0.26404784  1
  O  O356  1  0.25902550  0.12965743  0.75491437  1
  O  O357  1  0.25207713  0.61891076  0.25693959  1
  O  O358  1  0.25640655  0.61664472  0.76138818  1
  O  O359  1  0.74417806  0.11110243  0.24635821  1
  O  O360  1  0.76013374  0.11189431  0.74701369  1
  O  O361  1  0.75300212  0.62683369  0.26059446  1
  O  O362  1  0.76085419  0.61452066  0.74690945  1
  O  O363  1  0.36987387  0.12866298  0.36668023  1
  O  O364  1  0.36325332  0.12022595  0.87010782  1
  O  O365  1  0.36604620  0.61835094  0.37331571  1
  O  O366  1  0.36424054  0.62961852  0.87738145  1
  O  O367  1  0.86492282  0.11591515  0.37125782  1
  O  O368  1  0.87921073  0.11127501  0.86994719  1
  O  O369  1  0.85649649  0.62597156  0.36588587  1
  O  O370  1  0.87148503  0.61176509  0.86796790  1
  O  O371  1  0.13351554  0.38372493  0.13047755  1
  O  O372  1  0.13275897  0.37604905  0.63866936  1
  O  O373  1  0.14065376  0.87088978  0.12702732  1
  O  O374  1  0.13470757  0.87582119  0.63087828  1
  O  O375  1  0.62093930  0.37426735  0.13626054  1
  O  O376  1  0.63201533  0.38735450  0.62075826  1
  O  O377  1  0.63112214  0.88067000  0.12959691  1
  O  O378  1  0.63343182  0.87689809  0.62881691  1
  O  O379  1  0.12428200  0.26621473  0.24990228  1
  O  O380  1  0.11805413  0.25508497  0.75679257  1
  O  O381  1  0.10433271  0.74594594  0.25520026  1
  O  O382  1  0.12795505  0.75997602  0.75987729  1
  O  O383  1  0.61646707  0.25756093  0.24852545  1
  O  O384  1  0.61486069  0.23765995  0.75751443  1
  O  O385  1  0.61375652  0.75579300  0.24167703  1
  O  O386  1  0.61720755  0.75186860  0.74891279  1
  O  O387  1  0.38191321  0.24326662  0.24057334  1
  O  O388  1  0.38118152  0.23961517  0.74828849  1
  O  O389  1  0.38834971  0.74742860  0.24317379  1
  O  O390  1  0.39013531  0.74790999  0.74993137  1
  O  O391  1  0.87008083  0.24580083  0.22961964  1
  O  O392  1  0.88161920  0.24410129  0.75317000  1
  O  O393  1  0.88644985  0.73702622  0.25029794  1
  O  O394  1  0.87381099  0.74160462  0.74011297  1
  O  O395  1  0.36853595  0.49065705  0.49052993  1
  O  O396  1  0.38846539  0.50031789  1.00279030  1
  O  O397  1  0.37971533  0.98634114  0.50166247  1
  O  O398  1  0.37984310  0.99552821  0.98993511  1
  O  O399  1  0.88388506  0.48821704  0.50074060  1
  O  O400  1  0.88490434  0.50392956  0.99497696  1
  O  O401  1  0.86417356  0.99337836  0.49338705  1
  O  O402  1  0.87931015  0.98966657  0.99309296  1
  O  O403  1  0.11248271  -0.00660615  -0.00399439  1
  O  O404  1  0.12492594  0.02333989  0.49745570  1
  O  O405  1  0.12013221  0.50871458  0.00397026  1
  O  O406  1  0.11669016  0.51338197  0.51062316  1
  O  O407  1  0.62141925  0.00375507  0.00146645  1
  O  O408  1  0.62506627  0.00875581  0.50741929  1
  O  O409  1  0.61412286  0.50535225  0.00166539  1
  O  O410  1  0.63076772  0.50991159  0.50818741  1
  O  O411  1  0.36739328  0.36681333  0.12325527  1
  O  O412  1  0.36710635  0.37644145  0.61677602  1
  O  O413  1  0.37482957  0.86277975  0.12157333  1
  O  O414  1  0.37010125  0.87361314  0.61999938  1
  O  O415  1  0.88124605  0.36634119  0.10886189  1
  O  O416  1  0.86603642  0.36068749  0.63023024  1
  O  O417  1  0.86544049  0.87874378  0.11402984  1
  O  O418  1  0.86118578  0.86778794  0.62142629  1
  O  O419  1  0.13943317  0.13708766  0.38593897  1
  O  O420  1  0.13696779  0.13329472  0.87300947  1
  O  O421  1  0.13933997  0.62764295  0.37517930  1
  O  O422  1  0.13296662  0.63370804  0.87868983  1
  O  O423  1  0.62397011  0.12516811  0.38902687  1
  O  O424  1  0.61836217  0.12901547  0.88464539  1
  O  O425  1  0.63726023  0.61659227  0.37945343  1
  O  O426  1  0.62042299  0.62480376  0.88814134  1
