# generated using pymatgen
data_V85Zn86O256
_symmetry_space_group_name_H-M   'P 1'
_cell_length_a   16.91498797
_cell_length_b   16.91742427
_cell_length_c   16.91384927
_cell_angle_alpha   90.05963351
_cell_angle_beta   90.07512192
_cell_angle_gamma   90.02860161
_symmetry_Int_Tables_number   1
_chemical_formula_structural   V85Zn86O256
_chemical_formula_sum   'V85 Zn86 O256'
_cell_volume   4840.02636814
_cell_formula_units_Z   1
loop_
 _symmetry_equiv_pos_site_id
 _symmetry_equiv_pos_as_xyz
  1  'x, y, z'
loop_
 _atom_site_type_symbol
 _atom_site_label
 _atom_site_symmetry_multiplicity
 _atom_site_fract_x
 _atom_site_fract_y
 _atom_site_fract_z
 _atom_site_occupancy
  V  V0  1  0.25009064  0.38979500  0.12844864  1
  V  V1  1  0.25676958  0.74935589  0.50494839  1
  V  V2  1  0.87286282  0.49772748  0.37443781  1
  V  V3  1  -0.00189680  0.75166852  0.24857027  1
  V  V4  1  0.12983979  0.50061147  0.62760674  1
  V  V5  1  0.25064009  0.01246976  0.75560049  1
  V  V6  1  0.12659159  0.62568995  0.50142844  1
  V  V7  1  0.62996907  0.00253705  0.13361089  1
  V  V8  1  -0.00090155  0.49572314  0.50042503  1
  V  V9  1  0.12801611  0.87780272  0.74546655  1
  V  V10  1  0.63648550  0.24248028  0.38363020  1
  V  V11  1  0.48985460  0.74779875  0.73777848  1
  V  V12  1  0.74938304  0.62931681  0.87994071  1
  V  V13  1  0.62174974  0.51190170  0.61866055  1
  V  V14  1  0.12888924  0.12420384  0.50455966  1
  V  V15  1  0.87377566  0.62422358  0.24789859  1
  V  V16  1  0.13006144  0.75139679  0.87556630  1
  V  V17  1  0.87347139  0.74957615  0.62392123  1
  V  V18  1  0.37309792  0.25178390  0.12441025  1
  V  V19  1  -0.00185680  0.87641311  0.37344633  1
  V  V20  1  0.12497801  0.75041067  0.37587376  1
  V  V21  1  0.00344795  0.11933314  0.62603234  1
  V  V22  1  0.00481581  -0.00175640  0.50095984  1
  V  V23  1  0.49912541  0.87478205  0.36505959  1
  V  V24  1  0.37694086  0.24545587  0.64355547  1
  V  V25  1  0.12699534  0.38715828  0.24565854  1
  V  V26  1  0.12438077  0.25134018  0.37223541  1
  V  V27  1  0.49463651  0.51404025  0.50052487  1
  V  V28  1  0.49924771  0.50197694  -0.00545464  1
  V  V29  1  0.00102651  0.37630996  0.87359598  1
  V  V30  1  0.62307575  0.75280027  0.87464461  1
  V  V31  1  0.49767800  0.11826919  0.12054358  1
  V  V32  1  0.75174501  0.87299028  0.13064676  1
  V  V33  1  0.50148495  0.63475092  0.13017880  1
  V  V34  1  0.74903004  0.37355482  0.61827120  1
  V  V35  1  0.62330399  0.36758215  0.74498155  1
  V  V36  1  0.87013510  0.86882075  -0.00071252  1
  V  V37  1  0.26260141  0.61378223  0.87431009  1
  V  V38  1  0.85915241  0.00881864  0.37193980  1
  V  V39  1  0.74620590  -0.00397405  0.74531446  1
  V  V40  1  0.74904438  0.49876934  0.24929821  1
  V  V41  1  0.12872866  0.62415167  0.00181185  1
  V  V42  1  0.00430661  0.49983372  0.00408794  1
  V  V43  1  0.37862516  0.87612077  0.50522291  1
  V  V44  1  0.25714344  0.37926778  0.62177453  1
  V  V45  1  0.37457311  0.38053800  -0.00323216  1
  V  V46  1  0.00173326  0.62446166  0.62664508  1
  V  V47  1  0.50766953  0.00200022  0.50311370  1
  V  V48  1  0.38370673  0.88253041  -0.00042237  1
  V  V49  1  0.87490327  0.62639526  0.75184736  1
  V  V50  1  0.00636507  0.62436036  0.12555010  1
  V  V51  1  0.49708714  0.37696806  0.86760215  1
  V  V52  1  0.49360536  0.36981657  0.38793224  1
  V  V53  1  0.00009266  0.25064333  0.74932830  1
  V  V54  1  0.12862045  0.00969576  0.13287490  1
  V  V55  1  0.87554875  0.25066732  0.61469800  1
  V  V56  1  0.49768904  0.12237188  0.63860756  1
  V  V57  1  0.49894371  0.24859316  0.25114884  1
  V  V58  1  0.75296224  0.36934782  0.12181780  1
  V  V59  1  0.00151474  0.00500117  0.00744240  1
  V  V60  1  0.13137626  0.38253891  0.74982071  1
  V  V61  1  0.62722446  0.63083635  0.00044295  1
  V  V62  1  0.37559289  0.61431553  0.73947581  1
  V  V63  1  0.25352774  0.87794551  0.62838024  1
  V  V64  1  0.74933704  0.12636064  0.87004548  1
  V  V65  1  0.24973170  0.61684736  0.36974729  1
  V  V66  1  0.00217675  0.75110720  0.75065389  1
  V  V67  1  0.87361114  0.49912325  0.87474939  1
  V  V68  1  0.25039835  0.11708377  0.36733903  1
  V  V69  1  0.87462324  0.87238876  0.49851571  1
  V  V70  1  0.62311146  0.37130685  0.24984091  1
  V  V71  1  0.62069695  0.87580284  0.74015912  1
  V  V72  1  0.13340715  0.24336209  0.87511122  1
  V  V73  1  0.86830158  0.12670696  0.23915304  1
  V  V74  1  0.13481300  0.87702012  0.24952816  1
  V  V75  1  0.37826735  0.01426381  0.87550860  1
  V  V76  1  0.74259854  0.74214474  0.49928519  1
  V  V77  1  0.62137263  0.11790213  -0.00264741  1
  V  V78  1  0.61927191  0.24953554  0.87002498  1
  V  V79  1  0.37531451  0.62374154  0.24948063  1
  V  V80  1  0.62458382  0.49920898  0.12436097  1
  V  V81  1  0.61746891  0.74148689  0.36972348  1
  V  V82  1  0.26222216  0.25085690  0.49928810  1
  V  V83  1  0.25464193  0.75456710  0.00370946  1
  V  V84  1  0.87731459  -0.00075629  0.87465667  1
  Zn  Zn85  1  0.62734216  0.87693109  0.25241974  1
  Zn  Zn86  1  0.38118850  0.75738915  0.13216356  1
  Zn  Zn87  1  -0.00053553  0.37243999  0.37041709  1
  Zn  Zn88  1  0.87509858  0.37109541  -0.00207359  1
  Zn  Zn89  1  0.86921642  0.74570553  0.11923670  1
  Zn  Zn90  1  0.25418096  0.24704998  -0.00493228  1
  Zn  Zn91  1  0.12500211  0.12717947  0.00316942  1
  Zn  Zn92  1  0.75037234  0.24992502  -0.00293650  1
  Zn  Zn93  1  0.86915268  0.37108337  0.49383571  1
  Zn  Zn94  1  0.00451355  0.24167760  0.23726029  1
  Zn  Zn95  1  0.87605120  0.12369724  0.74873199  1
  Zn  Zn96  1  0.36916846  0.11842061  0.24439588  1
  Zn  Zn97  1  0.74564144  0.87486352  0.62214769  1
  Zn  Zn98  1  0.63452239  0.12006786  0.50109987  1
  Zn  Zn99  1  0.74308802  0.62026789  0.37811306  1
  Zn  Zn100  1  0.37211513  -0.00450310  0.37011395  1
  Zn  Zn101  1  0.88437797  0.24175977  0.11378909  1
  Zn  Zn102  1  0.36933370  0.49171829  0.37243157  1
  Zn  Zn103  1  0.50115638  0.88010297  0.87524557  1
  Zn  Zn104  1  0.25404137  0.88116666  0.12819169  1
  Zn  Zn105  1  0.00247578  0.87513703  0.87772186  1
  Zn  Zn106  1  0.74353311  0.50191803  0.74966636  1
  Zn  Zn107  1  0.18717523  0.19373981  0.18457894  1
  Zn  Zn108  1  0.18738164  0.19197192  0.68634466  1
  Zn  Zn109  1  0.18913047  0.68811119  0.18876968  1
  Zn  Zn110  1  0.19588259  0.68812801  0.68922944  1
  Zn  Zn111  1  0.69160565  0.18507907  0.19187394  1
  Zn  Zn112  1  0.70531018  0.16754154  0.65507994  1
  Zn  Zn113  1  0.68829295  0.69097873  0.18916179  1
  Zn  Zn114  1  0.68702553  0.68971099  0.69120889  1
  Zn  Zn115  1  0.31035687  0.30994575  0.30997135  1
  Zn  Zn116  1  0.31258721  0.32117331  0.81046480  1
  Zn  Zn117  1  0.31589326  0.80512729  0.31582550  1
  Zn  Zn118  1  0.31488050  0.81390644  0.81714363  1
  Zn  Zn119  1  0.81325531  0.30879387  0.30728869  1
  Zn  Zn120  1  0.80944371  0.31310017  0.80489193  1
  Zn  Zn121  1  0.80911137  0.81155228  0.31339391  1
  Zn  Zn122  1  0.80934239  0.81244266  0.81402382  1
  Zn  Zn123  1  0.18640765  0.43461925  0.43951841  1
  Zn  Zn124  1  0.18754538  0.43563477  0.94040692  1
  Zn  Zn125  1  0.18582777  0.93686760  0.44054954  1
  Zn  Zn126  1  0.19074463  0.94082127  0.93891733  1
  Zn  Zn127  1  0.68129812  0.43348063  0.43798439  1
  Zn  Zn128  1  0.68601158  0.43889925  0.93669687  1
  Zn  Zn129  1  0.68364648  0.92982990  0.44125638  1
  Zn  Zn130  1  0.68812646  0.93751175  0.93838659  1
  Zn  Zn131  1  0.30528716  0.06583233  0.05764850  1
  Zn  Zn132  1  0.31585794  0.05980641  0.56392984  1
  Zn  Zn133  1  0.31721220  0.56484558  0.06167689  1
  Zn  Zn134  1  0.31594389  0.56142199  0.55986941  1
  Zn  Zn135  1  0.80752295  0.05790256  0.05837510  1
  Zn  Zn136  1  0.81647210  0.06010034  0.55909434  1
  Zn  Zn137  1  0.81382211  0.55967776  0.06178905  1
  Zn  Zn138  1  0.81061165  0.56079436  0.56302592  1
  Zn  Zn139  1  0.43737106  0.44123596  0.18856961  1
  Zn  Zn140  1  0.43847181  0.43648865  0.68208461  1
  Zn  Zn141  1  0.43452925  0.94305831  0.18819614  1
  Zn  Zn142  1  0.43408895  0.93965476  0.69002022  1
  Zn  Zn143  1  0.94087318  0.43267842  0.18642779  1
  Zn  Zn144  1  0.93709975  0.43718905  0.68766149  1
  Zn  Zn145  1  0.93682618  0.94197248  0.18963460  1
  Zn  Zn146  1  0.93723089  0.93578797  0.68770282  1
  Zn  Zn147  1  0.05719973  0.06355382  0.31216802  1
  Zn  Zn148  1  0.06352209  0.05998239  0.81255790  1
  Zn  Zn149  1  0.06100857  0.56230652  0.31441100  1
  Zn  Zn150  1  0.06603926  0.56453750  0.81600116  1
  Zn  Zn151  1  0.56015003  0.06425717  0.31439402  1
  Zn  Zn152  1  0.56014779  0.06084970  0.80872357  1
  Zn  Zn153  1  0.55809138  0.55903347  0.31287731  1
  Zn  Zn154  1  0.55910267  0.56207349  0.80685003  1
  Zn  Zn155  1  0.43913740  0.18309476  0.43900047  1
  Zn  Zn156  1  0.43907780  0.19219686  0.93777621  1
  Zn  Zn157  1  0.43463050  0.68840893  0.43515299  1
  Zn  Zn158  1  0.43907003  0.69199136  0.93659286  1
  Zn  Zn159  1  0.94019486  0.18443225  0.43356935  1
  Zn  Zn160  1  0.93932116  0.18727962  0.93791557  1
  Zn  Zn161  1  0.93540603  0.68407967  0.43657636  1
  Zn  Zn162  1  0.94049708  0.68884658  0.93769612  1
  Zn  Zn163  1  0.06233345  0.31420737  0.06343555  1
  Zn  Zn164  1  0.06611311  0.31107455  0.56119945  1
  Zn  Zn165  1  0.06066023  0.81692744  0.06436908  1
  Zn  Zn166  1  0.06563063  0.81309174  0.56507773  1
  Zn  Zn167  1  0.56352374  0.30852165  0.05887951  1
  Zn  Zn168  1  0.55872261  0.30765144  0.56508604  1
  Zn  Zn169  1  0.56636402  0.81535079  0.06176206  1
  Zn  Zn170  1  0.56044291  0.80747107  0.55890394  1
  O  O171  1  0.12305736  0.11285882  0.13056008  1
  O  O172  1  0.11845765  0.13156883  0.61317175  1
  O  O173  1  0.11362157  0.62895813  0.12065170  1
  O  O174  1  0.12311408  0.62103982  0.62226207  1
  O  O175  1  0.62241186  0.12045647  0.11760274  1
  O  O176  1  0.59892917  0.13480948  0.62684960  1
  O  O177  1  0.62139307  0.62204711  0.11824830  1
  O  O178  1  0.62750926  0.61018369  0.62982764  1
  O  O179  1  0.38858452  0.37428266  0.36625123  1
  O  O180  1  0.38483828  0.37236441  0.88259653  1
  O  O181  1  0.38167191  0.87129704  0.38631199  1
  O  O182  1  0.37721881  0.88253715  0.88669822  1
  O  O183  1  0.87687218  0.38426988  0.37367840  1
  O  O184  1  0.88059794  0.38423765  0.87107694  1
  O  O185  1  0.87953922  0.88147935  0.38004768  1
  O  O186  1  0.87455507  0.88161857  0.88192950  1
  O  O187  1  0.24684610  0.01459289  0.38078744  1
  O  O188  1  0.25890266  -0.00161676  0.86383352  1
  O  O189  1  0.25101028  0.51296659  0.38642623  1
  O  O190  1  0.24734363  0.51574963  0.87896834  1
  O  O191  1  0.76173468  -0.00638922  0.38327068  1
  O  O192  1  0.75691634  0.00565556  0.86689753  1
  O  O193  1  0.75465827  0.49879499  0.37052316  1
  O  O194  1  0.75780721  0.50707982  0.87289503  1
  O  O195  1  0.25370173  0.48921284  0.11971163  1
  O  O196  1  0.24451700  0.48934085  0.61649743  1
  O  O197  1  0.23312493  0.99819688  0.12444428  1
  O  O198  1  0.25692061  0.98799691  0.63857869  1
  O  O199  1  0.74323730  0.49293223  0.12865072  1
  O  O200  1  0.73749412  0.49455437  0.62535227  1
  O  O201  1  0.74116343  0.98870205  0.12201133  1
  O  O202  1  0.76379400  0.99204583  0.64268212  1
  O  O203  1  0.01384674  0.37117439  0.25040829  1
  O  O204  1  0.00879378  0.36891709  0.75242684  1
  O  O205  1  0.00521157  0.86965400  0.25559426  1
  O  O206  1  0.01015997  0.86951046  0.75185209  1
  O  O207  1  0.50453186  0.36455835  0.25251794  1
  O  O208  1  0.50504302  0.38065390  0.76096280  1
  O  O209  1  0.49965752  0.87696545  0.26220958  1
  O  O210  1  0.50296186  0.86519271  0.75116258  1
  O  O211  1  0.50081763  0.13721848  0.24147004  1
  O  O212  1  0.49237646  0.12055272  0.73826896  1
  O  O213  1  0.49463286  0.62057431  0.23902448  1
  O  O214  1  0.48657070  0.63599621  0.75470334  1
  O  O215  1  0.97744237  0.12773304  0.26447981  1
  O  O216  1  1.00296931  0.13144755  0.74166556  1
  O  O217  1  0.99550183  0.62800657  0.24242007  1
  O  O218  1  0.99643943  0.63161779  0.74701826  1
  O  O219  1  0.37806768  0.26414568  0.00719663  1
  O  O220  1  0.36388337  0.24837379  0.50133366  1
  O  O221  1  0.37026820  0.76228973  0.00149828  1
  O  O222  1  0.36304664  0.75617386  0.49736226  1
  O  O223  1  0.86836996  0.25277038  -0.00340556  1
  O  O224  1  0.88430867  0.25302786  0.51075980  1
  O  O225  1  0.88024103  0.76425840  -0.00041445  1
  O  O226  1  0.87026679  0.75442771  0.50286412  1
  O  O227  1  0.13383135  0.24182873  0.49440240  1
  O  O228  1  0.12406369  0.25605004  0.98170030  1
  O  O229  1  0.13280752  0.74541347  0.49605243  1
  O  O230  1  0.13143572  0.74666543  0.99345479  1
  O  O231  1  0.61903783  0.25029468  0.48531642  1
  O  O232  1  0.62936881  0.23917860  0.98954350  1
  O  O233  1  0.63248498  0.75303004  0.48769214  1
  O  O234  1  0.62104886  0.73814135  0.99227657  1
  O  O235  1  0.49176981  0.24601885  0.13101990  1
  O  O236  1  0.48253310  0.24259031  0.62296022  1
  O  O237  1  0.50265371  0.73831800  0.12051246  1
  O  O238  1  0.50120883  0.74802673  0.63900173  1
  O  O239  1  0.99749883  0.24902523  0.12333904  1
  O  O240  1  0.99752982  0.24418083  0.63143129  1
  O  O241  1  0.99601554  0.74233520  0.13036238  1
  O  O242  1  0.99597160  0.74291642  0.63004237  1
  O  O243  1  0.01515570  0.25258029  0.37896060  1
  O  O244  1  0.00751102  0.25623884  0.86617469  1
  O  O245  1  0.00494861  0.75477207  0.37087579  1
  O  O246  1  0.01197589  0.75101020  0.86929833  1
  O  O247  1  0.50243945  0.25463814  0.36819817  1
  O  O248  1  0.51179081  0.26015974  0.87748332  1
  O  O249  1  0.51120931  0.75739030  0.38214302  1
  O  O250  1  0.51139056  0.75124592  0.86715692  1
  O  O251  1  0.24369909  0.12965111  0.49606099  1
  O  O252  1  0.23849925  0.13575822  1.00370211  1
  O  O253  1  0.24584974  0.63345487  0.49686695  1
  O  O254  1  0.24993192  0.63168363  0.99159997  1
  O  O255  1  0.73709305  0.13355430  0.54678553  1
  O  O256  1  0.74315966  0.12355299  0.98331064  1
  O  O257  1  0.75653672  0.63757764  0.49686879  1
  O  O258  1  0.74310966  0.62092717  0.98920927  1
  O  O259  1  0.25898705  0.37206686  0.00600598  1
  O  O260  1  0.24341030  0.36351539  0.51095939  1
  O  O261  1  0.25967770  0.86871492  0.00140720  1
  O  O262  1  0.25495416  0.87083199  0.50747169  1
  O  O263  1  0.74954581  0.37501338  0.00807996  1
  O  O264  1  0.74998127  0.37760210  0.51344853  1
  O  O265  1  0.76049180  0.88091417  0.01000400  1
  O  O266  1  0.75699227  0.86292568  0.50275217  1
  O  O267  1  0.12286738  0.48622339  0.25434728  1
  O  O268  1  0.11993537  0.49097965  0.74444055  1
  O  O269  1  0.11783467  0.99271505  0.24092532  1
  O  O270  1  0.13859148  0.98949782  0.75898369  1
  O  O271  1  0.62831874  0.49206243  0.24468577  1
  O  O272  1  0.62019962  0.49095128  0.73589734  1
  O  O273  1  0.62107878  1.00063181  0.23749945  1
  O  O274  1  0.63311529  0.98817275  0.75611924  1
  O  O275  1  0.37592521  0.00683013  0.25717108  1
  O  O276  1  0.36196748  -0.00380622  0.76397834  1
  O  O277  1  0.37926743  0.51450085  0.25428405  1
  O  O278  1  0.38247325  0.51463645  0.74709131  1
  O  O279  1  0.87642176  0.00818413  0.26511942  1
  O  O280  1  0.87123473  -0.00243699  0.76261497  1
  O  O281  1  0.87132151  0.50359676  0.25599477  1
  O  O282  1  0.87693436  0.50809676  0.76086900  1
  O  O283  1  0.12702071  0.36820118  0.36455848  1
  O  O284  1  0.12080506  0.37105588  0.86574116  1
  O  O285  1  0.11866113  0.87143265  0.36950952  1
  O  O286  1  0.12885785  0.86425485  0.86837212  1
  O  O287  1  0.61293196  0.36625060  0.36861029  1
  O  O288  1  0.61973408  0.36921301  0.86827762  1
  O  O289  1  0.61615935  0.86612199  0.37284253  1
  O  O290  1  0.62285174  0.86768459  0.86980012  1
  O  O291  1  0.38193652  0.13320681  0.12155858  1
  O  O292  1  0.37889091  0.13892149  0.62150851  1
  O  O293  1  0.38529365  0.62739313  0.12998144  1
  O  O294  1  0.36396675  0.62801164  0.64085588  1
  O  O295  1  0.86914795  0.11969532  0.13478723  1
  O  O296  1  0.88792941  0.13372270  0.62888008  1
  O  O297  1  0.88420609  0.62556677  0.12893022  1
  O  O298  1  0.88063113  0.62856411  0.63178795  1
  O  O299  1  0.26405516  0.25924205  0.12599017  1
  O  O300  1  0.25981369  0.25468740  0.61945886  1
  O  O301  1  0.25133958  0.75075446  0.11208699  1
  O  O302  1  0.24471980  0.76375035  0.61667806  1
  O  O303  1  0.75089146  0.25913047  0.12260639  1
  O  O304  1  0.76788056  0.26359979  0.64150809  1
  O  O305  1  0.75016968  0.76579582  0.12403747  1
  O  O306  1  0.75496307  0.74991470  0.61845490  1
  O  O307  1  0.24142414  0.24335569  0.38223207  1
  O  O308  1  0.23580875  0.25758400  0.87093124  1
  O  O309  1  0.24251717  0.74122065  0.38485328  1
  O  O310  1  0.24690143  0.74404011  0.88596329  1
  O  O311  1  0.73445950  0.25815384  0.37461161  1
  O  O312  1  0.73924716  0.24208731  0.86894571  1
  O  O313  1  0.73835083  0.74757714  0.38170216  1
  O  O314  1  0.73612598  0.74134259  0.87022448  1
  O  O315  1  0.00551898  0.10953557  -0.00750604  1
  O  O316  1  0.00773977  0.11780678  0.50587358  1
  O  O317  1  0.00629731  0.62089179  0.00645133  1
  O  O318  1  0.00488773  0.61520788  0.50514868  1
  O  O319  1  0.50950629  0.13326007  0.00958124  1
  O  O320  1  0.50031739  0.11453182  0.50630872  1
  O  O321  1  0.50602656  0.61878729  0.00388766  1
  O  O322  1  0.49878115  0.61293567  0.49596660  1
  O  O323  1  0.50145922  0.37773600  0.48985997  1
  O  O324  1  0.49666955  0.38243288  0.99198477  1
  O  O325  1  0.49296544  0.88042403  0.49698471  1
  O  O326  1  0.48724693  0.87344538  0.99890859  1
  O  O327  1  1.00121185  0.38737039  0.49952420  1
  O  O328  1  0.99994077  0.38562900  0.99177855  1
  O  O329  1  0.99713009  0.88113206  0.49669264  1
  O  O330  1  0.99078668  0.88528962  0.99877322  1
  O  O331  1  0.50244587  0.48915282  0.38785264  1
  O  O332  1  0.50855706  0.49290954  0.88693625  1
  O  O333  1  0.49970457  0.99154349  0.38451636  1
  O  O334  1  0.48320130  0.99846221  0.86984282  1
  O  O335  1  0.99170099  0.49829338  0.38366107  1
  O  O336  1  0.99357114  0.49878778  0.88215715  1
  O  O337  1  0.99299541  0.99383411  0.38514050  1
  O  O338  1  0.99257370  0.99587666  0.87966401  1
  O  O339  1  0.01146592  -0.00556035  0.11792783  1
  O  O340  1  -0.00501795  0.01096061  0.61868170  1
  O  O341  1  -0.00587065  0.50758698  0.11189425  1
  O  O342  1  0.00562816  0.50554364  0.61908505  1
  O  O343  1  0.50698121  0.01351517  0.12507581  1
  O  O344  1  0.48708277  0.01359458  0.61875602  1
  O  O345  1  0.50746717  0.50550031  0.11319404  1
  O  O346  1  0.50947742  0.49516239  0.61058278  1
  O  O347  1  0.23911936  0.37347424  0.24309186  1
  O  O348  1  0.24064105  0.37432828  0.73790902  1
  O  O349  1  0.23786890  0.86755793  0.25267243  1
  O  O350  1  0.24638008  0.87656243  0.74461634  1
  O  O351  1  0.74371032  0.37962845  0.24125666  1
  O  O352  1  0.74045836  0.38271394  0.74113412  1
  O  O353  1  0.75073431  0.87608668  0.23569891  1
  O  O354  1  0.73921577  0.87849086  0.74971907  1
  O  O355  1  0.24644783  0.13121440  0.26529726  1
  O  O356  1  0.24336149  0.11035024  0.74443642  1
  O  O357  1  0.25480404  0.62648894  0.26018890  1
  O  O358  1  0.26345497  0.63147044  0.76448355  1
  O  O359  1  0.76739294  0.12690808  0.25597821  1
  O  O360  1  0.74947813  0.11584769  0.75574068  1
  O  O361  1  0.75665670  0.61678286  0.24989082  1
  O  O362  1  0.75493264  0.62288288  0.76189114  1
  O  O363  1  0.35704879  0.12733547  0.37637047  1
  O  O364  1  0.37627355  0.11339671  0.88321589  1
  O  O365  1  0.36621715  0.62366924  0.36807349  1
  O  O366  1  0.36624335  0.62665044  0.87188880  1
  O  O367  1  0.86923930  0.11109913  0.38208586  1
  O  O368  1  0.86689840  0.11790163  0.87061084  1
  O  O369  1  0.87362345  0.61176001  0.36758087  1
  O  O370  1  0.86800712  0.62169322  0.87336921  1
  O  O371  1  0.13533854  0.37325122  0.13657893  1
  O  O372  1  0.13215100  0.37910106  0.63213516  1
  O  O373  1  0.12752177  0.88170580  0.13545613  1
  O  O374  1  0.13240710  0.87403386  0.63838868  1
  O  O375  1  0.63108853  0.37773824  0.12876154  1
  O  O376  1  0.62971584  0.37664045  0.62924109  1
  O  O377  1  0.63401137  0.88300376  0.12519442  1
  O  O378  1  0.62440549  0.86975096  0.63644257  1
  O  O379  1  0.12424615  0.25695633  0.25848571  1
  O  O380  1  0.11778815  0.25925256  0.75557368  1
  O  O381  1  0.11814447  0.75700027  0.25578196  1
  O  O382  1  0.12423463  0.75568129  0.75738377  1
  O  O383  1  0.61781982  0.25274046  0.25773800  1
  O  O384  1  0.62632468  0.26357497  0.75544544  1
  O  O385  1  0.62855137  0.75449182  0.26574426  1
  O  O386  1  0.61453815  0.75536781  0.75564138  1
  O  O387  1  0.38212825  0.24471912  0.24202107  1
  O  O388  1  0.36958602  0.24659486  0.74188265  1
  O  O389  1  0.37255920  0.73415139  0.24694749  1
  O  O390  1  0.38667819  0.74586408  0.75554390  1
  O  O391  1  0.87779575  0.23795736  0.24595924  1
  O  O392  1  0.89013165  0.25060836  0.74511147  1
  O  O393  1  0.87958872  0.73997202  0.25037592  1
  O  O394  1  0.88047253  0.74560612  0.74618736  1
  O  O395  1  0.39000065  0.49987276  0.49672788  1
  O  O396  1  0.38494409  0.48953108  1.00294653  1
  O  O397  1  0.38156692  0.99081851  0.49411907  1
  O  O398  1  0.36728537  0.99055163  0.98957642  1
  O  O399  1  0.88153054  0.49847744  0.49260991  1
  O  O400  1  0.88273592  0.49995438  0.98725049  1
  O  O401  1  0.88386551  0.99301732  0.49370559  1
  O  O402  1  0.88088485  0.99419978  0.99070916  1
  O  O403  1  0.11792575  -0.00278181  0.01209113  1
  O  O404  1  0.11321949  0.00698842  0.49869862  1
  O  O405  1  0.11510618  0.51001142  -0.00695812  1
  O  O406  1  0.11712458  0.50616260  0.50563323  1
  O  O407  1  0.62708370  0.01235100  0.00596363  1
  O  O408  1  0.61220414  -0.00219117  0.50222686  1
  O  O409  1  0.62003019  0.51168406  0.00387544  1
  O  O410  1  0.61582391  0.49770311  0.51116491  1
  O  O411  1  0.37162408  0.37076914  0.11972086  1
  O  O412  1  0.36757097  0.36144288  0.62998288  1
  O  O413  1  0.37363359  0.87655538  0.11462245  1
  O  O414  1  0.36929952  0.87556081  0.61420806  1
  O  O415  1  0.86267670  0.37705247  0.12197472  1
  O  O416  1  0.86822132  0.37070944  0.62285978  1
  O  O417  1  0.86543983  0.87681734  0.11961262  1
  O  O418  1  0.87691539  0.86524616  0.61666731  1
  O  O419  1  0.13273159  0.12983721  0.38347561  1
  O  O420  1  0.12155246  0.14186404  0.87093747  1
  O  O421  1  0.13008226  0.62974433  0.38092283  1
  O  O422  1  0.13685586  0.63611897  0.87791910  1
  O  O423  1  0.62357778  0.13748341  0.37900581  1
  O  O424  1  0.62726133  0.13055791  0.87713713  1
  O  O425  1  0.62327559  0.63705800  0.37082289  1
  O  O426  1  0.63065356  0.62908458  0.87958914  1
