# generated using pymatgen
data_V85Zn86O256
_symmetry_space_group_name_H-M   'P 1'
_cell_length_a   16.93140318
_cell_length_b   16.93607386
_cell_length_c   16.96131917
_cell_angle_alpha   89.93023299
_cell_angle_beta   89.94786405
_cell_angle_gamma   90.01283911
_symmetry_Int_Tables_number   1
_chemical_formula_structural   V85Zn86O256
_chemical_formula_sum   'V85 Zn86 O256'
_cell_volume   4863.67788155
_cell_formula_units_Z   1
loop_
 _symmetry_equiv_pos_site_id
 _symmetry_equiv_pos_as_xyz
  1  'x, y, z'
loop_
 _atom_site_type_symbol
 _atom_site_label
 _atom_site_symmetry_multiplicity
 _atom_site_fract_x
 _atom_site_fract_y
 _atom_site_fract_z
 _atom_site_occupancy
  V  V0  1  0.62609319  0.36569123  0.25299428  1
  V  V1  1  0.12507258  0.25874024  0.87173917  1
  V  V2  1  0.12539203  0.00248707  0.12753916  1
  V  V3  1  0.75074030  0.62202203  0.37789977  1
  V  V4  1  -0.00033905  0.49658688  0.49951189  1
  V  V5  1  0.49787470  0.74252527  0.25339228  1
  V  V6  1  0.13165789  0.37821234  0.24930470  1
  V  V7  1  -0.00655387  0.13223302  0.12407263  1
  V  V8  1  0.00371159  0.37015392  0.37792712  1
  V  V9  1  0.36707226  0.62451079  0.74959604  1
  V  V10  1  0.49995004  0.74654850  0.74478612  1
  V  V11  1  0.12504273  0.88747900  0.74259168  1
  V  V12  1  0.62097352  0.13126808  0.49526599  1
  V  V13  1  -0.00775115  0.49958318  0.00199351  1
  V  V14  1  0.13203071  0.74560162  0.86902975  1
  V  V15  1  0.87807632  0.36359025  0.50712554  1
  V  V16  1  0.62165712  0.49776802  0.62002577  1
  V  V17  1  0.00074552  0.87805500  0.87138011  1
  V  V18  1  0.37937811  0.22824652  0.12698361  1
  V  V19  1  0.37169879  0.50333330  0.87749649  1
  V  V20  1  0.35673067  0.61858160  0.25333163  1
  V  V21  1  0.36617588  0.24419408  0.62282843  1
  V  V22  1  0.37285674  0.74761641  0.62056256  1
  V  V23  1  0.62411410  0.87399732  0.74889838  1
  V  V24  1  0.12874604  0.62157034  0.49671636  1
  V  V25  1  0.75023152  0.00143806  0.74960916  1
  V  V26  1  0.87580858  0.49597733  0.37658107  1
  V  V27  1  0.50225291  0.38082100  0.37523832  1
  V  V28  1  0.37047126  0.01452602  0.87475359  1
  V  V29  1  0.13704534  0.50276166  0.12603509  1
  V  V30  1  0.25343902  0.01236624  0.25045231  1
  V  V31  1  0.25966211  0.37847747  0.12698013  1
  V  V32  1  0.49394929  0.24738650  0.75335446  1
  V  V33  1  0.25089306  0.37633760  0.62531293  1
  V  V34  1  0.49440601  0.12486282  0.63229013  1
  V  V35  1  0.74969957  0.25074789  0.01547061  1
  V  V36  1  0.87533352  0.75726447  0.62132561  1
  V  V37  1  0.62752071  0.74768851  0.87292107  1
  V  V38  1  0.75198220  0.88200781  0.12616974  1
  V  V39  1  0.62972134  0.49113604  0.12562334  1
  V  V40  1  -0.00679174  0.25515738  0.74664538  1
  V  V41  1  0.14429652  0.24275049  0.37587688  1
  V  V42  1  0.50487530  0.62275391  0.12814599  1
  V  V43  1  0.75343502  0.75657902  0.49854937  1
  V  V44  1  0.12642643  0.62382866  -0.00843558  1
  V  V45  1  0.35974609  0.50275339  0.38034329  1
  V  V46  1  0.87084358  0.36986593  0.01536369  1
  V  V47  1  -0.00482420  0.74621875  0.74899993  1
  V  V48  1  -0.00761727  0.38151253  0.87406402  1
  V  V49  1  0.86969396  0.10658492  0.25326965  1
  V  V50  1  0.12493988  0.74875885  0.37343776  1
  V  V51  1  0.62589274  0.74604981  0.37712341  1
  V  V52  1  0.61562702  0.12321540  0.00332925  1
  V  V53  1  0.62718170  0.37680256  0.75357853  1
  V  V54  1  0.00051042  0.75317774  0.24981922  1
  V  V55  1  0.87519144  0.62282211  0.25137887  1
  V  V56  1  0.87869434  0.87641648  -0.00084284  1
  V  V57  1  -0.00536377  0.00400230  0.50760501  1
  V  V58  1  0.62319036  0.00203935  0.62520146  1
  V  V59  1  0.75137148  0.49005222  0.24848407  1
  V  V60  1  0.62978599  0.87405910  0.25022716  1
  V  V61  1  -0.01134875  0.25213928  0.24859241  1
  V  V62  1  0.00117479  0.62531852  0.12657796  1
  V  V63  1  -0.01330497  0.88319669  0.38083902  1
  V  V64  1  0.37195278  0.87519742  0.49516150  1
  V  V65  1  0.62949449  0.62202635  -0.00109040  1
  V  V66  1  0.61654720  -0.00023955  0.12337280  1
  V  V67  1  0.74899127  0.24549579  0.50309495  1
  V  V68  1  0.49991845  0.37769276  0.87908348  1
  V  V69  1  0.12501389  0.49419713  0.62746836  1
  V  V70  1  0.38181753  0.37590390  0.50257031  1
  V  V71  1  0.76706500  0.62233502  0.87176762  1
  V  V72  1  0.24982681  0.74694123  0.49117315  1
  V  V73  1  0.75256790  0.74933123  -0.00102414  1
  V  V74  1  0.76291717  0.50287951  0.75178672  1
  V  V75  1  0.49896436  0.87505618  0.37521711  1
  V  V76  1  0.87445533  0.00307729  0.87201845  1
  V  V77  1  0.00099303  0.00567610  -0.00172549  1
  V  V78  1  0.24347883  0.50061836  0.75603507  1
  V  V79  1  -0.00864819  0.62211074  0.62636832  1
  V  V80  1  0.75007924  0.12938385  0.87769746  1
  V  V81  1  0.49815550  0.23447573  0.25563605  1
  V  V82  1  0.48668848  0.87174741  0.87922815  1
  V  V83  1  0.37356592  0.01431900  0.36975077  1
  V  V84  1  0.87710514  0.75047116  0.12506152  1
  Zn  Zn85  1  -0.00145699  0.12602007  0.62123156  1
  Zn  Zn86  1  0.86476485  0.14053387  0.73744123  1
  Zn  Zn87  1  0.12689219  0.13140245  -0.00018089  1
  Zn  Zn88  1  0.24726782  0.13354400  0.86921403  1
  Zn  Zn89  1  0.25848445  0.01416017  0.73809251  1
  Zn  Zn90  1  0.25006785  0.25168064  0.00112318  1
  Zn  Zn91  1  0.50122496  0.49960124  0.00071621  1
  Zn  Zn92  1  0.37519874  0.37802013  0.00425986  1
  Zn  Zn93  1  0.49558176  0.61487618  0.61746344  1
  Zn  Zn94  1  0.26639525  0.87871315  0.11974645  1
  Zn  Zn95  1  0.75258367  0.87919249  0.62017196  1
  Zn  Zn96  1  0.37617630  0.75450942  0.11846183  1
  Zn  Zn97  1  0.75439156  0.36755684  0.63044694  1
  Zn  Zn98  1  0.75684380  0.11903195  0.37626710  1
  Zn  Zn99  1  0.23902443  0.87858384  0.61649189  1
  Zn  Zn100  1  0.13176296  0.87754574  0.25245344  1
  Zn  Zn101  1  0.62092918  0.61946252  0.49914648  1
  Zn  Zn102  1  0.25983694  0.75661676  -0.00359213  1
  Zn  Zn103  1  0.62446242  0.25097845  0.87929299  1
  Zn  Zn104  1  0.48811180  -0.00783498  0.00698393  1
  Zn  Zn105  1  0.14423574  0.11267482  0.50371013  1
  Zn  Zn106  1  0.49759200  0.00284117  0.50061393  1
  Zn  Zn107  1  0.18579254  0.19114276  0.18916238  1
  Zn  Zn108  1  0.18007797  0.18547146  0.68610157  1
  Zn  Zn109  1  0.18675985  0.69265984  0.18082975  1
  Zn  Zn110  1  0.18461774  0.68760967  0.68170665  1
  Zn  Zn111  1  0.68543546  0.18334109  0.18890912  1
  Zn  Zn112  1  0.68534281  0.19040680  0.68530435  1
  Zn  Zn113  1  0.69003619  0.68625546  0.18849675  1
  Zn  Zn114  1  0.69047298  0.68247368  0.68559396  1
  Zn  Zn115  1  0.31992638  0.31436899  0.30650224  1
  Zn  Zn116  1  0.31274876  0.31760604  0.80917886  1
  Zn  Zn117  1  0.31026718  0.81484701  0.30494592  1
  Zn  Zn118  1  0.30817278  0.81320250  0.80765395  1
  Zn  Zn119  1  0.80918001  0.30637860  0.32133667  1
  Zn  Zn120  1  0.81252819  0.31741128  0.82392371  1
  Zn  Zn121  1  0.81272815  0.81302653  0.31149836  1
  Zn  Zn122  1  0.81376996  0.81320973  0.80868710  1
  Zn  Zn123  1  0.18815063  0.42538617  0.44362273  1
  Zn  Zn124  1  0.18571469  0.43561292  0.94140185  1
  Zn  Zn125  1  0.18445434  0.93942077  0.43244333  1
  Zn  Zn126  1  0.18861785  0.94100955  0.93418341  1
  Zn  Zn127  1  0.68959034  0.42901557  0.43669218  1
  Zn  Zn128  1  0.69307483  0.43779520  0.93654365  1
  Zn  Zn129  1  0.69130599  0.94109525  0.43784343  1
  Zn  Zn130  1  0.68495188  0.93641215  0.93711520  1
  Zn  Zn131  1  0.30566071  0.06079993  0.05215119  1
  Zn  Zn132  1  0.30292934  0.06122361  0.55888047  1
  Zn  Zn133  1  0.32714754  0.59262950  0.04689995  1
  Zn  Zn134  1  0.31220826  0.56095989  0.56037677  1
  Zn  Zn135  1  0.81271541  0.06520609  0.06507814  1
  Zn  Zn136  1  0.81879598  0.06323625  0.56170822  1
  Zn  Zn137  1  0.81312252  0.56005269  0.06397585  1
  Zn  Zn138  1  0.80998255  0.55999940  0.56330867  1
  Zn  Zn139  1  0.44042193  0.44227933  0.19531382  1
  Zn  Zn140  1  0.43744416  0.43559571  0.69198152  1
  Zn  Zn141  1  0.43546418  0.93410949  0.18987960  1
  Zn  Zn142  1  0.42902405  0.93738340  0.68537211  1
  Zn  Zn143  1  0.94220286  0.43675066  0.18844602  1
  Zn  Zn144  1  0.93957360  0.43256479  0.68617947  1
  Zn  Zn145  1  0.94437777  0.93710622  0.18614687  1
  Zn  Zn146  1  0.93705062  0.94175220  0.68422482  1
  Zn  Zn147  1  0.06300715  0.06602759  0.31446205  1
  Zn  Zn148  1  0.06388217  0.07264560  0.80993222  1
  Zn  Zn149  1  0.06673010  0.56129275  0.31221846  1
  Zn  Zn150  1  0.05663969  0.56033029  0.81016273  1
  Zn  Zn151  1  0.59065679  0.05078592  0.32551659  1
  Zn  Zn152  1  0.56089252  0.06040583  0.81664836  1
  Zn  Zn153  1  0.56342487  0.55591743  0.31672165  1
  Zn  Zn154  1  0.56386024  0.56260883  0.80937847  1
  Zn  Zn155  1  0.43718539  0.19155476  0.44205249  1
  Zn  Zn156  1  0.43644502  0.19040541  0.94196749  1
  Zn  Zn157  1  0.43856046  0.67974198  0.43761560  1
  Zn  Zn158  1  0.44165299  0.68378028  0.93424043  1
  Zn  Zn159  1  0.93802262  0.18366404  0.43461156  1
  Zn  Zn160  1  0.93499973  0.19277027  0.93613448  1
  Zn  Zn161  1  0.93874178  0.68723868  0.43852815  1
  Zn  Zn162  1  0.94496170  0.69042960  0.93806887  1
  Zn  Zn163  1  0.06431009  0.31423327  0.06265191  1
  Zn  Zn164  1  0.08220152  0.28645479  0.57307234  1
  Zn  Zn165  1  0.09759142  0.83144330  0.04441287  1
  Zn  Zn166  1  0.05926292  0.81439596  0.55895813  1
  Zn  Zn167  1  0.55930450  0.30881014  0.06678411  1
  Zn  Zn168  1  0.56175517  0.31330347  0.56583548  1
  Zn  Zn169  1  0.56215079  0.80908201  0.06248155  1
  Zn  Zn170  1  0.56388914  0.80977930  0.56082747  1
  O  O171  1  0.11299676  0.11933263  0.12571053  1
  O  O172  1  0.10443280  0.17129055  0.60387948  1
  O  O173  1  0.11747266  0.61912952  0.11869916  1
  O  O174  1  0.11605388  0.61484434  0.61639904  1
  O  O175  1  0.63226101  0.10993773  0.11728648  1
  O  O176  1  0.61395970  0.11895106  0.62348248  1
  O  O177  1  0.62299225  0.61474488  0.12275974  1
  O  O178  1  0.62487264  0.60728545  0.62745085  1
  O  O179  1  0.37735767  0.38505740  0.38166253  1
  O  O180  1  0.38254655  0.38663267  0.87645383  1
  O  O181  1  0.38302338  0.87256253  0.38114471  1
  O  O182  1  0.38553113  0.86504471  0.87726372  1
  O  O183  1  0.88352841  0.37834509  0.38359656  1
  O  O184  1  0.88774729  0.37641107  0.89161007  1
  O  O185  1  0.88808871  0.86988383  0.37422298  1
  O  O186  1  0.88131545  0.88123684  0.87896152  1
  O  O187  1  0.26600659  -0.00383907  0.36704112  1
  O  O188  1  0.26240785  0.00132867  0.87195197  1
  O  O189  1  0.26114194  0.49486027  0.37973313  1
  O  O190  1  0.25600074  0.49304174  0.86591545  1
  O  O191  1  0.70020033  0.02166156  0.36483253  1
  O  O192  1  0.75399792  0.00676951  0.87058319  1
  O  O193  1  0.75428527  0.50243107  0.36730365  1
  O  O194  1  0.74797758  0.50836596  0.86192965  1
  O  O195  1  0.23888508  0.49728192  0.11773266  1
  O  O196  1  0.24230760  0.49756344  0.63192880  1
  O  O197  1  0.24069864  0.99985718  0.12833914  1
  O  O198  1  0.27858678  0.98312806  0.63134637  1
  O  O199  1  0.74443228  0.50351610  0.14016168  1
  O  O200  1  0.74230214  0.49747855  0.63839257  1
  O  O201  1  0.74242503  0.98551665  0.11801143  1
  O  O202  1  0.74055859  0.99999712  0.63071385  1
  O  O203  1  0.00834530  0.36957823  0.25653881  1
  O  O204  1  -0.00579767  0.37659097  0.76943182  1
  O  O205  1  -0.00145276  0.86314051  0.25920014  1
  O  O206  1  0.00736790  0.86938492  0.75188398  1
  O  O207  1  0.50831479  0.37030423  0.25679935  1
  O  O208  1  0.50705656  0.37070570  0.76198755  1
  O  O209  1  0.50451100  0.85984600  0.25939185  1
  O  O210  1  0.50327647  0.86521934  0.75874952  1
  O  O211  1  0.51474969  0.13854624  0.26107851  1
  O  O212  1  0.50860498  0.13735320  0.74732576  1
  O  O213  1  0.50424764  0.63171047  0.24755410  1
  O  O214  1  0.48993677  0.63185459  0.74612122  1
  O  O215  1  0.98999415  0.13226693  0.24468499  1
  O  O216  1  0.99860749  0.14609847  0.74687329  1
  O  O217  1  0.99447627  0.63330758  0.24882811  1
  O  O218  1  1.00272160  0.63301699  0.73818251  1
  O  O219  1  0.37764467  0.25541400  0.01740727  1
  O  O220  1  0.38041403  0.26114720  0.51439981  1
  O  O221  1  0.36389970  0.70585790  0.01047685  1
  O  O222  1  0.36553755  0.75220548  0.49774934  1
  O  O223  1  0.86720482  0.26201534  0.00156734  1
  O  O224  1  0.86884008  0.25494300  0.49652938  1
  O  O225  1  0.87378627  0.75747522  0.00555694  1
  O  O226  1  0.86624132  0.74413803  0.50846352  1
  O  O227  1  0.13059844  0.27587571  0.47123483  1
  O  O228  1  0.12473163  0.25227398  0.98855994  1
  O  O229  1  0.12928282  0.74269328  0.49379774  1
  O  O230  1  0.10898655  0.73670643  0.98247050  1
  O  O231  1  0.63700729  0.24430450  0.51143005  1
  O  O232  1  0.62970419  0.24164160  1.00203144  1
  O  O233  1  0.63539820  0.74668032  0.49367515  1
  O  O234  1  0.63407860  0.74267152  0.99434911  1
  O  O235  1  0.48714783  0.25039455  0.13768345  1
  O  O236  1  0.49326515  0.24491212  0.63507404  1
  O  O237  1  0.50325127  0.73602236  0.13345357  1
  O  O238  1  0.49525919  0.74964428  0.63573061  1
  O  O239  1  1.00719665  0.24316677  0.13575675  1
  O  O240  1  0.99486118  0.28026841  0.64915817  1
  O  O241  1  0.99518604  0.74489746  0.13576085  1
  O  O242  1  0.99358718  0.74209844  0.62692103  1
  O  O243  1  0.00392618  0.26076802  0.36844430  1
  O  O244  1  0.00297984  0.26400069  0.87234677  1
  O  O245  1  0.00403848  0.75582768  0.36937963  1
  O  O246  1  0.00289493  0.75791281  0.86334401  1
  O  O247  1  0.48572699  0.26316000  0.36027107  1
  O  O248  1  0.50060811  0.25877821  0.87051852  1
  O  O249  1  0.50539531  0.75240718  0.36854831  1
  O  O250  1  0.50465203  0.75427874  0.86512065  1
  O  O251  1  0.25236710  0.14010138  0.50777069  1
  O  O252  1  0.24579987  0.13441405  0.98889827  1
  O  O253  1  0.23645377  0.63040876  0.50334242  1
  O  O254  1  0.22721426  0.62177408  0.99775590  1
  O  O255  1  0.74121023  0.13037636  0.50169935  1
  O  O256  1  0.74532108  0.13234156  0.99564717  1
  O  O257  1  0.74729203  0.63065157  0.49174086  1
  O  O258  1  0.74861098  0.62845839  0.99300230  1
  O  O259  1  0.25319360  0.37223631  0.01247372  1
  O  O260  1  0.26568444  0.38156080  0.51602457  1
  O  O261  1  0.21259644  0.86347173  0.01155972  1
  O  O262  1  0.25684864  0.86660928  0.49558801  1
  O  O263  1  0.76307371  0.36878009  -0.00282427  1
  O  O264  1  0.75899426  0.36194827  0.50011344  1
  O  O265  1  0.75668740  0.86794606  0.00515712  1
  O  O266  1  0.74523676  0.86246500  0.50011985  1
  O  O267  1  0.11876149  0.49105020  0.23804327  1
  O  O268  1  0.13321551  0.50525980  0.74132105  1
  O  O269  1  0.13319716  1.00297315  0.24574031  1
  O  O270  1  0.12119941  0.98903929  0.75182990  1
  O  O271  1  0.63331387  0.48948382  0.24544594  1
  O  O272  1  0.63191019  0.49005970  0.74483954  1
  O  O273  1  0.61519022  0.97925470  0.23775813  1
  O  O274  1  0.62902516  0.99610522  0.74276959  1
  O  O275  1  0.37244222  -0.00183092  0.26306192  1
  O  O276  1  0.37500267  -0.01213996  0.77188665  1
  O  O277  1  0.37457212  0.51127622  0.26348736  1
  O  O278  1  0.36660652  0.50735666  0.75403538  1
  O  O279  1  0.87420013  0.00766309  0.24607818  1
  O  O280  1  0.86569794  -0.00095882  0.75729689  1
  O  O281  1  0.86912049  0.50038018  0.25552989  1
  O  O282  1  0.86155349  0.49595085  0.74596111  1
  O  O283  1  0.11931722  0.37904715  0.36294045  1
  O  O284  1  0.10723758  0.36861898  0.88547094  1
  O  O285  1  0.11552262  0.86065967  0.37183636  1
  O  O286  1  0.11679460  0.86816809  0.86167990  1
  O  O287  1  0.61545873  0.37755499  0.36593137  1
  O  O288  1  0.61827560  0.37586709  0.87024052  1
  O  O289  1  0.61878240  0.86594634  0.36760740  1
  O  O290  1  0.61952970  0.86677664  0.86647915  1
  O  O291  1  0.37509258  0.13063424  0.12012775  1
  O  O292  1  0.38731244  0.13320059  0.62770523  1
  O  O293  1  0.38848115  0.61762995  0.14507516  1
  O  O294  1  0.37547975  0.62942307  0.63133304  1
  O  O295  1  0.88540416  0.12271180  0.13577501  1
  O  O296  1  0.88521814  0.12213307  0.62877859  1
  O  O297  1  0.88049011  0.62924413  0.13170224  1
  O  O298  1  0.88710129  0.63008979  0.61869492  1
  O  O299  1  0.26583174  0.25777096  0.12944574  1
  O  O300  1  0.26152206  0.26240160  0.63926733  1
  O  O301  1  0.25390392  0.75548940  0.11915819  1
  O  O302  1  0.25427236  0.75342013  0.61047110  1
  O  O303  1  0.74544807  0.24885705  0.11437051  1
  O  O304  1  0.75264752  0.25039972  0.61295758  1
  O  O305  1  0.75736392  0.75585656  0.11893403  1
  O  O306  1  0.75800999  0.74833193  0.61720544  1
  O  O307  1  0.24255541  0.25201126  0.36195902  1
  O  O308  1  0.23519730  0.26220161  0.87310515  1
  O  O309  1  0.24107217  0.75246519  0.38294395  1
  O  O310  1  0.23540250  0.75179988  0.87564162  1
  O  O311  1  0.75064689  0.24030794  0.39465599  1
  O  O312  1  0.74583459  0.24281425  0.88526102  1
  O  O313  1  0.74787972  0.74283778  0.38081072  1
  O  O314  1  0.74708169  0.74305140  0.87751543  1
  O  O315  1  -0.00448663  0.12299890  0.00812782  1
  O  O316  1  0.00326631  0.11090372  0.49385975  1
  O  O317  1  0.00216252  0.61571964  0.00622504  1
  O  O318  1  0.00894985  0.61736060  0.50551248  1
  O  O319  1  0.51329047  0.12055779  -0.00559272  1
  O  O320  1  0.50381281  0.12632715  0.51483728  1
  O  O321  1  0.51244091  0.62149122  0.01076620  1
  O  O322  1  0.50757398  0.62806863  0.50574335  1
  O  O323  1  0.49110503  0.37108236  0.49245362  1
  O  O324  1  0.50004489  0.37759946  0.99015070  1
  O  O325  1  0.49577933  0.87188460  0.48650583  1
  O  O326  1  0.50825905  0.87071039  0.98155637  1
  O  O327  1  0.99475120  0.37792777  0.49236173  1
  O  O328  1  0.98968663  0.38038486  0.99844543  1
  O  O329  1  1.00185665  0.88234991  0.48700274  1
  O  O330  1  0.99891439  0.88479068  0.99071524  1
  O  O331  1  0.48934409  0.48605303  0.37053405  1
  O  O332  1  0.49364686  0.49309473  0.87414312  1
  O  O333  1  0.49325465  0.98894501  0.37412207  1
  O  O334  1  0.49004643  0.98579468  0.87554154  1
  O  O335  1  0.99720710  0.48847608  0.37794321  1
  O  O336  1  1.00258557  0.48947533  0.88538181  1
  O  O337  1  1.00146792  0.98509268  0.37211003  1
  O  O338  1  0.99415135  1.00029385  0.87731538  1
  O  O339  1  0.00302955  0.01157181  0.11816108  1
  O  O340  1  0.00419709  -0.00042150  0.61176559  1
  O  O341  1  0.00715349  0.50601295  0.11909472  1
  O  O342  1  0.00655689  0.50383287  0.62177299  1
  O  O343  1  0.51226810  -0.00889895  0.12101870  1
  O  O344  1  0.50377289  0.00761864  0.62780519  1
  O  O345  1  0.51077954  0.50928278  0.12803048  1
  O  O346  1  0.51724325  0.49582499  0.63308633  1
  O  O347  1  0.24029990  0.37467649  0.24195488  1
  O  O348  1  0.25659189  0.39041825  0.73664641  1
  O  O349  1  0.24870368  0.88778802  0.24321025  1
  O  O350  1  0.23132616  0.87391279  0.74816081  1
  O  O351  1  0.74166652  0.37956821  0.25902891  1
  O  O352  1  0.74466965  0.38353645  0.75416263  1
  O  O353  1  0.74125106  0.86630488  0.23918932  1
  O  O354  1  0.74107686  0.88186537  0.74738959  1
  O  O355  1  0.24966638  0.11244044  0.24349362  1
  O  O356  1  0.23629839  0.12316473  0.75648648  1
  O  O357  1  0.25909701  0.62558204  0.24716867  1
  O  O358  1  0.25910982  0.61849998  0.74402913  1
  O  O359  1  0.76831909  0.13163101  0.24809748  1
  O  O360  1  0.74724131  0.12143466  0.75951889  1
  O  O361  1  0.75640036  0.61660182  0.25838496  1
  O  O362  1  0.74947050  0.61196883  0.75730252  1
  O  O363  1  0.38377704  0.11155715  0.37826342  1
  O  O364  1  0.37738358  0.11691312  0.87315627  1
  O  O365  1  0.37468799  0.61236617  0.36628533  1
  O  O366  1  0.38032705  0.61127831  0.86283932  1
  O  O367  1  0.87630797  0.12287326  0.35778225  1
  O  O368  1  0.86240662  0.12145173  0.87426004  1
  O  O369  1  0.87126533  0.61662620  0.37068735  1
  O  O370  1  0.86614665  0.62977090  0.87919442  1
  O  O371  1  0.13427638  0.38150988  0.13097675  1
  O  O372  1  0.13491222  0.38634207  0.61785079  1
  O  O373  1  0.10702843  0.89716568  0.13651888  1
  O  O374  1  0.12178906  0.86867161  0.63898001  1
  O  O375  1  0.61988067  0.38598050  0.13266018  1
  O  O376  1  0.62948266  0.38231974  0.63494903  1
  O  O377  1  0.63307562  0.87505389  0.12971309  1
  O  O378  1  0.62325543  0.88429393  0.63074844  1
  O  O379  1  0.11769773  0.25943715  0.25946304  1
  O  O380  1  0.10908530  0.25930604  0.76553227  1
  O  O381  1  0.11620008  0.74854991  0.25667512  1
  O  O382  1  0.11426856  0.75235965  0.75309205  1
  O  O383  1  0.61393154  0.25954289  0.24157454  1
  O  O384  1  0.61790412  0.26353396  0.75181867  1
  O  O385  1  0.61897766  0.75494651  0.25451833  1
  O  O386  1  0.61760530  0.75114608  0.75144081  1
  O  O387  1  0.38692011  0.24794574  0.23844789  1
  O  O388  1  0.38805393  0.25909461  0.74236647  1
  O  O389  1  0.38280805  0.73342042  0.25455923  1
  O  O390  1  0.37856519  0.74292633  0.74450482  1
  O  O391  1  0.88708203  0.25403203  0.25311858  1
  O  O392  1  0.88762482  0.25466859  0.76319294  1
  O  O393  1  0.88122182  0.74339176  0.24535847  1
  O  O394  1  0.88755578  0.75246062  0.74112168  1
  O  O395  1  0.37553876  0.49626740  0.48791081  1
  O  O396  1  0.37877561  0.50366540  0.99052151  1
  O  O397  1  0.37911164  0.98881634  0.48545738  1
  O  O398  1  0.37514637  0.99854976  0.98160155  1
  O  O399  1  0.88054734  0.49377262  0.49382785  1
  O  O400  1  0.88449623  0.49016200  1.00662013  1
  O  O401  1  0.89286975  0.99756547  0.49764070  1
  O  O402  1  0.88033965  0.99545777  0.99326101  1
  O  O403  1  0.11558003  0.00747819  0.00626898  1
  O  O404  1  0.11012504  0.00117488  0.48972624  1
  O  O405  1  0.11218957  0.50378289  0.00677542  1
  O  O406  1  0.12031171  0.50461752  0.50470584  1
  O  O407  1  0.62300152  0.00519662  0.00648687  1
  O  O408  1  0.61926784  0.00776816  0.51478188  1
  O  O409  1  0.62892911  0.50319926  0.01004844  1
  O  O410  1  0.63597988  0.49484767  0.51753543  1
  O  O411  1  0.36578328  0.38453213  0.12903800  1
  O  O412  1  0.37330818  0.37206398  0.61892671  1
  O  O413  1  0.38193594  0.86861750  0.11900208  1
  O  O414  1  0.38402812  0.86346513  0.60513457  1
  O  O415  1  0.87806566  0.37629414  0.11430170  1
  O  O416  1  0.87161783  0.38303983  0.60944378  1
  O  O417  1  0.87001673  0.87154099  0.12034541  1
  O  O418  1  0.87352182  0.86126956  0.62739040  1
  O  O419  1  0.12297939  0.14137720  0.37758964  1
  O  O420  1  0.11736831  0.14723141  0.87894577  1
  O  O421  1  0.11697033  0.63652840  0.38382743  1
  O  O422  1  0.11361842  0.63300961  0.87920605  1
  O  O423  1  0.60426833  0.14128060  0.39737449  1
  O  O424  1  0.63522291  0.12344005  0.88445316  1
  O  O425  1  0.63397750  0.62790806  0.37420488  1
  O  O426  1  0.63137409  0.63043068  0.87931912  1
