# generated using pymatgen
data_V85Zn86O256
_symmetry_space_group_name_H-M   'P 1'
_cell_length_a   16.91650076
_cell_length_b   16.92222025
_cell_length_c   16.91526887
_cell_angle_alpha   89.99727128
_cell_angle_beta   89.96978414
_cell_angle_gamma   90.02666242
_symmetry_Int_Tables_number   1
_chemical_formula_structural   V85Zn86O256
_chemical_formula_sum   'V85 Zn86 O256'
_cell_volume   4842.24404035
_cell_formula_units_Z   1
loop_
 _symmetry_equiv_pos_site_id
 _symmetry_equiv_pos_as_xyz
  1  'x, y, z'
loop_
 _atom_site_type_symbol
 _atom_site_label
 _atom_site_symmetry_multiplicity
 _atom_site_fract_x
 _atom_site_fract_y
 _atom_site_fract_z
 _atom_site_occupancy
  V  V0  1  0.24724238  0.74779552  0.49919192  1
  V  V1  1  0.62686011  0.25148878  0.87910819  1
  V  V2  1  0.87693306  0.13908077  0.24756788  1
  V  V3  1  0.86429070  0.37386456  0.50074130  1
  V  V4  1  0.50280100  0.11966689  0.12573051  1
  V  V5  1  0.75219466  0.12427751  0.87739880  1
  V  V6  1  0.50155078  0.74897018  0.76252191  1
  V  V7  1  0.00269889  0.86758140  0.87839915  1
  V  V8  1  0.87803462  0.74491126  0.62198244  1
  V  V9  1  0.25234202  0.13115525  0.37812565  1
  V  V10  1  0.49473036  0.50344042  0.49749186  1
  V  V11  1  0.86493766  0.87245425  0.00304738  1
  V  V12  1  -0.00500849  0.13476618  0.12716963  1
  V  V13  1  0.87491779  0.12403593  0.74742658  1
  V  V14  1  0.13351564  0.38057687  0.74871624  1
  V  V15  1  0.36800494  0.24748992  0.61962900  1
  V  V16  1  0.50199413  0.62457433  0.12190192  1
  V  V17  1  0.24461324  0.62405666  0.86947128  1
  V  V18  1  0.11981439  -0.00320751  0.13543935  1
  V  V19  1  0.74600060  0.73866358  -0.01334335  1
  V  V20  1  0.49958096  0.49933034  -0.00111269  1
  V  V21  1  0.50188119  0.87691515  0.37500014  1
  V  V22  1  -0.00596314  0.37642758  0.87635183  1
  V  V23  1  0.62199527  0.87085569  0.76069501  1
  V  V24  1  0.25022126  0.87700019  0.62556710  1
  V  V25  1  0.36877251  0.37375711  0.49762484  1
  V  V26  1  0.11872680  -0.00080241  0.61385339  1
  V  V27  1  0.36588820  0.49632198  0.86702161  1
  V  V28  1  0.49527648  0.37910931  0.37256073  1
  V  V29  1  0.24555046  0.87247439  0.12986927  1
  V  V30  1  0.37701489  0.00683999  0.37103353  1
  V  V31  1  0.12648656  0.51043559  0.62643460  1
  V  V32  1  0.62424730  -0.00171477  0.62298424  1
  V  V33  1  -0.00182662  0.62566918  0.13605205  1
  V  V34  1  0.85909204  0.25418146  0.61989951  1
  V  V35  1  0.49766350  0.24412055  0.25198980  1
  V  V36  1  0.12195716  0.62266174  0.00135413  1
  V  V37  1  0.75500555  -0.00025537  0.24581039  1
  V  V38  1  0.74907517  0.62447628  0.38473537  1
  V  V39  1  0.88210591  0.00263382  0.37775606  1
  V  V40  1  0.49983686  0.37282818  0.87401145  1
  V  V41  1  0.12483479  0.87427360  0.75408960  1
  V  V42  1  0.87759083  0.50531619  0.37012604  1
  V  V43  1  0.25033236  0.12026347  0.87319513  1
  V  V44  1  0.38081458  0.87295228  -0.00163903  1
  V  V45  1  0.74986840  0.50263853  0.74811044  1
  V  V46  1  0.12578487  0.75591015  0.36181730  1
  V  V47  1  0.63151211  0.87671576  0.24530519  1
  V  V48  1  0.38247998  -0.00459466  0.87297817  1
  V  V49  1  0.51081858  0.62621235  0.62220959  1
  V  V50  1  0.37145295  0.37308591  0.00153582  1
  V  V51  1  0.00161060  0.37542606  0.36686603  1
  V  V52  1  0.63481478  0.25340017  0.37860692  1
  V  V53  1  0.37858192  0.61525291  0.25483899  1
  V  V54  1  0.12252586  0.12004684  -0.00004575  1
  V  V55  1  0.12066546  0.14022081  0.50111775  1
  V  V56  1  0.62301170  0.50017758  0.12076728  1
  V  V57  1  0.87463288  0.62350873  0.74993081  1
  V  V58  1  0.24871091  0.24850426  0.00124774  1
  V  V59  1  0.86412579  0.74649494  0.13140591  1
  V  V60  1  0.12339816  0.25658332  0.35573332  1
  V  V61  1  0.76733947  0.37438854  0.12214434  1
  V  V62  1  0.37754800  0.74719976  0.62648303  1
  V  V63  1  0.50003599  0.75196364  0.24926682  1
  V  V64  1  0.63211332  0.37336974  0.74171740  1
  V  V65  1  0.88723984  0.87941560  0.50047578  1
  V  V66  1  0.25269214  0.61566157  0.37604439  1
  V  V67  1  -0.00127573  -0.00455593  0.00147458  1
  V  V68  1  0.75123039  0.50931587  0.24884682  1
  V  V69  1  0.62052091  0.37522247  0.24414085  1
  V  V70  1  0.37645026  0.87751770  0.49916722  1
  V  V71  1  0.62509311  0.74641785  0.38381056  1
  V  V72  1  0.63184576  0.13055767  0.50117795  1
  V  V73  1  0.00287758  0.74286390  0.75000000  1
  V  V74  1  0.37335566  0.24118501  0.12806983  1
  V  V75  1  0.76497142  0.25589212  0.00295941  1
  V  V76  1  0.24264662  0.75060766  -0.00322761  1
  V  V77  1  -0.00056159  0.49720499  0.00772922  1
  V  V78  1  0.86993570  0.50055421  0.87974051  1
  V  V79  1  0.00005274  0.25082802  0.74302314  1
  V  V80  1  0.12328842  0.24831713  0.87231392  1
  V  V81  1  0.75162555  0.87248499  0.62290024  1
  V  V82  1  0.25003085  0.00175570  0.25234017  1
  V  V83  1  0.62997819  0.49890688  0.61715434  1
  V  V84  1  0.49885536  0.24666800  0.74755121  1
  Zn  Zn85  1  0.24916275  0.37652035  0.62288775  1
  Zn  Zn86  1  0.74972791  -0.00161579  0.75195001  1
  Zn  Zn87  1  0.00902126  0.88333217  0.36848139  1
  Zn  Zn88  1  -0.00397222  0.50420755  0.50675544  1
  Zn  Zn89  1  0.63165674  -0.00244145  0.12258171  1
  Zn  Zn90  1  0.50218861  0.00285509  0.49811252  1
  Zn  Zn91  1  0.25022087  -0.00086528  0.74832254  1
  Zn  Zn92  1  0.11335547  0.62834131  0.50291334  1
  Zn  Zn93  1  -0.00564575  0.75730890  0.24899469  1
  Zn  Zn94  1  -0.00662162  0.12081961  0.61683369  1
  Zn  Zn95  1  0.62772534  0.12148642  0.00261159  1
  Zn  Zn96  1  0.37474083  0.12125183  0.74609844  1
  Zn  Zn97  1  0.22651386  0.49638397  0.24637619  1
  Zn  Zn98  1  0.37281378  0.74957155  0.12635072  1
  Zn  Zn99  1  0.49827624  0.12409799  0.62116959  1
  Zn  Zn100  1  0.75517013  0.13048567  0.37801715  1
  Zn  Zn101  1  0.50543899  -0.00411357  -0.00343616  1
  Zn  Zn102  1  0.37059795  0.61585617  0.74485762  1
  Zn  Zn103  1  0.22491404  0.37809412  0.13279067  1
  Zn  Zn104  1  0.62165705  0.62762385  -0.01974559  1
  Zn  Zn105  1  0.87611409  -0.00157860  0.87489386  1
  Zn  Zn106  1  0.74777780  0.74657165  0.50447152  1
  Zn  Zn107  1  0.18965846  0.18200976  0.18707739  1
  Zn  Zn108  1  0.18732869  0.18730610  0.68599145  1
  Zn  Zn109  1  0.18846914  0.67768042  0.18597398  1
  Zn  Zn110  1  0.18886659  0.69081308  0.69004669  1
  Zn  Zn111  1  0.69041990  0.18893563  0.18769438  1
  Zn  Zn112  1  0.68673227  0.18490504  0.68871960  1
  Zn  Zn113  1  0.68534619  0.68924736  0.18668779  1
  Zn  Zn114  1  0.68679834  0.68598380  0.80610967  1
  Zn  Zn115  1  0.31161746  0.30958557  0.31395146  1
  Zn  Zn116  1  0.31278907  0.30668778  0.81248769  1
  Zn  Zn117  1  0.31279911  0.81347375  0.31209794  1
  Zn  Zn118  1  0.31238868  0.81035864  0.81391153  1
  Zn  Zn119  1  0.81479843  0.32295216  0.30754208  1
  Zn  Zn120  1  0.81229314  0.31371855  0.80985914  1
  Zn  Zn121  1  0.81245302  0.81489627  0.31673667  1
  Zn  Zn122  1  0.81699500  0.81621425  0.81039802  1
  Zn  Zn123  1  0.18307857  0.43783154  0.43993913  1
  Zn  Zn124  1  0.18343443  0.43656869  0.94178931  1
  Zn  Zn125  1  0.18807311  0.93924105  0.43984574  1
  Zn  Zn126  1  0.18876854  0.93608528  0.93922404  1
  Zn  Zn127  1  0.68515735  0.43798902  0.43604676  1
  Zn  Zn128  1  0.68866915  0.43848659  0.93659122  1
  Zn  Zn129  1  0.69359571  0.93993103  0.43511093  1
  Zn  Zn130  1  0.68950989  0.93840905  0.93957163  1
  Zn  Zn131  1  0.31327460  0.05913206  0.06093390  1
  Zn  Zn132  1  0.30809732  0.06394532  0.55846952  1
  Zn  Zn133  1  0.31320168  0.56376510  0.06111850  1
  Zn  Zn134  1  0.30950600  0.55941265  0.56454373  1
  Zn  Zn135  1  0.81318098  0.06310265  0.06397091  1
  Zn  Zn136  1  0.80954211  0.06125879  0.56209660  1
  Zn  Zn137  1  0.81400557  0.56352611  0.06262315  1
  Zn  Zn138  1  0.81492405  0.56174038  0.56315338  1
  Zn  Zn139  1  0.37112588  0.43407456  0.18983895  1
  Zn  Zn140  1  0.43931743  0.43321694  0.68388982  1
  Zn  Zn141  1  0.43345274  0.93665550  0.18899691  1
  Zn  Zn142  1  0.44038899  0.93610486  0.68903259  1
  Zn  Zn143  1  1.05233470  0.43870430  0.19001869  1
  Zn  Zn144  1  0.94028929  0.43643323  0.68539067  1
  Zn  Zn145  1  0.93555632  0.93374760  0.18954986  1
  Zn  Zn146  1  0.94001284  0.93708356  0.68824820  1
  Zn  Zn147  1  0.05986376  0.06819576  0.31363332  1
  Zn  Zn148  1  0.06085734  0.05733485  0.80970789  1
  Zn  Zn149  1  0.05958991  0.57217720  0.32205854  1
  Zn  Zn150  1  0.06390409  0.56098739  0.81464730  1
  Zn  Zn151  1  0.56690664  0.06498508  0.31313276  1
  Zn  Zn152  1  0.56522143  0.06197288  0.81138579  1
  Zn  Zn153  1  0.56299160  0.56286893  0.31238273  1
  Zn  Zn154  1  0.55418850  0.55762182  0.80624710  1
  Zn  Zn155  1  0.44306064  0.18812093  0.43871063  1
  Zn  Zn156  1  0.43799820  0.18193654  0.93892609  1
  Zn  Zn157  1  0.43685138  0.68715852  0.43903111  1
  Zn  Zn158  1  0.42915103  0.68470845  0.93872058  1
  Zn  Zn159  1  0.94033166  0.19244595  0.43544424  1
  Zn  Zn160  1  0.93940205  0.18646889  0.93657495  1
  Zn  Zn161  1  0.93796813  0.68606589  0.43749038  1
  Zn  Zn162  1  0.93538731  0.68555781  0.93703769  1
  Zn  Zn163  1  0.05692218  0.30973659  0.05575230  1
  Zn  Zn164  1  0.05572785  0.32114499  0.56099842  1
  Zn  Zn165  1  0.06131063  0.80928670  0.06657752  1
  Zn  Zn166  1  0.06189885  0.81056149  0.56389965  1
  Zn  Zn167  1  0.56071853  0.30999918  0.06266723  1
  Zn  Zn168  1  0.55904567  0.31292269  0.56071462  1
  Zn  Zn169  1  0.56628661  0.81143705  0.06198931  1
  Zn  Zn170  1  0.56245685  0.81435175  0.56505494  1
  O  O171  1  0.11718486  0.11611671  0.12047541  1
  O  O172  1  0.12627542  0.12024608  0.61306773  1
  O  O173  1  0.11380909  0.63104026  0.11138928  1
  O  O174  1  0.13055543  0.61403487  0.62766649  1
  O  O175  1  0.61749771  0.12339857  0.12490450  1
  O  O176  1  0.62487628  0.11704284  0.61974126  1
  O  O177  1  0.61367599  0.62008811  0.12372947  1
  O  O178  1  0.61186190  0.61339559  0.62719801  1
  O  O179  1  0.38913562  0.36721264  0.38157501  1
  O  O180  1  0.37649572  0.37572922  0.88423717  1
  O  O181  1  0.38141551  0.88232529  0.37972865  1
  O  O182  1  0.36754736  0.88363656  0.88489691  1
  O  O183  1  0.88032685  0.37998797  0.38361588  1
  O  O184  1  0.88438378  0.38531739  0.86484387  1
  O  O185  1  0.87501519  0.88360067  0.38576135  1
  O  O186  1  0.88412188  0.87702602  0.88297000  1
  O  O187  1  0.25526208  0.00591125  0.36944909  1
  O  O188  1  0.25764198  0.00642659  0.87464289  1
  O  O189  1  0.24397875  0.51338301  0.37489513  1
  O  O190  1  0.25616074  0.50781868  0.88328300  1
  O  O191  1  0.76196085  0.00533993  0.36554379  1
  O  O192  1  0.75437627  0.01088559  0.87352380  1
  O  O193  1  0.74968348  0.50770495  0.36818800  1
  O  O194  1  0.76104834  0.49340609  0.86572235  1
  O  O195  1  0.27655464  0.48867623  0.13459931  1
  O  O196  1  0.23571885  0.49446087  0.62564365  1
  O  O197  1  0.24299414  0.99666744  0.13313357  1
  O  O198  1  0.24091111  0.99398680  0.62583601  1
  O  O199  1  0.74566380  0.49343137  0.12934518  1
  O  O200  1  0.73932225  0.50368728  0.63153840  1
  O  O201  1  0.75106212  1.00279914  0.14016995  1
  O  O202  1  0.74009406  0.99326307  0.62925798  1
  O  O203  1  -0.00896688  0.37669847  0.26706407  1
  O  O204  1  0.00713748  0.36704459  0.75724553  1
  O  O205  1  -0.00139577  0.87022916  0.25496863  1
  O  O206  1  0.00445508  0.86791410  0.75909333  1
  O  O207  1  0.50673189  0.36553102  0.25671037  1
  O  O208  1  0.50756302  0.36374405  0.75447472  1
  O  O209  1  0.50449834  0.86927921  0.25611239  1
  O  O210  1  0.51429116  0.86497747  0.74423571  1
  O  O211  1  0.50579437  0.13746466  0.24541320  1
  O  O212  1  0.50129083  0.13689537  0.74792939  1
  O  O213  1  0.49978438  0.63583515  0.24471906  1
  O  O214  1  0.49233458  0.63215210  0.73852170  1
  O  O215  1  0.98653882  0.12370545  0.24204785  1
  O  O216  1  0.99207350  0.13320331  0.74910309  1
  O  O217  1  0.99978803  0.63504909  0.23832226  1
  O  O218  1  0.99776968  0.63755655  0.75446591  1
  O  O219  1  0.36838532  0.25345914  0.00255256  1
  O  O220  1  0.38393596  0.25917019  0.50906536  1
  O  O221  1  0.36323331  0.75577684  0.00439045  1
  O  O222  1  0.36769775  0.75569682  0.50859221  1
  O  O223  1  0.86423927  0.25193065  -0.00655031  1
  O  O224  1  0.87812375  0.26178558  0.50654664  1
  O  O225  1  0.86324414  0.75252013  0.00344806  1
  O  O226  1  0.87355687  0.75907960  0.50679201  1
  O  O227  1  0.12580162  0.24148787  0.50324679  1
  O  O228  1  0.12798294  0.23951188  0.99064745  1
  O  O229  1  0.13834507  0.74917589  0.50165264  1
  O  O230  1  0.13603672  0.74486574  1.00190468  1
  O  O231  1  0.62094768  0.24538693  0.49089310  1
  O  O232  1  0.63116516  0.25137376  0.98740325  1
  O  O233  1  0.62616572  0.75602005  0.48754883  1
  O  O234  1  0.64253331  0.75032732  1.00152719  1
  O  O235  1  0.49571045  0.23876475  0.13125304  1
  O  O236  1  0.49152830  0.24921769  0.63333382  1
  O  O237  1  0.50067724  0.74351216  0.13265388  1
  O  O238  1  0.49457522  0.74268062  0.62738367  1
  O  O239  1  0.99674923  0.23297918  0.11393645  1
  O  O240  1  0.99303975  0.24988206  0.63536713  1
  O  O241  1  0.98671306  0.74150093  0.12259326  1
  O  O242  1  0.98711575  0.75810057  0.63578908  1
  O  O243  1  0.01617677  0.25799621  0.37693717  1
  O  O244  1  0.00244375  0.25610079  0.86507164  1
  O  O245  1  0.01698101  0.74857168  0.37264795  1
  O  O246  1  -0.00416275  0.76025063  0.86790681  1
  O  O247  1  0.50916091  0.25641380  0.36718945  1
  O  O248  1  0.50747680  0.25211027  0.86940124  1
  O  O249  1  0.50685994  0.75439688  0.36913344  1
  O  O250  1  0.48749191  0.74612792  0.86112456  1
  O  O251  1  0.23662245  0.12236262  0.48558340  1
  O  O252  1  0.24386348  0.12663251  0.99089643  1
  O  O253  1  0.25258058  0.63369610  0.49258975  1
  O  O254  1  0.24313048  0.63122400  0.99688674  1
  O  O255  1  0.73774110  0.12466324  0.49729738  1
  O  O256  1  0.75081403  0.13455726  0.99387565  1
  O  O257  1  0.74936775  0.62522451  0.48905479  1
  O  O258  1  0.74703052  0.63556707  0.99688243  1
  O  O259  1  0.25689502  0.36670025  0.00240609  1
  O  O260  1  0.26572932  0.37886907  0.49595535  1
  O  O261  1  0.25570373  0.86767145  0.00697326  1
  O  O262  1  0.25731910  0.86805450  0.50558245  1
  O  O263  1  0.74679250  0.37142458  0.01351993  1
  O  O264  1  0.76453978  0.37626327  0.49304959  1
  O  O265  1  0.76064063  0.86365255  -0.00669760  1
  O  O266  1  0.75627716  0.87437279  0.51173997  1
  O  O267  1  0.11613783  0.51222803  0.24667155  1
  O  O268  1  0.12159831  0.49140376  0.74202760  1
  O  O269  1  0.12957980  1.00474692  0.24111870  1
  O  O270  1  0.12671408  0.98819906  0.74194422  1
  O  O271  1  0.62914056  0.49174710  0.24310377  1
  O  O272  1  0.63062021  0.49136370  0.74067636  1
  O  O273  1  0.63522297  0.99329077  0.25235861  1
  O  O274  1  0.62522355  0.98887113  0.74256368  1
  O  O275  1  0.36703124  -0.00089699  0.26318114  1
  O  O276  1  0.37192231  -0.00020668  0.75683272  1
  O  O277  1  0.39953060  0.51733920  0.26057143  1
  O  O278  1  0.37852457  0.49403295  0.76258929  1
  O  O279  1  0.86950908  0.00650922  0.25695104  1
  O  O280  1  0.87499941  0.01294034  0.74970500  1
  O  O281  1  0.86053035  0.49317413  0.26697767  1
  O  O282  1  0.86910312  0.50457248  0.75099276  1
  O  O283  1  0.12050636  0.36301876  0.37774016  1
  O  O284  1  0.11692507  0.36881752  0.86866926  1
  O  O285  1  0.12787475  0.85993167  0.38227613  1
  O  O286  1  0.11735417  0.87912130  0.86615651  1
  O  O287  1  0.61735384  0.37107605  0.36608707  1
  O  O288  1  0.62195143  0.36841493  0.86483543  1
  O  O289  1  0.62032271  0.86990152  0.36725807  1
  O  O290  1  0.62973012  0.87881989  0.85910291  1
  O  O291  1  0.38113652  0.13497802  0.11870114  1
  O  O292  1  0.37660346  0.13073339  0.62422603  1
  O  O293  1  0.38775519  0.62820085  0.13308031  1
  O  O294  1  0.37999370  0.63267520  0.62569254  1
  O  O295  1  0.88078275  0.12139545  0.13864799  1
  O  O296  1  0.87439959  0.13272064  0.62982793  1
  O  O297  1  0.88190165  0.63810688  0.11921486  1
  O  O298  1  0.87229123  0.63219241  0.63686840  1
  O  O299  1  0.25749794  0.24866302  0.11991687  1
  O  O300  1  0.26414640  0.25298460  0.63025117  1
  O  O301  1  0.25002229  0.75748632  0.12135839  1
  O  O302  1  0.25834313  0.75464225  0.61862666  1
  O  O303  1  0.74545370  0.26530412  0.11740437  1
  O  O304  1  0.76002510  0.25204069  0.63135569  1
  O  O305  1  0.75967178  0.74379702  0.11381209  1
  O  O306  1  0.76614450  0.75985877  0.62380092  1
  O  O307  1  0.23703237  0.24293974  0.37033063  1
  O  O308  1  0.24410420  0.24004719  0.88098750  1
  O  O309  1  0.24368452  0.74706926  0.38165482  1
  O  O310  1  0.25573916  0.73855468  0.88556864  1
  O  O311  1  0.73732006  0.25489489  0.36689733  1
  O  O312  1  0.74456718  0.24671035  0.88043241  1
  O  O313  1  0.74273318  0.74176601  0.37614556  1
  O  O314  1  0.75524993  0.74783358  0.88203222  1
  O  O315  1  0.00203542  0.11429548  0.00378619  1
  O  O316  1  0.01522189  0.12881922  0.49992476  1
  O  O317  1  0.00596207  0.61905341  0.00271833  1
  O  O318  1  -0.00001511  0.61942236  0.50090990  1
  O  O319  1  0.50530480  0.12259957  0.01047549  1
  O  O320  1  0.51493955  0.12196229  0.50139702  1
  O  O321  1  0.49949411  0.62146063  0.00655919  1
  O  O322  1  0.49525974  0.61560879  0.50723260  1
  O  O323  1  0.49334358  0.38238597  0.49181405  1
  O  O324  1  0.49433440  0.37686385  0.99144381  1
  O  O325  1  0.49400472  0.87781735  0.49326246  1
  O  O326  1  0.48511046  0.87333271  1.00759649  1
  O  O327  1  0.98907427  0.38137056  0.48909547  1
  O  O328  1  0.99964954  0.38280712  0.98480201  1
  O  O329  1  0.98999749  0.87334892  0.49673139  1
  O  O330  1  0.99367614  0.87526383  0.99430631  1
  O  O331  1  0.50919971  0.49106849  0.38546580  1
  O  O332  1  0.49003458  0.49031395  0.87925560  1
  O  O333  1  0.49274533  0.99697162  0.37358433  1
  O  O334  1  0.48687571  1.00630760  0.87583852  1
  O  O335  1  0.99048498  0.49588743  0.37766419  1
  O  O336  1  0.99223108  0.49292999  0.88005556  1
  O  O337  1  0.98756884  1.00173008  0.37299126  1
  O  O338  1  0.99855296  0.98879550  0.88274306  1
  O  O339  1  0.00595105  0.00332866  0.12017668  1
  O  O340  1  0.01393790  0.00345878  0.62985359  1
  O  O341  1  -0.01073509  0.50936337  0.11194162  1
  O  O342  1  0.01942098  0.49196979  0.62552931  1
  O  O343  1  0.49723142  0.01288885  0.12999787  1
  O  O344  1  0.51288549  -0.00014033  0.62300833  1
  O  O345  1  0.50339648  0.50890984  0.11430915  1
  O  O346  1  0.50551789  0.50527575  0.61875464  1
  O  O347  1  0.27310530  0.38630604  0.24240590  1
  O  O348  1  0.23581976  0.36877098  0.75396093  1
  O  O349  1  0.25358609  0.88781329  0.24294875  1
  O  O350  1  0.24137835  0.87300573  0.74375969  1
  O  O351  1  0.74084330  0.38333317  0.23843947  1
  O  O352  1  0.74121592  0.38492793  0.75108568  1
  O  O353  1  0.74212654  0.88463562  0.25648191  1
  O  O354  1  0.74211276  0.87491344  0.74037109  1
  O  O355  1  0.24562978  0.11217382  0.26224290  1
  O  O356  1  0.24933533  0.12354794  0.76237505  1
  O  O357  1  0.26231181  0.62148861  0.25618946  1
  O  O358  1  0.25213555  0.63051747  0.76471747  1
  O  O359  1  0.76161765  0.12057952  0.25230284  1
  O  O360  1  0.75826294  0.12473151  0.75860836  1
  O  O361  1  0.74266949  0.61300313  0.25401633  1
  O  O362  1  0.75915308  0.61118693  0.75201974  1
  O  O363  1  0.36599729  0.11956234  0.38205849  1
  O  O364  1  0.36578532  0.11685651  0.87375932  1
  O  O365  1  0.36445891  0.63590092  0.36633325  1
  O  O366  1  0.36489288  0.61170835  0.87391658  1
  O  O367  1  0.87621346  0.12255361  0.36637847  1
  O  O368  1  0.86683546  0.12572489  0.86681243  1
  O  O369  1  0.86352309  0.61783312  0.37516995  1
  O  O370  1  0.88153292  0.61467099  0.86023879  1
  O  O371  1  0.11481187  0.37807609  0.11894532  1
  O  O372  1  0.12835019  0.37792182  0.63376879  1
  O  O373  1  0.13639439  0.88319676  0.11979251  1
  O  O374  1  0.12963039  0.88278969  0.62799108  1
  O  O375  1  0.62214090  0.38084483  0.13325446  1
  O  O376  1  0.61835338  0.38095250  0.63523439  1
  O  O377  1  0.61966244  0.87695335  0.14125448  1
  O  O378  1  0.63359483  0.88007528  0.62977467  1
  O  O379  1  0.12486537  0.24852329  0.25726365  1
  O  O380  1  0.11648839  0.25379478  0.75346789  1
  O  O381  1  0.13123093  0.74855868  0.26098099  1
  O  O382  1  0.11612862  0.76400186  0.74205027  1
  O  O383  1  0.61970621  0.25915581  0.25415837  1
  O  O384  1  0.62163407  0.25562274  0.75797071  1
  O  O385  1  0.61730075  0.75726664  0.25719866  1
  O  O386  1  0.61795455  0.76182561  0.74846570  1
  O  O387  1  0.38533493  0.25153544  0.23973481  1
  O  O388  1  0.38431375  0.24728252  0.74376491  1
  O  O389  1  0.38843954  0.74732159  0.24924151  1
  O  O390  1  0.38133477  0.75305141  0.73683763  1
  O  O391  1  0.87019014  0.23747844  0.25281278  1
  O  O392  1  0.88032541  0.24261152  0.74326539  1
  O  O393  1  0.86747202  0.75323462  0.23431069  1
  O  O394  1  0.88133369  0.74248506  0.74476489  1
  O  O395  1  0.38715900  0.49091743  0.50573682  1
  O  O396  1  0.38064496  0.48969843  0.99065953  1
  O  O397  1  0.37528492  0.99541708  0.48857660  1
  O  O398  1  0.37650315  0.99030421  0.99243361  1
  O  O399  1  0.87177898  0.49009822  0.49104712  1
  O  O400  1  0.88100928  0.50654282  0.98658106  1
  O  O401  1  0.87069155  0.99284509  0.49217610  1
  O  O402  1  0.87926129  0.98881347  1.00166020  1
  O  O403  1  0.12050995  0.00295758  0.01064970  1
  O  O404  1  0.12796088  0.01081479  0.50698838  1
  O  O405  1  0.11172372  0.50898382  -0.00339278  1
  O  O406  1  0.12441970  0.50323029  0.51399130  1
  O  O407  1  0.62248975  0.00045880  0.00522957  1
  O  O408  1  0.62633288  0.00588389  0.50661110  1
  O  O409  1  0.61797983  0.50217926  0.00317947  1
  O  O410  1  0.61477506  0.49085064  0.51157537  1
  O  O411  1  0.38902797  0.35657763  0.10752426  1
  O  O412  1  0.37331971  0.36715445  0.61639883  1
  O  O413  1  0.36148685  0.87592845  0.11848064  1
  O  O414  1  0.37168147  0.86916493  0.61909470  1
  O  O415  1  0.86194860  0.37753372  0.12768602  1
  O  O416  1  0.87791070  0.36964528  0.61072124  1
  O  O417  1  0.87871024  0.85900996  0.11310710  1
  O  O418  1  0.87008004  0.87328763  0.61988439  1
  O  O419  1  0.12708363  0.13855596  0.38194763  1
  O  O420  1  0.12970989  0.12597483  0.87837517  1
  O  O421  1  0.13619685  0.64074175  0.38078675  1
  O  O422  1  0.13252146  0.62208359  0.88692083  1
  O  O423  1  0.62876879  0.13629284  0.38167643  1
  O  O424  1  0.63722133  0.13316228  0.87381282  1
  O  O425  1  0.63296148  0.63598725  0.36969833  1
  O  O426  1  0.61869333  0.62318064  0.86778954  1
