# generated using pymatgen
data_V85Zn86O256
_symmetry_space_group_name_H-M   'P 1'
_cell_length_a   16.95826796
_cell_length_b   16.97915713
_cell_length_c   16.95617562
_cell_angle_alpha   90.05309806
_cell_angle_beta   89.95530863
_cell_angle_gamma   89.96120373
_symmetry_Int_Tables_number   1
_chemical_formula_structural   V85Zn86O256
_chemical_formula_sum   'V85 Zn86 O256'
_cell_volume   4882.30727136
_cell_formula_units_Z   1
loop_
 _symmetry_equiv_pos_site_id
 _symmetry_equiv_pos_as_xyz
  1  'x, y, z'
loop_
 _atom_site_type_symbol
 _atom_site_label
 _atom_site_symmetry_multiplicity
 _atom_site_fract_x
 _atom_site_fract_y
 _atom_site_fract_z
 _atom_site_occupancy
  V  V0  1  0.49503363  0.01076602  0.00543935  1
  V  V1  1  0.10918327  0.87843791  0.76731844  1
  V  V2  1  0.74422405  0.62458704  0.87993664  1
  V  V3  1  0.12801742  0.61884191  0.00499216  1
  V  V4  1  0.24411108  0.12086185  0.86800417  1
  V  V5  1  0.62695558  0.12978775  0.49867575  1
  V  V6  1  0.24911920  0.88174631  0.63897875  1
  V  V7  1  0.37387805  0.87685005  0.49714242  1
  V  V8  1  0.13152196  0.61738313  0.50916880  1
  V  V9  1  0.75400571  0.13046835  0.37562283  1
  V  V10  1  0.62374264  0.00073680  0.62385748  1
  V  V11  1  0.93550241  0.83464875  -0.05676775  1
  V  V12  1  0.74802405  0.75731424  0.00100609  1
  V  V13  1  0.87566465  0.63854390  0.75209673  1
  V  V14  1  0.25676869  0.25224039  0.51050074  1
  V  V15  1  0.49613101  0.24792993  0.74131538  1
  V  V16  1  0.12996134  0.75005420  0.37717774  1
  V  V17  1  0.74043517  0.87404238  0.13047861  1
  V  V18  1  0.81785367  0.70507770  0.57095794  1
  V  V19  1  -0.05823328  0.30296313  0.69484870  1
  V  V20  1  0.37342194  0.49749850  0.87021395  1
  V  V21  1  0.63516612  0.12397863  0.00293693  1
  V  V22  1  0.00148917  0.24634738  0.24348962  1
  V  V23  1  0.12353065  0.37998544  0.24331029  1
  V  V24  1  0.00416048  0.49477968  0.50365194  1
  V  V25  1  0.37417217  0.37186431  -0.00370559  1
  V  V26  1  0.24748340  0.25241414  -0.00490906  1
  V  V27  1  0.14290737  0.87998692  0.24661230  1
  V  V28  1  0.12916083  0.12334974  0.50168086  1
  V  V29  1  0.37599043  0.62225038  0.74490977  1
  V  V30  1  0.00552769  0.63917669  0.62844566  1
  V  V31  1  0.87803244  0.75749268  0.12694480  1
  V  V32  1  0.74605806  0.50206779  0.24927572  1
  V  V33  1  0.74735900  0.00861015  0.75839233  1
  V  V34  1  0.24662174  0.49985080  0.73225223  1
  V  V35  1  0.12829168  0.25157557  0.37384075  1
  V  V36  1  0.62265545  0.87788748  0.75089730  1
  V  V37  1  0.49859595  0.75131490  0.74992298  1
  V  V38  1  0.37231515  0.87621714  0.00574035  1
  V  V39  1  0.50885719  0.37048003  0.87212799  1
  V  V40  1  0.50751015  0.37411594  0.36556787  1
  V  V41  1  0.87041076  0.49962673  0.37933451  1
  V  V42  1  0.74128912  -0.00377061  0.25286845  1
  V  V43  1  0.36698623  -0.00196380  0.86848522  1
  V  V44  1  0.37661400  0.49484167  0.37193163  1
  V  V45  1  0.86744247  0.37654341  0.00858792  1
  V  V46  1  0.12135628  0.24996706  0.86554021  1
  V  V47  1  0.00299110  0.87519686  0.37697940  1
  V  V48  1  0.63837920  0.74574906  0.38352202  1
  V  V49  1  0.50840691  0.62594659  0.62067250  1
  V  V50  1  0.11460381  0.12829954  0.00528402  1
  V  V51  1  0.25233097  0.75209546  0.50102455  1
  V  V52  1  0.24680340  0.50096228  0.24088466  1
  V  V53  1  0.76463819  0.26192169  0.51224771  1
  V  V54  1  0.51199846  0.50209738  0.49837495  1
  V  V55  1  0.24569582  0.62478771  0.86982149  1
  V  V56  1  -0.00686004  0.00831822  0.00950124  1
  V  V57  1  0.51218451  0.24730549  0.24033791  1
  V  V58  1  0.49831834  0.87712389  0.87624407  1
  V  V59  1  0.87637467  0.00027001  0.37617116  1
  V  V60  1  0.25347185  0.62356956  0.37554001  1
  V  V61  1  0.36970660  0.24515300  0.13112078  1
  V  V62  1  0.87374588  0.00676227  0.88007819  1
  V  V63  1  0.88072988  0.12510186  0.74789301  1
  V  V64  1  0.50773403  0.87275815  0.37023916  1
  V  V65  1  0.36985149  0.12498489  0.74170076  1
  V  V66  1  0.49959602  0.00165261  0.49531287  1
  V  V67  1  0.37523070  0.37328366  0.51125452  1
  V  V68  1  0.00171168  0.00172028  0.50568915  1
  V  V69  1  0.75434768  0.87846636  0.62311846  1
  V  V70  1  0.73969547  0.49694222  0.74452494  1
  V  V71  1  0.87453407  0.87379135  0.50314342  1
  V  V72  1  0.25725881  0.12012776  0.36217303  1
  V  V73  1  0.88061731  0.12317949  0.24305071  1
  V  V74  1  0.00321059  0.49774003  0.00495679  1
  V  V75  1  0.25137651  0.74838941  0.00253796  1
  V  V76  1  0.38454349  0.62156273  0.24552161  1
  V  V77  1  -0.00096050  0.37193886  0.87728957  1
  V  V78  1  0.00483418  0.75273767  0.25034255  1
  V  V79  1  0.50028707  0.50555728  0.00448172  1
  V  V80  1  0.13083365  0.37897849  0.73975274  1
  V  V81  1  0.87295484  0.49996034  0.87662306  1
  V  V82  1  0.37907009  0.74261275  0.12397169  1
  V  V83  1  0.51452226  0.74719672  0.24649934  1
  V  V84  1  0.00378062  0.61697479  0.13134952  1
  Zn  Zn85  1  0.75160611  0.24651330  0.00036823  1
  Zn  Zn86  1  0.61827607  0.62975902  0.01163703  1
  Zn  Zn87  1  0.61797816  0.49908471  0.13416404  1
  Zn  Zn88  1  0.87382334  0.62816223  0.25916470  1
  Zn  Zn89  1  0.61210772  -0.00120377  0.13242909  1
  Zn  Zn90  1  0.73360593  0.36446378  0.14305182  1
  Zn  Zn91  1  0.62154450  0.75191889  0.87948044  1
  Zn  Zn92  1  0.63314479  0.25686810  0.36830822  1
  Zn  Zn93  1  0.64502995  0.62543719  0.50295787  1
  Zn  Zn94  1  0.24411725  0.37992609  0.11859879  1
  Zn  Zn95  1  0.13022671  0.00338518  0.13257503  1
  Zn  Zn96  1  0.62845669  0.23569500  0.86938755  1
  Zn  Zn97  1  -0.00049253  0.12914008  0.62880423  1
  Zn  Zn98  1  0.12795050  0.00379356  0.63739015  1
  Zn  Zn99  1  0.42739430  0.08081795  0.18764861  1
  Zn  Zn100  1  0.37591078  0.75314873  0.62449188  1
  Zn  Zn101  1  0.00049470  0.37495823  0.37922179  1
  Zn  Zn102  1  0.87489661  0.24886516  0.12447112  1
  Zn  Zn103  1  0.37242970  -0.00042701  0.35746960  1
  Zn  Zn104  1  0.65142777  0.35327014  0.71357348  1
  Zn  Zn105  1  0.11120469  0.75363154  0.87635651  1
  Zn  Zn106  1  0.49209249  0.12748550  0.61890512  1
  Zn  Zn107  1  0.18798790  0.19167464  0.18424675  1
  Zn  Zn108  1  0.18630443  0.18882970  0.68689666  1
  Zn  Zn109  1  0.19125369  0.68787447  0.18725966  1
  Zn  Zn110  1  0.18566800  0.69917412  0.69006197  1
  Zn  Zn111  1  0.68943778  0.18073460  0.17942783  1
  Zn  Zn112  1  0.68647898  0.18264171  0.68447110  1
  Zn  Zn113  1  0.69014134  0.67582575  0.18648495  1
  Zn  Zn114  1  0.68185834  0.68525835  0.69629930  1
  Zn  Zn115  1  0.31029785  0.31309884  0.31211044  1
  Zn  Zn116  1  0.31245685  0.31191530  0.80614703  1
  Zn  Zn117  1  0.32081286  0.80976576  0.31347495  1
  Zn  Zn118  1  0.31153557  0.80881175  0.81578787  1
  Zn  Zn119  1  0.81820119  0.31676054  0.31762221  1
  Zn  Zn120  1  0.80514454  0.31274292  0.82451533  1
  Zn  Zn121  1  0.81666348  0.81513244  0.31142900  1
  Zn  Zn122  1  0.80395356  0.81474095  0.80938016  1
  Zn  Zn123  1  0.19134486  0.43608108  0.43510752  1
  Zn  Zn124  1  0.18664542  0.43908444  0.93036891  1
  Zn  Zn125  1  0.18853596  0.94011460  0.43595681  1
  Zn  Zn126  1  0.19052542  0.94541793  0.96221343  1
  Zn  Zn127  1  0.69096670  0.43576476  0.43577137  1
  Zn  Zn128  1  0.68456097  0.43646808  0.93834060  1
  Zn  Zn129  1  0.68795891  0.93618309  0.43735599  1
  Zn  Zn130  1  0.68485432  0.93986970  0.94122513  1
  Zn  Zn131  1  0.29923366  0.06208808  0.05642705  1
  Zn  Zn132  1  0.31042286  0.05927557  0.55617502  1
  Zn  Zn133  1  0.31720746  0.56191263  0.06123324  1
  Zn  Zn134  1  0.32278749  0.56166448  0.56106732  1
  Zn  Zn135  1  0.81024184  0.05840149  0.06742408  1
  Zn  Zn136  1  0.81256966  0.06506082  0.56489289  1
  Zn  Zn137  1  0.81276801  0.56598813  0.06978709  1
  Zn  Zn138  1  0.81973663  0.53764592  0.56731222  1
  Zn  Zn139  1  0.43565490  0.42924284  0.18352788  1
  Zn  Zn140  1  0.48552976  0.42096347  0.66797563  1
  Zn  Zn141  1  0.43372062  0.92036494  0.18824695  1
  Zn  Zn142  1  0.43534834  0.94075229  0.68485910  1
  Zn  Zn143  1  0.93402647  0.43592959  0.19598556  1
  Zn  Zn144  1  0.94240231  0.46568638  0.69276010  1
  Zn  Zn145  1  0.93939676  0.93716199  0.18679950  1
  Zn  Zn146  1  0.93672995  0.93864273  0.69063892  1
  Zn  Zn147  1  0.06627450  0.06209488  0.31518669  1
  Zn  Zn148  1  0.05657831  0.05451152  0.81765577  1
  Zn  Zn149  1  0.06407206  0.56293825  0.31850578  1
  Zn  Zn150  1  0.06259760  0.56240391  0.81167660  1
  Zn  Zn151  1  0.56346136  0.06747495  0.31596977  1
  Zn  Zn152  1  0.55620270  0.06347641  0.81626234  1
  Zn  Zn153  1  0.56804943  0.56730169  0.31772479  1
  Zn  Zn154  1  0.56097250  0.56233834  0.81790980  1
  Zn  Zn155  1  0.43771308  0.19128250  0.42929669  1
  Zn  Zn156  1  0.43485318  0.18803635  0.93136091  1
  Zn  Zn157  1  0.44128322  0.68845551  0.43435629  1
  Zn  Zn158  1  0.43449344  0.68643578  0.93188931  1
  Zn  Zn159  1  0.93974993  0.18923023  0.43806440  1
  Zn  Zn160  1  0.93182297  0.18964657  0.93283110  1
  Zn  Zn161  1  0.94603664  0.68148323  0.43571593  1
  Zn  Zn162  1  0.93258554  0.67157710  0.94537320  1
  Zn  Zn163  1  0.06033766  0.31084985  0.06273769  1
  Zn  Zn164  1  0.07176177  0.31265908  0.55943113  1
  Zn  Zn165  1  0.07144861  0.80872886  0.06739311  1
  Zn  Zn166  1  0.06811576  0.81481190  0.56626952  1
  Zn  Zn167  1  0.56374252  0.31344671  0.06384454  1
  Zn  Zn168  1  0.56157395  0.30907025  0.55555157  1
  Zn  Zn169  1  0.56105567  0.81375507  0.06289378  1
  Zn  Zn170  1  0.56423300  0.81236417  0.56119305  1
  O  O171  1  0.12931923  0.12636126  0.10838333  1
  O  O172  1  0.12398308  0.12277857  0.61463076  1
  O  O173  1  0.11715384  0.63138416  0.11672587  1
  O  O174  1  0.12189353  0.63318574  0.61838462  1
  O  O175  1  0.62289341  0.11527908  0.11075762  1
  O  O176  1  0.61973286  0.11698269  0.61389406  1
  O  O177  1  0.62568829  0.61185711  0.12236191  1
  O  O178  1  0.61267685  0.63139721  0.62118640  1
  O  O179  1  0.38260080  0.38496110  0.37275944  1
  O  O180  1  0.37666859  0.37763584  0.88333361  1
  O  O181  1  0.38819694  0.87605089  0.38143718  1
  O  O182  1  0.37782815  0.88051911  0.88144026  1
  O  O183  1  0.88464263  0.39284422  0.37436525  1
  O  O184  1  0.88344955  0.38153167  0.88266895  1
  O  O185  1  0.88384289  0.88029490  0.38244136  1
  O  O186  1  0.87114482  0.88175424  0.87684019  1
  O  O187  1  0.25202540  0.01653796  0.37908872  1
  O  O188  1  0.25695746  0.00892342  0.88199744  1
  O  O189  1  0.26020272  0.50412389  0.36524592  1
  O  O190  1  0.25477603  0.51226274  0.86917524  1
  O  O191  1  0.75643562  0.00570911  0.37040446  1
  O  O192  1  0.75836786  -0.00747536  0.86808558  1
  O  O193  1  0.76353407  0.50006888  0.37277081  1
  O  O194  1  0.75357132  0.50939409  0.87443553  1
  O  O195  1  0.25490812  0.50032067  0.13704489  1
  O  O196  1  0.25244309  0.50694398  0.63350042  1
  O  O197  1  0.22364333  0.98429667  0.07177172  1
  O  O198  1  0.24658688  0.98412459  0.61736043  1
  O  O199  1  0.75661858  0.49685911  0.14179127  1
  O  O200  1  0.74842052  0.50213855  0.64497324  1
  O  O201  1  0.75052477  0.98867962  0.13632233  1
  O  O202  1  0.74284435  0.99436720  0.63246478  1
  O  O203  1  0.00843926  0.36652844  0.25539004  1
  O  O204  1  0.00142845  0.37354771  0.75439482  1
  O  O205  1  0.00515657  0.86465257  0.25641210  1
  O  O206  1  0.01005626  0.87670573  0.75363981  1
  O  O207  1  0.49525719  0.36100690  0.25408961  1
  O  O208  1  0.48293089  0.36083990  0.76285254  1
  O  O209  1  0.50083148  0.85974755  0.25902773  1
  O  O210  1  0.50263269  0.87316195  0.75455742  1
  O  O211  1  0.49881148  0.14165397  0.25456490  1
  O  O212  1  0.48861112  0.13014939  0.74872708  1
  O  O213  1  0.49018633  0.63043066  0.25732222  1
  O  O214  1  0.49355434  0.62746153  0.74343739  1
  O  O215  1  0.99263194  0.13251185  0.26064278  1
  O  O216  1  0.99032905  0.11982019  0.74793081  1
  O  O217  1  1.00658948  0.63722662  0.24589307  1
  O  O218  1  0.98914725  0.61874113  0.74141065  1
  O  O219  1  0.36876570  0.25707825  0.00060665  1
  O  O220  1  0.37205591  0.26481000  0.49363433  1
  O  O221  1  0.37210234  0.75117114  0.00587787  1
  O  O222  1  0.37303293  0.76254148  0.49878035  1
  O  O223  1  0.87678065  0.26249784  0.00266127  1
  O  O224  1  0.86411335  0.24662231  0.50158511  1
  O  O225  1  0.87453275  0.76083214  0.00508553  1
  O  O226  1  0.87724040  0.75419244  0.49914202  1
  O  O227  1  0.13518729  0.24410785  0.49225477  1
  O  O228  1  0.12510688  0.24624505  0.98771661  1
  O  O229  1  0.13405795  0.74416172  0.49521937  1
  O  O230  1  0.13481804  0.73965753  0.99768248  1
  O  O231  1  0.62652202  0.23770451  0.49360544  1
  O  O232  1  0.61769232  0.23020427  1.00246576  1
  O  O233  1  0.62610831  0.74856505  0.48809803  1
  O  O234  1  0.63266672  0.74828679  0.99953771  1
  O  O235  1  0.49043917  0.25253574  0.13569887  1
  O  O236  1  0.49762538  0.24494471  0.63665332  1
  O  O237  1  0.48992163  0.75405948  0.13304707  1
  O  O238  1  0.49750351  0.74585003  0.63142642  1
  O  O239  1  1.00037716  0.24892798  0.14028909  1
  O  O240  1  0.99988132  0.25025721  0.62798550  1
  O  O241  1  0.99675459  0.74567360  0.13326555  1
  O  O242  1  1.00050490  0.73938541  0.61974699  1
  O  O243  1  0.01541507  0.25094238  0.37255456  1
  O  O244  1  0.00584469  0.26414247  0.87663300  1
  O  O245  1  0.00921794  0.75414114  0.36842463  1
  O  O246  1  -0.00899679  0.75959020  0.89489856  1
  O  O247  1  0.50231170  0.25823795  0.36006367  1
  O  O248  1  0.50303037  0.25472103  0.86575586  1
  O  O249  1  0.50853873  0.75566781  0.36687806  1
  O  O250  1  0.49830229  0.75950835  0.86897984  1
  O  O251  1  0.24528052  0.13283118  0.49342567  1
  O  O252  1  0.23794794  0.13575493  0.98279544  1
  O  O253  1  0.24915106  0.63035315  0.49776173  1
  O  O254  1  0.24525935  0.62741149  0.99335109  1
  O  O255  1  0.74425949  0.12957106  0.49361335  1
  O  O256  1  0.73788552  0.11989728  1.00182422  1
  O  O257  1  0.76176639  0.63129728  0.52158846  1
  O  O258  1  0.75538582  0.63835458  0.99489903  1
  O  O259  1  0.25467371  0.37135373  -0.00344659  1
  O  O260  1  0.26651907  0.36896746  0.49352052  1
  O  O261  1  0.26012106  0.85335540  -0.01397737  1
  O  O262  1  0.25830139  0.87128268  0.50081985  1
  O  O263  1  0.76371750  0.38369163  0.00203641  1
  O  O264  1  0.74842220  0.36051050  0.49819874  1
  O  O265  1  0.74679582  0.86420376  0.00976093  1
  O  O266  1  0.75892600  0.88138066  0.51111646  1
  O  O267  1  0.13521658  0.49285237  0.25714590  1
  O  O268  1  0.13529958  0.49216839  0.75566012  1
  O  O269  1  0.12338059  0.98522525  0.25016183  1
  O  O270  1  0.12377324  0.98561171  0.75272158  1
  O  O271  1  0.64208850  0.50305080  0.25830905  1
  O  O272  1  0.63912204  0.50514829  0.75659325  1
  O  O273  1  0.63749468  1.00571849  0.25134009  1
  O  O274  1  0.62879600  0.99778268  0.74685092  1
  O  O275  1  0.37849095  -0.00161360  0.24530637  1
  O  O276  1  0.37895489  0.00597828  0.76250548  1
  O  O277  1  0.37218447  0.50433126  0.25291051  1
  O  O278  1  0.36599749  0.51350256  0.75275553  1
  O  O279  1  0.87249390  0.00588106  0.25795375  1
  O  O280  1  0.86681367  0.00612269  0.75887757  1
  O  O281  1  0.87309015  0.50582328  0.26372958  1
  O  O282  1  0.86343295  0.51271679  0.76070189  1
  O  O283  1  0.12881545  0.36600784  0.36464331  1
  O  O284  1  0.11619160  0.36981037  0.86718135  1
  O  O285  1  0.12138639  0.86999813  0.36852890  1
  O  O286  1  0.12801318  0.87591990  0.86951501  1
  O  O287  1  0.61120421  0.37400432  0.37794978  1
  O  O288  1  0.61101416  0.37442912  0.87369293  1
  O  O289  1  0.61405237  0.86574946  0.38159656  1
  O  O290  1  0.61505521  0.87733157  0.86992297  1
  O  O291  1  0.36383819  0.13745993  0.11251748  1
  O  O292  1  0.37214417  0.11282433  0.63787072  1
  O  O293  1  0.37664612  0.62940403  0.13396330  1
  O  O294  1  0.38346322  0.63191536  0.63123661  1
  O  O295  1  0.87281997  0.12466761  0.14036363  1
  O  O296  1  0.87675395  0.12029997  0.64132842  1
  O  O297  1  0.88726596  0.64001918  0.12610410  1
  O  O298  1  0.87813776  0.63245080  0.63093353  1
  O  O299  1  0.25440165  0.25571312  0.11424346  1
  O  O300  1  0.24874663  0.24778418  0.60977656  1
  O  O301  1  0.26486611  0.74125802  0.11497840  1
  O  O302  1  0.25330299  0.76464973  0.61773156  1
  O  O303  1  0.75522843  0.25235905  0.11929162  1
  O  O304  1  0.74407758  0.24935675  0.61134433  1
  O  O305  1  0.75860787  0.75426330  0.12137840  1
  O  O306  1  0.74951513  0.75875944  0.63140202  1
  O  O307  1  0.24294867  0.24227814  0.37965143  1
  O  O308  1  0.23995853  0.24534184  0.87671423  1
  O  O309  1  0.25104042  0.74294075  0.38199990  1
  O  O310  1  0.25351164  0.73390636  0.88227410  1
  O  O311  1  0.75154129  0.24336049  0.38206403  1
  O  O312  1  0.73828624  0.25491824  0.88810162  1
  O  O313  1  0.73589988  0.75913084  0.36966621  1
  O  O314  1  0.74797939  0.74513789  0.88501222  1
  O  O315  1  0.00214261  0.12217185  -0.00224623  1
  O  O316  1  0.00939565  0.11834721  0.50210958  1
  O  O317  1  0.00925758  0.61759612  0.01051848  1
  O  O318  1  0.01502580  0.62028437  0.50716251  1
  O  O319  1  0.49304450  0.11178136  -0.00275503  1
  O  O320  1  0.50558197  0.11904172  0.49495854  1
  O  O321  1  0.49528371  0.60868717  -0.00906761  1
  O  O322  1  0.49800637  0.61804948  0.50540139  1
  O  O323  1  0.48928026  0.38148828  0.48675669  1
  O  O324  1  0.49049920  0.37969512  0.98957645  1
  O  O325  1  0.49396238  0.88184112  0.49452096  1
  O  O326  1  0.49023501  0.88103430  0.99485769  1
  O  O327  1  1.01592893  0.39111798  0.49949938  1
  O  O328  1  0.99687489  0.38133472  0.99442318  1
  O  O329  1  0.99728058  0.88159264  0.49719632  1
  O  O330  1  1.00259649  0.88304815  1.00635906  1
  O  O331  1  0.49426551  0.49456058  0.37682525  1
  O  O332  1  0.49061593  0.49027412  0.87805385  1
  O  O333  1  0.50210604  0.99278176  0.38233777  1
  O  O334  1  0.48767802  0.99248066  0.88279695  1
  O  O335  1  0.99834155  0.49936754  0.38673547  1
  O  O336  1  0.99537128  0.49052446  0.88055521  1
  O  O337  1  0.99741172  0.99547969  0.38684936  1
  O  O338  1  0.98036865  0.99600054  0.88556483  1
  O  O339  1  0.00656096  -0.00258591  0.11356871  1
  O  O340  1  0.00312315  -0.00117087  0.61370623  1
  O  O341  1  -0.00425500  0.51285672  0.12720198  1
  O  O342  1  -0.00190531  0.51892249  0.61229756  1
  O  O343  1  0.49349701  -0.00273306  0.11848118  1
  O  O344  1  0.50476798  0.00035812  0.60988151  1
  O  O345  1  0.49134881  0.49510995  0.10633265  1
  O  O346  1  0.48876633  0.51622588  0.60826035  1
  O  O347  1  0.24343713  0.38457036  0.24734936  1
  O  O348  1  0.24310617  0.38805991  0.75497967  1
  O  O349  1  0.24101184  0.87105342  0.25803659  1
  O  O350  1  0.25515878  0.87503034  0.73959203  1
  O  O351  1  0.76036006  0.39248872  0.25397130  1
  O  O352  1  0.74962489  0.39074683  0.75742916  1
  O  O353  1  0.75483692  0.88534976  0.24423133  1
  O  O354  1  0.74232274  0.88623753  0.74262178  1
  O  O355  1  0.24184721  0.12884587  0.26392341  1
  O  O356  1  0.25333841  0.12802803  0.75956802  1
  O  O357  1  0.26031466  0.61914672  0.25528593  1
  O  O358  1  0.25379828  0.62310740  0.75350502  1
  O  O359  1  0.75876286  0.11868266  0.25843990  1
  O  O360  1  0.75383694  0.11217046  0.74677098  1
  O  O361  1  0.75895827  0.60986691  0.25136207  1
  O  O362  1  0.75426191  0.62022752  0.76075295  1
  O  O363  1  0.36064227  0.12489917  0.37561751  1
  O  O364  1  0.36360815  0.11637761  0.86747476  1
  O  O365  1  0.37284149  0.61379747  0.36884277  1
  O  O366  1  0.36687207  0.61874429  0.86493466  1
  O  O367  1  0.86691407  0.11977624  0.37189384  1
  O  O368  1  0.87349454  0.11788969  0.86317098  1
  O  O369  1  0.88586522  0.60737309  0.37569435  1
  O  O370  1  0.86436313  0.62014227  0.87075468  1
  O  O371  1  0.12547067  0.37154944  0.13830205  1
  O  O372  1  0.12365846  0.37293468  0.64054179  1
  O  O373  1  0.12723995  0.86947679  0.14546566  1
  O  O374  1  0.13714272  0.87647425  0.63613685  1
  O  O375  1  0.62563047  0.38755101  0.11703525  1
  O  O376  1  0.58980665  0.38688975  0.62911294  1
  O  O377  1  0.63655281  0.87670145  0.12608567  1
  O  O378  1  0.63315897  0.88125514  0.62854557  1
  O  O379  1  0.12072628  0.25586603  0.25606282  1
  O  O380  1  0.12932729  0.25937598  0.75976584  1
  O  O381  1  0.12356292  0.75703502  0.25734043  1
  O  O382  1  0.13040977  0.77008750  0.75990232  1
  O  O383  1  0.61533687  0.24669360  0.24637302  1
  O  O384  1  0.61575717  0.24742604  0.75022102  1
  O  O385  1  0.61709296  0.74043740  0.25730326  1
  O  O386  1  0.61652128  0.75942334  0.75574308  1
  O  O387  1  0.37532106  0.25459045  0.23469983  1
  O  O388  1  0.38033489  0.23495157  0.75513692  1
  O  O389  1  0.38306605  0.74024517  0.24279973  1
  O  O390  1  0.37973630  0.73818544  0.75034315  1
  O  O391  1  0.88571070  0.24118989  0.25471856  1
  O  O392  1  0.87618358  0.24648097  0.75317474  1
  O  O393  1  0.88688700  0.74785270  0.24609028  1
  O  O394  1  0.86958082  0.73801736  0.75572597  1
  O  O395  1  0.38066189  0.49053026  0.48839850  1
  O  O396  1  0.38063978  0.49199113  0.99178818  1
  O  O397  1  0.38270571  0.99033507  0.49390356  1
  O  O398  1  0.37779027  0.99058539  0.99177519  1
  O  O399  1  0.88933872  0.49917974  0.49084988  1
  O  O400  1  0.88354831  0.49701642  0.99671264  1
  O  O401  1  0.88290858  0.99658902  0.49602454  1
  O  O402  1  0.88035690  1.00494907  0.99488964  1
  O  O403  1  0.10177712  0.01855049  -0.02044796  1
  O  O404  1  0.11855426  0.00835096  0.50055789  1
  O  O405  1  0.12125801  0.51142599  -0.00382866  1
  O  O406  1  0.12611293  0.51286607  0.49442484  1
  O  O407  1  0.61256670  0.00561454  0.00499909  1
  O  O408  1  0.61918177  0.01036918  0.50061861  1
  O  O409  1  0.60552440  0.50253951  -0.00819730  1
  O  O410  1  0.61535060  0.50663277  0.49125826  1
  O  O411  1  0.37027709  0.36631056  0.10947744  1
  O  O412  1  0.38424620  0.38116367  0.60829037  1
  O  O413  1  0.37215023  0.86207308  0.11015036  1
  O  O414  1  0.36556293  0.87598417  0.61705941  1
  O  O415  1  0.88008604  0.37291511  0.11701156  1
  O  O416  1  0.89063398  0.36928429  0.64370375  1
  O  O417  1  0.86756941  0.86258017  0.13189170  1
  O  O418  1  0.86301567  0.87889129  0.62267928  1
  O  O419  1  0.13348665  0.13076306  0.38510641  1
  O  O420  1  0.12684739  0.13460271  0.87385034  1
  O  O421  1  0.13539218  0.63173867  0.38411408  1
  O  O422  1  0.12989460  0.62981787  0.88160351  1
  O  O423  1  0.63993536  0.12742549  0.38056712  1
  O  O424  1  0.61556757  0.11829465  0.89625632  1
  O  O425  1  0.62737486  0.64082034  0.38356996  1
  O  O426  1  0.63558742  0.62863111  0.88106486  1
