# generated using pymatgen
data_V85Zn86O256
_symmetry_space_group_name_H-M   'P 1'
_cell_length_a   16.93863108
_cell_length_b   16.91755721
_cell_length_c   16.93121255
_cell_angle_alpha   89.99845441
_cell_angle_beta   89.90704897
_cell_angle_gamma   90.09300693
_symmetry_Int_Tables_number   1
_chemical_formula_structural   V85Zn86O256
_chemical_formula_sum   'V85 Zn86 O256'
_cell_volume   4851.79989684
_cell_formula_units_Z   1
loop_
 _symmetry_equiv_pos_site_id
 _symmetry_equiv_pos_as_xyz
  1  'x, y, z'
loop_
 _atom_site_type_symbol
 _atom_site_label
 _atom_site_symmetry_multiplicity
 _atom_site_fract_x
 _atom_site_fract_y
 _atom_site_fract_z
 _atom_site_occupancy
  V  V0  1  0.25312078  0.25665567  0.49817547  1
  V  V1  1  0.36908865  0.49438258  0.87967772  1
  V  V2  1  0.37527789  -0.00416595  0.38155118  1
  V  V3  1  0.75575595  0.75173802  -0.00178260  1
  V  V4  1  0.87582374  -0.00000724  0.37823304  1
  V  V5  1  0.62547403  -0.00078134  0.12414505  1
  V  V6  1  0.00163316  -0.00073230  0.50371573  1
  V  V7  1  -0.00223770  -0.00146341  0.00164975  1
  V  V8  1  0.87436365  0.37448878  -0.00144967  1
  V  V9  1  0.88319748  0.12973971  0.75437407  1
  V  V10  1  0.62577226  0.00535622  0.62156846  1
  V  V11  1  0.24302197  0.50135712  0.75344751  1
  V  V12  1  0.36951941  0.12536783  0.74696467  1
  V  V13  1  0.75085835  0.75050650  0.49528414  1
  V  V14  1  -0.00496197  0.74505743  0.25416464  1
  V  V15  1  0.61776767  0.26488740  0.38107784  1
  V  V16  1  0.75717404  0.49639433  0.24838346  1
  V  V17  1  0.86771407  0.24527081  0.62112387  1
  V  V18  1  0.24969310  0.37740833  0.62484833  1
  V  V19  1  0.13006164  0.25831498  0.86881049  1
  V  V20  1  0.12545110  0.49663416  0.12742922  1
  V  V21  1  0.36433889  0.87885472  0.00378185  1
  V  V22  1  0.13248945  0.00257366  0.62895045  1
  V  V23  1  0.50141024  0.62928420  0.12557870  1
  V  V24  1  0.37003538  0.00080906  0.86919449  1
  V  V25  1  0.87611487  -0.00478543  0.87794187  1
  V  V26  1  0.75056113  0.87781040  0.62399639  1
  V  V27  1  -0.00271952  0.49917715  -0.00399313  1
  V  V28  1  0.00688816  0.74974243  0.74541048  1
  V  V29  1  0.84585670  0.72612664  0.65292967  1
  V  V30  1  0.13496729  0.87976987  0.75166352  1
  V  V31  1  0.37372726  0.25290398  0.11310404  1
  V  V32  1  0.25155315  0.12539679  0.37604565  1
  V  V33  1  0.49647881  0.49654625  0.00143480  1
  V  V34  1  -0.00656315  0.62156537  0.12922837  1
  V  V35  1  0.36525189  0.75557417  0.12365068  1
  V  V36  1  0.75237360  0.00213046  0.25061862  1
  V  V37  1  0.12229142  0.49416423  0.62666024  1
  V  V38  1  0.25316810  -0.00583562  0.24538618  1
  V  V39  1  0.38089252  0.12980548  0.25003347  1
  V  V40  1  0.36843485  0.62539176  0.75746843  1
  V  V41  1  0.37403436  0.62896493  0.24957612  1
  V  V42  1  0.00163213  0.62600718  0.62759387  1
  V  V43  1  0.74952451  0.24922682  0.00249349  1
  V  V44  1  0.62648312  0.74618997  0.87703989  1
  V  V45  1  0.74997502  0.00086372  0.75125726  1
  V  V46  1  0.12957007  -0.00029970  0.12184859  1
  V  V47  1  0.62721869  0.49486882  0.63698544  1
  V  V48  1  0.62511864  0.87288373  0.25057261  1
  V  V49  1  0.50007567  0.26107999  0.75045733  1
  V  V50  1  0.87759976  0.75684802  0.12244590  1
  V  V51  1  0.62420574  0.62051431  0.49052472  1
  V  V52  1  0.25743330  0.88034193  0.61992175  1
  V  V53  1  0.13249992  0.74498867  0.87608656  1
  V  V54  1  0.49907827  0.62436988  0.62091932  1
  V  V55  1  0.25051998  0.12986299  0.88209654  1
  V  V56  1  0.49842118  0.87159246  0.38251312  1
  V  V57  1  0.74424546  0.37681455  0.12705686  1
  V  V58  1  0.86664390  0.37035385  0.49956378  1
  V  V59  1  -0.00121115  0.37008792  0.85806162  1
  V  V60  1  0.51067256  0.13072732  0.62267817  1
  V  V61  1  0.37729080  0.25746555  0.62024813  1
  V  V62  1  -0.00560964  0.49925099  0.49582516  1
  V  V63  1  0.25395704  0.75296931  0.49654535  1
  V  V64  1  0.75041803  0.12274541  0.87615029  1
  V  V65  1  -0.00751267  0.37346203  0.37460267  1
  V  V66  1  0.49993660  0.00321354  0.50090642  1
  V  V67  1  0.26754428  0.47833702  0.26444556  1
  V  V68  1  0.00571895  0.13232962  0.62952696  1
  V  V69  1  0.49867792  -0.00099530  -0.00038788  1
  V  V70  1  0.62529025  0.26065265  0.87360157  1
  V  V71  1  0.49800412  0.75176997  0.75195601  1
  V  V72  1  0.24763667  0.36813932  0.11049162  1
  V  V73  1  0.24865745  0.62159541  0.37274324  1
  V  V74  1  0.76589553  0.61922129  0.36857533  1
  V  V75  1  -0.00444471  0.87363695  0.87690234  1
  V  V76  1  0.11874164  0.37066824  0.24807876  1
  V  V77  1  0.13289410  0.62191938  -0.00141050  1
  V  V78  1  0.62867665  0.62172526  0.00148514  1
  V  V79  1  0.62573787  0.12230789  -0.00106930  1
  V  V80  1  0.48750264  0.48714593  0.49240827  1
  V  V81  1  0.86296691  0.51155232  0.86021705  1
  V  V82  1  0.73797346  0.12938690  0.38957106  1
  V  V83  1  0.12505228  0.87331855  0.24792637  1
  V  V84  1  0.37510177  0.75279762  0.62172357  1
  Zn  Zn85  1  -0.00414021  0.24628673  0.24772197  1
  Zn  Zn86  1  0.87577647  0.24737992  0.12965355  1
  Zn  Zn87  1  0.87642609  0.12716515  0.25045530  1
  Zn  Zn88  1  0.50287740  0.12941776  0.12773030  1
  Zn  Zn89  1  0.12352055  0.75048396  0.37568374  1
  Zn  Zn90  1  0.75215903  0.38625700  0.63919178  1
  Zn  Zn91  1  0.49758166  0.37826176  0.87614985  1
  Zn  Zn92  1  0.00039217  0.87415933  0.37720235  1
  Zn  Zn93  1  0.62500829  0.74769223  0.37166981  1
  Zn  Zn94  1  0.12691872  0.13196474  0.00205329  1
  Zn  Zn95  1  0.12521626  0.62514570  0.49805958  1
  Zn  Zn96  1  0.62384341  0.87630842  0.75218426  1
  Zn  Zn97  1  0.58736348  0.46292968  0.16585031  1
  Zn  Zn98  1  -0.00169426  0.12609736  0.12819512  1
  Zn  Zn99  1  0.24901392  0.74918925  0.00042750  1
  Zn  Zn100  1  0.75445711  0.87476278  0.12350759  1
  Zn  Zn101  1  0.50933546  0.27263705  0.24842600  1
  Zn  Zn102  1  0.87848120  0.87074157  0.50540823  1
  Zn  Zn103  1  0.49837069  0.87499124  0.87499206  1
  Zn  Zn104  1  0.12765052  0.12658233  0.50062840  1
  Zn  Zn105  1  0.12368810  0.24904909  0.37474162  1
  Zn  Zn106  1  0.49939618  0.75197556  0.25014337  1
  Zn  Zn107  1  0.18837771  0.18577990  0.18751296  1
  Zn  Zn108  1  0.18820564  0.19156593  0.69305532  1
  Zn  Zn109  1  0.18487794  0.68439938  0.18775632  1
  Zn  Zn110  1  0.18755231  0.68614885  0.68336474  1
  Zn  Zn111  1  0.68767814  0.18936981  0.19310839  1
  Zn  Zn112  1  0.70249088  0.21621162  0.70289014  1
  Zn  Zn113  1  0.68907070  0.68368064  0.18833183  1
  Zn  Zn114  1  0.67895331  0.68458777  0.68734333  1
  Zn  Zn115  1  0.31080882  0.30921579  0.30639666  1
  Zn  Zn116  1  0.31026275  0.31604610  0.80905448  1
  Zn  Zn117  1  0.31261997  0.81357438  0.31390795  1
  Zn  Zn118  1  0.31214257  0.81459066  0.81312404  1
  Zn  Zn119  1  0.80818308  0.30964280  0.31489455  1
  Zn  Zn120  1  0.81502963  0.31473740  0.81146718  1
  Zn  Zn121  1  0.81565313  0.81394576  0.31239522  1
  Zn  Zn122  1  0.80757404  0.79818916  0.80662932  1
  Zn  Zn123  1  0.18175541  0.43554949  0.43894888  1
  Zn  Zn124  1  0.18335905  0.43777906  0.93346547  1
  Zn  Zn125  1  0.18678174  0.93672053  0.43753321  1
  Zn  Zn126  1  0.18772171  0.94105041  0.93474010  1
  Zn  Zn127  1  0.69373472  0.44471162  0.44702782  1
  Zn  Zn128  1  0.68826840  0.44161342  0.93817817  1
  Zn  Zn129  1  0.68606893  0.93964172  0.43811437  1
  Zn  Zn130  1  0.68783570  0.92987270  0.93711713  1
  Zn  Zn131  1  0.31306133  0.06620127  0.06383480  1
  Zn  Zn132  1  0.31566089  0.06745400  0.56136407  1
  Zn  Zn133  1  0.31330613  0.55735459  0.07125743  1
  Zn  Zn134  1  0.31212864  0.56577202  0.56268808  1
  Zn  Zn135  1  0.81589574  0.06023092  0.06339588  1
  Zn  Zn136  1  0.81637602  0.06512526  0.56430297  1
  Zn  Zn137  1  0.81241161  0.56278177  0.06250032  1
  Zn  Zn138  1  0.81068113  0.55966016  0.56213162  1
  Zn  Zn139  1  0.41920776  0.42705612  0.20826040  1
  Zn  Zn140  1  0.43585860  0.44111009  0.68466205  1
  Zn  Zn141  1  0.43943143  0.93765066  0.18899641  1
  Zn  Zn142  1  0.43759704  0.93973458  0.68772270  1
  Zn  Zn143  1  0.93000932  0.43763348  0.18853550  1
  Zn  Zn144  1  0.93288820  0.43812386  0.68427804  1
  Zn  Zn145  1  0.94070397  0.93734407  0.18926896  1
  Zn  Zn146  1  0.93885734  0.93632864  0.68954124  1
  Zn  Zn147  1  0.06382038  0.06276208  0.31219921  1
  Zn  Zn148  1  0.06745597  0.06335058  0.81344739  1
  Zn  Zn149  1  0.06522518  0.55833711  0.31310221  1
  Zn  Zn150  1  0.05850711  0.56199135  0.81275942  1
  Zn  Zn151  1  0.56367361  0.06155459  0.31275323  1
  Zn  Zn152  1  0.55946431  0.06787496  0.80919274  1
  Zn  Zn153  1  0.56934183  0.44914323  0.32443456  1
  Zn  Zn154  1  0.55759489  0.56662639  0.81580795  1
  Zn  Zn155  1  0.44291311  0.19262095  0.43786451  1
  Zn  Zn156  1  0.44049423  0.18548300  0.93563512  1
  Zn  Zn157  1  0.43533578  0.68240102  0.43416348  1
  Zn  Zn158  1  0.43597868  0.68591583  0.93932144  1
  Zn  Zn159  1  0.93713231  0.18536238  0.43564339  1
  Zn  Zn160  1  0.94224203  0.18823085  0.94017604  1
  Zn  Zn161  1  0.93641473  0.69010400  0.44510370  1
  Zn  Zn162  1  0.94055637  0.68583508  0.93738094  1
  Zn  Zn163  1  0.06055350  0.30835174  0.05690312  1
  Zn  Zn164  1  0.06350300  0.31270601  0.56034377  1
  Zn  Zn165  1  0.06363333  0.81399213  0.06369645  1
  Zn  Zn166  1  0.06985052  0.81409085  0.56183508  1
  Zn  Zn167  1  0.55793320  0.31022852  0.05991339  1
  Zn  Zn168  1  0.56713289  0.31581917  0.55576752  1
  Zn  Zn169  1  0.56018129  0.81296578  0.06227115  1
  Zn  Zn170  1  0.56673373  0.81321677  0.56115708  1
  O  O171  1  0.12533910  0.11249046  0.12297751  1
  O  O172  1  0.12339274  0.11891638  0.62682564  1
  O  O173  1  0.11536047  0.61684321  0.11862712  1
  O  O174  1  0.11907072  0.61309644  0.62140075  1
  O  O175  1  0.62557505  0.11857982  0.11641253  1
  O  O176  1  0.61363360  0.12230666  0.63257324  1
  O  O177  1  0.61165909  0.63347347  0.11732107  1
  O  O178  1  0.61575420  0.62041418  0.61693294  1
  O  O179  1  0.34886359  0.41560471  0.30750210  1
  O  O180  1  0.37500497  0.39004213  0.87092397  1
  O  O181  1  0.38486224  0.88476620  0.37006027  1
  O  O182  1  0.37590801  0.88465944  0.88077625  1
  O  O183  1  0.88045296  0.37060228  0.38596602  1
  O  O184  1  0.88393568  0.37993488  0.87810377  1
  O  O185  1  0.87669564  0.88712859  0.38121183  1
  O  O186  1  0.89075759  0.87559041  0.86549067  1
  O  O187  1  0.25760653  0.00607444  0.37059001  1
  O  O188  1  0.26260298  0.00995789  0.87601989  1
  O  O189  1  0.24058799  0.50719356  0.36774069  1
  O  O190  1  0.25345909  0.49761851  0.86446855  1
  O  O191  1  0.75608522  0.00416754  0.36989122  1
  O  O192  1  0.75603621  0.00131928  0.87195366  1
  O  O193  1  0.75112940  0.51244616  0.37008259  1
  O  O194  1  0.76368591  0.49931211  0.87565983  1
  O  O195  1  0.24323100  0.48680553  0.13446922  1
  O  O196  1  0.24257456  0.49547405  0.62816185  1
  O  O197  1  0.24496465  1.00383976  0.13475327  1
  O  O198  1  0.24473939  0.99416820  0.61794701  1
  O  O199  1  0.75269198  0.49439940  0.13596158  1
  O  O200  1  0.73370230  0.50440198  0.62837008  1
  O  O201  1  0.74449063  0.99564535  0.13290522  1
  O  O202  1  0.74435537  0.99725331  0.62935252  1
  O  O203  1  0.00242387  0.37686795  0.25760160  1
  O  O204  1  -0.00202547  0.37745779  0.76004744  1
  O  O205  1  0.00839567  0.86661455  0.25336442  1
  O  O206  1  0.01733228  0.87160916  0.75360278  1
  O  O207  1  0.51974931  0.39014841  0.23789648  1
  O  O208  1  0.49627352  0.36438564  0.74997183  1
  O  O209  1  0.50822893  0.87559748  0.26109072  1
  O  O210  1  0.49935831  0.86247305  0.74912341  1
  O  O211  1  0.48648648  0.11681984  0.24846272  1
  O  O212  1  0.48731305  0.13387078  0.74149958  1
  O  O213  1  0.48790597  0.63237050  0.23654010  1
  O  O214  1  0.49202720  0.63541263  0.74138062  1
  O  O215  1  0.99684086  0.12572874  0.24951043  1
  O  O216  1  0.99427499  0.11507129  0.74170298  1
  O  O217  1  1.00806051  0.63167186  0.24141505  1
  O  O218  1  1.00582602  0.63359695  0.73698244  1
  O  O219  1  0.38074951  0.24539241  0.01416201  1
  O  O220  1  0.36445790  0.24775183  0.50710501  1
  O  O221  1  0.37183596  0.76045935  0.00392120  1
  O  O222  1  0.36344265  0.74358786  0.50673281  1
  O  O223  1  0.86916947  0.26213679  -0.00385997  1
  O  O224  1  0.88573990  0.25931359  0.50874537  1
  O  O225  1  0.86752041  0.74338845  0.00698581  1
  O  O226  1  0.86099600  0.74981349  0.51350152  1
  O  O227  1  0.13961879  0.24807137  0.49862652  1
  O  O228  1  0.11691155  0.24603786  0.97805732  1
  O  O229  1  0.13913037  0.74735648  0.49822099  1
  O  O230  1  0.12523881  0.74176934  0.99409431  1
  O  O231  1  0.61890641  0.24599325  0.48162980  1
  O  O232  1  0.62702011  0.24105974  0.99228384  1
  O  O233  1  0.63589010  0.74233889  0.49785379  1
  O  O234  1  0.62870435  0.74372644  0.99458101  1
  O  O235  1  0.48962553  0.24964351  0.12973352  1
  O  O236  1  0.49562338  0.24805837  0.62885315  1
  O  O237  1  0.48820114  0.74612243  0.12444298  1
  O  O238  1  0.49680666  0.74465845  0.62952972  1
  O  O239  1  0.99574825  0.24671553  0.12539990  1
  O  O240  1  0.99868752  0.23543232  0.62078813  1
  O  O241  1  0.99618114  0.74193203  0.12978864  1
  O  O242  1  1.00861481  0.74141170  0.63041489  1
  O  O243  1  0.00361412  0.26142746  0.37611943  1
  O  O244  1  0.00271545  0.26544794  0.87505013  1
  O  O245  1  0.00072974  0.75065875  0.36940021  1
  O  O246  1  0.01081190  0.75594332  0.86862750  1
  O  O247  1  0.51089768  0.25426573  0.36952888  1
  O  O248  1  0.50475671  0.25457444  0.86890581  1
  O  O249  1  0.50140423  0.75779098  0.37346733  1
  O  O250  1  0.50248154  0.75081825  0.86712941  1
  O  O251  1  0.25089652  0.13384788  0.49126881  1
  O  O252  1  0.25157050  0.12486160  0.98584315  1
  O  O253  1  0.24901937  0.63071602  0.49052988  1
  O  O254  1  0.23544509  0.62190321  1.00702532  1
  O  O255  1  0.75052314  0.11635846  0.48671520  1
  O  O256  1  0.74516365  0.12829534  0.99474732  1
  O  O257  1  0.74509740  0.62964765  0.49349288  1
  O  O258  1  0.73719903  0.63470013  1.00933396  1
  O  O259  1  0.24216075  0.37830522  0.01128899  1
  O  O260  1  0.24771281  0.37021277  0.51085774  1
  O  O261  1  0.26126535  0.87657520  -0.00243133  1
  O  O262  1  0.24812765  0.86736164  0.50802579  1
  O  O263  1  0.75760156  0.37108175  0.00312081  1
  O  O264  1  0.76400896  0.38069879  0.51068280  1
  O  O265  1  0.74532600  0.85764332  0.00605753  1
  O  O266  1  0.75026116  0.86845838  0.50552701  1
  O  O267  1  0.13309520  0.48626660  0.24628500  1
  O  O268  1  0.13495463  0.50626967  0.74360586  1
  O  O269  1  0.13357978  0.99394153  0.24390809  1
  O  O270  1  0.12620917  0.99363887  0.73845646  1
  O  O271  1  0.64557137  0.50539842  0.25421185  1
  O  O272  1  0.61633094  0.50928885  0.73562896  1
  O  O273  1  0.63136947  0.99077624  0.24570314  1
  O  O274  1  0.62904920  1.00092774  0.74014225  1
  O  O275  1  0.36869903  0.00476803  0.25770277  1
  O  O276  1  0.38022118  0.01064646  0.75825159  1
  O  O277  1  0.36227568  0.52708626  0.21948901  1
  O  O278  1  0.36608184  0.50785786  0.75450421  1
  O  O279  1  0.86764070  -0.00262627  0.25955421  1
  O  O280  1  0.87077537  0.00628612  0.75736861  1
  O  O281  1  0.85923834  0.50379071  0.25068579  1
  O  O282  1  0.87335101  0.49796955  0.76026053  1
  O  O283  1  0.11608819  0.37237344  0.36511566  1
  O  O284  1  0.11262510  0.36818598  0.87338886  1
  O  O285  1  0.12330418  0.87464532  0.36212346  1
  O  O286  1  0.12034047  0.87050293  0.86762591  1
  O  O287  1  0.63353806  0.36888002  0.38168851  1
  O  O288  1  0.62313096  0.36363178  0.87965062  1
  O  O289  1  0.61800924  0.87442901  0.36781596  1
  O  O290  1  0.61874089  0.86252254  0.87275601  1
  O  O291  1  0.37560075  0.13568728  0.13267027  1
  O  O292  1  0.37972235  0.13757856  0.63099786  1
  O  O293  1  0.38158761  0.63988486  0.12240332  1
  O  O294  1  0.38346533  0.63115147  0.63362927  1
  O  O295  1  0.87731731  0.12615657  0.12912824  1
  O  O296  1  0.88861584  0.12363977  0.63352775  1
  O  O297  1  0.88918577  0.63202787  0.11989010  1
  O  O298  1  0.88366064  0.63125345  0.62238481  1
  O  O299  1  0.26241799  0.25311538  0.12676212  1
  O  O300  1  0.25601945  0.25753518  0.62026859  1
  O  O301  1  0.26056939  0.74694955  0.12251165  1
  O  O302  1  0.25475067  0.75748076  0.61754203  1
  O  O303  1  0.74992562  0.25716805  0.11840073  1
  O  O304  1  0.77038181  0.22305214  0.61049086  1
  O  O305  1  0.76189978  0.74898296  0.12172537  1
  O  O306  1  0.74197137  0.76098956  0.61224014  1
  O  O307  1  0.25246589  0.24441742  0.38129300  1
  O  O308  1  0.23945309  0.24838046  0.87122591  1
  O  O309  1  0.24914718  0.74390397  0.38115381  1
  O  O310  1  0.23661971  0.75278529  0.87702367  1
  O  O311  1  0.73837646  0.23555609  0.37481144  1
  O  O312  1  0.74246609  0.24296646  0.88365081  1
  O  O313  1  0.75131447  0.74067288  0.37902434  1
  O  O314  1  0.73936792  0.75184780  0.88582962  1
  O  O315  1  0.00400156  0.10928120  -0.00207932  1
  O  O316  1  0.00471953  0.11414409  0.50809808  1
  O  O317  1  0.00656625  0.61343513  0.00611652  1
  O  O318  1  0.00125737  0.61823341  0.51002433  1
  O  O319  1  0.50627254  0.11326118  0.00104636  1
  O  O320  1  0.49218655  0.11812382  0.51253519  1
  O  O321  1  0.50602844  0.62090788  0.00661477  1
  O  O322  1  0.50673662  0.62585688  0.50846820  1
  O  O323  1  0.49554630  0.38708598  0.50196637  1
  O  O324  1  0.50265720  0.39259000  1.00027951  1
  O  O325  1  0.50563849  0.88219867  0.48937343  1
  O  O326  1  0.49201524  0.88716513  0.99773410  1
  O  O327  1  0.99423792  0.38134197  0.49414015  1
  O  O328  1  0.99217162  0.38579869  0.99437311  1
  O  O329  1  1.00072387  0.88562121  0.50202442  1
  O  O330  1  1.00804192  0.88544228  0.98890084  1
  O  O331  1  0.50124646  0.50716605  0.39350661  1
  O  O332  1  0.48908361  0.50042628  0.88150196  1
  O  O333  1  0.49342250  0.99459754  0.38096255  1
  O  O334  1  0.48901249  1.00151747  0.88099762  1
  O  O335  1  1.00363628  0.48880355  0.38487866  1
  O  O336  1  0.99493458  0.48907227  0.87990547  1
  O  O337  1  0.99365036  1.00041269  0.38563794  1
  O  O338  1  0.99777342  0.99180449  0.87959710  1
  O  O339  1  0.00865575  -0.00198188  0.11650885  1
  O  O340  1  0.00933493  0.00499979  0.62053139  1
  O  O341  1  0.00227779  0.50386917  0.11799219  1
  O  O342  1  0.00580596  0.50562394  0.62218081  1
  O  O343  1  0.50645318  0.00267547  0.11637424  1
  O  O344  1  0.50623787  0.00820585  0.62219731  1
  O  O345  1  0.49613435  0.51367763  0.11592785  1
  O  O346  1  0.50587303  0.50953105  0.61954492  1
  O  O347  1  0.23233592  0.37108792  0.23656934  1
  O  O348  1  0.25207018  0.38604799  0.73505020  1
  O  O349  1  0.24433162  0.88710873  0.25450421  1
  O  O350  1  0.24075628  0.87146232  0.74167959  1
  O  O351  1  0.75407835  0.38517609  0.24131102  1
  O  O352  1  0.73952365  0.32580482  0.73256607  1
  O  O353  1  0.74326110  0.88453898  0.25077939  1
  O  O354  1  0.74689585  0.88204136  0.74239614  1
  O  O355  1  0.26019674  0.11709636  0.25704305  1
  O  O356  1  0.26379290  0.13169473  0.75901146  1
  O  O357  1  0.25238308  0.61872015  0.25750223  1
  O  O358  1  0.25871433  0.61622524  0.74178655  1
  O  O359  1  0.74899925  0.11033040  0.25860194  1
  O  O360  1  0.76008524  0.11973083  0.75847015  1
  O  O361  1  0.75136510  0.62060182  0.26299698  1
  O  O362  1  0.78159570  0.69203083  0.73341125  1
  O  O363  1  0.36826481  0.12039941  0.36925574  1
  O  O364  1  0.37048729  0.12172080  0.86761049  1
  O  O365  1  0.36252377  0.62893272  0.36132140  1
  O  O366  1  0.37754534  0.61865543  0.86230738  1
  O  O367  1  0.86513772  0.11290708  0.37635986  1
  O  O368  1  0.87315838  0.11881659  0.87009732  1
  O  O369  1  0.86344220  0.62608421  0.38158438  1
  O  O370  1  0.88234056  0.60974073  0.87570913  1
  O  O371  1  0.12587894  0.37773651  0.12850972  1
  O  O372  1  0.13021999  0.38653001  0.62304251  1
  O  O373  1  0.12283214  0.88555071  0.13675539  1
  O  O374  1  0.13699266  0.88261036  0.63173887  1
  O  O375  1  0.64023255  0.37562542  0.11057240  1
  O  O376  1  0.62366223  0.39178599  0.62282105  1
  O  O377  1  0.62462440  0.88124152  0.13365616  1
  O  O378  1  0.63419392  0.88440200  0.62800464  1
  O  O379  1  0.12219834  0.25960286  0.25115676  1
  O  O380  1  0.11979073  0.24451810  0.76816289  1
  O  O381  1  0.11611244  0.75769554  0.24804519  1
  O  O382  1  0.12242855  0.75555408  0.75544567  1
  O  O383  1  0.62172630  0.24036418  0.27049085  1
  O  O384  1  0.60871756  0.23329535  0.76558062  1
  O  O385  1  0.62579198  0.76228177  0.25018544  1
  O  O386  1  0.61355201  0.74904637  0.75857047  1
  O  O387  1  0.38258734  0.24208552  0.24401117  1
  O  O388  1  0.38158362  0.24594806  0.74298960  1
  O  O389  1  0.37288870  0.74498621  0.24112906  1
  O  O390  1  0.37836412  0.74421216  0.74513407  1
  O  O391  1  0.87532521  0.24703834  0.24963436  1
  O  O392  1  0.87962563  0.23395435  0.74310707  1
  O  O393  1  0.88857688  0.75260435  0.24294883  1
  O  O394  1  0.90233346  0.76880383  0.74301913  1
  O  O395  1  0.38895911  0.50550808  0.50625395  1
  O  O396  1  0.38167257  0.51145570  0.98985898  1
  O  O397  1  0.37927170  1.00347465  0.48744723  1
  O  O398  1  0.38118771  0.99717364  0.99504435  1
  O  O399  1  0.88812719  0.48931645  0.51148944  1
  O  O400  1  0.87981428  0.49163240  0.99247891  1
  O  O401  1  0.88462693  0.99687059  0.49715508  1
  O  O402  1  0.88345397  0.99809332  0.98950519  1
  O  O403  1  0.12098378  0.00084286  0.00788750  1
  O  O404  1  0.12026378  0.00156650  0.51117697  1
  O  O405  1  0.11522942  0.50432913  0.00325432  1
  O  O406  1  0.11212709  0.50063434  0.50850486  1
  O  O407  1  0.61846627  0.00184310  0.00228926  1
  O  O408  1  0.61980134  -0.00139206  0.51521312  1
  O  O409  1  0.61549755  0.51360437  -0.00650894  1
  O  O410  1  0.61644133  0.50802313  0.51071339  1
  O  O411  1  0.36364292  0.36078698  0.12757365  1
  O  O412  1  0.36809180  0.36424759  0.62807403  1
  O  O413  1  0.37975498  0.86932940  0.11617268  1
  O  O414  1  0.36388980  0.87186482  0.62971842  1
  O  O415  1  0.86408405  0.37504696  0.11314319  1
  O  O416  1  0.87372305  0.36183180  0.62116791  1
  O  O417  1  0.87814511  0.86110366  0.12633384  1
  O  O418  1  0.85994189  0.86944747  0.62790625  1
  O  O419  1  0.14092487  0.12501337  0.37560544  1
  O  O420  1  0.13589786  0.13147737  0.87533053  1
  O  O421  1  0.13578666  0.62830427  0.37553094  1
  O  O422  1  0.11654203  0.63329032  0.88526175  1
  O  O423  1  0.63629217  0.11784271  0.37944857  1
  O  O424  1  0.62965952  0.12720614  0.88383061  1
  O  O425  1  0.63513093  0.62798646  0.38863377  1
  O  O426  1  0.61853067  0.63734886  0.88468459  1
