# generated using pymatgen
data_V85Zn86O256
_symmetry_space_group_name_H-M   'P 1'
_cell_length_a   16.98453465
_cell_length_b   16.96665865
_cell_length_c   16.97871820
_cell_angle_alpha   90.06138195
_cell_angle_beta   89.94705968
_cell_angle_gamma   90.05900833
_symmetry_Int_Tables_number   1
_chemical_formula_structural   V85Zn86O256
_chemical_formula_sum   'V85 Zn86 O256'
_cell_volume   4892.76335067
_cell_formula_units_Z   1
loop_
 _symmetry_equiv_pos_site_id
 _symmetry_equiv_pos_as_xyz
  1  'x, y, z'
loop_
 _atom_site_type_symbol
 _atom_site_label
 _atom_site_symmetry_multiplicity
 _atom_site_fract_x
 _atom_site_fract_y
 _atom_site_fract_z
 _atom_site_occupancy
  V  V0  1  -0.00148030  0.37361875  0.86990092  1
  V  V1  1  0.59609153  0.25767680  0.37230850  1
  V  V2  1  0.37288090  0.75008947  0.12716706  1
  V  V3  1  -0.00351125  0.87592731  0.87457748  1
  V  V4  1  0.87461333  0.74453906  0.62633212  1
  V  V5  1  0.37836178  0.62516696  0.74719854  1
  V  V6  1  0.48954942  -0.00559163  0.50066692  1
  V  V7  1  0.25113733  0.49942781  0.74839334  1
  V  V8  1  0.00007474  0.14036339  0.62876246  1
  V  V9  1  0.24760519  0.12616055  0.87123864  1
  V  V10  1  -0.00316873  0.24409188  0.25145569  1
  V  V11  1  0.42907022  0.17964766  0.80734854  1
  V  V12  1  0.25010379  -0.00600253  0.24032582  1
  V  V13  1  0.50262637  0.87371231  0.87953426  1
  V  V14  1  0.12610605  0.12352763  0.49962389  1
  V  V15  1  0.87187202  0.87223969  0.49651774  1
  V  V16  1  0.50319037  0.61814018  0.12385079  1
  V  V17  1  0.62746809  0.74686087  0.87924390  1
  V  V18  1  0.62577007  0.00341019  0.62305859  1
  V  V19  1  0.62644018  0.89411389  0.24811871  1
  V  V20  1  0.25356917  0.87518017  0.62169111  1
  V  V21  1  0.72286830  0.24474140  0.00172402  1
  V  V22  1  0.37581376  0.87511259  0.00603654  1
  V  V23  1  0.25293559  0.12125340  0.37145122  1
  V  V24  1  0.25175686  0.38601585  0.12131630  1
  V  V25  1  0.12181626  0.25046621  0.86786712  1
  V  V26  1  0.87617145  0.49900130  0.87732354  1
  V  V27  1  0.88828084  0.24518796  0.10750207  1
  V  V28  1  -0.00163967  0.49827505  0.50164180  1
  V  V29  1  0.25104827  0.62582258  0.87323387  1
  V  V30  1  0.38375416  0.49890824  0.87085208  1
  V  V31  1  -0.00469919  0.87356948  0.36604026  1
  V  V32  1  -0.00220060  0.49838214  0.00207988  1
  V  V33  1  0.24733879  0.62227651  0.36875458  1
  V  V34  1  0.50170847  0.74886097  0.75046521  1
  V  V35  1  0.12318819  -0.00251215  0.62446303  1
  V  V36  1  0.37770051  -0.00155214  0.87228627  1
  V  V37  1  0.25282035  0.25062207  0.49526735  1
  V  V38  1  0.24715547  0.24982332  0.00585436  1
  V  V39  1  0.37588204  0.75345827  0.62133945  1
  V  V40  1  0.75116970  0.87411245  0.62506064  1
  V  V41  1  -0.00156274  -0.00110904  0.50004112  1
  V  V42  1  0.38199516  0.24297802  0.62669751  1
  V  V43  1  0.86810092  0.49113843  0.36743004  1
  V  V44  1  0.74883325  0.24299727  0.49406801  1
  V  V45  1  0.86984727  0.87587963  0.00412044  1
  V  V46  1  0.12314355  0.62632769  0.49795321  1
  V  V47  1  0.87611931  0.63365363  0.25417124  1
  V  V48  1  0.63017156  0.48659703  0.13888624  1
  V  V49  1  0.74278296  0.61681760  0.37689890  1
  V  V50  1  -0.00393486  0.74559930  0.75027017  1
  V  V51  1  0.77055318  0.37574587  0.13026403  1
  V  V52  1  0.37135393  0.61198830  0.24709953  1
  V  V53  1  0.38083068  0.37000438  -0.00884733  1
  V  V54  1  0.25311362  0.75637806  0.49582404  1
  V  V55  1  0.12618209  0.50105536  0.62428659  1
  V  V56  1  0.00139527  0.00188959  0.00089785  1
  V  V57  1  0.12482414  0.87326428  0.74918962  1
  V  V58  1  0.12497580  0.74950228  0.87494381  1
  V  V59  1  0.50500695  0.74903104  0.24892482  1
  V  V60  1  0.86238317  0.01207823  0.37279552  1
  V  V61  1  0.75728588  0.50456132  0.74989348  1
  V  V62  1  0.87572723  0.36808033  0.50879497  1
  V  V63  1  0.37792205  0.49948630  0.38561914  1
  V  V64  1  0.12408694  0.62472158  0.00278375  1
  V  V65  1  0.75470559  0.00383509  0.75744082  1
  V  V66  1  0.25223963  0.75220736  0.00172914  1
  V  V67  1  0.37856950  0.12645707  0.23518921  1
  V  V68  1  0.25348364  0.37319275  0.62009127  1
  V  V69  1  0.63039549  0.61767335  0.00339431  1
  V  V70  1  0.50922903  0.01579296  0.01181700  1
  V  V71  1  0.63361916  0.50760997  0.61750341  1
  V  V72  1  0.11743471  0.75049098  0.36897757  1
  V  V73  1  0.75347296  0.36016664  0.63519463  1
  V  V74  1  0.87729448  0.14384314  0.74905881  1
  V  V75  1  0.13006516  0.37952655  0.24909328  1
  V  V76  1  0.75974872  0.62592721  0.87743267  1
  V  V77  1  0.12514110  0.87186283  0.23975664  1
  V  V78  1  -0.00011012  0.37327167  0.37596252  1
  V  V79  1  0.62252617  0.74479817  0.38127460  1
  V  V80  1  -0.00185350  0.62518240  0.62762126  1
  V  V81  1  0.60865256  0.38313122  0.75723111  1
  V  V82  1  0.25177502  0.00000839  0.75082300  1
  V  V83  1  0.50885990  0.62948647  0.61244023  1
  V  V84  1  0.62795048  0.87283655  0.75105029  1
  Zn  Zn85  1  0.49395558  0.87135939  0.37794046  1
  Zn  Zn86  1  0.12492198  0.50583903  0.13186537  1
  Zn  Zn87  1  0.87448134  0.75612969  0.13402081  1
  Zn  Zn88  1  0.51442621  0.49851938  0.49236526  1
  Zn  Zn89  1  0.49547020  0.12248541  0.63174856  1
  Zn  Zn90  1  0.50827891  0.49429987  -0.00774568  1
  Zn  Zn91  1  0.12632200  -0.00107264  0.12216623  1
  Zn  Zn92  1  0.74616614  0.88813914  0.12885393  1
  Zn  Zn93  1  0.12819715  0.24950394  0.37249959  1
  Zn  Zn94  1  0.87499372  0.00486609  0.87155505  1
  Zn  Zn95  1  0.12395754  0.12386842  0.00169483  1
  Zn  Zn96  1  0.12070205  0.36868902  0.74512449  1
  Zn  Zn97  1  -0.00025558  0.62828545  0.13420454  1
  Zn  Zn98  1  0.42624131  0.33858282  0.45714975  1
  Zn  Zn99  1  0.48796427  0.25699346  0.23614072  1
  Zn  Zn100  1  0.74244839  0.74284111  0.50230895  1
  Zn  Zn101  1  0.77669678  0.05542897  0.22386009  1
  Zn  Zn102  1  0.74800471  0.75289204  0.01106932  1
  Zn  Zn103  1  0.00413423  0.11899879  0.13416436  1
  Zn  Zn104  1  0.61606381  0.23199638  0.86479429  1
  Zn  Zn105  1  0.37106246  -0.01055411  0.37444672  1
  Zn  Zn106  1  0.62619853  0.12428207  0.49988922  1
  Zn  Zn107  1  0.18437519  0.18774713  0.18684742  1
  Zn  Zn108  1  0.19024228  0.18554909  0.68690334  1
  Zn  Zn109  1  0.18840969  0.68985047  0.18670557  1
  Zn  Zn110  1  0.18674623  0.68779943  0.68601961  1
  Zn  Zn111  1  0.66785807  0.19472716  0.18339269  1
  Zn  Zn112  1  0.67698646  0.17954583  0.71397953  1
  Zn  Zn113  1  0.69450565  0.68684351  0.18979907  1
  Zn  Zn114  1  0.69109453  0.68558216  0.69121310  1
  Zn  Zn115  1  0.34349351  0.33896582  0.28344541  1
  Zn  Zn116  1  0.30497921  0.31658388  0.81225923  1
  Zn  Zn117  1  0.31343422  0.81193425  0.31019895  1
  Zn  Zn118  1  0.31446534  0.81369551  0.81209994  1
  Zn  Zn119  1  0.78922357  0.25492839  0.28523461  1
  Zn  Zn120  1  0.80961626  0.31635056  0.82345905  1
  Zn  Zn121  1  0.80274906  0.81288167  0.31482100  1
  Zn  Zn122  1  0.81345317  0.81112806  0.81326363  1
  Zn  Zn123  1  0.19061527  0.43669930  0.43579692  1
  Zn  Zn124  1  0.18551783  0.43834701  0.93455120  1
  Zn  Zn125  1  0.18650176  0.93633206  0.43176960  1
  Zn  Zn126  1  0.18843863  0.93515203  0.93912597  1
  Zn  Zn127  1  0.69204945  0.42806492  0.43937066  1
  Zn  Zn128  1  0.69059875  0.42385073  0.94315697  1
  Zn  Zn129  1  0.68274372  0.93294901  0.43601759  1
  Zn  Zn130  1  0.68610056  0.94208684  0.94080941  1
  Zn  Zn131  1  0.30869343  0.05713428  0.05805797  1
  Zn  Zn132  1  0.31233801  0.06446211  0.56427331  1
  Zn  Zn133  1  0.31482467  0.56063928  0.05765605  1
  Zn  Zn134  1  0.31112383  0.57032125  0.56228598  1
  Zn  Zn135  1  0.81054254  0.06741173  0.05340622  1
  Zn  Zn136  1  0.81536230  0.06279169  0.56871877  1
  Zn  Zn137  1  0.81172142  0.55872657  0.06669321  1
  Zn  Zn138  1  0.81320689  0.56087635  0.55688830  1
  Zn  Zn139  1  0.45887508  0.40715914  0.16209917  1
  Zn  Zn140  1  0.45215651  0.42427793  0.64632630  1
  Zn  Zn141  1  0.43944420  0.93692342  0.18969074  1
  Zn  Zn142  1  0.43897136  0.93569125  0.68857133  1
  Zn  Zn143  1  0.94365418  0.43964977  0.19035410  1
  Zn  Zn144  1  0.93476357  0.43937111  0.69253895  1
  Zn  Zn145  1  0.93362015  0.94176010  0.18840493  1
  Zn  Zn146  1  0.93727609  0.93588860  0.68574451  1
  Zn  Zn147  1  0.06473933  0.05792431  0.31509728  1
  Zn  Zn148  1  0.06180712  0.06357934  0.81093032  1
  Zn  Zn149  1  0.05889860  0.55852542  0.31314152  1
  Zn  Zn150  1  0.06235384  0.56244412  0.81201754  1
  Zn  Zn151  1  0.56036751  0.07305565  0.32047488  1
  Zn  Zn152  1  0.56703399  0.05596129  0.81747417  1
  Zn  Zn153  1  0.55982350  0.56109563  0.31071613  1
  Zn  Zn154  1  0.56914465  0.56211456  0.80774190  1
  Zn  Zn155  1  0.43579365  0.16810822  0.44288658  1
  Zn  Zn156  1  0.43451773  0.19386533  1.05948859  1
  Zn  Zn157  1  0.43416381  0.68847328  0.43540096  1
  Zn  Zn158  1  0.44150610  0.68345600  0.93942279  1
  Zn  Zn159  1  0.93703246  0.19070607  0.44279193  1
  Zn  Zn160  1  0.93864423  0.18585207  0.93005570  1
  Zn  Zn161  1  0.93405910  0.68559616  0.43550400  1
  Zn  Zn162  1  0.93782965  0.68975679  0.94539728  1
  Zn  Zn163  1  0.06537588  0.31491998  0.05902578  1
  Zn  Zn164  1  0.06993648  0.31324077  0.55984455  1
  Zn  Zn165  1  0.05233613  0.80725980  0.06372689  1
  Zn  Zn166  1  0.06151231  0.81300258  0.55766194  1
  Zn  Zn167  1  0.57143671  0.29914821  0.06044267  1
  Zn  Zn168  1  0.57076418  0.31473428  0.57151171  1
  Zn  Zn169  1  0.56328264  0.81292009  0.06671207  1
  Zn  Zn170  1  0.56308482  0.81629309  0.56242750  1
  O  O171  1  0.12105887  0.12085230  0.11944634  1
  O  O172  1  0.11654535  0.11778068  0.62228149  1
  O  O173  1  0.12472828  0.62481924  0.11665803  1
  O  O174  1  0.11980779  0.62095228  0.61679545  1
  O  O175  1  0.64428006  0.20802764  0.07847881  1
  O  O176  1  0.62193625  0.11019674  0.63158654  1
  O  O177  1  0.62613338  0.61451617  0.11969849  1
  O  O178  1  0.62069455  0.62222813  0.62587535  1
  O  O179  1  0.35489151  0.39745564  0.38689651  1
  O  O180  1  0.36393712  0.38555694  0.88318742  1
  O  O181  1  0.38025133  0.87674594  0.37005653  1
  O  O182  1  0.38304792  0.87957890  0.88211357  1
  O  O183  1  0.88580182  0.37988004  0.38815834  1
  O  O184  1  0.88602351  0.38712135  0.87498382  1
  O  O185  1  0.87883019  0.87847417  0.38047802  1
  O  O186  1  0.88672338  0.87580504  0.87795826  1
  O  O187  1  0.24857532  0.00539630  0.36409079  1
  O  O188  1  0.25745153  0.00627999  0.87363239  1
  O  O189  1  0.25481148  0.51772784  0.38313438  1
  O  O190  1  0.25439292  0.50720386  0.86495701  1
  O  O191  1  0.76322498  -0.00144735  0.38327046  1
  O  O192  1  0.75046281  -0.00324150  0.85989530  1
  O  O193  1  0.75824094  0.50170846  0.38161397  1
  O  O194  1  0.75965217  0.50477026  0.87302430  1
  O  O195  1  0.24385439  0.48918501  0.11685097  1
  O  O196  1  0.24890321  0.49393215  0.62786323  1
  O  O197  1  0.24738898  0.99795907  0.13588538  1
  O  O198  1  0.24432847  0.99320590  0.62900293  1
  O  O199  1  0.74402776  0.48431672  0.12489667  1
  O  O200  1  0.75041163  0.50089140  0.63406183  1
  O  O201  1  0.75750418  1.00416275  0.12776242  1
  O  O202  1  0.74389437  0.99194052  0.63009256  1
  O  O203  1  0.00931452  0.36948444  0.25985314  1
  O  O204  1  0.00555862  0.38483412  0.76412932  1
  O  O205  1  0.00506092  0.88064995  0.26170974  1
  O  O206  1  0.00564605  0.86794431  0.75631811  1
  O  O207  1  0.45179104  0.36332787  0.26208682  1
  O  O208  1  0.51043366  0.38987367  0.74058578  1
  O  O209  1  0.50889924  0.86497760  0.25096030  1
  O  O210  1  0.50736416  0.86814052  0.75839483  1
  O  O211  1  0.48066878  0.12778141  0.25217690  1
  O  O212  1  0.48504235  0.11499964  0.75038519  1
  O  O213  1  0.49102011  0.62914797  0.24212476  1
  O  O214  1  0.49730642  0.63296006  0.74251815  1
  O  O215  1  1.01030529  0.14041602  0.25439883  1
  O  O216  1  0.99306769  0.12179472  0.73619358  1
  O  O217  1  0.98169443  0.61890499  0.25518375  1
  O  O218  1  1.00594165  0.63362181  0.73957568  1
  O  O219  1  0.36291564  0.26420172  -0.00736021  1
  O  O220  1  0.36760729  0.24662440  0.50895510  1
  O  O221  1  0.37450842  0.75447198  0.00702201  1
  O  O222  1  0.36342412  0.74502839  0.50756594  1
  O  O223  1  0.90462610  0.25943821  0.01077932  1
  O  O224  1  0.86663935  0.25978798  0.50372761  1
  O  O225  1  0.87075000  0.76721513  -0.00474943  1
  O  O226  1  0.87543508  0.76061385  0.50510481  1
  O  O227  1  0.13387012  0.24013953  0.49746845  1
  O  O228  1  0.13180363  0.24903229  0.98717182  1
  O  O229  1  0.12963561  0.74608087  0.48800965  1
  O  O230  1  0.12956876  0.74186868  0.99512627  1
  O  O231  1  0.63849278  0.24845154  0.50630785  1
  O  O232  1  0.62416349  0.28581209  0.96265741  1
  O  O233  1  0.62212327  0.75435279  0.48533514  1
  O  O234  1  0.62580793  0.73749037  0.99729576  1
  O  O235  1  0.48267286  0.27329949  0.12218383  1
  O  O236  1  0.48596569  0.24764314  0.62505601  1
  O  O237  1  0.49234097  0.73995643  0.13030968  1
  O  O238  1  0.49689803  0.74755055  0.62952887  1
  O  O239  1  1.00066064  0.25407807  0.13536880  1
  O  O240  1  1.00875961  0.23849226  0.62463855  1
  O  O241  1  0.98559095  0.73884395  0.11796244  1
  O  O242  1  0.99402247  0.74605767  0.62836426  1
  O  O243  1  0.00074754  0.25887900  0.36955180  1
  O  O244  1  0.00926982  0.26183416  0.87691183  1
  O  O245  1  0.00770804  0.75882943  0.38073275  1
  O  O246  1  0.00448230  0.75600648  0.87022914  1
  O  O247  1  0.49270788  0.25973838  0.39743534  1
  O  O248  1  0.49015458  0.23238937  0.86231305  1
  O  O249  1  0.50505352  0.74569122  0.36550305  1
  O  O250  1  0.50741621  0.75259390  0.87096697  1
  O  O251  1  0.24453105  0.12777942  0.49380881  1
  O  O252  1  0.25042847  0.13185098  0.98811010  1
  O  O253  1  0.24094037  0.63762091  0.49443766  1
  O  O254  1  0.24436927  0.63141693  0.99340094  1
  O  O255  1  0.75131915  0.14074119  0.51336234  1
  O  O256  1  0.76528317  0.15224332  0.99372214  1
  O  O257  1  0.75753722  0.62802721  0.48318469  1
  O  O258  1  0.74540733  0.62696304  0.99575982  1
  O  O259  1  0.24978323  0.36959010  0.00466438  1
  O  O260  1  0.24380230  0.36378073  0.50846878  1
  O  O261  1  0.26635159  0.86716022  -0.00644097  1
  O  O262  1  0.24197584  0.86328012  0.50420868  1
  O  O263  1  0.74681679  0.36141016  0.02029642  1
  O  O264  1  0.75938208  0.36525990  0.51443079  1
  O  O265  1  0.75745704  0.87617118  0.00081770  1
  O  O266  1  0.75683438  0.86942590  0.50591197  1
  O  O267  1  0.12232774  0.48515083  0.25107076  1
  O  O268  1  0.13837385  0.50568832  0.74180838  1
  O  O269  1  0.13142733  0.98877859  0.24838131  1
  O  O270  1  0.13083995  0.99230680  0.74472104  1
  O  O271  1  0.62336999  0.49966107  0.23711631  1
  O  O272  1  0.63703437  0.50024522  0.73678454  1
  O  O273  1  0.61648157  0.99305595  0.25846576  1
  O  O274  1  0.63211064  0.98710520  0.74145840  1
  O  O275  1  0.36679108  0.00927490  0.24831530  1
  O  O276  1  0.36754719  -0.01222740  0.76514084  1
  O  O277  1  0.37151281  0.51253561  0.26396962  1
  O  O278  1  0.36303144  0.50612420  0.75299578  1
  O  O279  1  0.87352813  0.00323999  0.26698762  1
  O  O280  1  0.86646868  -0.00270574  0.74987254  1
  O  O281  1  0.87831888  0.50045099  0.26540017  1
  O  O282  1  0.87017884  0.50490343  0.76476848  1
  O  O283  1  0.11999551  0.37255663  0.36928729  1
  O  O284  1  0.11976279  0.36820454  0.86994552  1
  O  O285  1  0.11440493  0.86719455  0.36835518  1
  O  O286  1  0.11664291  0.86764988  0.87092520  1
  O  O287  1  0.62390614  0.35381377  0.38893039  1
  O  O288  1  0.61979271  0.40677139  0.85486266  1
  O  O289  1  0.61839731  0.86428625  0.36360272  1
  O  O290  1  0.62078293  0.86778878  0.87175361  1
  O  O291  1  0.36907703  0.12460347  0.13062872  1
  O  O292  1  0.37096609  0.13634024  0.63001359  1
  O  O293  1  0.38045056  0.62603683  0.12995553  1
  O  O294  1  0.38394349  0.63328335  0.63033708  1
  O  O295  1  0.88831263  0.14111418  0.11790152  1
  O  O296  1  0.89434097  0.12240383  0.63151442  1
  O  O297  1  0.86858179  0.61954649  0.14740140  1
  O  O298  1  0.88040401  0.63806803  0.61712371  1
  O  O299  1  0.24239300  0.25856748  0.10952296  1
  O  O300  1  0.25293676  0.25440530  0.61626296  1
  O  O301  1  0.26574201  0.74419096  0.11796796  1
  O  O302  1  0.25327512  0.75538782  0.61592951  1
  O  O303  1  0.78148455  0.25925514  0.11055677  1
  O  O304  1  0.74362701  0.26030451  0.62939703  1
  O  O305  1  0.75696697  0.75906612  0.12771105  1
  O  O306  1  0.75839766  0.75365335  0.62432287  1
  O  O307  1  0.25107625  0.24026393  0.38858674  1
  O  O308  1  0.24401065  0.24231701  0.88106169  1
  O  O309  1  0.24255283  0.74257947  0.38088440  1
  O  O310  1  0.24578789  0.74524798  0.87987567  1
  O  O311  1  0.75155406  0.25376788  0.39522595  1
  O  O312  1  0.74833055  0.26051636  0.89706330  1
  O  O313  1  0.73753949  0.74023071  0.37698484  1
  O  O314  1  0.74360005  0.74115949  0.87551138  1
  O  O315  1  0.00107731  0.10779620  -0.00858590  1
  O  O316  1  0.00552640  0.12096135  0.51117373  1
  O  O317  1  0.01023725  0.61610941  -0.00326991  1
  O  O318  1  0.00469659  0.61988038  0.50558663  1
  O  O319  1  0.49117744  0.11447531  -0.00007683  1
  O  O320  1  0.50388569  0.10858732  0.51264031  1
  O  O321  1  0.51059049  0.61906090  0.00684000  1
  O  O322  1  0.49911952  0.62660778  0.51068276  1
  O  O323  1  0.49161357  0.38987060  0.53343808  1
  O  O324  1  0.48154422  0.37800478  0.99494848  1
  O  O325  1  0.50464648  0.89009409  0.49887156  1
  O  O326  1  0.49130267  0.87560744  0.99455144  1
  O  O327  1  0.99554783  0.37571100  0.49661768  1
  O  O328  1  1.01338189  0.39372663  0.98826689  1
  O  O329  1  0.99182241  0.87952690  0.49067212  1
  O  O330  1  0.99474663  0.88259216  0.99094596  1
  O  O331  1  0.48365426  0.50583190  0.37866890  1
  O  O332  1  0.48568401  0.51078771  0.87117631  1
  O  O333  1  0.49822428  1.00246635  0.39226654  1
  O  O334  1  0.49267088  0.99358089  0.88084461  1
  O  O335  1  0.99553271  0.48746211  0.38292289  1
  O  O336  1  0.99425504  0.49821693  0.87953517  1
  O  O337  1  0.99229671  0.99166231  0.38250551  1
  O  O338  1  1.00224903  0.98826057  0.87782912  1
  O  O339  1  0.00141720  0.00025180  0.11497046  1
  O  O340  1  0.00801951  -0.00088776  0.61727496  1
  O  O341  1  0.00390725  0.50659427  0.11638899  1
  O  O342  1  0.00410436  0.50606999  0.62146920  1
  O  O343  1  0.49505296  -0.00267194  0.10954663  1
  O  O344  1  0.50806764  -0.00455492  0.61912542  1
  O  O345  1  0.51460058  0.49934763  0.11874906  1
  O  O346  1  0.51586459  0.51751008  0.62574777  1
  O  O347  1  0.24711199  0.36901780  0.22886342  1
  O  O348  1  0.24409680  0.38563988  0.74176680  1
  O  O349  1  0.23772332  0.88187302  0.25458289  1
  O  O350  1  0.24268459  0.87857327  0.74429034  1
  O  O351  1  0.75113124  0.35232259  0.22619173  1
  O  O352  1  0.75403130  0.38995388  0.74741819  1
  O  O353  1  0.73028151  0.87706733  0.25397240  1
  O  O354  1  0.74690623  0.88001709  0.74391072  1
  O  O355  1  0.25157347  0.11470771  0.25534947  1
  O  O356  1  0.24461186  0.11553660  0.76271694  1
  O  O357  1  0.25797445  0.63209405  0.25850344  1
  O  O358  1  0.25692460  0.62078297  0.75181607  1
  O  O359  1  0.74281827  0.15579273  0.25168826  1
  O  O360  1  0.77522249  0.11442189  0.72980899  1
  O  O361  1  0.76188646  0.62342000  0.26627237  1
  O  O362  1  0.74713208  0.61342705  0.76229925  1
  O  O363  1  0.36147022  0.11330931  0.37288117  1
  O  O364  1  0.36689693  0.11629555  0.86926294  1
  O  O365  1  0.36521990  0.62208200  0.36769757  1
  O  O366  1  0.36926339  0.62026932  0.86838163  1
  O  O367  1  0.87835541  0.10960111  0.38733553  1
  O  O368  1  0.88487685  0.12195634  0.85227655  1
  O  O369  1  0.87019614  0.61324778  0.36970710  1
  O  O370  1  0.86392637  0.62352279  0.88076272  1
  O  O371  1  0.13493052  0.37945051  0.12984058  1
  O  O372  1  0.13479577  0.38227725  0.62655334  1
  O  O373  1  0.11859567  0.86979387  0.13762179  1
  O  O374  1  0.13263154  0.87697877  0.62853219  1
  O  O375  1  0.62698660  0.38624607  0.12427358  1
  O  O376  1  0.63905467  0.38808499  0.63671379  1
  O  O377  1  0.62314057  0.87347091  0.14405662  1
  O  O378  1  0.63259874  0.88035646  0.63113311  1
  O  O379  1  0.11806172  0.26219671  0.25197857  1
  O  O380  1  0.13271962  0.25012231  0.76292644  1
  O  O381  1  0.12893860  0.75591632  0.26170265  1
  O  O382  1  0.11854580  0.75491692  0.75456172  1
  O  O383  1  0.59976536  0.25346771  0.26853928  1
  O  O384  1  0.62823169  0.28027044  0.75417117  1
  O  O385  1  0.61221092  0.74368654  0.25630016  1
  O  O386  1  0.62165321  0.75454771  0.75714608  1
  O  O387  1  0.36094837  0.22491327  0.25473285  1
  O  O388  1  0.37125375  0.24531114  0.74865550  1
  O  O389  1  0.38419606  0.74208128  0.24199989  1
  O  O390  1  0.38120137  0.74545959  0.74310050  1
  O  O391  1  0.89524326  0.25638344  0.23868258  1
  O  O392  1  0.87042820  0.24209802  0.75189491  1
  O  O393  1  0.87279746  0.73633087  0.25996096  1
  O  O394  1  0.88426777  0.75520480  0.73852174  1
  O  O395  1  0.37670370  0.51416948  0.48726183  1
  O  O396  1  0.37452948  0.49275665  0.98537160  1
  O  O397  1  0.38679784  0.99965394  0.50477144  1
  O  O398  1  0.37926559  0.99101599  0.99009102  1
  O  O399  1  0.88216757  0.48934382  0.49420917  1
  O  O400  1  0.88534526  0.50874767  0.98971679  1
  O  O401  1  0.87862337  0.98772776  0.49752085  1
  O  O402  1  0.88235818  0.99089151  0.99106439  1
  O  O403  1  0.11687276  -0.00337912  0.00191952  1
  O  O404  1  0.11960216  0.00446951  0.50360315  1
  O  O405  1  0.12152908  0.51474666  -0.00330672  1
  O  O406  1  0.11896103  0.50534242  0.50512297  1
  O  O407  1  0.60821974  0.00353011  -0.00585876  1
  O  O408  1  0.62063740  0.00095872  0.50890687  1
  O  O409  1  0.62877858  0.50831998  0.00537970  1
  O  O410  1  0.63192652  0.49625996  0.51322474  1
  O  O411  1  0.35872142  0.38639865  0.10225692  1
  O  O412  1  0.35829716  0.36136123  0.63314127  1
  O  O413  1  0.38152884  0.86309912  0.11710370  1
  O  O414  1  0.36303728  0.86780667  0.63073875  1
  O  O415  1  0.87517104  0.37445343  0.12540398  1
  O  O416  1  0.86769365  0.38148600  0.61898019  1
  O  O417  1  0.87364197  0.87685266  0.11582367  1
  O  O418  1  0.87198680  0.86489015  0.61603858  1
  O  O419  1  0.13630805  0.12488171  0.38044830  1
  O  O420  1  0.13100915  0.13102784  0.87705859  1
  O  O421  1  0.12838258  0.63104030  0.37620011  1
  O  O422  1  0.13140038  0.63168043  0.88031246  1
  O  O423  1  0.61337889  0.15067612  0.38620025  1
  O  O424  1  0.64369194  0.13390790  0.81769980  1
  O  O425  1  0.63152090  0.62928352  0.37124854  1
  O  O426  1  0.63530315  0.62616182  0.88417962  1
