# generated using pymatgen
data_V85Zn86O256
_symmetry_space_group_name_H-M   'P 1'
_cell_length_a   16.95893177
_cell_length_b   16.96366326
_cell_length_c   16.95253244
_cell_angle_alpha   90.00593769
_cell_angle_beta   90.04864771
_cell_angle_gamma   90.00084379
_symmetry_Int_Tables_number   1
_chemical_formula_structural   V85Zn86O256
_chemical_formula_sum   'V85 Zn86 O256'
_cell_volume   4876.99781582
_cell_formula_units_Z   1
loop_
 _symmetry_equiv_pos_site_id
 _symmetry_equiv_pos_as_xyz
  1  'x, y, z'
loop_
 _atom_site_type_symbol
 _atom_site_label
 _atom_site_symmetry_multiplicity
 _atom_site_fract_x
 _atom_site_fract_y
 _atom_site_fract_z
 _atom_site_occupancy
  V  V0  1  0.62773019  0.24883062  0.87211056  1
  V  V1  1  0.50153389  0.00447683  0.51264643  1
  V  V2  1  0.18595474  0.43153088  0.29523322  1
  V  V3  1  -0.00012018  0.87486298  0.37420690  1
  V  V4  1  0.87492488  0.37634642  0.50043920  1
  V  V5  1  -0.00923656  0.74567843  0.24866230  1
  V  V6  1  0.62625855  0.11907391  0.00145808  1
  V  V7  1  0.25071330  -0.00228115  0.24997986  1
  V  V8  1  0.49580685  0.62387559  0.12519367  1
  V  V9  1  0.86941906  0.25112106  0.62591383  1
  V  V10  1  0.17805997  0.54615920  0.67539376  1
  V  V11  1  0.86829801  0.61244441  0.75620492  1
  V  V12  1  0.62399041  0.49794883  0.12779334  1
  V  V13  1  0.25219261  0.74692299  0.50037881  1
  V  V14  1  -0.00245088  0.25055782  0.74872009  1
  V  V15  1  0.00137594  -0.00078825  0.50093200  1
  V  V16  1  0.62466515  0.88162436  0.75587441  1
  V  V17  1  0.87220429  0.00155625  0.37107110  1
  V  V18  1  0.13098354  0.63571861  -0.00057801  1
  V  V19  1  0.12354042  0.12690609  0.00001180  1
  V  V20  1  0.25625683  0.12870926  0.87304969  1
  V  V21  1  0.50485786  0.12024673  0.12413364  1
  V  V22  1  0.00288861  0.37493956  0.37385323  1
  V  V23  1  0.75205050  0.11115086  0.87033937  1
  V  V24  1  0.86999008  0.87474629  0.49971718  1
  V  V25  1  0.12393274  0.12359601  0.50160514  1
  V  V26  1  0.50046498  0.74569334  0.75850359  1
  V  V27  1  0.00084506  0.49983151  0.50564074  1
  V  V28  1  0.87581208  0.50956201  0.36813968  1
  V  V29  1  0.49207520  0.37329640  0.88286481  1
  V  V30  1  0.38128260  0.12597219  0.73817475  1
  V  V31  1  -0.00632821  0.49928836  -0.00286089  1
  V  V32  1  0.24104172  0.00167197  0.74608582  1
  V  V33  1  0.74669615  0.38950128  0.62879597  1
  V  V34  1  0.50140004  0.49930589  0.50744363  1
  V  V35  1  0.35786286  0.50946257  0.87146744  1
  V  V36  1  0.87614159  0.87735187  -0.01242164  1
  V  V37  1  0.62362115  0.74838586  0.37544044  1
  V  V38  1  0.50092701  0.87889067  0.37492043  1
  V  V39  1  0.37866904  0.87398448  0.50230309  1
  V  V40  1  0.36573248  0.61354011  0.25342958  1
  V  V41  1  0.12655378  0.62554081  0.50029030  1
  V  V42  1  0.37972052  0.25487548  0.12070757  1
  V  V43  1  -0.00395706  0.62515640  0.63151493  1
  V  V44  1  0.62086313  0.13069563  0.50070386  1
  V  V45  1  0.49763704  -0.01035243  0.00066826  1
  V  V46  1  0.25024110  0.12255634  0.37513104  1
  V  V47  1  0.87035748  0.75075878  0.62975212  1
  V  V48  1  0.12355477  0.25425541  0.87319700  1
  V  V49  1  0.74795277  0.61102870  0.87308258  1
  V  V50  1  0.24416912  0.88002848  0.62331471  1
  V  V51  1  0.38264061  0.73938195  0.62448339  1
  V  V52  1  0.49500245  0.74914119  0.24890348  1
  V  V53  1  0.49965046  0.24749305  0.73708529  1
  V  V54  1  0.50711239  0.24890439  0.25704001  1
  V  V55  1  0.74530480  0.25347553  0.48939577  1
  V  V56  1  0.25945182  0.24380437  0.50632410  1
  V  V57  1  0.36984944  0.75145724  0.11250396  1
  V  V58  1  0.74039589  0.00223903  0.24512050  1
  V  V59  1  -0.00410668  -0.00191118  -0.01740390  1
  V  V60  1  0.11965714  -0.00153432  0.12417224  1
  V  V61  1  0.62611573  0.38756038  0.74827333  1
  V  V62  1  0.49749540  0.38042901  0.37612026  1
  V  V63  1  0.62894939  0.37485348  0.25705275  1
  V  V64  1  0.37720007  0.12370613  0.24910910  1
  V  V65  1  0.12576637  0.49575970  0.12368563  1
  V  V66  1  0.87524117  0.12748428  0.24648322  1
  V  V67  1  0.86793460  0.11400798  0.75033836  1
  V  V68  1  0.62068973  0.62175958  -0.00098375  1
  V  V69  1  0.00087129  0.12377233  0.62371161  1
  V  V70  1  0.37690044  0.37589494  0.50417034  1
  V  V71  1  0.00554789  0.25341916  0.24657302  1
  V  V72  1  0.62668079  0.62112268  0.50542250  1
  V  V73  1  0.25293099  0.87288729  0.11121817  1
  V  V74  1  0.25143989  0.37823546  0.12378739  1
  V  V75  1  0.74948203  0.74741846  0.00014954  1
  V  V76  1  -0.01074127  0.37831704  0.87368824  1
  V  V77  1  0.12814414  0.25018075  0.37241520  1
  V  V78  1  0.38050039  -0.00681223  0.87672261  1
  V  V79  1  0.12546656  0.87362644  0.24937176  1
  V  V80  1  -0.00908141  0.62405802  0.12832473  1
  V  V81  1  0.74572213  0.87946016  0.12254164  1
  V  V82  1  0.24924231  0.36646607  0.63296884  1
  V  V83  1  0.25476315  0.25515792  -0.00123400  1
  V  V84  1  0.12887801  0.74689205  0.37301712  1
  Zn  Zn85  1  0.74665467  0.75113695  0.49921913  1
  Zn  Zn86  1  0.87447669  0.25447339  0.12195317  1
  Zn  Zn87  1  0.86825901  0.37498198  0.00013909  1
  Zn  Zn88  1  0.74480038  0.13230284  0.37132635  1
  Zn  Zn89  1  0.75477704  0.50636421  0.24591512  1
  Zn  Zn90  1  0.14985600  0.82737967  0.80076438  1
  Zn  Zn91  1  0.25183249  0.60583520  0.37258894  1
  Zn  Zn92  1  0.75109615  0.37173190  0.12354688  1
  Zn  Zn93  1  0.37631191  0.00053057  0.37613411  1
  Zn  Zn94  1  -0.00083601  0.12547457  0.12196259  1
  Zn  Zn95  1  0.87222030  0.74871037  0.12812793  1
  Zn  Zn96  1  0.49151225  0.49247014  0.00170237  1
  Zn  Zn97  1  0.50499301  0.61744720  0.63170148  1
  Zn  Zn98  1  0.62069085  0.87890848  0.24386757  1
  Zn  Zn99  1  0.61989270  0.75252439  0.87770662  1
  Zn  Zn100  1  0.75375433  0.24919334  0.00132288  1
  Zn  Zn101  1  -0.01027706  0.77044159  0.77929976  1
  Zn  Zn102  1  0.63456728  0.00613444  0.63058985  1
  Zn  Zn103  1  0.12390983  0.37965844  0.74502525  1
  Zn  Zn104  1  0.74995820  0.88368209  0.63292144  1
  Zn  Zn105  1  0.75204701  0.62967957  0.36932639  1
  Zn  Zn106  1  0.24735127  0.64583816  0.88101804  1
  Zn  Zn107  1  0.18816255  0.18738361  0.18596529  1
  Zn  Zn108  1  0.18647361  0.18501288  0.68879578  1
  Zn  Zn109  1  0.18482756  0.68700663  0.18290825  1
  Zn  Zn110  1  0.21321908  0.71277704  0.71456696  1
  Zn  Zn111  1  0.68755274  0.18823083  0.18529025  1
  Zn  Zn112  1  0.68601508  0.18826070  0.68399252  1
  Zn  Zn113  1  0.68710026  0.68521942  0.18958672  1
  Zn  Zn114  1  0.68678398  0.69036606  0.68834460  1
  Zn  Zn115  1  0.32284133  0.30558680  0.31731812  1
  Zn  Zn116  1  0.31773052  0.31131788  0.81033278  1
  Zn  Zn117  1  0.31452887  0.81008430  0.31111055  1
  Zn  Zn118  1  0.32479833  0.81716517  0.80868888  1
  Zn  Zn119  1  0.81738310  0.31916034  0.30825118  1
  Zn  Zn120  1  0.80813367  0.31041305  0.81173587  1
  Zn  Zn121  1  0.80821720  0.81627950  0.31144794  1
  Zn  Zn122  1  0.80442327  0.80623391  0.81350555  1
  Zn  Zn123  1  0.18560939  0.43426166  0.46282094  1
  Zn  Zn124  1  0.18308098  0.43745689  0.93895533  1
  Zn  Zn125  1  0.18616561  0.93556123  0.44040449  1
  Zn  Zn126  1  0.19327148  0.94737789  0.93836557  1
  Zn  Zn127  1  0.68769735  0.43901133  0.43721251  1
  Zn  Zn128  1  0.68271676  0.43433984  0.93951167  1
  Zn  Zn129  1  0.68537468  0.94168505  0.43768548  1
  Zn  Zn130  1  0.68260187  0.93555657  0.93575109  1
  Zn  Zn131  1  0.31401188  0.06511677  0.06152331  1
  Zn  Zn132  1  0.31697826  0.06049928  0.56315175  1
  Zn  Zn133  1  0.31442708  0.55907279  0.05741425  1
  Zn  Zn134  1  0.31929780  0.55847090  0.55647739  1
  Zn  Zn135  1  0.81276198  0.06190044  0.06132253  1
  Zn  Zn136  1  0.80830712  0.06481018  0.56084685  1
  Zn  Zn137  1  0.80970187  0.55856045  0.06190242  1
  Zn  Zn138  1  0.81215208  0.56709680  0.55693031  1
  Zn  Zn139  1  0.43897902  0.43543891  0.18723090  1
  Zn  Zn140  1  0.43562083  0.43391955  0.69025720  1
  Zn  Zn141  1  0.43520914  0.93670088  0.18536653  1
  Zn  Zn142  1  0.43931227  0.93192361  0.69190645  1
  Zn  Zn143  1  0.94040456  0.43399796  0.18625555  1
  Zn  Zn144  1  0.93712566  0.43829465  0.68903975  1
  Zn  Zn145  1  0.93400813  0.93334574  0.18211721  1
  Zn  Zn146  1  0.93290739  0.93939542  0.68630873  1
  Zn  Zn147  1  0.06142310  0.06490691  0.31193485  1
  Zn  Zn148  1  0.06249406  0.06664845  0.81071813  1
  Zn  Zn149  1  0.05701490  0.56646149  0.31549075  1
  Zn  Zn150  1  0.05564079  0.57443472  0.82113829  1
  Zn  Zn151  1  0.56406535  0.06544978  0.32056214  1
  Zn  Zn152  1  0.56059392  0.06355933  0.81387969  1
  Zn  Zn153  1  0.56039495  0.56236939  0.31491133  1
  Zn  Zn154  1  0.55697469  0.56245751  0.81620400  1
  Zn  Zn155  1  0.43969509  0.18758994  0.43665954  1
  Zn  Zn156  1  0.44012745  0.18568925  0.93484491  1
  Zn  Zn157  1  0.43891422  0.68266255  0.43497162  1
  Zn  Zn158  1  0.43362077  0.68061917  0.93508029  1
  Zn  Zn159  1  0.93475421  0.18916589  0.43492956  1
  Zn  Zn160  1  0.93528931  0.18679134  0.93722042  1
  Zn  Zn161  1  0.94127110  0.69128165  0.44300192  1
  Zn  Zn162  1  0.93125630  0.68131878  0.94271699  1
  Zn  Zn163  1  0.06257320  0.31555481  0.06234421  1
  Zn  Zn164  1  0.06607314  0.30951354  0.56336624  1
  Zn  Zn165  1  0.06041456  0.81051945  -0.04668134  1
  Zn  Zn166  1  0.06140805  0.81694840  0.63954624  1
  Zn  Zn167  1  0.56963138  0.30716289  0.06369125  1
  Zn  Zn168  1  0.56693182  0.31459323  0.56363587  1
  Zn  Zn169  1  0.56365233  0.80936317  0.06492152  1
  Zn  Zn170  1  0.56601861  0.81382207  0.56755161  1
  O  O171  1  0.12632005  0.11381752  0.11954415  1
  O  O172  1  0.10874191  0.13231576  0.61819450  1
  O  O173  1  0.12024280  0.61265878  0.11997942  1
  O  O174  1  0.11792850  0.61571054  0.61929443  1
  O  O175  1  0.61528201  0.12699933  0.11553350  1
  O  O176  1  0.62936277  0.12430058  0.60875504  1
  O  O177  1  0.61530985  0.61801278  0.11981433  1
  O  O178  1  0.62592892  0.63053523  0.60939241  1
  O  O179  1  0.38408381  0.36851541  0.39033684  1
  O  O180  1  0.39045167  0.37048592  0.87725817  1
  O  O181  1  0.38637880  0.87286515  0.38195349  1
  O  O182  1  0.37431983  0.89392011  0.87461048  1
  O  O183  1  0.88444649  0.38353949  0.38292945  1
  O  O184  1  0.88660595  0.37035112  0.87303812  1
  O  O185  1  0.87988029  0.88275714  0.37797132  1
  O  O186  1  0.86687672  0.87103409  0.88877508  1
  O  O187  1  0.25041039  0.00488066  0.36763071  1
  O  O188  1  0.26201263  0.00948468  0.86794197  1
  O  O189  1  0.23630282  0.48751529  0.36905597  1
  O  O190  1  0.25697361  0.49589968  0.87415630  1
  O  O191  1  0.76112065  0.00025459  0.36644016  1
  O  O192  1  0.74559669  0.01306852  0.87403085  1
  O  O193  1  0.76941327  0.49800880  0.37775821  1
  O  O194  1  0.74299160  0.51217083  0.87983316  1
  O  O195  1  0.24660594  0.48532053  0.12099851  1
  O  O196  1  0.24269740  0.48906087  0.61578192  1
  O  O197  1  0.24714524  0.99357636  0.13103012  1
  O  O198  1  0.25913267  0.99220647  0.63453135  1
  O  O199  1  0.73415122  0.49921782  0.12559482  1
  O  O200  1  0.75600520  0.48777902  0.61832206  1
  O  O201  1  0.75303135  0.99331109  0.13353542  1
  O  O202  1  0.74916474  0.99710361  0.62290513  1
  O  O203  1  -0.00052154  0.36137433  0.25772535  1
  O  O204  1  0.00161115  0.36901835  0.75520792  1
  O  O205  1  0.00664623  0.86862695  0.25409125  1
  O  O206  1  0.00724438  0.87000398  0.72668218  1
  O  O207  1  0.50318507  0.36773964  0.25835772  1
  O  O208  1  0.50852590  0.36431725  0.75671731  1
  O  O209  1  0.49917014  0.86929126  0.25655716  1
  O  O210  1  0.51162133  0.85945576  0.74567377  1
  O  O211  1  0.49958513  0.13058795  0.24502918  1
  O  O212  1  0.49690954  0.13914644  0.75323299  1
  O  O213  1  0.49053623  0.63168885  0.24564358  1
  O  O214  1  0.50653526  0.63856366  0.74676922  1
  O  O215  1  0.99288097  0.13524155  0.24970458  1
  O  O216  1  0.99187638  0.13103980  0.74135956  1
  O  O217  1  1.00446043  0.63364399  0.24162831  1
  O  O218  1  0.98476903  0.62472679  0.74453001  1
  O  O219  1  0.36672303  0.24310659  0.00828347  1
  O  O220  1  0.36443189  0.25194473  0.49825191  1
  O  O221  1  0.37690747  0.74399620  0.01314496  1
  O  O222  1  0.37327020  0.75544478  0.50336022  1
  O  O223  1  0.87365876  0.25288900  0.00255514  1
  O  O224  1  0.86980676  0.25748074  0.50652695  1
  O  O225  1  0.86569566  0.75926023  0.00402579  1
  O  O226  1  0.87124287  0.76019602  0.50286453  1
  O  O227  1  0.13541271  0.24310285  0.49232482  1
  O  O228  1  0.13093806  0.24588223  0.99347223  1
  O  O229  1  0.13162553  0.73462841  0.49298090  1
  O  O230  1  0.12314230  0.73321777  1.01441611  1
  O  O231  1  0.63478426  0.24623498  0.50249202  1
  O  O232  1  0.62435217  0.23515262  0.99005420  1
  O  O233  1  0.62317232  0.74486906  0.49070672  1
  O  O234  1  0.62889575  0.73745495  1.00106380  1
  O  O235  1  0.49456489  0.24201525  0.13040477  1
  O  O236  1  0.50172157  0.25505002  0.63876979  1
  O  O237  1  0.49096553  0.74579161  0.13240491  1
  O  O238  1  0.49526633  0.74532070  0.62989839  1
  O  O239  1  1.00316176  0.24708695  0.13440541  1
  O  O240  1  0.98835152  0.24532878  0.62588220  1
  O  O241  1  0.99642235  0.73793417  0.13737399  1
  O  O242  1  0.98320181  0.73251871  0.61261513  1
  O  O243  1  0.00826253  0.25636319  0.37166092  1
  O  O244  1  0.00748965  0.25529524  0.87002052  1
  O  O245  1  0.01156243  0.75275845  0.37099817  1
  O  O246  1  0.00484489  0.73998780  0.88419911  1
  O  O247  1  0.49689333  0.25968252  0.36482510  1
  O  O248  1  0.50986804  0.25735198  0.86989322  1
  O  O249  1  0.50543286  0.75680712  0.36871194  1
  O  O250  1  0.49657113  0.74587569  0.86231879  1
  O  O251  1  0.24677481  0.12759045  0.49751774  1
  O  O252  1  0.24394448  0.13565727  0.99533850  1
  O  O253  1  0.24381084  0.62535822  0.49507796  1
  O  O254  1  0.23583580  0.62480043  1.00363630  1
  O  O255  1  0.74644033  0.13853570  0.49460650  1
  O  O256  1  0.74351689  0.12307335  0.98830825  1
  O  O257  1  0.74187600  0.62876059  0.48964445  1
  O  O258  1  0.74265248  0.62981093  0.99653096  1
  O  O259  1  0.24479920  0.36242283  0.00852199  1
  O  O260  1  0.25909990  0.36258400  0.50863032  1
  O  O261  1  0.25256407  0.88115187  0.01350009  1
  O  O262  1  0.26558651  0.87139835  0.49914911  1
  O  O263  1  0.74848962  0.37003006  0.00200299  1
  O  O264  1  0.75289701  0.37005489  0.50749007  1
  O  O265  1  0.75402338  0.86956674  0.00352586  1
  O  O266  1  0.76198043  0.87582980  0.49504083  1
  O  O267  1  0.12255282  0.49886690  0.24434356  1
  O  O268  1  0.11844206  0.50032648  0.74481479  1
  O  O269  1  0.13121536  0.99756086  0.24380325  1
  O  O270  1  0.14182879  1.01283136  0.75057063  1
  O  O271  1  0.62070469  0.49189098  0.24357264  1
  O  O272  1  0.61798919  0.48552942  0.75200043  1
  O  O273  1  0.63736468  1.00111396  0.25601085  1
  O  O274  1  0.61298918  0.98574075  0.74945402  1
  O  O275  1  0.36684052  0.00553302  0.25195409  1
  O  O276  1  0.37529097  0.00713452  0.75971832  1
  O  O277  1  0.37789284  0.51518779  0.24471825  1
  O  O278  1  0.38260264  0.48994383  0.77442558  1
  O  O279  1  0.87019514  0.00636882  0.25485578  1
  O  O280  1  0.87485102  0.01514076  0.74674898  1
  O  O281  1  0.88030621  0.49670577  0.26587022  1
  O  O282  1  0.87187621  0.51395788  0.74746680  1
  O  O283  1  0.12584089  0.37282509  0.37110207  1
  O  O284  1  0.11920832  0.36428096  0.87135354  1
  O  O285  1  0.11873227  0.86737878  0.37110319  1
  O  O286  1  0.11934178  0.88236536  0.88920692  1
  O  O287  1  0.61805607  0.37812120  0.36359751  1
  O  O288  1  0.61887684  0.36694274  0.86416046  1
  O  O289  1  0.61320386  0.86944523  0.37366980  1
  O  O290  1  0.62311861  0.87063845  0.86294788  1
  O  O291  1  0.38056268  0.13577471  0.13049772  1
  O  O292  1  0.37613675  0.12224367  0.63865066  1
  O  O293  1  0.37642389  0.63116677  0.13265169  1
  O  O294  1  0.37768640  0.63652004  0.61777677  1
  O  O295  1  0.87809484  0.12401488  0.13745484  1
  O  O296  1  0.88061509  0.13499726  0.62865310  1
  O  O297  1  0.88741006  0.62380817  0.12086112  1
  O  O298  1  0.87651349  0.62985593  0.63404010  1
  O  O299  1  0.25665422  0.25744694  0.11930071  1
  O  O300  1  0.24714274  0.25232878  0.61610634  1
  O  O301  1  0.25456237  0.76580361  0.13149057  1
  O  O302  1  0.26346192  0.75904575  0.61837504  1
  O  O303  1  0.75309587  0.25159912  0.12138369  1
  O  O304  1  0.75999260  0.25728577  0.61837038  1
  O  O305  1  0.75019350  0.75356912  0.11482280  1
  O  O306  1  0.76137145  0.75162310  0.62058538  1
  O  O307  1  0.24693223  0.24176062  0.38196785  1
  O  O308  1  0.24531332  0.25007459  0.88143864  1
  O  O309  1  0.23845470  0.75277205  0.38053149  1
  O  O310  1  0.24012044  0.74632063  0.82703461  1
  O  O311  1  0.75817788  0.25566520  0.38669971  1
  O  O312  1  0.73620235  0.24392787  0.87466094  1
  O  O313  1  0.73317548  0.75421675  0.37285809  1
  O  O314  1  0.74483754  0.74038905  0.89000881  1
  O  O315  1  0.00514208  0.11640237  0.00123473  1
  O  O316  1  0.00107361  0.12087784  0.50464842  1
  O  O317  1  0.00844916  0.61582210  0.01019504  1
  O  O318  1  0.00727000  0.61854126  0.50712630  1
  O  O319  1  0.50687772  0.12019451  0.00773217  1
  O  O320  1  0.50638711  0.11639713  0.49562213  1
  O  O321  1  0.50597458  0.62252846  0.00619593  1
  O  O322  1  0.50538723  0.61386560  0.49999311  1
  O  O323  1  0.49619739  0.37761157  0.49596569  1
  O  O324  1  0.50892861  0.37021266  0.98579549  1
  O  O325  1  0.49382096  0.88021357  0.49454642  1
  O  O326  1  0.50360125  0.89064969  1.01172328  1
  O  O327  1  0.99860136  0.38275814  0.49682830  1
  O  O328  1  1.00149436  0.38260316  0.99021813  1
  O  O329  1  0.98569365  0.88634496  0.49128972  1
  O  O330  1  0.98283037  0.88271849  1.00378849  1
  O  O331  1  0.50154802  0.48578548  0.38301958  1
  O  O332  1  0.50087268  0.48233098  0.87878135  1
  O  O333  1  0.49785873  0.99084573  0.38137148  1
  O  O334  1  0.48766233  1.00681775  0.88429114  1
  O  O335  1  0.99292615  0.49525618  0.38250477  1
  O  O336  1  1.00637810  0.49009195  0.88464167  1
  O  O337  1  0.98922413  0.99734769  0.37670027  1
  O  O338  1  0.99868774  1.00773442  0.88365141  1
  O  O339  1  0.01104525  -0.00074508  0.12289482  1
  O  O340  1  -0.00944837  0.01263432  0.61098795  1
  O  O341  1  0.00935360  0.50380889  0.12127352  1
  O  O342  1  -0.00834678  0.51213957  0.61714487  1
  O  O343  1  0.48953745  0.01387301  0.11896699  1
  O  O344  1  0.50052763  -0.00461863  0.61391049  1
  O  O345  1  0.50709147  0.50320169  0.12189018  1
  O  O346  1  0.49568310  0.49819603  0.61304782  1
  O  O347  1  0.25302718  0.36764117  0.24433692  1
  O  O348  1  0.24979179  0.36699508  0.73696395  1
  O  O349  1  0.24593559  0.88672253  0.25202654  1
  O  O350  1  0.24727779  0.88529701  0.73939241  1
  O  O351  1  0.74091933  0.38257027  0.24942554  1
  O  O352  1  0.73515538  0.37141116  0.74437697  1
  O  O353  1  0.74730077  0.88496211  0.24139007  1
  O  O354  1  0.73045155  0.86603849  0.75057775  1
  O  O355  1  0.25419567  0.11424739  0.25220130  1
  O  O356  1  0.26069881  0.12213039  0.75369654  1
  O  O357  1  0.26174678  0.62792131  0.25029151  1
  O  O358  1  0.24078394  0.60228958  0.72813577  1
  O  O359  1  0.75677506  0.11956285  0.25188785  1
  O  O360  1  0.75393894  0.13100245  0.76110707  1
  O  O361  1  0.74569140  0.61936522  0.25686185  1
  O  O362  1  0.75875160  0.63018756  0.75848810  1
  O  O363  1  0.36807065  0.12405179  0.36682382  1
  O  O364  1  0.37039675  0.12139190  0.86619622  1
  O  O365  1  0.37003621  0.62792888  0.35929247  1
  O  O366  1  0.36126739  0.61609707  0.87258299  1
  O  O367  1  0.87328294  0.11841701  0.36343590  1
  O  O368  1  0.85924333  0.13051298  0.86550717  1
  O  O369  1  0.87977074  0.61177213  0.38200955  1
  O  O370  1  0.86482938  0.62521817  0.86367316  1
  O  O371  1  0.13370364  0.38589451  0.12647855  1
  O  O372  1  0.13781601  0.37288240  0.62502259  1
  O  O373  1  0.14056370  0.88669122  0.13348994  1
  O  O374  1  0.14733260  0.87691752  0.59678711  1
  O  O375  1  0.62111027  0.38218331  0.13702990  1
  O  O376  1  0.63233569  0.37281728  0.63940346  1
  O  O377  1  0.63965384  0.87044972  0.12633534  1
  O  O378  1  0.62849929  0.87782133  0.63743055  1
  O  O379  1  0.11815477  0.24237672  0.25912536  1
  O  O380  1  0.11657293  0.24950616  0.75791673  1
  O  O381  1  0.11926312  0.75369905  0.25711053  1
  O  O382  1  0.10791362  0.75212605  0.72564518  1
  O  O383  1  0.61425949  0.25792712  0.24584761  1
  O  O384  1  0.61554937  0.25293738  0.75493381  1
  O  O385  1  0.60915176  0.75104703  0.25525489  1
  O  O386  1  0.61372239  0.75518278  0.75218475  1
  O  O387  1  0.38683775  0.24286372  0.24207564  1
  O  O388  1  0.39163037  0.24246979  0.75395779  1
  O  O389  1  0.38359931  0.74396978  0.24400305  1
  O  O390  1  0.39213341  0.75629734  0.73742115  1
  O  O391  1  0.88466716  0.24235452  0.25075718  1
  O  O392  1  0.87842066  0.24498604  0.74114751  1
  O  O393  1  0.88759156  0.75545087  0.25357132  1
  O  O394  1  0.87551408  0.74373161  0.74308739  1
  O  O395  1  0.38520622  0.48789785  0.49621833  1
  O  O396  1  0.37731392  0.50044490  0.98102011  1
  O  O397  1  0.38292613  0.99148867  0.49672196  1
  O  O398  1  0.38163080  1.00985268  0.98614992  1
  O  O399  1  0.88569823  0.49627591  0.49325149  1
  O  O400  1  0.88984393  0.49916648  1.00321041  1
  O  O401  1  0.88113606  0.99874959  0.48818175  1
  O  O402  1  0.88187391  0.98758485  1.00313443  1
  O  O403  1  0.11720846  0.00755553  0.00781345  1
  O  O404  1  0.10876314  0.00721320  0.49014518  1
  O  O405  1  0.11638806  0.50327005  0.00983695  1
  O  O406  1  0.11054065  0.51135915  0.49654563  1
  O  O407  1  0.61421934  0.01184685  -0.00782842  1
  O  O408  1  0.61569276  0.00757460  0.50124880  1
  O  O409  1  0.62005410  0.50935717  0.00815106  1
  O  O410  1  0.61581250  0.50877694  0.49384378  1
  O  O411  1  0.36969176  0.36240063  0.12864239  1
  O  O412  1  0.36671607  0.37693368  0.61396920  1
  O  O413  1  0.36037168  0.86737742  0.13129178  1
  O  O414  1  0.37179634  0.86825550  0.61537123  1
  O  O415  1  0.87156126  0.37437811  0.12217115  1
  O  O416  1  0.86938292  0.36899434  0.62089003  1
  O  O417  1  0.86132382  0.87058357  0.11716989  1
  O  O418  1  0.87134152  0.86710833  0.61533170  1
  O  O419  1  0.13139075  0.12913228  0.38178462  1
  O  O420  1  0.13264790  0.13771359  0.87851119  1
  O  O421  1  0.12911173  0.63064982  0.38116691  1
  O  O422  1  0.13064512  0.62006957  0.89411957  1
  O  O423  1  0.63009902  0.12465257  0.39136835  1
  O  O424  1  0.63325497  0.13017932  0.87790233  1
  O  O425  1  0.61988966  0.63476427  0.38394872  1
  O  O426  1  0.62821310  0.62637192  0.88449358  1
