# generated using pymatgen
data_V85Zn86O256
_symmetry_space_group_name_H-M   'P 1'
_cell_length_a   16.99394099
_cell_length_b   16.99614398
_cell_length_c   16.97119807
_cell_angle_alpha   89.92731113
_cell_angle_beta   89.98579693
_cell_angle_gamma   89.92877166
_symmetry_Int_Tables_number   1
_chemical_formula_structural   V85Zn86O256
_chemical_formula_sum   'V85 Zn86 O256'
_cell_volume   4901.80816832
_cell_formula_units_Z   1
loop_
 _symmetry_equiv_pos_site_id
 _symmetry_equiv_pos_as_xyz
  1  'x, y, z'
loop_
 _atom_site_type_symbol
 _atom_site_label
 _atom_site_symmetry_multiplicity
 _atom_site_fract_x
 _atom_site_fract_y
 _atom_site_fract_z
 _atom_site_occupancy
  V  V0  1  0.75294941  0.63588504  0.37854397  1
  V  V1  1  0.12526579  0.62829073  0.00144078  1
  V  V2  1  0.38107309  0.62453809  0.25231141  1
  V  V3  1  0.37369374  0.37134213  0.49968700  1
  V  V4  1  0.63079486  0.11818052  0.49483172  1
  V  V5  1  0.38556073  0.25446139  0.10905483  1
  V  V6  1  0.00727510  0.49841081  0.49675802  1
  V  V7  1  0.75283930  0.75112752  -0.00024720  1
  V  V8  1  0.12120114  0.12578962  0.49997377  1
  V  V9  1  0.87112760  0.61180456  0.75519447  1
  V  V10  1  0.62159721  0.88737218  0.25522736  1
  V  V11  1  0.12836910  0.75864720  0.37380020  1
  V  V12  1  0.12364835  0.49776210  0.62589640  1
  V  V13  1  0.25369029  -0.00149909  0.75967765  1
  V  V14  1  0.86927735  0.86982613  0.49870624  1
  V  V15  1  0.24653457  0.12088865  0.37087965  1
  V  V16  1  0.24947282  0.62927543  0.87788082  1
  V  V17  1  -0.01054259  0.12706020  0.63656789  1
  V  V18  1  -0.00288058  0.38169590  0.87822356  1
  V  V19  1  0.25007867  0.87491739  0.62621074  1
  V  V20  1  -0.00073549  0.62734344  0.12448947  1
  V  V21  1  0.26109124  0.75993606  0.01271688  1
  V  V22  1  0.53481754  0.59129322  0.65391467  1
  V  V23  1  0.62194769  0.74982997  0.87722731  1
  V  V24  1  -0.00334100  0.74622711  0.74914442  1
  V  V25  1  -0.01293158  0.00259260  0.50009049  1
  V  V26  1  0.87378983  0.00269889  0.35221689  1
  V  V27  1  0.74974133  0.87014211  0.62774971  1
  V  V28  1  0.74174924  0.88806932  0.13116603  1
  V  V29  1  0.50198606  0.25638888  0.74780313  1
  V  V30  1  0.25971125  0.38044364  0.11913306  1
  V  V31  1  0.51350107  0.11835505  0.12811090  1
  V  V32  1  0.49215312  -0.01088723  0.01532019  1
  V  V33  1  0.49924429  0.62982036  0.12842276  1
  V  V34  1  0.49707029  0.12166266  0.62034854  1
  V  V35  1  0.75089132  0.60327959  0.87704082  1
  V  V36  1  0.36791052  0.49633819  0.37389137  1
  V  V37  1  0.50076863  -0.00722572  0.49450441  1
  V  V38  1  0.75403406  0.37127628  0.13030683  1
  V  V39  1  0.49937616  0.24836871  0.24937948  1
  V  V40  1  0.25070035  0.75069073  0.49884133  1
  V  V41  1  0.62382945  0.37474771  0.26005587  1
  V  V42  1  0.48693274  0.88166633  0.87592551  1
  V  V43  1  0.75192954  0.11852912  0.34878933  1
  V  V44  1  0.87548962  0.62814868  0.24880898  1
  V  V45  1  0.62693786  -0.00367596  0.63116975  1
  V  V46  1  0.37728226  0.87379588  0.49266424  1
  V  V47  1  0.61421414  0.75371743  0.36905788  1
  V  V48  1  0.49263286  0.49332045  0.00523919  1
  V  V49  1  -0.00142067  0.62301756  0.62646288  1
  V  V50  1  0.87389008  0.38623229  0.00273131  1
  V  V51  1  0.12741450  0.88164160  0.23119245  1
  V  V52  1  0.38221721  0.74635657  0.62349225  1
  V  V53  1  0.24782391  0.49869469  0.75065844  1
  V  V54  1  0.12715921  0.25174690  0.88988671  1
  V  V55  1  0.00058540  0.75572711  0.25024465  1
  V  V56  1  0.50248092  0.50542242  0.49958833  1
  V  V57  1  0.37068594  0.24864028  0.62328374  1
  V  V58  1  0.84648623  0.39347660  0.51113780  1
  V  V59  1  0.25191575  0.12904289  0.87908112  1
  V  V60  1  0.75062523  0.50229691  0.25556896  1
  V  V61  1  0.12334726  0.87363816  0.75575708  1
  V  V62  1  0.12250634  0.00208149  0.62822714  1
  V  V63  1  0.62484860  0.49880702  0.12661170  1
  V  V64  1  0.87754466  0.24383317  0.13442112  1
  V  V65  1  0.11923399  0.36959898  0.75118548  1
  V  V66  1  0.87779629  0.50349535  0.37136015  1
  V  V67  1  0.86556529  0.26669668  0.64925398  1
  V  V68  1  0.00102900  0.37297428  0.37412511  1
  V  V69  1  0.12710824  0.62762156  0.49978940  1
  V  V70  1  -0.02371225  0.87731864  0.87573965  1
  V  V71  1  0.36951290  0.62283054  0.74606515  1
  V  V72  1  0.37015429  0.49545927  0.88091475  1
  V  V73  1  0.24932572  0.62329121  0.36754510  1
  V  V74  1  0.62845411  0.63129278  0.50022277  1
  V  V75  1  0.87160081  0.76122135  0.12215298  1
  V  V76  1  0.13364515  0.37773442  0.25070426  1
  V  V77  1  0.62597847  0.24582869  0.37162375  1
  V  V78  1  0.13199294  0.50292166  0.13083995  1
  V  V79  1  0.03673582  0.10903608  0.12771609  1
  V  V80  1  0.37207070  -0.00043442  0.36901029  1
  V  V81  1  0.24663595  0.37137354  0.62519284  1
  V  V82  1  0.50421758  0.37877761  0.87027684  1
  V  V83  1  0.75677402  0.24110338  0.49902770  1
  V  V84  1  0.37604863  0.12056756  0.75434767  1
  Zn  Zn85  1  0.12313257  0.24726255  0.37206221  1
  Zn  Zn86  1  0.80785200  0.15605443  0.81895764  1
  Zn  Zn87  1  0.78921735  -0.02350172  0.80307011  1
  Zn  Zn88  1  0.24646840  0.24643563  0.49773830  1
  Zn  Zn89  1  0.75345026  0.24218135  -0.01234214  1
  Zn  Zn90  1  0.62447647  0.87466180  0.75454687  1
  Zn  Zn91  1  0.49709135  0.75071051  0.75441035  1
  Zn  Zn92  1  0.12124356  0.75088072  0.87787459  1
  Zn  Zn93  1  0.37027783  0.12477830  0.24438645  1
  Zn  Zn94  1  -0.00387479  0.24478285  0.25261343  1
  Zn  Zn95  1  0.20596867  0.03272447  0.18868649  1
  Zn  Zn96  1  0.26069768  0.25670206  -0.00364239  1
  Zn  Zn97  1  -0.00073535  0.50599298  -0.00057593  1
  Zn  Zn98  1  0.63490006  0.24863395  0.86730082  1
  Zn  Zn99  1  0.62521525  0.62106884  0.00207351  1
  Zn  Zn100  1  0.49647395  0.37323819  0.37457704  1
  Zn  Zn101  1  -0.00276922  0.23390105  0.76668937  1
  Zn  Zn102  1  0.46563909  0.78804856  0.21434247  1
  Zn  Zn103  1  0.63357665  0.10131196  -0.01813640  1
  Zn  Zn104  1  -0.00064204  0.87861049  0.37669974  1
  Zn  Zn105  1  -0.00010747  -0.00385154  -0.00048241  1
  Zn  Zn106  1  0.86891998  0.74610266  0.62033617  1
  Zn  Zn107  1  0.19472006  0.20396451  0.18797677  1
  Zn  Zn108  1  0.18372489  0.18517759  0.69110233  1
  Zn  Zn109  1  0.19018906  0.69064856  0.18909174  1
  Zn  Zn110  1  0.18649304  0.68962865  0.68630689  1
  Zn  Zn111  1  0.73395892  0.10873827  0.13649397  1
  Zn  Zn112  1  0.68119975  0.19225566  0.68187164  1
  Zn  Zn113  1  0.68536629  0.68845778  0.18993368  1
  Zn  Zn114  1  0.69267668  0.68897587  0.69603162  1
  Zn  Zn115  1  0.31031424  0.30800554  0.30950360  1
  Zn  Zn116  1  0.31676610  0.31313067  0.80962662  1
  Zn  Zn117  1  0.32021557  0.81992349  0.29347534  1
  Zn  Zn118  1  0.31003472  0.80937428  0.81493188  1
  Zn  Zn119  1  0.81199317  0.31366664  0.31969556  1
  Zn  Zn120  1  0.81728452  0.32398493  0.81123658  1
  Zn  Zn121  1  0.81284041  0.81686469  0.31141098  1
  Zn  Zn122  1  0.80613071  0.79861798  0.80589769  1
  Zn  Zn123  1  0.18816259  0.43557233  0.43637382  1
  Zn  Zn124  1  0.18465010  0.44008446  0.94156974  1
  Zn  Zn125  1  0.18668783  0.94107367  0.43991708  1
  Zn  Zn126  1  0.18212163  0.93833424  0.95313975  1
  Zn  Zn127  1  0.68006832  0.43222903  0.54682687  1
  Zn  Zn128  1  0.67347808  0.41254093  0.94836963  1
  Zn  Zn129  1  0.69535105  0.93781657  0.43623388  1
  Zn  Zn130  1  0.67784917  0.92865450  0.94673818  1
  Zn  Zn131  1  0.33031991  0.07272254  0.05047474  1
  Zn  Zn132  1  0.30863172  0.05975463  0.56157797  1
  Zn  Zn133  1  0.31262400  0.56928572  0.06584006  1
  Zn  Zn134  1  0.31189703  0.56012075  0.56087269  1
  Zn  Zn135  1  0.81718416  0.05721758  -0.03081377  1
  Zn  Zn136  1  0.80645699  0.06604806  0.65739608  1
  Zn  Zn137  1  0.81099243  0.56396955  0.06475011  1
  Zn  Zn138  1  0.81658487  0.56805290  0.55849700  1
  Zn  Zn139  1  0.43658253  0.43947310  0.19190663  1
  Zn  Zn140  1  0.55812497  0.42390233  0.68891218  1
  Zn  Zn141  1  0.37521641  0.94668506  0.16101714  1
  Zn  Zn142  1  0.43904806  0.93384704  0.68733636  1
  Zn  Zn143  1  0.94354984  0.43936768  0.18758320  1
  Zn  Zn144  1  0.92753664  0.42783743  0.68705498  1
  Zn  Zn145  1  0.89161686  0.98823663  0.14002997  1
  Zn  Zn146  1  0.93761522  0.93460961  0.68725351  1
  Zn  Zn147  1  0.05670092  0.06233549  0.31016747  1
  Zn  Zn148  1  0.07956585  0.04552812  0.84875061  1
  Zn  Zn149  1  0.06618338  0.56543542  0.30940113  1
  Zn  Zn150  1  0.06268477  0.56110835  0.81406540  1
  Zn  Zn151  1  0.55815897  0.06054242  0.31148037  1
  Zn  Zn152  1  0.56468469  0.06399630  0.81130535  1
  Zn  Zn153  1  0.56319064  0.56145514  0.31741246  1
  Zn  Zn154  1  0.56127303  0.56430126  0.82414207  1
  Zn  Zn155  1  0.43711804  0.18332934  0.43452739  1
  Zn  Zn156  1  0.46649954  0.17483365  0.92831740  1
  Zn  Zn157  1  0.43860872  0.68514465  0.43631618  1
  Zn  Zn158  1  0.43766405  0.68460727  0.94154722  1
  Zn  Zn159  1  0.93223631  0.18406575  0.43502189  1
  Zn  Zn160  1  0.94240088  0.19484238  0.95571672  1
  Zn  Zn161  1  0.94143625  0.68926821  0.43667904  1
  Zn  Zn162  1  0.93295282  0.68838585  0.93562958  1
  Zn  Zn163  1  0.06038876  0.31531186  0.06638351  1
  Zn  Zn164  1  0.05284437  0.30804389  0.56352886  1
  Zn  Zn165  1  0.06060188  0.81238831  0.05783431  1
  Zn  Zn166  1  0.05947746  0.81490898  0.56412765  1
  Zn  Zn167  1  0.56914959  0.31120465  0.06123394  1
  Zn  Zn168  1  0.55583005  0.30272211  0.55282196  1
  Zn  Zn169  1  0.56756341  0.81657490  0.05882325  1
  Zn  Zn170  1  0.56418665  0.80926653  0.55965524  1
  O  O171  1  0.13992257  0.11779665  0.13078628  1
  O  O172  1  0.11562955  0.12139844  0.61828275  1
  O  O173  1  0.12197027  0.62116895  0.12123783  1
  O  O174  1  0.11951828  0.61731684  0.62108322  1
  O  O175  1  0.61267087  0.11651678  0.13524129  1
  O  O176  1  0.61741761  0.11470732  0.61227551  1
  O  O177  1  0.61986901  0.61088337  0.12799467  1
  O  O178  1  0.62231763  0.64026648  0.61613299  1
  O  O179  1  0.37047932  0.37886876  0.38205038  1
  O  O180  1  0.37674043  0.39274033  0.86901178  1
  O  O181  1  0.36413023  0.88165581  0.38774812  1
  O  O182  1  0.38865183  0.86835777  0.87080340  1
  O  O183  1  0.88307300  0.38369693  0.38949007  1
  O  O184  1  0.88374656  0.37401225  0.89305591  1
  O  O185  1  0.87549422  0.88358228  0.38115149  1
  O  O186  1  0.87699565  0.86659810  0.86832328  1
  O  O187  1  0.25690650  0.01197089  0.38312078  1
  O  O188  1  0.24834773  0.01005658  0.86270694  1
  O  O189  1  0.25627028  0.51054852  0.38177219  1
  O  O190  1  0.25240261  0.50963110  0.87363775  1
  O  O191  1  0.76246744  0.00864545  0.37466726  1
  O  O192  1  0.74211565  0.00466227  0.89667658  1
  O  O193  1  0.76289368  0.51517901  0.36721768  1
  O  O194  1  0.74032348  0.50677608  0.88370787  1
  O  O195  1  0.24036709  0.49711159  0.12327350  1
  O  O196  1  0.24262007  0.49193681  0.62929853  1
  O  O197  1  0.28426842  0.99898314  0.12006487  1
  O  O198  1  0.24105147  0.99375220  0.63274337  1
  O  O199  1  0.74193094  0.49687459  0.13532169  1
  O  O200  1  0.78562325  0.46136982  0.57656188  1
  O  O201  1  0.75699776  0.98675715  0.13128842  1
  O  O202  1  0.73433718  0.98566329  0.61517767  1
  O  O203  1  0.00881579  0.38051883  0.26456374  1
  O  O204  1  0.00552633  0.37202470  0.76063819  1
  O  O205  1  0.01450968  0.86114646  0.25596962  1
  O  O206  1  0.00451729  0.86343529  0.75320326  1
  O  O207  1  0.50792216  0.37056239  0.25297953  1
  O  O208  1  0.48553683  0.36662275  0.75446649  1
  O  O209  1  0.52277413  0.87661642  0.25892781  1
  O  O210  1  0.50092564  0.86886602  0.76035247  1
  O  O211  1  0.49627427  0.13325090  0.24657088  1
  O  O212  1  0.49027205  0.12961350  0.73861083  1
  O  O213  1  0.49470784  0.61245068  0.24036008  1
  O  O214  1  0.48604633  0.62987212  0.74811462  1
  O  O215  1  1.00990459  0.13031520  0.23023958  1
  O  O216  1  1.00911756  0.11879071  0.73474561  1
  O  O217  1  0.99764198  0.63707624  0.24462514  1
  O  O218  1  0.99569382  0.62944083  0.74814439  1
  O  O219  1  0.38744756  0.24923109  0.00799146  1
  O  O220  1  0.37296701  0.25501878  0.50409956  1
  O  O221  1  0.35906722  0.74198200  -0.00105540  1
  O  O222  1  0.37151750  0.75488042  0.50401156  1
  O  O223  1  0.87027017  0.26810547  0.01821386  1
  O  O224  1  0.86114254  0.25358758  0.49603125  1
  O  O225  1  0.86348653  0.74541868  0.00912470  1
  O  O226  1  0.88595845  0.76534363  0.50089596  1
  O  O227  1  0.12174005  0.23581649  0.49920340  1
  O  O228  1  0.13199241  0.25904429  0.99204897  1
  O  O229  1  0.12854416  0.74554090  0.49478606  1
  O  O230  1  0.13073136  0.73853386  0.99870479  1
  O  O231  1  0.62881345  0.23657427  0.48947262  1
  O  O232  1  0.64353158  0.29261928  0.97983011  1
  O  O233  1  0.62338460  0.73948241  0.48734386  1
  O  O234  1  0.63226648  0.74354058  0.99317566  1
  O  O235  1  0.50284918  0.24564547  0.13028692  1
  O  O236  1  0.48803846  0.24165646  0.62731973  1
  O  O237  1  0.51160019  0.73364109  0.12294689  1
  O  O238  1  0.48649526  0.74763018  0.62613173  1
  O  O239  1  0.98486181  0.25850573  0.13213250  1
  O  O240  1  0.99211223  0.23893116  0.63358529  1
  O  O241  1  0.99102312  0.74823992  0.13033650  1
  O  O242  1  1.00042146  0.74175265  0.63539065  1
  O  O243  1  -0.00026278  0.25861279  0.37317473  1
  O  O244  1  0.01073437  0.26135804  0.88142597  1
  O  O245  1  0.01090003  0.74971006  0.36658886  1
  O  O246  1  -0.00102557  0.75477735  0.86273891  1
  O  O247  1  0.50605734  0.25001933  0.36835333  1
  O  O248  1  0.48871323  0.26746747  0.86249734  1
  O  O249  1  0.51559237  0.74916687  0.37864242  1
  O  O250  1  0.50621437  0.75402906  0.87945300  1
  O  O251  1  0.23703400  0.12420022  0.49539434  1
  O  O252  1  0.26074476  0.13324820  0.98116645  1
  O  O253  1  0.24489038  0.63126123  0.49246703  1
  O  O254  1  0.24250602  0.63068398  0.99377828  1
  O  O255  1  0.73559596  0.12856691  0.49301671  1
  O  O256  1  0.73587958  0.13120573  1.02173558  1
  O  O257  1  0.74165083  0.62259753  0.49102314  1
  O  O258  1  0.74870066  0.62881377  0.99028030  1
  O  O259  1  0.24876566  0.37742141  0.01439864  1
  O  O260  1  0.25769540  0.37151028  0.50566315  1
  O  O261  1  0.24733112  0.85825789  -0.00933061  1
  O  O262  1  0.25527040  0.87023176  0.50771730  1
  O  O263  1  0.76552764  0.38784086  0.01433051  1
  O  O264  1  0.74860361  0.35398905  0.48277841  1
  O  O265  1  0.73872930  0.86118629  0.02161321  1
  O  O266  1  0.76175081  0.87555548  0.50718762  1
  O  O267  1  0.12480941  0.49289971  0.24207740  1
  O  O268  1  0.12841091  0.48858034  0.74686106  1
  O  O269  1  0.12289396  0.98565394  0.25294568  1
  O  O270  1  0.13248425  0.99147832  0.74853854  1
  O  O271  1  0.62971073  0.49317716  0.24865503  1
  O  O272  1  0.59349159  0.52733051  0.72191146  1
  O  O273  1  0.63021878  0.98612872  0.26351207  1
  O  O274  1  0.61375107  0.99683448  0.73412066  1
  O  O275  1  0.38097838  0.00425356  0.26825335  1
  O  O276  1  0.36533098  0.00917838  0.73827472  1
  O  O277  1  0.37768911  0.50564423  0.26762872  1
  O  O278  1  0.36291805  0.51518937  0.75920649  1
  O  O279  1  0.88355630  -0.00751045  0.25391500  1
  O  O280  1  0.86743608  0.00540330  0.73282391  1
  O  O281  1  0.87341744  0.50788536  0.25373360  1
  O  O282  1  0.88336188  0.51381797  0.74767307  1
  O  O283  1  0.12337374  0.37338645  0.36523004  1
  O  O284  1  0.12186004  0.36965359  0.86935413  1
  O  O285  1  0.12210620  0.86356220  0.38324257  1
  O  O286  1  0.12316139  0.87019121  0.86061001  1
  O  O287  1  0.62320025  0.36898614  0.36386089  1
  O  O288  1  0.60445916  0.39191675  0.85614531  1
  O  O289  1  0.63976996  0.86019482  0.36728048  1
  O  O290  1  0.61336973  0.86242056  0.87584856  1
  O  O291  1  0.38869986  0.14186473  0.12821559  1
  O  O292  1  0.37511409  0.13333985  0.62621179  1
  O  O293  1  0.38480489  0.61940284  0.14022561  1
  O  O294  1  0.36889117  0.63089238  0.63284768  1
  O  O295  1  0.86111053  0.14699318  0.13367113  1
  O  O296  1  0.88772461  0.13778249  0.61876370  1
  O  O297  1  0.88031598  0.63308747  0.13188168  1
  O  O298  1  0.88122099  0.62682578  0.63102035  1
  O  O299  1  0.26712095  0.26117041  0.11892050  1
  O  O300  1  0.25355261  0.25321770  0.62346590  1
  O  O301  1  0.24732291  0.74717012  0.11121415  1
  O  O302  1  0.25770060  0.75471553  0.61826017  1
  O  O303  1  0.75754520  0.26980608  0.12932344  1
  O  O304  1  0.76211168  0.24364899  0.61381935  1
  O  O305  1  0.75653830  0.74374594  0.11710187  1
  O  O306  1  0.75022320  0.76407990  0.63036646  1
  O  O307  1  0.24685322  0.23546503  0.37694290  1
  O  O308  1  0.24668453  0.24818609  0.87490725  1
  O  O309  1  0.24366977  0.74365145  0.38047169  1
  O  O310  1  0.24523157  0.73688807  0.87719214  1
  O  O311  1  0.74493163  0.23608821  0.37677915  1
  O  O312  1  0.75127616  0.25261747  0.86739846  1
  O  O313  1  0.74710924  0.73842566  0.37025663  1
  O  O314  1  0.74120891  0.74608425  0.88637511  1
  O  O315  1  0.00787051  0.13994577  0.03484815  1
  O  O316  1  0.00328904  0.11953002  0.50687827  1
  O  O317  1  0.00739373  0.62824117  0.00511159  1
  O  O318  1  0.00789561  0.61819887  0.50416348  1
  O  O319  1  0.50485472  0.11277988  0.01630080  1
  O  O320  1  0.50847378  0.11736734  0.50266534  1
  O  O321  1  0.50212088  0.61188183  0.00973517  1
  O  O322  1  0.50790121  0.61783397  0.50424279  1
  O  O323  1  0.48518424  0.38016117  0.49604923  1
  O  O324  1  0.50045039  0.38813868  0.99010695  1
  O  O325  1  0.48962154  0.88099168  0.50346445  1
  O  O326  1  0.49533154  0.88055523  0.99410567  1
  O  O327  1  1.02172571  0.38656902  0.48211543  1
  O  O328  1  0.99118634  0.37980713  0.99783441  1
  O  O329  1  0.99462805  0.88595222  0.49993502  1
  O  O330  1  1.00109875  0.86856245  0.97738999  1
  O  O331  1  0.49087957  0.49808127  0.38711453  1
  O  O332  1  0.48762598  0.49960030  0.88427874  1
  O  O333  1  0.48962294  1.00525354  0.38911292  1
  O  O334  1  0.50319152  0.98174667  0.87262133  1
  O  O335  1  0.99971355  0.49825696  0.37943788  1
  O  O336  1  1.00883690  0.48546053  0.88059863  1
  O  O337  1  0.98980104  1.00133919  0.38202689  1
  O  O338  1  0.98701103  0.97683483  0.85917527  1
  O  O339  1  0.01355694  0.01031724  0.12606928  1
  O  O340  1  0.00355344  0.00992063  0.61776614  1
  O  O341  1  0.01386796  0.51012254  0.12540592  1
  O  O342  1  0.00523613  0.50271143  0.61527111  1
  O  O343  1  0.48001091  0.00261938  0.12047384  1
  O  O344  1  0.50371921  0.00228835  0.61246030  1
  O  O345  1  0.50583541  0.50212127  0.12064625  1
  O  O346  1  0.48888002  0.50437649  0.61087816  1
  O  O347  1  0.24123591  0.37091280  0.23871203  1
  O  O348  1  0.24203964  0.37982317  0.74415166  1
  O  O349  1  0.22222657  0.86831609  0.25880180  1
  O  O350  1  0.24429496  0.88002397  0.74654578  1
  O  O351  1  0.74393433  0.38350698  0.24977445  1
  O  O352  1  0.83236731  0.35764640  0.70506778  1
  O  O353  1  0.74055883  0.86370122  0.23615559  1
  O  O354  1  0.74475003  0.87706433  0.74486022  1
  O  O355  1  0.25066122  0.12465349  0.25722224  1
  O  O356  1  0.25774881  0.11782257  0.75287821  1
  O  O357  1  0.25744112  0.62895400  0.26259271  1
  O  O358  1  0.24999424  0.62027790  0.75770058  1
  O  O359  1  0.74275925  0.12593224  0.25095940  1
  O  O360  1  0.74116670  0.11663158  0.73847424  1
  O  O361  1  0.75631109  0.62120833  0.25639739  1
  O  O362  1  0.75637263  0.62294478  0.76651581  1
  O  O363  1  0.36389483  0.11662321  0.37659524  1
  O  O364  1  0.37270274  0.13291558  0.85787663  1
  O  O365  1  0.36662498  0.61227197  0.37919685  1
  O  O366  1  0.36580988  0.61928800  0.86861912  1
  O  O367  1  0.86450460  0.11445583  0.37179903  1
  O  O368  1  0.87811791  0.12539620  0.89864849  1
  O  O369  1  0.87154118  0.62492328  0.36958540  1
  O  O370  1  0.85986457  0.62351512  0.87085388  1
  O  O371  1  0.13171591  0.38503174  0.13137097  1
  O  O372  1  0.12469097  0.37769729  0.63218636  1
  O  O373  1  0.12355060  0.87354728  0.13156676  1
  O  O374  1  0.12802793  0.88004893  0.63595119  1
  O  O375  1  0.63286814  0.38445734  0.13751310  1
  O  O376  1  0.61908697  0.36971285  0.61527418  1
  O  O377  1  0.63336715  0.87120959  0.14059233  1
  O  O378  1  0.62961157  0.87908155  0.62537315  1
  O  O379  1  0.12005588  0.26542961  0.25035908  1
  O  O380  1  0.12228154  0.26196564  0.75569287  1
  O  O381  1  0.11846359  0.75339444  0.25680766  1
  O  O382  1  0.11573368  0.75549204  0.75027695  1
  O  O383  1  0.61187105  0.25949817  0.25558591  1
  O  O384  1  0.60573073  0.24961250  0.74716240  1
  O  O385  1  0.62371901  0.75007875  0.26416951  1
  O  O386  1  0.62121197  0.74709264  0.76645548  1
  O  O387  1  0.39025241  0.25295140  0.24487200  1
  O  O388  1  0.37942314  0.24224053  0.73881770  1
  O  O389  1  0.39009746  0.72276301  0.28252795  1
  O  O390  1  0.36985163  0.73863641  0.74135266  1
  O  O391  1  0.87714020  0.26583507  0.23891211  1
  O  O392  1  0.88172766  0.22965054  0.75103363  1
  O  O393  1  0.88416202  0.74745210  0.24529637  1
  O  O394  1  0.88279630  0.73571025  0.74548752  1
  O  O395  1  0.37757568  0.49089528  0.49267497  1
  O  O396  1  0.37995620  0.50775138  0.99240313  1
  O  O397  1  0.38083065  0.99110434  0.49676535  1
  O  O398  1  0.39866440  1.00827548  0.98205907  1
  O  O399  1  0.89528767  0.50006350  0.48879519  1
  O  O400  1  0.88188271  0.49096486  1.00931810  1
  O  O401  1  0.88555230  0.98996968  0.49559842  1
  O  O402  1  0.89119727  0.99800711  1.02860995  1
  O  O403  1  0.10426584  0.01343442  -0.04031437  1
  O  O404  1  0.11456950  0.00917439  0.50632088  1
  O  O405  1  0.12414079  0.51393691  0.00922791  1
  O  O406  1  0.12111404  0.50779446  0.50269293  1
  O  O407  1  0.59988957  -0.00698124  0.00276833  1
  O  O408  1  0.61717964  0.00162437  0.50063807  1
  O  O409  1  0.61617523  0.49658653  0.01302824  1
  O  O410  1  0.61405012  0.51553775  0.49944953  1
  O  O411  1  0.36967034  0.37065749  0.13023146  1
  O  O412  1  0.36668418  0.35833449  0.61518935  1
  O  O413  1  0.37102377  0.84311457  0.19271884  1
  O  O414  1  0.36948999  0.86555270  0.61682756  1
  O  O415  1  0.87008907  0.37969779  0.12146936  1
  O  O416  1  0.91304158  0.36112854  0.58576627  1
  O  O417  1  0.85858889  0.86232786  0.13268948  1
  O  O418  1  0.86710213  0.87150800  0.61595046  1
  O  O419  1  0.12883571  0.12313946  0.38190081  1
  O  O420  1  0.14048372  0.14388834  0.86048753  1
  O  O421  1  0.13258954  0.63495392  0.37781162  1
  O  O422  1  0.13154647  0.62501549  0.88399752  1
  O  O423  1  0.63189593  0.12531129  0.37737324  1
  O  O424  1  0.58744485  0.14346039  0.88558816  1
  O  O425  1  0.63261365  0.63390534  0.37986344  1
  O  O426  1  0.63635733  0.62875321  0.88022784  1
