# generated using pymatgen
data_V85Zn86O256
_symmetry_space_group_name_H-M   'P 1'
_cell_length_a   16.93398163
_cell_length_b   16.93466451
_cell_length_c   16.93959261
_cell_angle_alpha   90.05046970
_cell_angle_beta   89.93046411
_cell_angle_gamma   89.96811894
_symmetry_Int_Tables_number   1
_chemical_formula_structural   V85Zn86O256
_chemical_formula_sum   'V85 Zn86 O256'
_cell_volume   4857.78273750
_cell_formula_units_Z   1
loop_
 _symmetry_equiv_pos_site_id
 _symmetry_equiv_pos_as_xyz
  1  'x, y, z'
loop_
 _atom_site_type_symbol
 _atom_site_label
 _atom_site_symmetry_multiplicity
 _atom_site_fract_x
 _atom_site_fract_y
 _atom_site_fract_z
 _atom_site_occupancy
  V  V0  1  0.12689684  0.37729055  0.74126370  1
  V  V1  1  0.75145471  0.62127007  0.37333976  1
  V  V2  1  0.37143065  0.37512097  0.00576315  1
  V  V3  1  0.76226789  0.88020661  0.62428568  1
  V  V4  1  0.25381357  0.49486081  0.24694363  1
  V  V5  1  0.36960981  0.62539922  0.24945666  1
  V  V6  1  0.00020647  0.25189547  0.25171426  1
  V  V7  1  -0.00409122  0.87274193  0.87270555  1
  V  V8  1  0.62621673  0.62201450  0.00412890  1
  V  V9  1  0.74969301  0.87714591  0.12620755  1
  V  V10  1  0.49916194  0.75384150  0.24570639  1
  V  V11  1  0.73534867  0.38892475  0.13640552  1
  V  V12  1  -0.00525320  0.87082281  0.38408201  1
  V  V13  1  0.75192998  0.24264858  0.49485251  1
  V  V14  1  0.37909891  0.62464806  0.74869299  1
  V  V15  1  0.37416651  -0.00357719  0.87564450  1
  V  V16  1  0.12068614  0.87329129  0.24487611  1
  V  V17  1  0.62762221  0.25043359  0.87382124  1
  V  V18  1  0.74960353  0.75145967  0.00047475  1
  V  V19  1  0.31668305  0.81540125  0.44742617  1
  V  V20  1  0.87074382  0.12769763  0.25832685  1
  V  V21  1  0.74786656  0.25159013  0.00125386  1
  V  V22  1  0.87515204  0.74849476  0.12612319  1
  V  V23  1  -0.00256796  0.74416037  0.25419904  1
  V  V24  1  0.37302367  -0.00131794  0.38252385  1
  V  V25  1  0.12311311  0.87074776  0.74757067  1
  V  V26  1  0.37991656  0.75182797  0.62432839  1
  V  V27  1  0.12739981  0.49807773  0.12251043  1
  V  V28  1  0.12439581  0.25131597  0.87271067  1
  V  V29  1  0.62635813  0.87068017  0.25435307  1
  V  V30  1  0.87658693  0.72834474  0.62572514  1
  V  V31  1  0.62678215  0.74975880  0.87610109  1
  V  V32  1  0.36992654  0.50020804  0.38141454  1
  V  V33  1  0.62708702  0.38047335  0.74654188  1
  V  V34  1  -0.00214379  0.12472708  0.12489425  1
  V  V35  1  0.25188425  0.86759780  0.62344293  1
  V  V36  1  0.50299699  0.49897928  0.00564182  1
  V  V37  1  0.50691185  0.86975259  0.38487575  1
  V  V38  1  0.61333276  0.50720248  0.62156958  1
  V  V39  1  0.61811667  0.62983602  0.50208024  1
  V  V40  1  0.12135004  0.12516574  0.50009951  1
  V  V41  1  0.13942724  0.62760641  0.50297275  1
  V  V42  1  0.55018176  0.42150010  0.32165730  1
  V  V43  1  0.24960867  -0.00173861  0.74975306  1
  V  V44  1  -0.00443789  0.73462590  0.74714817  1
  V  V45  1  0.75360283  0.37797410  0.61514409  1
  V  V46  1  0.50262941  0.23780777  0.24670089  1
  V  V47  1  0.76191789  0.61737916  0.87259329  1
  V  V48  1  0.62119234  0.00989297  0.12837833  1
  V  V49  1  0.12580423  0.25219880  0.37356027  1
  V  V50  1  0.49901010  0.37708843  0.87422855  1
  V  V51  1  0.87666680  0.25179915  0.62208830  1
  V  V52  1  -0.00354338  -0.00059040  -0.00162768  1
  V  V53  1  0.49974752  0.87494434  0.87787130  1
  V  V54  1  0.12937608  0.74740960  0.87522901  1
  V  V55  1  0.00408186  0.50522824  0.51470598  1
  V  V56  1  0.13235190  0.37299648  0.24556168  1
  V  V57  1  0.62300754  0.00377243  0.62851184  1
  V  V58  1  0.63358903  0.88034268  0.75056754  1
  V  V59  1  0.00027239  0.38359388  0.87509772  1
  V  V60  1  0.87852515  0.49119848  0.37050687  1
  V  V61  1  0.12255047  -0.00349072  0.62252355  1
  V  V62  1  0.25184794  0.25566560  0.50027231  1
  V  V63  1  0.50454262  0.74616861  0.74673584  1
  V  V64  1  0.38893548  0.37835944  0.49896715  1
  V  V65  1  0.75570000  0.75216826  0.49595164  1
  V  V66  1  0.37180673  0.87385551  0.01824695  1
  V  V67  1  0.25032835  0.12386254  0.37284011  1
  V  V68  1  0.37872501  0.12239485  0.74144384  1
  V  V69  1  0.49649257  0.00871620  0.00578041  1
  V  V70  1  0.61344454  0.12443875  0.50267394  1
  V  V71  1  0.62153206  0.24526357  0.37463518  1
  V  V72  1  0.24807335  0.50275132  0.74625303  1
  V  V73  1  0.24951525  0.25326941  0.00744430  1
  V  V74  1  0.87232148  -0.00151649  0.38277900  1
  V  V75  1  0.25271842  0.75292279  0.01661811  1
  V  V76  1  0.49690217  0.62862612  0.12355047  1
  V  V77  1  0.74899084  0.00532733  0.25610919  1
  V  V78  1  0.75147665  0.12260872  0.86833623  1
  V  V79  1  0.12268258  0.12479531  -0.00139775  1
  V  V80  1  0.24691180  -0.00149504  0.24130869  1
  V  V81  1  0.50028785  0.24576170  0.74193293  1
  V  V82  1  0.87118082  0.25423170  0.12782214  1
  V  V83  1  0.24841856  0.12377428  0.87336559  1
  V  V84  1  0.87616006  0.38255801  -0.00012201  1
  Zn  Zn85  1  0.86727240  -0.00470183  0.86924367  1
  Zn  Zn86  1  0.25319636  0.62705550  0.87743468  1
  Zn  Zn87  1  0.25044318  0.38263299  0.61922227  1
  Zn  Zn88  1  0.13596887  0.74503448  0.37674377  1
  Zn  Zn89  1  -0.00212436  0.50436565  0.00152213  1
  Zn  Zn90  1  0.87531612  0.12022785  0.74533838  1
  Zn  Zn91  1  0.37784374  0.24826798  0.62067234  1
  Zn  Zn92  1  0.37554125  0.50313213  0.87498639  1
  Zn  Zn93  1  0.12626817  0.62552847  0.00342149  1
  Zn  Zn94  1  0.12401708  -0.00425113  0.12235647  1
  Zn  Zn95  1  -0.00057452  0.62157991  0.12508807  1
  Zn  Zn96  1  0.76684725  0.51454677  0.73898952  1
  Zn  Zn97  1  0.87385904  0.87680132  0.00105841  1
  Zn  Zn98  1  0.62004420  0.12892509  0.00397000  1
  Zn  Zn99  1  0.49355899  -0.00194052  0.50808646  1
  Zn  Zn100  1  -0.00806541  -0.00479031  0.50357069  1
  Zn  Zn101  1  -0.00141257  0.25027079  0.74696836  1
  Zn  Zn102  1  0.37955852  0.11872005  0.24376780  1
  Zn  Zn103  1  0.86590686  0.61799971  0.24789948  1
  Zn  Zn104  1  -0.00230305  0.12505090  0.62660452  1
  Zn  Zn105  1  -0.00018715  0.37626921  0.37996383  1
  Zn  Zn106  1  0.37996945  0.24326901  0.12455472  1
  Zn  Zn107  1  0.18799464  0.18404839  0.18499630  1
  Zn  Zn108  1  0.18817004  0.18799394  0.68524821  1
  Zn  Zn109  1  0.18386789  0.68328252  0.19145238  1
  Zn  Zn110  1  0.18784152  0.68298646  0.68329098  1
  Zn  Zn111  1  0.68740235  0.19201852  0.19102370  1
  Zn  Zn112  1  0.68822646  0.18976345  0.68444196  1
  Zn  Zn113  1  0.68516903  0.68632681  0.18713200  1
  Zn  Zn114  1  0.69225897  0.68964982  0.68682557  1
  Zn  Zn115  1  0.31999656  0.31434073  0.31325732  1
  Zn  Zn116  1  0.31207159  0.31258511  0.81347197  1
  Zn  Zn117  1  0.31278225  0.81380063  0.27530643  1
  Zn  Zn118  1  0.31362317  0.81191878  0.81366659  1
  Zn  Zn119  1  0.80596061  0.31684680  0.31445326  1
  Zn  Zn120  1  0.83174734  0.34797022  0.79181788  1
  Zn  Zn121  1  0.81319615  0.81265914  0.31399007  1
  Zn  Zn122  1  0.81386548  0.80753978  0.81003073  1
  Zn  Zn123  1  0.18574619  0.44366130  0.43509329  1
  Zn  Zn124  1  0.19075112  0.43875766  0.93184211  1
  Zn  Zn125  1  0.17684257  0.93869906  0.42991870  1
  Zn  Zn126  1  0.18563201  0.93266819  0.93935090  1
  Zn  Zn127  1  0.69023063  0.44116013  0.44144435  1
  Zn  Zn128  1  0.68868553  0.43790951  0.94093764  1
  Zn  Zn129  1  0.68834603  0.93841081  0.44202528  1
  Zn  Zn130  1  0.68436195  0.93987097  0.94089201  1
  Zn  Zn131  1  0.31325695  0.06681880  0.06313122  1
  Zn  Zn132  1  0.30786103  0.06120861  0.56146302  1
  Zn  Zn133  1  0.31239348  0.56363838  0.06361914  1
  Zn  Zn134  1  0.31459900  0.56575363  0.56531474  1
  Zn  Zn135  1  0.81163331  0.06591437  0.06262786  1
  Zn  Zn136  1  0.80465535  0.06723236  0.56505131  1
  Zn  Zn137  1  0.81116857  0.56308273  0.06379323  1
  Zn  Zn138  1  0.81360578  0.55697270  0.55142708  1
  Zn  Zn139  1  0.43626277  0.43767103  0.18213434  1
  Zn  Zn140  1  0.43506509  0.43632472  0.68389740  1
  Zn  Zn141  1  0.43939806  0.94304207  0.19210473  1
  Zn  Zn142  1  0.44116945  0.93210641  0.68787946  1
  Zn  Zn143  1  0.93915559  0.43692413  0.19085239  1
  Zn  Zn144  1  0.93624619  0.43875143  0.68530918  1
  Zn  Zn145  1  0.93678444  0.93598532  0.19059117  1
  Zn  Zn146  1  0.93645785  0.93897503  0.69302303  1
  Zn  Zn147  1  0.05864540  0.06098214  0.31372244  1
  Zn  Zn148  1  0.05632445  0.06225234  0.80901778  1
  Zn  Zn149  1  0.06757651  0.56446537  0.31916659  1
  Zn  Zn150  1  0.06651514  0.56133949  0.81336524  1
  Zn  Zn151  1  0.56349066  0.06035941  0.32113517  1
  Zn  Zn152  1  0.56363888  0.06226126  0.81465439  1
  Zn  Zn153  1  0.56031196  0.58103349  0.31933180  1
  Zn  Zn154  1  0.56720394  0.56276241  0.81390670  1
  Zn  Zn155  1  0.43848268  0.18875125  0.43277219  1
  Zn  Zn156  1  0.43499871  0.18789299  0.93113784  1
  Zn  Zn157  1  0.44363505  0.68252601  0.42996344  1
  Zn  Zn158  1  0.43541709  0.69082868  0.93748666  1
  Zn  Zn159  1  0.93775099  0.18853509  0.43901790  1
  Zn  Zn160  1  0.93524627  0.19393421  0.93639206  1
  Zn  Zn161  1  0.93816114  0.67885293  0.44025105  1
  Zn  Zn162  1  0.94085526  0.68669541  0.94170588  1
  Zn  Zn163  1  0.06251635  0.31474770  0.06401861  1
  Zn  Zn164  1  0.05986348  0.31810212  0.55879538  1
  Zn  Zn165  1  0.06098344  0.81056428  0.06227668  1
  Zn  Zn166  1  0.06092837  0.79993206  0.56050486  1
  Zn  Zn167  1  0.56152144  0.31342015  0.06494363  1
  Zn  Zn168  1  0.56601145  0.31385126  0.56166565  1
  Zn  Zn169  1  0.56264315  0.81712401  0.06489922  1
  Zn  Zn170  1  0.56953568  0.81187476  0.56611669  1
  O  O171  1  0.11557891  0.12266156  0.11626670  1
  O  O172  1  0.12723677  0.11473648  0.61631402  1
  O  O173  1  0.12328924  0.61253575  0.12562565  1
  O  O174  1  0.12592480  0.63148201  0.60602555  1
  O  O175  1  0.63090706  0.11352099  0.12424821  1
  O  O176  1  0.62831716  0.11535205  0.61927626  1
  O  O177  1  0.61563381  0.62932074  0.11267207  1
  O  O178  1  0.63351798  0.61438790  0.61906126  1
  O  O179  1  0.37303838  0.38770700  0.38513174  1
  O  O180  1  0.38910092  0.37338890  0.88081715  1
  O  O181  1  0.37673981  0.87471139  0.38194846  1
  O  O182  1  0.38084758  0.88106102  0.88034425  1
  O  O183  1  0.87499163  0.38694381  0.37486304  1
  O  O184  1  0.89072052  0.35530659  0.89091613  1
  O  O185  1  0.88223710  0.88670919  0.36973621  1
  O  O186  1  0.88524245  0.87215080  0.87764620  1
  O  O187  1  0.25297338  0.00623494  0.36965317  1
  O  O188  1  0.25314507  0.00178135  0.86953292  1
  O  O189  1  0.25953728  0.49877759  0.36032439  1
  O  O190  1  0.25610861  0.50539013  0.86395034  1
  O  O191  1  0.75576666  -0.00506401  0.36340590  1
  O  O192  1  0.74811542  0.01935279  0.88607943  1
  O  O193  1  0.76504823  0.50785929  0.38663480  1
  O  O194  1  0.74457687  0.51600438  0.87700887  1
  O  O195  1  0.24554109  0.50213272  0.13734959  1
  O  O196  1  0.25712012  0.49946284  0.64113089  1
  O  O197  1  0.24502491  1.00563772  0.13815128  1
  O  O198  1  0.24134702  0.98837088  0.62718378  1
  O  O199  1  0.75091850  0.48797276  0.12337444  1
  O  O200  1  0.74518936  0.49173827  0.62269797  1
  O  O201  1  0.74589128  0.99659145  0.13493976  1
  O  O202  1  0.73747447  0.99055130  0.61910678  1
  O  O203  1  0.00940785  0.36555480  0.25304400  1
  O  O204  1  0.01061591  0.37045133  0.75810436  1
  O  O205  1  0.00221477  0.86522988  0.25836138  1
  O  O206  1  0.00617259  0.86622700  0.75754285  1
  O  O207  1  0.49387418  0.36552741  0.25428744  1
  O  O208  1  0.50766124  0.36999915  0.75618433  1
  O  O209  1  0.50608322  0.87100954  0.25740422  1
  O  O210  1  0.50979221  0.86493703  0.75801341  1
  O  O211  1  0.50081695  0.13387755  0.25501408  1
  O  O212  1  0.49056552  0.13389879  0.75925306  1
  O  O213  1  0.49692716  0.63469214  0.24170494  1
  O  O214  1  0.49749901  0.63839298  0.75539750  1
  O  O215  1  0.99244994  0.13109899  0.24460078  1
  O  O216  1  0.99784199  0.13322989  0.74500548  1
  O  O217  1  0.99968504  0.63749041  0.24990869  1
  O  O218  1  1.00128266  0.63560617  0.75690944  1
  O  O219  1  0.36674642  0.25580493  -0.00412509  1
  O  O220  1  0.36882281  0.25753095  0.49719610  1
  O  O221  1  0.36219248  0.75930567  -0.00133864  1
  O  O222  1  0.37577959  0.74895808  0.50216680  1
  O  O223  1  0.86685458  0.25491517  0.01182655  1
  O  O224  1  0.86293500  0.24432497  0.50486101  1
  O  O225  1  0.87018443  0.75247593  0.01241308  1
  O  O226  1  0.87020066  0.74320909  0.51582952  1
  O  O227  1  0.13150818  0.24376531  0.49439208  1
  O  O228  1  0.13131594  0.24721323  0.99352560  1
  O  O229  1  0.12522671  0.73747825  0.49283414  1
  O  O230  1  0.13692771  0.75319244  0.99416676  1
  O  O231  1  0.62624309  0.24221015  0.49523014  1
  O  O232  1  0.62944441  0.25035690  0.99308854  1
  O  O233  1  0.63986282  0.73612704  0.51345908  1
  O  O234  1  0.62966491  0.74616182  0.99643212  1
  O  O235  1  0.50358332  0.25227296  0.14255276  1
  O  O236  1  0.50019190  0.25274402  0.63895036  1
  O  O237  1  0.50466730  0.74457500  0.13507237  1
  O  O238  1  0.49319634  0.75854459  0.63552426  1
  O  O239  1  0.99036733  0.24587299  0.13087889  1
  O  O240  1  0.98885437  0.25030406  0.61887481  1
  O  O241  1  0.99052435  0.75007802  0.13321608  1
  O  O242  1  0.98466857  0.75140657  0.63254475  1
  O  O243  1  0.00759880  0.25169934  0.36977008  1
  O  O244  1  0.01467057  0.25530879  0.87689133  1
  O  O245  1  -0.01035204  0.75679041  0.36763900  1
  O  O246  1  0.00582110  0.75650227  0.87031248  1
  O  O247  1  0.51051412  0.25008821  0.36483310  1
  O  O248  1  0.51034173  0.25728411  0.86980641  1
  O  O249  1  0.49872670  0.75836136  0.35977278  1
  O  O250  1  0.50746949  0.75675004  0.87080689  1
  O  O251  1  0.24109808  0.12921471  0.48975166  1
  O  O252  1  0.24202496  0.13037697  0.99171167  1
  O  O253  1  0.24040958  0.61945547  0.49898627  1
  O  O254  1  0.25121029  0.63980901  0.99908712  1
  O  O255  1  0.73568489  0.13812184  0.50155158  1
  O  O256  1  0.74795963  0.13972174  0.99544896  1
  O  O257  1  0.74549360  0.63246487  0.49259006  1
  O  O258  1  0.74223601  0.63056021  0.99517741  1
  O  O259  1  0.26066681  0.36545001  -0.01034113  1
  O  O260  1  0.25202191  0.36793354  0.49895122  1
  O  O261  1  0.25767180  0.86429726  -0.00001867  1
  O  O262  1  0.25077974  0.87494021  0.50175460  1
  O  O263  1  0.75641432  0.36600193  0.00408904  1
  O  O264  1  0.73828264  0.36177732  0.51074066  1
  O  O265  1  0.75061261  0.87037389  0.00706206  1
  O  O266  1  0.74328366  0.86313043  0.51109361  1
  O  O267  1  0.13354755  0.49250581  0.24426355  1
  O  O268  1  0.13495537  0.49003153  0.75525039  1
  O  O269  1  0.12925257  0.99302086  0.25038175  1
  O  O270  1  0.12945240  0.99246409  0.74154078  1
  O  O271  1  0.60522428  0.48443652  0.26816810  1
  O  O272  1  0.63095786  0.49534103  0.74020566  1
  O  O273  1  0.63074677  0.99539072  0.24689641  1
  O  O274  1  0.62177342  0.99023334  0.74545441  1
  O  O275  1  0.36406536  -0.00366101  0.26308767  1
  O  O276  1  0.37140282  0.00350137  0.75400301  1
  O  O277  1  0.37073412  0.50390339  0.25339926  1
  O  O278  1  0.37415023  0.51003755  0.75116670  1
  O  O279  1  0.86747995  0.00844598  0.25642681  1
  O  O280  1  0.87693244  0.00615094  0.75780924  1
  O  O281  1  0.87544452  0.50092501  0.26371030  1
  O  O282  1  0.86031964  0.45805173  0.76319668  1
  O  O283  1  0.12739859  0.36813019  0.36215104  1
  O  O284  1  0.12006036  0.36701445  0.86906056  1
  O  O285  1  0.11287920  0.86912322  0.36453471  1
  O  O286  1  0.11612939  0.86490862  0.87045662  1
  O  O287  1  0.61666792  0.36978665  0.38386691  1
  O  O288  1  0.61878585  0.37121244  0.86740596  1
  O  O289  1  0.61778143  0.88206799  0.36590146  1
  O  O290  1  0.62264087  0.87074568  0.86936152  1
  O  O291  1  0.37264812  0.12957409  0.13100318  1
  O  O292  1  0.36988252  0.12388005  0.63751851  1
  O  O293  1  0.38978076  0.62004851  0.13178465  1
  O  O294  1  0.37325788  0.64029278  0.63603761  1
  O  O295  1  0.87685428  0.13649729  0.13372169  1
  O  O296  1  0.87452935  0.13542070  0.62492996  1
  O  O297  1  0.87460046  0.63321004  0.12975995  1
  O  O298  1  0.86719498  0.63015876  0.62888601  1
  O  O299  1  0.24902492  0.24731757  0.11004454  1
  O  O300  1  0.25293444  0.24698541  0.60843203  1
  O  O301  1  0.24505272  0.75065052  0.11558083  1
  O  O302  1  0.25824866  0.76198215  0.62920711  1
  O  O303  1  0.75449539  0.25653930  0.11883608  1
  O  O304  1  0.75484827  0.25527938  0.61472699  1
  O  O305  1  0.75520033  0.75525965  0.12103204  1
  O  O306  1  0.76362656  0.75545623  0.62130796  1
  O  O307  1  0.24777192  0.24201601  0.38191092  1
  O  O308  1  0.24021815  0.24485003  0.88111878  1
  O  O309  1  0.26279202  0.76562808  0.37822359  1
  O  O310  1  0.24128495  0.75159145  0.88015342  1
  O  O311  1  0.73451879  0.25768388  0.38272544  1
  O  O312  1  0.73720117  0.24694496  0.88249738  1
  O  O313  1  0.75947917  0.74470544  0.38989710  1
  O  O314  1  0.74501061  0.74356966  0.88233613  1
  O  O315  1  0.00262608  0.11897047  0.00196185  1
  O  O316  1  0.01278547  0.12144621  0.50082536  1
  O  O317  1  0.00703067  0.62152760  0.00508135  1
  O  O318  1  0.00943801  0.61122111  0.49686179  1
  O  O319  1  0.49856807  0.11227367  -0.00701235  1
  O  O320  1  0.50846958  0.12277475  0.49906429  1
  O  O321  1  0.50349736  0.62120523  0.00518273  1
  O  O322  1  0.51867984  0.63529074  0.50168282  1
  O  O323  1  0.48820038  0.37256865  0.50344881  1
  O  O324  1  0.49689573  0.38186457  0.99316437  1
  O  O325  1  0.50790635  0.87234437  0.48824176  1
  O  O326  1  0.49177563  0.88305970  0.99728189  1
  O  O327  1  1.01290432  0.39633657  0.49343953  1
  O  O328  1  0.99314875  0.37582819  0.99505819  1
  O  O329  1  1.00454218  0.87493057  0.48741329  1
  O  O330  1  0.99872057  0.88207717  0.99211099  1
  O  O331  1  0.49215599  0.49305841  0.37168390  1
  O  O332  1  0.50010034  0.49260896  0.88295419  1
  O  O333  1  0.48849793  0.98748741  0.37567810  1
  O  O334  1  0.49540661  0.99360176  0.88402933  1
  O  O335  1  0.98776242  0.49856955  0.37133665  1
  O  O336  1  1.00733563  0.48679945  0.88053509  1
  O  O337  1  0.98982979  0.99111903  0.37645242  1
  O  O338  1  1.00136960  0.98887800  0.88183764  1
  O  O339  1  -0.00336376  0.00642282  0.11672616  1
  O  O340  1  0.01229318  -0.00280885  0.62196785  1
  O  O341  1  0.01162919  0.49895477  0.12497473  1
  O  O342  1  -0.00187718  0.49948387  0.61414429  1
  O  O343  1  0.50877757  -0.00278580  0.11859954  1
  O  O344  1  0.51544497  -0.00978955  0.62347955  1
  O  O345  1  0.49881509  0.50748430  0.11224153  1
  O  O346  1  0.51476974  0.50246147  0.63055046  1
  O  O347  1  0.24554735  0.38063807  0.25083655  1
  O  O348  1  0.24449964  0.38236372  0.75100276  1
  O  O349  1  0.23498606  0.88673919  0.25286530  1
  O  O350  1  0.24462201  0.87932924  0.74157876  1
  O  O351  1  0.74782170  0.37203034  0.23485174  1
  O  O352  1  0.73097196  0.36304334  0.73374050  1
  O  O353  1  0.74287338  0.88177555  0.24668954  1
  O  O354  1  0.74003004  0.86830348  0.74334291  1
  O  O355  1  0.24613119  0.11810474  0.26175339  1
  O  O356  1  0.25543772  0.11765902  0.75408399  1
  O  O357  1  0.26466378  0.61974584  0.24532379  1
  O  O358  1  0.25932017  0.62074216  0.75195044  1
  O  O359  1  0.75858331  0.11750880  0.24694763  1
  O  O360  1  0.74774216  0.13264462  0.76636055  1
  O  O361  1  0.74259121  0.63124538  0.26876774  1
  O  O362  1  0.74699583  0.62670348  0.76713010  1
  O  O363  1  0.36626027  0.11567991  0.37167843  1
  O  O364  1  0.36707523  0.11682229  0.86540833  1
  O  O365  1  0.38473626  0.61153675  0.36297179  1
  O  O366  1  0.37547808  0.62830208  0.86111423  1
  O  O367  1  0.88069517  0.11909477  0.36294027  1
  O  O368  1  0.85812419  0.13271669  0.87590143  1
  O  O369  1  0.86692924  0.61626727  0.37100681  1
  O  O370  1  0.86015090  0.62876281  0.88245799  1
  O  O371  1  0.12414994  0.37916648  0.13781664  1
  O  O372  1  0.13027479  0.36728610  0.63831436  1
  O  O373  1  0.11410926  0.87747654  0.13989633  1
  O  O374  1  0.13134943  0.87711611  0.62584861  1
  O  O375  1  0.63685238  0.37731393  0.11963156  1
  O  O376  1  0.62701387  0.38831723  0.62837874  1
  O  O377  1  0.63053529  0.88719254  0.13382345  1
  O  O378  1  0.63504436  0.87991932  0.63490789  1
  O  O379  1  0.12273985  0.25472073  0.25257860  1
  O  O380  1  0.12828870  0.25674158  0.75802097  1
  O  O381  1  0.11738400  0.75548911  0.25478655  1
  O  O382  1  0.11967594  0.75318177  0.75601353  1
  O  O383  1  0.61428457  0.24728461  0.25929906  1
  O  O384  1  0.61727746  0.25528483  0.75599084  1
  O  O385  1  0.61979866  0.76467242  0.24508784  1
  O  O386  1  0.62043305  0.75610847  0.75406924  1
  O  O387  1  0.38992492  0.24520147  0.25316960  1
  O  O388  1  0.38212980  0.24103322  0.75074673  1
  O  O389  1  0.38591303  0.73873164  0.24618803  1
  O  O390  1  0.38422681  0.74728025  0.74327623  1
  O  O391  1  0.87681913  0.24545275  0.24714702  1
  O  O392  1  0.87498044  0.25313152  0.73359287  1
  O  O393  1  0.87897140  0.74841230  0.24025809  1
  O  O394  1  0.88239373  0.75084927  0.73648200  1
  O  O395  1  0.37015412  0.49377071  0.49235173  1
  O  O396  1  0.38108792  0.49256957  0.99674754  1
  O  O397  1  0.37431639  1.00171699  0.48862569  1
  O  O398  1  0.37824473  0.99262667  0.99646591  1
  O  O399  1  0.89295770  0.50547968  0.48702043  1
  O  O400  1  0.87500155  0.48583941  1.00328823  1
  O  O401  1  0.87169549  1.01059006  0.48608482  1
  O  O402  1  0.88504799  1.00083995  0.99486991  1
  O  O403  1  0.11332719  0.00352370  0.00051412  1
  O  O404  1  0.12464192  0.00781490  0.50625580  1
  O  O405  1  0.13205133  0.49631557  0.01414282  1
  O  O406  1  0.11580973  0.51201945  0.49407848  1
  O  O407  1  0.61429018  0.00147088  0.01080476  1
  O  O408  1  0.62172103  0.00870511  0.50703991  1
  O  O409  1  0.61535513  0.51045234  -0.00544973  1
  O  O410  1  0.62735009  0.51286450  0.51354112  1
  O  O411  1  0.38072431  0.36666721  0.10893704  1
  O  O412  1  0.37088757  0.37061355  0.61529039  1
  O  O413  1  0.37701972  0.87897117  0.11802268  1
  O  O414  1  0.36764815  0.86421530  0.62647971  1
  O  O415  1  0.87102240  0.36560249  0.12033012  1
  O  O416  1  0.86353569  0.36622673  0.61945496  1
  O  O417  1  0.86697526  0.86813563  0.12569268  1
  O  O418  1  0.86379071  0.87554071  0.62693603  1
  O  O419  1  0.13025787  0.12963963  0.38079230  1
  O  O420  1  0.12858328  0.13090345  0.87868592  1
  O  O421  1  0.12725193  0.63074476  0.38613575  1
  O  O422  1  0.12791606  0.63766668  0.87870437  1
  O  O423  1  0.62348714  0.13312529  0.38664015  1
  O  O424  1  0.63302043  0.13347482  0.87902367  1
  O  O425  1  0.63352328  0.62228181  0.39434442  1
  O  O426  1  0.62847268  0.63309513  0.88691753  1
