# generated using pymatgen
data_V85Zn86O256
_symmetry_space_group_name_H-M   'P 1'
_cell_length_a   16.95487192
_cell_length_b   16.94492275
_cell_length_c   16.97183451
_cell_angle_alpha   90.00435485
_cell_angle_beta   90.10506959
_cell_angle_gamma   89.99737703
_symmetry_Int_Tables_number   1
_chemical_formula_structural   V85Zn86O256
_chemical_formula_sum   'V85 Zn86 O256'
_cell_volume   4875.98277922
_cell_formula_units_Z   1
loop_
 _symmetry_equiv_pos_site_id
 _symmetry_equiv_pos_as_xyz
  1  'x, y, z'
loop_
 _atom_site_type_symbol
 _atom_site_label
 _atom_site_symmetry_multiplicity
 _atom_site_fract_x
 _atom_site_fract_y
 _atom_site_fract_z
 _atom_site_occupancy
  V  V0  1  0.00480677  0.24422962  0.24435438  1
  V  V1  1  0.74808551  0.74951027  -0.01265522  1
  V  V2  1  0.87772769  0.12655440  0.25017034  1
  V  V3  1  0.37596885  0.75008742  0.13305952  1
  V  V4  1  0.00764394  0.24742847  0.75391834  1
  V  V5  1  0.37499624  0.50319875  0.87110477  1
  V  V6  1  0.25364765  0.11626425  0.37658610  1
  V  V7  1  0.49983824  0.24427953  0.75215995  1
  V  V8  1  0.62316188  0.61138372  0.48909494  1
  V  V9  1  0.12583027  0.74532136  0.37229822  1
  V  V10  1  0.12395715  0.12076652  0.50547710  1
  V  V11  1  0.75102236  0.87270899  0.12503086  1
  V  V12  1  0.12561795  0.50593041  0.12695663  1
  V  V13  1  0.62639021  0.87100064  0.75338802  1
  V  V14  1  0.50128620  0.50365210  -0.00280412  1
  V  V15  1  0.26026209  0.63163188  0.37342823  1
  V  V16  1  0.87015594  0.37064850  -0.00306296  1
  V  V17  1  0.00492121  0.37169916  0.87653875  1
  V  V18  1  0.61533669  0.24680098  0.37109098  1
  V  V19  1  0.37799033  0.38418876  0.50054219  1
  V  V20  1  -0.00171470  0.37639554  0.37396004  1
  V  V21  1  0.12506912  0.75716327  0.87138825  1
  V  V22  1  0.75145809  0.36923602  0.12430787  1
  V  V23  1  0.61904388  0.00181645  0.12298658  1
  V  V24  1  0.00161136  0.12000639  0.62728105  1
  V  V25  1  0.12619939  0.61307051  0.50045247  1
  V  V26  1  0.75321742  0.13093915  0.88055890  1
  V  V27  1  0.12485503  0.37468751  0.74897016  1
  V  V28  1  0.12541236  0.13055239  0.01118003  1
  V  V29  1  0.37482250  0.87695415  -0.00000274  1
  V  V30  1  0.87684969  0.12332737  0.75242023  1
  V  V31  1  0.12721566  0.25014431  0.37813842  1
  V  V32  1  0.12672314  0.37799910  0.24957646  1
  V  V33  1  0.50158755  0.87391703  0.87621316  1
  V  V34  1  0.26186943  0.51122967  0.24945050  1
  V  V35  1  0.00076751  0.87309171  0.37576666  1
  V  V36  1  0.62053112  0.37070699  0.24780178  1
  V  V37  1  0.61749496  0.87257461  0.24937165  1
  V  V38  1  0.00651592  0.61376475  0.63414649  1
  V  V39  1  -0.01151237  0.62326092  0.12826413  1
  V  V40  1  0.87189192  0.37550347  0.49606166  1
  V  V41  1  0.74901956  0.00075265  0.24988311  1
  V  V42  1  0.62797173  0.13382807  0.00010883  1
  V  V43  1  0.49391628  0.12055273  0.62635909  1
  V  V44  1  0.63844978  0.75041268  0.38311201  1
  V  V45  1  0.38415516  0.75160244  0.61999731  1
  V  V46  1  0.00013683  -0.00430868  0.50762713  1
  V  V47  1  0.37699306  0.62655120  0.74007135  1
  V  V48  1  0.75531142  0.50902408  0.25163065  1
  V  V49  1  0.00563365  0.88080215  0.86985270  1
  V  V50  1  0.63518799  0.37416344  0.74869617  1
  V  V51  1  0.61730900  0.50440834  0.63016855  1
  V  V52  1  0.37093602  0.00825497  0.86476970  1
  V  V53  1  0.75033738  -0.00335293  0.75307203  1
  V  V54  1  0.87911010  -0.00328986  0.88170576  1
  V  V55  1  0.00885345  0.00203702  0.01834920  1
  V  V56  1  0.75274836  0.87697151  0.61350538  1
  V  V57  1  0.85887555  0.71923459  0.63730488  1
  V  V58  1  0.50000628  0.38170832  0.37765843  1
  V  V59  1  0.50045962  0.62475596  0.13180679  1
  V  V60  1  0.38379151  0.88116202  0.50309429  1
  V  V61  1  0.62796949  0.50163820  0.12227168  1
  V  V62  1  0.87485563  -0.00000236  0.37863571  1
  V  V63  1  0.74886540  0.12784196  0.37708890  1
  V  V64  1  0.12379396  0.62693695  -0.00146168  1
  V  V65  1  0.62775674  0.62936667  -0.01438410  1
  V  V66  1  0.25058312  0.37755804  0.12267311  1
  V  V67  1  0.24381368  0.37797375  0.62240299  1
  V  V68  1  0.22436931  -0.00469959  0.73149387  1
  V  V69  1  -0.00267809  0.49969663  -0.00122732  1
  V  V70  1  0.87385517  0.24946223  0.62399957  1
  V  V71  1  0.37479656  0.37658516  -0.00261103  1
  V  V72  1  0.62029858  -0.00013099  0.62236716  1
  V  V73  1  0.37308957  0.24858215  0.62743960  1
  V  V74  1  0.87333896  0.51556727  0.37341713  1
  V  V75  1  0.24965907  0.62749160  0.87106169  1
  V  V76  1  0.50465728  0.74496850  0.75282127  1
  V  V77  1  0.22057337  0.77115205  0.53679865  1
  V  V78  1  0.86499330  0.51101663  0.86336999  1
  V  V79  1  -0.01403508  0.74199789  0.25420201  1
  V  V80  1  0.24230629  0.50419493  0.74195752  1
  V  V81  1  0.50131488  0.37414907  0.87142871  1
  V  V82  1  0.87784926  0.24415488  0.12091003  1
  V  V83  1  0.24519833  0.25288165  -0.01515936  1
  V  V84  1  0.61830782  0.12519814  0.50086359  1
  Zn  Zn85  1  0.24437488  -0.00169619  0.23736611  1
  Zn  Zn86  1  0.63047060  0.25120129  0.87605712  1
  Zn  Zn87  1  0.75239812  0.38043815  0.62762177  1
  Zn  Zn88  1  0.25002987  0.25002058  0.50248912  1
  Zn  Zn89  1  0.49949548  0.74312287  0.25732831  1
  Zn  Zn90  1  0.49981173  0.00542789  -0.00073754  1
  Zn  Zn91  1  0.25439761  0.75024530  -0.00268480  1
  Zn  Zn92  1  0.50693537  0.14615332  0.13325045  1
  Zn  Zn93  1  0.74697015  0.25005333  0.50168568  1
  Zn  Zn94  1  0.86667779  0.74113848  0.12706730  1
  Zn  Zn95  1  0.12194010  0.87932565  0.23820294  1
  Zn  Zn96  1  0.24429322  0.12529512  0.86975275  1
  Zn  Zn97  1  0.50393713  0.87576153  0.38273252  1
  Zn  Zn98  1  -0.00089838  0.49861431  0.50247655  1
  Zn  Zn99  1  0.24302088  0.88212466  0.12200816  1
  Zn  Zn100  1  0.87789481  0.87381642  0.00405249  1
  Zn  Zn101  1  0.86951780  0.86084490  0.50004522  1
  Zn  Zn102  1  0.38152963  0.25143405  0.12695101  1
  Zn  Zn103  1  -0.00168017  0.75031137  0.75057154  1
  Zn  Zn104  1  0.38641665  0.12655024  0.24202180  1
  Zn  Zn105  1  0.38603204  -0.00036772  0.37394398  1
  Zn  Zn106  1  0.38291818  0.50981249  0.37567700  1
  Zn  Zn107  1  0.21164290  0.19609061  0.19143417  1
  Zn  Zn108  1  0.19070453  0.18136609  0.69058163  1
  Zn  Zn109  1  0.17350634  0.71529823  0.17496496  1
  Zn  Zn110  1  0.18034893  0.69968337  0.68462907  1
  Zn  Zn111  1  0.68813673  0.18807370  0.18843268  1
  Zn  Zn112  1  0.68837489  0.18648550  0.69059871  1
  Zn  Zn113  1  0.68301540  0.68928682  0.18426829  1
  Zn  Zn114  1  0.68231239  0.68508538  0.67498822  1
  Zn  Zn115  1  0.31450391  0.31018123  0.31051963  1
  Zn  Zn116  1  0.31511652  0.31466722  0.80777409  1
  Zn  Zn117  1  0.31088760  0.81913553  0.31341700  1
  Zn  Zn118  1  0.31108300  0.81878474  0.80865304  1
  Zn  Zn119  1  0.80936135  0.31296319  0.31125691  1
  Zn  Zn120  1  0.81934883  0.31265905  0.81303830  1
  Zn  Zn121  1  0.81134140  0.81442823  0.31257645  1
  Zn  Zn122  1  0.79344158  0.77051339  0.78674495  1
  Zn  Zn123  1  0.19398422  0.43877178  0.43341600  1
  Zn  Zn124  1  0.18622463  0.44214651  0.93313540  1
  Zn  Zn125  1  0.18369738  0.93554307  0.43854022  1
  Zn  Zn126  1  0.19031806  0.94194946  0.94473866  1
  Zn  Zn127  1  0.68955209  0.43820418  0.43654195  1
  Zn  Zn128  1  0.68933106  0.43727568  0.93586489  1
  Zn  Zn129  1  0.67919704  0.94312893  0.43539199  1
  Zn  Zn130  1  0.68829689  0.93867971  0.93839519  1
  Zn  Zn131  1  0.31488793  0.06519266  0.06439521  1
  Zn  Zn132  1  0.30831829  0.06108624  0.56657128  1
  Zn  Zn133  1  0.31416724  0.56757826  0.06160965  1
  Zn  Zn134  1  0.31130693  0.56863457  0.56053322  1
  Zn  Zn135  1  0.81215294  0.06134872  0.06314377  1
  Zn  Zn136  1  0.81047232  0.06054143  0.56304839  1
  Zn  Zn137  1  0.80854756  0.55850638  0.05346121  1
  Zn  Zn138  1  0.80010661  0.55930288  0.56033805  1
  Zn  Zn139  1  0.44015138  0.43446951  0.18561089  1
  Zn  Zn140  1  0.43836017  0.43589682  0.68638234  1
  Zn  Zn141  1  0.42915890  0.94405260  0.19039663  1
  Zn  Zn142  1  0.43399552  0.93378642  0.68784114  1
  Zn  Zn143  1  0.93690397  0.43575685  0.18791933  1
  Zn  Zn144  1  0.93585865  0.43797026  0.68792639  1
  Zn  Zn145  1  0.93618090  0.93341773  0.19296524  1
  Zn  Zn146  1  0.93649204  0.93462690  0.69168645  1
  Zn  Zn147  1  0.06687855  0.06127000  0.31249170  1
  Zn  Zn148  1  0.06980041  0.06421415  0.82082018  1
  Zn  Zn149  1  0.06359896  0.56308569  0.31267733  1
  Zn  Zn150  1  0.06016169  0.55915039  0.81501803  1
  Zn  Zn151  1  0.55330027  0.05805604  0.31055924  1
  Zn  Zn152  1  0.56234040  0.06026219  0.81333747  1
  Zn  Zn153  1  0.56902640  0.56032715  0.31229593  1
  Zn  Zn154  1  0.56424612  0.56033929  0.80814595  1
  Zn  Zn155  1  0.43721808  0.19279904  0.44163390  1
  Zn  Zn156  1  0.43779570  0.18783950  0.94484469  1
  Zn  Zn157  1  0.44711521  0.69415705  0.44150317  1
  Zn  Zn158  1  0.43936078  0.69010005  0.93615538  1
  Zn  Zn159  1  0.94009259  0.18758844  0.43720920  1
  Zn  Zn160  1  0.94524330  0.18353761  0.94050622  1
  Zn  Zn161  1  0.93387334  0.68852297  0.45326774  1
  Zn  Zn162  1  0.93507890  0.69058188  0.93815683  1
  Zn  Zn163  1  0.06534934  0.31076143  0.06216326  1
  Zn  Zn164  1  0.05965301  0.31226344  0.56310008  1
  Zn  Zn165  1  0.05698633  0.81055474  0.06025747  1
  Zn  Zn166  1  0.04764099  0.79978401  0.56234792  1
  Zn  Zn167  1  0.56448968  0.31372434  0.05732240  1
  Zn  Zn168  1  0.56097126  0.31406679  0.56343294  1
  Zn  Zn169  1  0.56261470  0.81102541  0.06149542  1
  Zn  Zn170  1  0.56399799  0.80682222  0.56486202  1
  O  O171  1  0.13996919  0.13829187  0.11105035  1
  O  O172  1  0.11637857  0.13423478  0.61204419  1
  O  O173  1  0.11702260  0.62436731  0.11581581  1
  O  O174  1  0.11356958  0.62618137  0.61760984  1
  O  O175  1  0.62886959  0.11911325  0.11684071  1
  O  O176  1  0.61873541  0.11975417  0.62025539  1
  O  O177  1  0.61806570  0.61894905  0.11476949  1
  O  O178  1  0.61480152  0.60779520  0.62891222  1
  O  O179  1  0.38298502  0.37204292  0.38109268  1
  O  O180  1  0.38117108  0.38342374  0.87713169  1
  O  O181  1  0.37653676  0.87228757  0.39233522  1
  O  O182  1  0.38314553  0.88171092  0.88120624  1
  O  O183  1  0.88021361  0.37587650  0.38099637  1
  O  O184  1  0.88380803  0.37826471  0.88324159  1
  O  O185  1  0.88279067  0.87861857  0.38026039  1
  O  O186  1  0.88474826  0.89090031  0.88161662  1
  O  O187  1  0.25250694  0.01289624  0.38713189  1
  O  O188  1  0.26483763  0.00026130  0.87738624  1
  O  O189  1  0.25520544  0.51059822  0.36564609  1
  O  O190  1  0.25570472  0.50724459  0.86327134  1
  O  O191  1  0.75405917  0.00797327  0.37053051  1
  O  O192  1  0.76002509  0.00511081  0.87144200  1
  O  O193  1  0.75702414  0.49634933  0.35979580  1
  O  O194  1  0.76599227  0.49906684  0.88089645  1
  O  O195  1  0.24631149  0.49846510  0.12985371  1
  O  O196  1  0.25528425  0.49307595  0.63327475  1
  O  O197  1  0.25083043  0.99572182  0.12100114  1
  O  O198  1  0.23823213  1.00145810  0.63168522  1
  O  O199  1  0.75041728  0.48809474  0.13128737  1
  O  O200  1  0.72830888  0.49263750  0.62006890  1
  O  O201  1  0.74124818  0.99367660  0.12950118  1
  O  O202  1  0.73874816  0.99805807  0.63372737  1
  O  O203  1  0.00676296  0.36658917  0.25472097  1
  O  O204  1  0.00467798  0.36756247  0.75551142  1
  O  O205  1  -0.00038839  0.86321333  0.26045543  1
  O  O206  1  0.00327735  0.88067211  0.76710441  1
  O  O207  1  0.51473349  0.37993929  0.25534900  1
  O  O208  1  0.50687802  0.36406985  0.75528040  1
  O  O209  1  0.51347611  0.87613886  0.24472856  1
  O  O210  1  0.50667424  0.86707665  0.75524203  1
  O  O211  1  0.50177669  0.13198568  0.24800369  1
  O  O212  1  0.50651607  0.13712125  0.74303040  1
  O  O213  1  0.50713977  0.62168070  0.23559453  1
  O  O214  1  0.49185426  0.63732656  0.76014163  1
  O  O215  1  0.99582733  0.13839190  0.25890704  1
  O  O216  1  0.99716667  0.13052866  0.74855997  1
  O  O217  1  1.00085760  0.62847263  0.24000564  1
  O  O218  1  1.00399969  0.62241077  0.73742487  1
  O  O219  1  0.36447574  0.26326798  -0.00250327  1
  O  O220  1  0.37305336  0.26151914  0.51270051  1
  O  O221  1  0.37991148  0.76187744  0.00523506  1
  O  O222  1  0.37467269  0.75749142  0.51001750  1
  O  O223  1  0.88433969  0.25790431  0.00933989  1
  O  O224  1  0.87560605  0.25555372  0.50745934  1
  O  O225  1  0.86171172  0.75282804  0.00410665  1
  O  O226  1  0.86997142  0.74732036  0.52925539  1
  O  O227  1  0.12242018  0.24394050  0.49230772  1
  O  O228  1  0.12970494  0.24267635  0.99679244  1
  O  O229  1  0.12076042  0.73658363  0.48452882  1
  O  O230  1  0.12359337  0.73676908  0.98952501  1
  O  O231  1  0.62646818  0.24310373  0.49293832  1
  O  O232  1  0.62947044  0.23881097  0.99574878  1
  O  O233  1  0.62890866  0.75677261  0.48470628  1
  O  O234  1  0.63733678  0.74321812  1.00267517  1
  O  O235  1  0.49538266  0.26208868  0.12434440  1
  O  O236  1  0.49420202  0.24181906  0.63222607  1
  O  O237  1  0.49453227  0.74156132  0.12702099  1
  O  O238  1  0.49305836  0.75223109  0.63814892  1
  O  O239  1  0.99212283  0.25698746  0.13542011  1
  O  O240  1  0.98974281  0.24411389  0.63196067  1
  O  O241  1  0.99089707  0.73942997  0.13408709  1
  O  O242  1  0.98688730  0.72796227  0.62958440  1
  O  O243  1  0.01038424  0.25583268  0.36876807  1
  O  O244  1  -0.00684941  0.25814777  0.86469796  1
  O  O245  1  -0.00154055  0.75354508  0.37354103  1
  O  O246  1  0.00438534  0.76204569  0.87634216  1
  O  O247  1  0.51068289  0.25954573  0.37737441  1
  O  O248  1  0.49994577  0.25488355  0.86753329  1
  O  O249  1  0.51371228  0.75700554  0.37110647  1
  O  O250  1  0.49702216  0.76478215  0.86684853  1
  O  O251  1  0.24018750  0.12854361  0.49518274  1
  O  O252  1  0.24478021  0.13917659  0.99550864  1
  O  O253  1  0.23924989  0.63839211  0.49750560  1
  O  O254  1  0.24121901  0.62492380  0.99019009  1
  O  O255  1  0.73772785  0.12581262  0.49557436  1
  O  O256  1  0.74315613  0.11887786  0.99048515  1
  O  O257  1  0.72078475  0.63206149  0.51684847  1
  O  O258  1  0.74290048  0.63978615  1.00360496  1
  O  O259  1  0.25400388  0.37716261  0.00140714  1
  O  O260  1  0.25478416  0.37255138  0.50746128  1
  O  O261  1  0.26145403  0.86909716  0.00148244  1
  O  O262  1  0.25408214  0.86113548  0.49707608  1
  O  O263  1  0.76126901  0.37588474  0.00803427  1
  O  O264  1  0.76181472  0.36981613  0.49854904  1
  O  O265  1  0.74894609  0.86648901  0.00777303  1
  O  O266  1  0.74906508  0.88836294  0.51054471  1
  O  O267  1  0.13245325  0.49542124  0.24448367  1
  O  O268  1  0.13625346  0.49347791  0.75368225  1
  O  O269  1  0.12821272  0.98999275  0.25865356  1
  O  O270  1  0.12439019  0.99685274  0.74676927  1
  O  O271  1  0.63690976  0.49211854  0.24312694  1
  O  O272  1  0.62120923  0.48881387  0.74043852  1
  O  O273  1  0.63294616  0.99309761  0.24236853  1
  O  O274  1  0.62861882  0.99302667  0.74062935  1
  O  O275  1  0.36559167  0.00899168  0.25723252  1
  O  O276  1  0.37796500  -0.00042138  0.76443282  1
  O  O277  1  0.36477931  0.49730209  0.25092255  1
  O  O278  1  0.36954565  0.50737172  0.75210188  1
  O  O279  1  0.87061041  0.00621160  0.25791624  1
  O  O280  1  0.87235803  0.00631906  0.76100335  1
  O  O281  1  0.86307682  0.49273949  0.25716447  1
  O  O282  1  0.87440880  0.49340824  0.76481423  1
  O  O283  1  0.12133614  0.36864077  0.37097267  1
  O  O284  1  0.11173590  0.37950316  0.86873848  1
  O  O285  1  0.11054125  0.86304566  0.38128403  1
  O  O286  1  0.11825158  0.86737084  0.88864747  1
  O  O287  1  0.61981432  0.36850350  0.36851220  1
  O  O288  1  0.61935654  0.37363170  0.86789854  1
  O  O289  1  0.62916917  0.86663196  0.36554554  1
  O  O290  1  0.61822196  0.88515127  0.86091899  1
  O  O291  1  0.38718380  0.13162998  0.11833790  1
  O  O292  1  0.38366473  0.13390175  0.61747243  1
  O  O293  1  0.38906206  0.63775241  0.11540611  1
  O  O294  1  0.38209027  0.62505172  0.63622400  1
  O  O295  1  0.86881416  0.13790217  0.13167467  1
  O  O296  1  0.88097495  0.13013363  0.63067800  1
  O  O297  1  0.88597044  0.61852063  0.11767512  1
  O  O298  1  0.88835201  0.61787373  0.61536829  1
  O  O299  1  0.24299700  0.27233727  0.10609338  1
  O  O300  1  0.25772493  0.25699779  0.62765025  1
  O  O301  1  0.27206534  0.73823584  0.11774791  1
  O  O302  1  0.27543845  0.73189656  0.62575695  1
  O  O303  1  0.76048117  0.26222714  0.13146880  1
  O  O304  1  0.76433746  0.24845938  0.62562909  1
  O  O305  1  0.74945733  0.75844964  0.11904882  1
  O  O306  1  0.75122306  0.77381138  0.61783050  1
  O  O307  1  0.23708183  0.24421949  0.37971749  1
  O  O308  1  0.25215811  0.25383930  0.88119901  1
  O  O309  1  0.23838884  0.74324400  0.36983470  1
  O  O310  1  0.24345213  0.74505623  0.87419011  1
  O  O311  1  0.74018171  0.24204633  0.37619716  1
  O  O312  1  0.75416365  0.23417594  0.86921956  1
  O  O313  1  0.73729520  0.74942890  0.36913162  1
  O  O314  1  0.74926418  0.75974222  0.88871836  1
  O  O315  1  0.01171811  0.11471482  0.00590178  1
  O  O316  1  0.00479110  0.11633292  0.50502905  1
  O  O317  1  0.00616799  0.62025598  0.00598143  1
  O  O318  1  0.01066270  0.61935965  0.50824831  1
  O  O319  1  0.51516068  0.12352625  0.00141007  1
  O  O320  1  0.51070325  0.13154386  0.51086612  1
  O  O321  1  0.50828730  0.62081363  0.00352158  1
  O  O322  1  0.52581737  0.63892039  0.50535696  1
  O  O323  1  0.49039499  0.36997365  0.48978854  1
  O  O324  1  0.49621874  0.38391534  0.98888041  1
  O  O325  1  0.48720347  0.87215751  0.50576233  1
  O  O326  1  0.49834653  0.87746167  0.99047135  1
  O  O327  1  0.98901664  0.37723172  0.49453489  1
  O  O328  1  0.99506557  0.37826640  0.99276514  1
  O  O329  1  0.99389828  0.87873082  0.49733092  1
  O  O330  1  0.99924588  0.88750981  0.99720402  1
  O  O331  1  0.49939690  0.48753310  0.37009835  1
  O  O332  1  0.49394731  0.49486778  0.87697542  1
  O  O333  1  0.50099628  0.98976587  0.37952926  1
  O  O334  1  0.49135134  0.99076443  0.87431188  1
  O  O335  1  0.99087574  0.49217351  0.37350588  1
  O  O336  1  0.99267802  0.49034262  0.88152575  1
  O  O337  1  0.99377437  0.98996593  0.38319436  1
  O  O338  1  0.99649571  0.99729733  0.88734145  1
  O  O339  1  -0.00352414  -0.00486036  0.11633291  1
  O  O340  1  -0.00617435  0.00402159  0.61593071  1
  O  O341  1  0.00552568  0.50420484  0.12032749  1
  O  O342  1  -0.00073829  0.50872140  0.62269008  1
  O  O343  1  0.51463313  -0.00291890  0.12437778  1
  O  O344  1  0.50478730  0.01249728  0.63446704  1
  O  O345  1  0.50544491  0.50573149  0.11668785  1
  O  O346  1  0.51801228  0.48215597  0.62084383  1
  O  O347  1  0.24463116  0.38512409  0.23946383  1
  O  O348  1  0.24537508  0.38330745  0.74224359  1
  O  O349  1  0.24381254  0.87506681  0.24419358  1
  O  O350  1  0.25305535  0.89855777  0.75402818  1
  O  O351  1  0.74138918  0.38094415  0.24243357  1
  O  O352  1  0.73810328  0.36654505  0.75186136  1
  O  O353  1  0.74205212  0.88091798  0.24297967  1
  O  O354  1  0.74069664  0.87709032  0.74140366  1
  O  O355  1  0.23323357  0.11799215  0.27521440  1
  O  O356  1  0.24347913  0.10499555  0.75467918  1
  O  O357  1  0.24429891  0.61806808  0.26024703  1
  O  O358  1  0.25546941  0.61973214  0.75069527  1
  O  O359  1  0.75607269  0.12004814  0.25712576  1
  O  O360  1  0.75692422  0.11615214  0.75717794  1
  O  O361  1  0.74659528  0.60694189  0.23799559  1
  O  O362  1  0.78727492  0.67362025  0.71326627  1
  O  O363  1  0.35918613  0.12986076  0.38255253  1
  O  O364  1  0.37546187  0.11027139  0.88178010  1
  O  O365  1  0.36416452  0.62912574  0.38599609  1
  O  O366  1  0.36881111  0.62266495  0.86504426  1
  O  O367  1  0.86903723  0.12208808  0.37025939  1
  O  O368  1  0.87212801  0.11638319  0.87410704  1
  O  O369  1  0.87987988  0.61437519  0.38201522  1
  O  O370  1  0.88196685  0.61015649  0.87739751  1
  O  O371  1  0.13106252  0.38663484  0.12726583  1
  O  O372  1  0.13713281  0.37048130  0.62875807  1
  O  O373  1  0.13837897  0.82688617  0.13391112  1
  O  O374  1  0.15023951  0.80310082  0.61198831  1
  O  O375  1  0.63431350  0.38026276  0.12902737  1
  O  O376  1  0.62909286  0.37442391  0.63422808  1
  O  O377  1  0.63354241  0.88066726  0.12953265  1
  O  O378  1  0.63092357  0.88321493  0.62965916  1
  O  O379  1  0.12167169  0.25657871  0.25597524  1
  O  O380  1  0.11335369  0.25478063  0.74440982  1
  O  O381  1  0.10618101  0.74244451  0.26581194  1
  O  O382  1  0.11740370  0.74505887  0.76823645  1
  O  O383  1  0.63247466  0.25969348  0.25981513  1
  O  O384  1  0.61747032  0.25590437  0.75276241  1
  O  O385  1  0.62376463  0.75725153  0.25657840  1
  O  O386  1  0.61744576  0.75835665  0.74344354  1
  O  O387  1  0.32996566  0.23254642  0.23169276  1
  O  O388  1  0.38457618  0.25616195  0.73626968  1
  O  O389  1  0.38102333  0.75517892  0.23600302  1
  O  O390  1  0.38238374  0.74460434  0.74564265  1
  O  O391  1  0.88460614  0.24733685  0.24419669  1
  O  O392  1  0.88528974  0.24414745  0.74294665  1
  O  O393  1  0.88218239  0.74931490  0.24928040  1
  O  O394  1  0.88764109  0.77928531  0.72329874  1
  O  O395  1  0.36842606  0.48825629  0.49708338  1
  O  O396  1  0.37997179  0.49650114  0.99198918  1
  O  O397  1  0.36786616  0.98267463  0.50455075  1
  O  O398  1  0.38078735  0.98755833  0.99242467  1
  O  O399  1  0.87117286  0.49159171  0.48952444  1
  O  O400  1  0.88146876  0.48748960  0.99584163  1
  O  O401  1  0.88408546  1.00370661  0.49186240  1
  O  O402  1  0.88789659  1.00293703  0.99703484  1
  O  O403  1  0.11466345  0.00824323  0.00649271  1
  O  O404  1  0.11093375  0.00701563  0.49660265  1
  O  O405  1  0.11896590  0.51052606  0.00351546  1
  O  O406  1  0.12600506  0.50992074  0.49417201  1
  O  O407  1  0.62557552  0.00868263  0.00819067  1
  O  O408  1  0.62518457  0.00904160  0.51462669  1
  O  O409  1  0.62230063  0.50601676  0.00490352  1
  O  O410  1  0.62265016  0.50593596  0.50176936  1
  O  O411  1  0.36518457  0.38032062  0.11505141  1
  O  O412  1  0.36558458  0.37039693  0.61918146  1
  O  O413  1  0.38074114  0.86316432  0.11695139  1
  O  O414  1  0.37538291  0.86514553  0.61563759  1
  O  O415  1  0.87022829  0.36712135  0.11790256  1
  O  O416  1  0.87400324  0.36735037  0.61692721  1
  O  O417  1  0.86030005  0.87568827  0.12563091  1
  O  O418  1  0.85537001  0.89529165  0.61920223  1
  O  O419  1  0.12767846  0.13239184  0.38927639  1
  O  O420  1  0.12980214  0.12128734  0.89700431  1
  O  O421  1  0.13324932  0.62757376  0.38224034  1
  O  O422  1  0.12895215  0.62838983  0.88170543  1
  O  O423  1  0.62752561  0.13091119  0.38355366  1
  O  O424  1  0.63583272  0.12318508  0.88201797  1
  O  O425  1  0.62581786  0.63318071  0.38201787  1
  O  O426  1  0.62284123  0.62015807  0.88637460  1
