# generated using pymatgen
data_V85Zn86O256
_symmetry_space_group_name_H-M   'P 1'
_cell_length_a   16.93160438
_cell_length_b   16.92259537
_cell_length_c   16.92048844
_cell_angle_alpha   90.08084033
_cell_angle_beta   90.04018329
_cell_angle_gamma   90.03318952
_symmetry_Int_Tables_number   1
_chemical_formula_structural   V85Zn86O256
_chemical_formula_sum   'V85 Zn86 O256'
_cell_volume   4848.16470771
_cell_formula_units_Z   1
loop_
 _symmetry_equiv_pos_site_id
 _symmetry_equiv_pos_as_xyz
  1  'x, y, z'
loop_
 _atom_site_type_symbol
 _atom_site_label
 _atom_site_symmetry_multiplicity
 _atom_site_fract_x
 _atom_site_fract_y
 _atom_site_fract_z
 _atom_site_occupancy
  V  V0  1  0.87350804  0.75141152  0.62197119  1
  V  V1  1  0.49607920  0.00737863  0.50351768  1
  V  V2  1  0.00160610  0.75001192  0.24815382  1
  V  V3  1  0.13054475  0.88218377  0.25131439  1
  V  V4  1  0.62220150  0.12738783  0.50536515  1
  V  V5  1  0.10961796  0.25226164  0.88607182  1
  V  V6  1  0.75330545  0.00142111  0.75081943  1
  V  V7  1  0.74692444  0.24734796  0.00264023  1
  V  V8  1  0.12399753  0.62334092  0.00180773  1
  V  V9  1  0.00242473  0.62719322  0.63035668  1
  V  V10  1  0.25090363  0.88214652  0.63118769  1
  V  V11  1  0.12198358  0.88502133  0.75526103  1
  V  V12  1  0.88073433  0.00037803  0.87033592  1
  V  V13  1  0.62294809  0.49922549  0.12419396  1
  V  V14  1  0.87855894  0.49533942  0.37426512  1
  V  V15  1  0.49476202  0.23833575  0.24635527  1
  V  V16  1  0.62154627  0.37320676  0.24847011  1
  V  V17  1  0.00370144  0.25620067  0.26270418  1
  V  V18  1  0.87923438  0.37294095  -0.00680972  1
  V  V19  1  0.00162293  0.49789922  0.49766683  1
  V  V20  1  0.62112800  0.74962353  0.87189164  1
  V  V21  1  0.00539222  -0.00220900  -0.00180913  1
  V  V22  1  0.62344365  0.00489704  0.62639373  1
  V  V23  1  0.00494654  0.00474716  0.49978921  1
  V  V24  1  0.87350266  0.62491576  0.24975051  1
  V  V25  1  0.75358818  0.12370010  0.87229962  1
  V  V26  1  0.61948747  0.24892525  0.86754600  1
  V  V27  1  0.49639063  0.49002477  -0.00002321  1
  V  V28  1  0.37326004  0.62592966  0.74774446  1
  V  V29  1  0.49554479  0.37198995  0.86581134  1
  V  V30  1  0.12977473  0.00730952  0.12485130  1
  V  V31  1  0.87964373  0.87239827  -0.00710984  1
  V  V32  1  0.25219563  0.74939402  -0.00116823  1
  V  V33  1  0.13072300  0.14508395  0.49641222  1
  V  V34  1  0.24809307  0.35673346  0.62421839  1
  V  V35  1  0.24813491  0.14531005  0.87604570  1
  V  V36  1  0.25262813  0.37346407  0.11078890  1
  V  V37  1  0.62415441  0.87625208  0.75009376  1
  V  V38  1  0.37707816  0.88471228  0.00036621  1
  V  V39  1  0.75048962  0.87446920  0.62263369  1
  V  V40  1  0.39604354  0.24721056  0.62492447  1
  V  V41  1  0.86235561  0.62137304  0.74998875  1
  V  V42  1  0.25206724  0.87963928  0.12849209  1
  V  V43  1  0.74855467  0.50039907  0.25125549  1
  V  V44  1  0.49896972  0.62671662  0.12346748  1
  V  V45  1  0.87424162  0.87377363  0.49948696  1
  V  V46  1  0.50142076  0.87565969  0.37779656  1
  V  V47  1  0.37390618  0.62214942  0.25129294  1
  V  V48  1  -0.00081671  0.12883444  0.63731563  1
  V  V49  1  0.00437293  0.12724671  0.12247769  1
  V  V50  1  0.00141954  0.87747832  0.37506380  1
  V  V51  1  0.12715907  0.75065606  0.37579726  1
  V  V52  1  0.38420329  0.12816457  0.74658790  1
  V  V53  1  0.62408567  0.24967466  0.37476303  1
  V  V54  1  0.49920176  0.37804179  0.38258074  1
  V  V55  1  0.74742570  0.74748165  -0.00268986  1
  V  V56  1  0.75167848  0.37742042  0.63575973  1
  V  V57  1  0.49670824  0.74704036  0.74222867  1
  V  V58  1  0.49547084  0.88194265  0.87186891  1
  V  V59  1  0.74911407  0.00108904  0.24781869  1
  V  V60  1  -0.00118280  0.49603279  -0.00581076  1
  V  V61  1  0.37647107  0.50021950  0.38613420  1
  V  V62  1  0.63099412  0.50585845  0.62104105  1
  V  V63  1  0.87805319  0.24644445  0.63989252  1
  V  V64  1  0.36039118  0.00082191  0.86626389  1
  V  V65  1  0.25054268  0.13329139  0.36683261  1
  V  V66  1  0.12460939  0.62602521  0.49991872  1
  V  V67  1  0.11827249  0.75265768  0.87416621  1
  V  V68  1  0.49628483  0.61556229  0.61277526  1
  V  V69  1  0.62214904  0.62604262  -0.00169600  1
  V  V70  1  0.87629467  0.25129604  0.12583878  1
  V  V71  1  0.37230619  0.49679789  0.87787302  1
  V  V72  1  0.87903707  0.37078965  0.49795020  1
  V  V73  1  0.25278125  0.75073446  0.50590211  1
  V  V74  1  0.50598465  0.74824237  0.25350423  1
  V  V75  1  0.74431020  0.63069862  0.38879416  1
  V  V76  1  0.11224193  0.36511937  0.75277512  1
  V  V77  1  0.12978277  0.49892693  0.62863577  1
  V  V78  1  0.37290644  0.87522111  0.50582214  1
  V  V79  1  0.75229965  0.24924876  0.50129567  1
  V  V80  1  0.87695221  0.12493994  0.25153085  1
  V  V81  1  0.61135380  0.11665741  0.00302776  1
  V  V82  1  0.75101734  0.87362852  0.12585250  1
  V  V83  1  0.12817298  0.37325871  0.26534423  1
  V  V84  1  0.37370724  0.24658975  0.11125063  1
  Zn  Zn85  1  0.12537316  0.49589736  0.12586041  1
  Zn  Zn86  1  0.00043712  0.62159939  0.12575317  1
  Zn  Zn87  1  0.36877960  0.11771522  0.24070439  1
  Zn  Zn88  1  0.60627307  0.00672202  0.12821664  1
  Zn  Zn89  1  0.24800476  0.49854495  0.75218444  1
  Zn  Zn90  1  -0.00172212  0.75504927  0.75487376  1
  Zn  Zn91  1  0.36462816  -0.00050838  0.36785694  1
  Zn  Zn92  1  0.62858180  0.87472725  0.25450168  1
  Zn  Zn93  1  0.74226166  0.61543026  0.86650462  1
  Zn  Zn94  1  0.37025259  0.36878344  0.49942170  1
  Zn  Zn95  1  0.24848324  0.62322787  0.87334519  1
  Zn  Zn96  1  0.62453022  0.37827499  0.75049044  1
  Zn  Zn97  1  0.87705628  0.74730253  0.12170266  1
  Zn  Zn98  1  0.62617279  0.74984391  0.39499787  1
  Zn  Zn99  1  0.87013034  0.49242173  0.86625583  1
  Zn  Zn100  1  0.25007551  0.49752243  0.25040328  1
  Zn  Zn101  1  0.75012626  0.12350984  0.37604708  1
  Zn  Zn102  1  0.13032250  0.00700745  0.62814599  1
  Zn  Zn103  1  0.74976692  0.37531739  0.12426771  1
  Zn  Zn104  1  0.24919642  0.62334205  0.37441031  1
  Zn  Zn105  1  0.37510888  0.75020810  0.12701775  1
  Zn  Zn106  1  0.87513215  0.00016551  0.37435659  1
  Zn  Zn107  1  0.18854090  0.19594677  0.18604514  1
  Zn  Zn108  1  0.18785943  0.18132557  0.69556160  1
  Zn  Zn109  1  0.18938255  0.68936114  0.18579762  1
  Zn  Zn110  1  0.18952599  0.69245032  0.68906338  1
  Zn  Zn111  1  0.68518708  0.18478526  0.18502337  1
  Zn  Zn112  1  0.68952643  0.18845682  0.68829654  1
  Zn  Zn113  1  0.68800668  0.68794833  0.18765643  1
  Zn  Zn114  1  0.68700853  0.68711481  0.57105495  1
  Zn  Zn115  1  0.31101021  0.30691705  0.31252910  1
  Zn  Zn116  1  0.31214094  0.31459663  0.80600234  1
  Zn  Zn117  1  0.31538774  0.81182945  0.31598971  1
  Zn  Zn118  1  0.30859938  0.80897318  0.81122092  1
  Zn  Zn119  1  0.81087937  0.31178334  0.31276694  1
  Zn  Zn120  1  0.81173004  0.30868698  0.81562133  1
  Zn  Zn121  1  0.81409347  0.81060626  0.31462821  1
  Zn  Zn122  1  0.81161453  0.80900962  0.81041758  1
  Zn  Zn123  1  0.19334386  0.43687936  0.44046131  1
  Zn  Zn124  1  0.18482362  0.43507615  0.93381323  1
  Zn  Zn125  1  0.18951967  0.94407898  0.43847079  1
  Zn  Zn126  1  0.18784970  0.93850338  0.93885791  1
  Zn  Zn127  1  0.68969424  0.43858070  0.44170979  1
  Zn  Zn128  1  0.68857724  0.43596886  0.93446284  1
  Zn  Zn129  1  0.68747997  0.93837750  0.43710582  1
  Zn  Zn130  1  0.68850971  0.93594489  0.93765697  1
  Zn  Zn131  1  0.31182875  0.06495897  0.05659164  1
  Zn  Zn132  1  0.31165818  0.06695581  0.56195377  1
  Zn  Zn133  1  0.31175060  0.55942839  0.06402786  1
  Zn  Zn134  1  0.31146599  0.56263124  0.56347906  1
  Zn  Zn135  1  0.81302798  0.06154087  0.06158880  1
  Zn  Zn136  1  0.81564308  0.06279144  0.56274644  1
  Zn  Zn137  1  0.81122583  0.56015836  0.06098938  1
  Zn  Zn138  1  0.81641535  0.55724628  0.56578799  1
  Zn  Zn139  1  0.43488578  0.43380791  0.18931666  1
  Zn  Zn140  1  0.43583658  0.43971203  0.68704008  1
  Zn  Zn141  1  0.43822242  0.94319363  0.18894900  1
  Zn  Zn142  1  0.43493190  0.94241811  0.68611411  1
  Zn  Zn143  1  0.94180506  0.43623375  0.18224023  1
  Zn  Zn144  1  0.93836375  0.43925175  0.68469824  1
  Zn  Zn145  1  0.93761034  0.93718324  0.18414032  1
  Zn  Zn146  1  0.94343512  0.94063814  0.68737482  1
  Zn  Zn147  1  0.06731955  0.06623487  0.31435232  1
  Zn  Zn148  1  0.06743340  0.06605630  0.81794950  1
  Zn  Zn149  1  0.06358599  0.55945905  0.31166137  1
  Zn  Zn150  1  0.06043176  0.56067315  0.81465723  1
  Zn  Zn151  1  0.56358877  0.06029332  0.31716628  1
  Zn  Zn152  1  0.56108068  0.06268072  0.81602321  1
  Zn  Zn153  1  0.56197120  0.56158165  0.31637425  1
  Zn  Zn154  1  0.56305171  0.55934042  0.80631219  1
  Zn  Zn155  1  0.43295107  0.18878940  0.43624619  1
  Zn  Zn156  1  0.43619876  0.18587495  0.93456526  1
  Zn  Zn157  1  0.43420071  0.69116392  0.43738765  1
  Zn  Zn158  1  0.43678841  0.68728005  0.93444966  1
  Zn  Zn159  1  0.93925247  0.18626637  0.44015488  1
  Zn  Zn160  1  0.93723865  0.18330476  0.93948146  1
  Zn  Zn161  1  0.93753626  0.68704105  0.43694282  1
  Zn  Zn162  1  0.93805615  0.68404382  0.93517798  1
  Zn  Zn163  1  0.06381363  0.31560551  0.06759263  1
  Zn  Zn164  1  0.05873676  0.31336483  0.56600218  1
  Zn  Zn165  1  0.06389628  0.81367398  0.06367251  1
  Zn  Zn166  1  0.06386529  0.81570470  0.56650358  1
  Zn  Zn167  1  0.55916716  0.30814052  0.06096779  1
  Zn  Zn168  1  0.56640375  0.31836304  0.56212956  1
  Zn  Zn169  1  0.54728848  0.83932441  0.07601847  1
  Zn  Zn170  1  0.55757818  0.81600230  0.56661587  1
  O  O171  1  0.12077962  0.11526410  0.13143743  1
  O  O172  1  0.11614276  0.12741569  0.61740221  1
  O  O173  1  0.12547808  0.62389531  0.11282042  1
  O  O174  1  0.11978080  0.61941132  0.62240192  1
  O  O175  1  0.62446971  0.12280944  0.10934399  1
  O  O176  1  0.62961772  0.12229785  0.61372548  1
  O  O177  1  0.61848104  0.61995914  0.11979349  1
  O  O178  1  0.61435557  0.61378822  0.62497087  1
  O  O179  1  0.38155797  0.38120614  0.37466912  1
  O  O180  1  0.38008583  0.38655240  0.86996679  1
  O  O181  1  0.38149903  0.87789752  0.38725560  1
  O  O182  1  0.37606870  0.88201833  0.87508949  1
  O  O183  1  0.86822981  0.38423019  0.38393289  1
  O  O184  1  0.87263862  0.37150031  0.88872054  1
  O  O185  1  0.88292195  0.87549651  0.38291448  1
  O  O186  1  0.86993618  0.88070915  0.88618722  1
  O  O187  1  0.24973556  0.02164139  0.38508251  1
  O  O188  1  0.25875432  0.00041864  0.87194275  1
  O  O189  1  0.26101529  0.50234350  0.37156319  1
  O  O190  1  0.25812072  0.50173019  0.87383895  1
  O  O191  1  0.75313278  0.00079576  0.36089528  1
  O  O192  1  0.75833683  0.00487530  0.87165781  1
  O  O193  1  0.75861958  0.50964581  0.37304600  1
  O  O194  1  0.75699364  0.50450631  0.88156483  1
  O  O195  1  0.25041067  0.48687545  0.12963909  1
  O  O196  1  0.23731435  0.49748885  0.62675292  1
  O  O197  1  0.24259587  0.98992735  0.11680168  1
  O  O198  1  0.24776011  0.98701762  0.61838453  1
  O  O199  1  0.74128952  0.49824032  0.13257323  1
  O  O200  1  0.74139478  0.49301139  0.62364555  1
  O  O201  1  0.75205183  0.99240455  0.13449754  1
  O  O202  1  0.74716186  0.99665460  0.63260956  1
  O  O203  1  0.01373853  0.36759804  0.24362725  1
  O  O204  1  0.01368087  0.37498840  0.74333254  1
  O  O205  1  0.00657311  0.86853415  0.25323263  1
  O  O206  1  0.01716673  0.87320214  0.74630474  1
  O  O207  1  0.50965564  0.36887433  0.25703637  1
  O  O208  1  0.49982686  0.37717935  0.76251902  1
  O  O209  1  0.49919580  0.86531283  0.26605477  1
  O  O210  1  0.50044133  0.86714907  0.75298456  1
  O  O211  1  0.50488825  0.13646562  0.25195784  1
  O  O212  1  0.48393297  0.12601333  0.75818869  1
  O  O213  1  0.49565063  0.63037332  0.24579166  1
  O  O214  1  0.49284519  0.63011015  0.74239557  1
  O  O215  1  0.99573517  0.13074987  0.24246310  1
  O  O216  1  1.00531834  0.12032337  0.73556241  1
  O  O217  1  0.99300154  0.63252842  0.25050818  1
  O  O218  1  0.99921681  0.62781259  0.73839074  1
  O  O219  1  0.38141066  0.25126081  0.01258588  1
  O  O220  1  0.37974638  0.24922133  0.51989428  1
  O  O221  1  0.36176875  0.75379266  -0.00241632  1
  O  O222  1  0.36396236  0.76070126  0.49740752  1
  O  O223  1  0.86852249  0.25299196  0.00592912  1
  O  O224  1  0.87122400  0.25576884  0.50531586  1
  O  O225  1  0.86803519  0.75509725  -0.00215748  1
  O  O226  1  0.88282674  0.76154077  0.50749120  1
  O  O227  1  0.12035014  0.24320678  0.49926661  1
  O  O228  1  0.11994062  0.25670254  0.98534981  1
  O  O229  1  0.12852065  0.74658196  0.49536182  1
  O  O230  1  0.13270864  0.74640206  0.99582963  1
  O  O231  1  0.63086841  0.24477009  0.49713114  1
  O  O232  1  0.63068187  0.23989569  0.99458199  1
  O  O233  1  0.63134682  0.75847365  0.50736686  1
  O  O234  1  0.63036544  0.74802445  0.98922769  1
  O  O235  1  0.48414293  0.25890846  0.13327552  1
  O  O236  1  0.49409980  0.25536388  0.62891985  1
  O  O237  1  0.49747564  0.74725651  0.13582719  1
  O  O238  1  0.50304345  0.73917075  0.63746814  1
  O  O239  1  0.99608526  0.24170722  0.13126043  1
  O  O240  1  0.99249407  0.23755978  0.62298612  1
  O  O241  1  0.99906862  0.74854454  0.13711608  1
  O  O242  1  0.99212104  0.74297175  0.62575566  1
  O  O243  1  -0.00612257  0.24906711  0.36142702  1
  O  O244  1  0.01068834  0.24217243  0.87499812  1
  O  O245  1  0.00579377  0.75539232  0.36528354  1
  O  O246  1  0.01390195  0.74989242  0.87730163  1
  O  O247  1  0.50429136  0.25692929  0.36597604  1
  O  O248  1  0.50754171  0.25981976  0.88261135  1
  O  O249  1  0.50434353  0.75591675  0.37209496  1
  O  O250  1  0.50391816  0.75452502  0.86359589  1
  O  O251  1  0.23272250  0.12719585  0.50295210  1
  O  O252  1  0.25414943  0.11974288  0.97377605  1
  O  O253  1  0.24345169  0.63432761  0.50105470  1
  O  O254  1  0.24305481  0.63279051  1.00051414  1
  O  O255  1  0.74443852  0.13102434  0.49861597  1
  O  O256  1  0.74775204  0.13320203  0.99259486  1
  O  O257  1  0.75539394  0.62426627  0.49262081  1
  O  O258  1  0.74405153  0.63687395  1.00072597  1
  O  O259  1  0.24907008  0.37916256  0.01227380  1
  O  O260  1  0.25155593  0.37805297  0.52011783  1
  O  O261  1  0.25666557  0.86837676  0.00559451  1
  O  O262  1  0.25498926  0.87053230  0.50517239  1
  O  O263  1  0.75297496  0.35939710  0.00191256  1
  O  O264  1  0.76151597  0.36966979  0.50910812  1
  O  O265  1  0.75553881  0.86464718  0.00464267  1
  O  O266  1  0.76703376  0.88737906  0.50609290  1
  O  O267  1  0.12557484  0.48759241  0.24767801  1
  O  O268  1  0.12430713  0.49034290  0.74481136  1
  O  O269  1  0.12016324  0.98889082  0.24203405  1
  O  O270  1  0.12475818  0.98879570  0.75095561  1
  O  O271  1  0.62712725  0.49258344  0.24518953  1
  O  O272  1  0.61916985  0.49463258  0.73086208  1
  O  O273  1  0.63361241  0.99822659  0.24578003  1
  O  O274  1  0.62948082  0.99661923  0.74701049  1
  O  O275  1  0.37986260  0.00609256  0.25437265  1
  O  O276  1  0.37517200  0.01403742  0.75325185  1
  O  O277  1  0.37673386  0.51166282  0.25645723  1
  O  O278  1  0.37349450  0.50991065  0.75673576  1
  O  O279  1  0.87089016  0.00878786  0.24918956  1
  O  O280  1  0.87382517  -0.00761197  0.76433997  1
  O  O281  1  0.87163980  0.50378673  0.25647499  1
  O  O282  1  0.88091684  0.51621938  0.74661547  1
  O  O283  1  0.12692195  0.37947821  0.36473415  1
  O  O284  1  0.12616457  0.36417472  0.86292135  1
  O  O285  1  0.12215805  0.87266864  0.36803574  1
  O  O286  1  0.13228130  0.86972668  0.86260203  1
  O  O287  1  0.61957158  0.37122075  0.36930242  1
  O  O288  1  0.61659569  0.36570676  0.87439515  1
  O  O289  1  0.61654547  0.87206355  0.37488721  1
  O  O290  1  0.61505322  0.87101508  0.87189338  1
  O  O291  1  0.36647569  0.14033572  0.12315199  1
  O  O292  1  0.37371443  0.13538887  0.63529595  1
  O  O293  1  0.38086004  0.62750930  0.13327115  1
  O  O294  1  0.38674582  0.61764696  0.63234686  1
  O  O295  1  0.88261341  0.12879992  0.13430995  1
  O  O296  1  0.88937126  0.13259946  0.62022768  1
  O  O297  1  0.87465476  0.62443245  0.13921771  1
  O  O298  1  0.88234808  0.63150561  0.63041447  1
  O  O299  1  0.26106401  0.26123731  0.12460092  1
  O  O300  1  0.24946424  0.25653311  0.62793675  1
  O  O301  1  0.25012727  0.76191707  0.11659339  1
  O  O302  1  0.24282581  0.76226709  0.61227466  1
  O  O303  1  0.75632306  0.24874971  0.11790979  1
  O  O304  1  0.75763027  0.25608524  0.61964099  1
  O  O305  1  0.75548845  0.75376023  0.11656437  1
  O  O306  1  0.76593335  0.75774108  0.62467887  1
  O  O307  1  0.25471196  0.23468552  0.38286398  1
  O  O308  1  0.24659453  0.24876681  0.87607224  1
  O  O309  1  0.24308853  0.74992911  0.38621752  1
  O  O310  1  0.23902674  0.74722603  0.88360692  1
  O  O311  1  0.74218737  0.24909717  0.38280506  1
  O  O312  1  0.74275877  0.24141967  0.88260215  1
  O  O313  1  0.74956127  0.73357960  0.37221277  1
  O  O314  1  0.73923810  0.74747886  0.88029047  1
  O  O315  1  -0.00536261  0.11490498  0.01592103  1
  O  O316  1  0.01068582  0.12078978  0.50394985  1
  O  O317  1  0.00692494  0.62019977  0.00350998  1
  O  O318  1  0.00352311  0.62016238  0.51093439  1
  O  O319  1  0.51271080  0.12122183  -0.00609159  1
  O  O320  1  0.50863081  0.11814444  0.49474237  1
  O  O321  1  0.50500524  0.62046519  0.00519608  1
  O  O322  1  0.49442320  0.63064260  0.51486957  1
  O  O323  1  0.49683795  0.36957248  0.48581812  1
  O  O324  1  0.50453419  0.38658093  0.99240440  1
  O  O325  1  0.49076060  0.88076582  0.49503428  1
  O  O326  1  0.48229380  0.85423766  0.98057847  1
  O  O327  1  0.98701933  0.38148603  0.50609108  1
  O  O328  1  0.99058333  0.38176814  1.00560200  1
  O  O329  1  0.99380729  0.88337379  0.49734492  1
  O  O330  1  0.99102278  0.88392689  1.00618933  1
  O  O331  1  0.49094211  0.49007889  0.36996190  1
  O  O332  1  0.49471196  0.49324085  0.88131636  1
  O  O333  1  0.50142134  0.99085353  0.38766629  1
  O  O334  1  0.48952539  0.98612059  0.86897899  1
  O  O335  1  0.98543711  0.50710610  0.38097083  1
  O  O336  1  0.99130607  0.50523210  0.88871831  1
  O  O337  1  0.99999958  0.99489077  0.38108055  1
  O  O338  1  0.99488908  1.00863273  0.88697823  1
  O  O339  1  0.00858288  0.00605219  0.11988773  1
  O  O340  1  0.00137765  0.01364363  0.61791339  1
  O  O341  1  0.00473729  0.50298627  0.11248735  1
  O  O342  1  0.01127972  0.50687749  0.61931798  1
  O  O343  1  0.51274168  -0.05272854  0.10877062  1
  O  O344  1  0.50760473  -0.00388275  0.61193646  1
  O  O345  1  0.50225582  0.50356693  0.11802608  1
  O  O346  1  0.50525260  0.50986817  0.62307014  1
  O  O347  1  0.23790578  0.37316135  0.24843949  1
  O  O348  1  0.24082386  0.37841833  0.73709778  1
  O  O349  1  0.24245760  0.86803500  0.24133903  1
  O  O350  1  0.23940869  0.86783202  0.74035930  1
  O  O351  1  0.73698808  0.38047677  0.25069232  1
  O  O352  1  0.75179675  0.37152909  0.73887960  1
  O  O353  1  0.75546891  0.88151903  0.24353775  1
  O  O354  1  0.74486621  0.88080846  0.74399299  1
  O  O355  1  0.24486133  0.13062216  0.26275702  1
  O  O356  1  0.26124847  0.12711985  0.76523286  1
  O  O357  1  0.25978423  0.62533211  0.25154860  1
  O  O358  1  0.25838816  0.62345591  0.75015283  1
  O  O359  1  0.75850445  0.11841974  0.24874530  1
  O  O360  1  0.74532741  0.11853140  0.76422701  1
  O  O361  1  0.75689482  0.61900922  0.25747157  1
  O  O362  1  0.76467044  0.62808012  0.74455594  1
  O  O363  1  0.36221777  0.12366861  0.37372621  1
  O  O364  1  0.36848279  0.12142771  0.86617537  1
  O  O365  1  0.37542812  0.61715332  0.36952423  1
  O  O366  1  0.37471206  0.61397575  0.86711383  1
  O  O367  1  0.87427478  0.12448772  0.36227976  1
  O  O368  1  0.86525937  0.11371327  0.88129934  1
  O  O369  1  0.86635059  0.61997418  0.36774011  1
  O  O370  1  0.87303485  0.62952365  0.85719505  1
  O  O371  1  0.14041090  0.37389341  0.13165717  1
  O  O372  1  0.13084777  0.37845898  0.63260926  1
  O  O373  1  0.13181473  0.88376002  0.13210165  1
  O  O374  1  0.13168573  0.87893977  0.63719441  1
  O  O375  1  0.62435174  0.37847342  0.13272454  1
  O  O376  1  0.63569233  0.38008316  0.62860373  1
  O  O377  1  0.64617406  0.86651556  0.13088802  1
  O  O378  1  0.63042289  0.88472295  0.63252880  1
  O  O379  1  0.11722590  0.26319045  0.24956805  1
  O  O380  1  0.12591649  0.26176408  0.75535784  1
  O  O381  1  0.11927583  0.75895512  0.25366162  1
  O  O382  1  0.12278279  0.75810795  0.75872009  1
  O  O383  1  0.62023751  0.25627269  0.25282648  1
  O  O384  1  0.62874929  0.25065498  0.76444151  1
  O  O385  1  0.61396156  0.74903348  0.25436132  1
  O  O386  1  0.61524572  0.75919190  0.76216399  1
  O  O387  1  0.38238341  0.24367384  0.24287877  1
  O  O388  1  0.37288557  0.23976578  0.73838239  1
  O  O389  1  0.38587135  0.73834387  0.25448123  1
  O  O390  1  0.38207214  0.73594887  0.75665692  1
  O  O391  1  0.87974354  0.24502671  0.24422093  1
  O  O392  1  0.87211486  0.24867341  0.73930455  1
  O  O393  1  0.88375177  0.74162449  0.25014085  1
  O  O394  1  0.87995007  0.74258317  0.74162391  1
  O  O395  1  0.37223766  0.49645220  0.48946687  1
  O  O396  1  0.38559845  0.50741154  0.99095428  1
  O  O397  1  0.38266977  0.99583838  0.49985325  1
  O  O398  1  0.37249094  0.98912003  0.98902681  1
  O  O399  1  0.87987122  0.49207868  0.49380835  1
  O  O400  1  0.88095528  0.48908536  1.00303568  1
  O  O401  1  0.88801618  0.99580100  0.49748391  1
  O  O402  1  0.88155889  0.99204400  0.99251739  1
  O  O403  1  0.11477248  -0.00605959  0.00944594  1
  O  O404  1  0.11249267  0.00186305  0.50492096  1
  O  O405  1  0.11831182  0.50727805  -0.00193226  1
  O  O406  1  0.12093356  0.50486834  0.50699908  1
  O  O407  1  0.63300253  0.01470334  -0.00040266  1
  O  O408  1  0.62018230  0.00900852  0.50493811  1
  O  O409  1  0.61694676  0.50606214  0.00545759  1
  O  O410  1  0.62421032  0.49064146  0.51957304  1
  O  O411  1  0.36084223  0.36575852  0.13209525  1
  O  O412  1  0.36683690  0.36180639  0.62933008  1
  O  O413  1  0.36570248  0.87128584  0.11601621  1
  O  O414  1  0.36809832  0.87774947  0.61474476  1
  O  O415  1  0.87113273  0.36686526  0.11731080  1
  O  O416  1  0.87048364  0.36844922  0.61978317  1
  O  O417  1  0.86733124  0.87308326  0.11316756  1
  O  O418  1  0.87523542  0.86955368  0.61953677  1
  O  O419  1  0.13175935  0.12625432  0.38864485  1
  O  O420  1  0.13696656  0.14291273  0.86745632  1
  O  O421  1  0.12538805  0.63111111  0.38190043  1
  O  O422  1  0.12612874  0.63185505  0.88533242  1
  O  O423  1  0.62767555  0.13163553  0.38660729  1
  O  O424  1  0.63075417  0.12966450  0.88441942  1
  O  O425  1  0.64123971  0.62311274  0.37580043  1
  O  O426  1  0.62210801  0.63304068  0.87806247  1
