# generated using pymatgen
data_V85Zn86O256
_symmetry_space_group_name_H-M   'P 1'
_cell_length_a   16.90340801
_cell_length_b   16.91085545
_cell_length_c   16.91113337
_cell_angle_alpha   89.96867171
_cell_angle_beta   89.98865836
_cell_angle_gamma   89.95474092
_symmetry_Int_Tables_number   1
_chemical_formula_structural   V85Zn86O256
_chemical_formula_sum   'V85 Zn86 O256'
_cell_volume   4834.06357115
_cell_formula_units_Z   1
loop_
 _symmetry_equiv_pos_site_id
 _symmetry_equiv_pos_as_xyz
  1  'x, y, z'
loop_
 _atom_site_type_symbol
 _atom_site_label
 _atom_site_symmetry_multiplicity
 _atom_site_fract_x
 _atom_site_fract_y
 _atom_site_fract_z
 _atom_site_occupancy
  V  V0  1  -0.00535815  0.24493820  0.24998193  1
  V  V1  1  0.86587416  0.00250622  0.87917565  1
  V  V2  1  0.37387714  0.50374835  0.37738118  1
  V  V3  1  0.12533972  0.75713756  0.37259178  1
  V  V4  1  0.24261948  0.87279575  0.63155333  1
  V  V5  1  0.87801377  0.25188191  0.62956681  1
  V  V6  1  0.50849021  0.24545209  0.75101093  1
  V  V7  1  0.63082616  0.87289562  0.74449417  1
  V  V8  1  0.24860647  0.50288197  0.25272253  1
  V  V9  1  0.87666228  0.13091533  0.75644230  1
  V  V10  1  0.50600674  0.49667399  0.50418144  1
  V  V11  1  0.50527903  0.87089516  0.87686306  1
  V  V12  1  0.23874038  -0.00178792  0.24658780  1
  V  V13  1  0.37507377  0.00007820  0.37297528  1
  V  V14  1  0.50240725  0.49775148  0.00063886  1
  V  V15  1  0.37631154  0.87545375  0.00238217  1
  V  V16  1  0.11262739  0.50716185  0.11821114  1
  V  V17  1  0.87508981  0.63150150  0.23591493  1
  V  V18  1  0.63447713  0.12422248  0.49895039  1
  V  V19  1  -0.00161329  0.37543142  0.37301421  1
  V  V20  1  0.75417425  0.86616913  0.13932166  1
  V  V21  1  0.12475769  0.75284949  0.86925376  1
  V  V22  1  0.12356761  0.37593238  0.24828824  1
  V  V23  1  0.62843003  0.12628446  -0.01062514  1
  V  V24  1  0.24855058  0.74558401  0.49482896  1
  V  V25  1  0.50193058  0.62058869  0.62626484  1
  V  V26  1  0.50499909  0.87584466  0.37256548  1
  V  V27  1  0.37745651  0.37020696  0.50556367  1
  V  V28  1  0.49997119  0.12546896  0.62197758  1
  V  V29  1  0.87304209  0.37639043  0.50115205  1
  V  V30  1  0.37456588  0.74935694  0.62515512  1
  V  V31  1  0.37483424  0.87409140  0.50042786  1
  V  V32  1  0.11719256  0.36928288  0.74919703  1
  V  V33  1  0.25145963  0.37164131  0.62547113  1
  V  V34  1  0.75181109  0.49865821  0.73802211  1
  V  V35  1  -0.00685415  0.62720852  0.62628005  1
  V  V36  1  0.00609866  0.12050048  0.12704095  1
  V  V37  1  0.37798977  0.13019262  0.24969828  1
  V  V38  1  0.75208003  0.01709954  0.25372757  1
  V  V39  1  0.74892368  0.37818846  0.12448644  1
  V  V40  1  -0.00904827  0.75261942  0.74981667  1
  V  V41  1  0.11722352  0.24720094  0.87515064  1
  V  V42  1  0.37177544  0.62684231  0.25267522  1
  V  V43  1  0.24833775  0.62341457  0.87866856  1
  V  V44  1  0.25402478  0.24877253  0.50187290  1
  V  V45  1  0.12500743  -0.00050024  0.63352728  1
  V  V46  1  0.50479811  0.12888738  0.12770701  1
  V  V47  1  0.50197374  0.36621161  0.88003679  1
  V  V48  1  0.75388011  0.75526955  0.51819750  1
  V  V49  1  0.00169642  0.87730883  0.87058096  1
  V  V50  1  0.37416345  0.49166631  0.88324041  1
  V  V51  1  0.62988704  0.24429107  0.36598669  1
  V  V52  1  0.23632601  0.87806719  0.12705036  1
  V  V53  1  0.62778723  0.62134416  0.50274936  1
  V  V54  1  0.12702377  0.12555851  0.49980136  1
  V  V55  1  0.37402430  0.12947648  0.74576882  1
  V  V56  1  0.00103078  0.74947571  0.23756348  1
  V  V57  1  0.74904211  0.24563857  -0.01409838  1
  V  V58  1  0.50083923  0.36885986  0.36766317  1
  V  V59  1  0.62313329  0.37776464  0.74522156  1
  V  V60  1  0.87449503  0.50598814  0.37189343  1
  V  V61  1  0.50495735  0.74801063  0.75474734  1
  V  V62  1  0.87930539  0.38350519  -0.00443891  1
  V  V63  1  0.12519643  0.62736087  0.49385968  1
  V  V64  1  0.62753192  -0.00408456  0.12953611  1
  V  V65  1  0.24823672  0.74774270  0.00132574  1
  V  V66  1  0.37983534  0.25440249  0.12473050  1
  V  V67  1  -0.00247497  0.87721670  0.36829458  1
  V  V68  1  0.12542369  0.50052267  0.62414086  1
  V  V69  1  0.87274515  0.24307753  0.12498224  1
  V  V70  1  0.63021738  0.75184735  0.37392650  1
  V  V71  1  0.87226551  0.01427421  0.37276514  1
  V  V72  1  0.75217825  0.00086031  0.74050509  1
  V  V73  1  0.37443711  0.75268097  0.12712839  1
  V  V74  1  0.37553408  0.62212281  0.75140911  1
  V  V75  1  0.50457950  0.75208283  0.24977508  1
  V  V76  1  0.00606945  -0.00131276  0.00295243  1
  V  V77  1  0.25180282  0.37615817  0.12019189  1
  V  V78  1  0.25365475  0.24909706  -0.00119866  1
  V  V79  1  0.74488664  0.76018550  -0.01756123  1
  V  V80  1  0.37505878  0.00144284  0.87496228  1
  V  V81  1  -0.00101490  0.38742981  0.87693457  1
  V  V82  1  0.74690271  0.60896711  0.87817976  1
  V  V83  1  -0.00094510  0.00079621  0.50076940  1
  V  V84  1  0.25031107  0.49748658  0.75100144  1
  Zn  Zn85  1  0.24815043  -0.00191350  0.75240324  1
  Zn  Zn86  1  0.87367169  0.62287856  0.75163909  1
  Zn  Zn87  1  0.50265389  -0.00004896  0.50019566  1
  Zn  Zn88  1  0.50268639  -0.00013777  0.00229484  1
  Zn  Zn89  1  0.12590302  0.25026525  0.37421631  1
  Zn  Zn90  1  0.75386520  0.62930408  0.37463708  1
  Zn  Zn91  1  0.12870054  0.12112136  0.00270820  1
  Zn  Zn92  1  0.87567131  0.87124753  0.00463522  1
  Zn  Zn93  1  0.75288646  0.24639301  0.49663048  1
  Zn  Zn94  1  0.24881847  0.12418865  0.87446945  1
  Zn  Zn95  1  0.62516201  0.50177226  0.12609883  1
  Zn  Zn96  1  0.25101326  0.12634313  0.37369747  1
  Zn  Zn97  1  0.10133094  0.62397750  -0.00013438  1
  Zn  Zn98  1  0.00058179  0.50274509  0.49935337  1
  Zn  Zn99  1  0.62919230  -0.00441971  0.61958885  1
  Zn  Zn100  1  0.74149111  0.37402983  0.61905903  1
  Zn  Zn101  1  0.74703718  0.50342180  0.24858672  1
  Zn  Zn102  1  0.86501489  0.87840311  0.50986145  1
  Zn  Zn103  1  0.62258303  0.62973127  -0.00049848  1
  Zn  Zn104  1  0.00310240  0.13209833  0.63159036  1
  Zn  Zn105  1  0.62365619  0.37623902  0.24754829  1
  Zn  Zn106  1  0.50129240  0.62489967  0.12362688  1
  Zn  Zn107  1  0.18698887  0.18782150  0.18887874  1
  Zn  Zn108  1  0.18987317  0.18798980  0.68735481  1
  Zn  Zn109  1  0.18602882  0.68716868  0.18893545  1
  Zn  Zn110  1  0.18303722  0.68683626  0.68660579  1
  Zn  Zn111  1  0.68753079  0.19063661  0.18306613  1
  Zn  Zn112  1  0.69219683  0.18664453  0.68684628  1
  Zn  Zn113  1  0.68571340  0.68403391  0.18522834  1
  Zn  Zn114  1  0.68363213  0.68322394  0.69047444  1
  Zn  Zn115  1  0.31249558  0.31407088  0.31390276  1
  Zn  Zn116  1  0.31393722  0.30902518  0.81188938  1
  Zn  Zn117  1  0.31087045  0.81556303  0.31259831  1
  Zn  Zn118  1  0.31573303  0.81189495  0.81306031  1
  Zn  Zn119  1  0.81102420  0.31158885  0.31033361  1
  Zn  Zn120  1  0.81276353  0.31629981  0.81158891  1
  Zn  Zn121  1  0.81796907  0.81660773  0.31551578  1
  Zn  Zn122  1  0.81423661  0.81559773  0.81316104  1
  Zn  Zn123  1  0.18727466  0.43762233  0.43657249  1
  Zn  Zn124  1  0.18588757  0.43459621  0.93960939  1
  Zn  Zn125  1  0.18638343  0.93509970  0.43856176  1
  Zn  Zn126  1  0.18769738  0.93521137  0.93796357  1
  Zn  Zn127  1  0.68862916  0.43625345  0.43229075  1
  Zn  Zn128  1  0.68347903  0.43170191  0.93603069  1
  Zn  Zn129  1  0.68910566  0.93694346  0.43559739  1
  Zn  Zn130  1  0.68511791  0.93990795  0.93636638  1
  Zn  Zn131  1  0.31302068  0.06322152  0.06354316  1
  Zn  Zn132  1  0.31359683  0.06133574  0.56383001  1
  Zn  Zn133  1  0.31255601  0.56376673  0.06472777  1
  Zn  Zn134  1  0.31202206  0.56205871  0.56195913  1
  Zn  Zn135  1  0.81448219  0.06187299  0.06437709  1
  Zn  Zn136  1  0.81626648  0.06501944  0.56544285  1
  Zn  Zn137  1  0.81747220  0.56618800  0.05684442  1
  Zn  Zn138  1  0.81285492  0.56360559  0.56002672  1
  Zn  Zn139  1  0.43616343  0.43755787  0.18721642  1
  Zn  Zn140  1  0.43826482  0.43444304  0.68876149  1
  Zn  Zn141  1  0.43672052  0.93882349  0.18849901  1
  Zn  Zn142  1  0.43864252  0.93921691  0.68747955  1
  Zn  Zn143  1  0.93174924  0.43578468  0.18639443  1
  Zn  Zn144  1  0.93685039  0.43944218  0.68835586  1
  Zn  Zn145  1  0.93384394  0.93835745  0.18857676  1
  Zn  Zn146  1  0.93556902  0.93959526  0.68856028  1
  Zn  Zn147  1  0.06159149  0.06625700  0.31454715  1
  Zn  Zn148  1  0.05812462  0.06505555  0.81501838  1
  Zn  Zn149  1  0.05995710  0.56711158  0.30954918  1
  Zn  Zn150  1  0.06309909  0.56542433  0.81344241  1
  Zn  Zn151  1  0.56417752  0.06318358  0.31006320  1
  Zn  Zn152  1  0.56260695  0.05680669  0.81050439  1
  Zn  Zn153  1  0.56312443  0.56271237  0.31319063  1
  Zn  Zn154  1  0.56771979  0.55872411  0.81665761  1
  Zn  Zn155  1  0.44171522  0.18779052  0.43740035  1
  Zn  Zn156  1  0.43822452  0.18596392  0.94015288  1
  Zn  Zn157  1  0.43927049  0.68585131  0.43689835  1
  Zn  Zn158  1  0.43611670  0.68505990  0.93780552  1
  Zn  Zn159  1  0.93875345  0.18954219  0.44077543  1
  Zn  Zn160  1  0.93775026  0.18725259  0.93932312  1
  Zn  Zn161  1  0.93795675  0.69042904  0.43696661  1
  Zn  Zn162  1  0.92551562  0.68336247  0.94264597  1
  Zn  Zn163  1  0.06332235  0.31277154  0.06230310  1
  Zn  Zn164  1  0.06049413  0.31197015  0.56110615  1
  Zn  Zn165  1  0.06226874  0.81032645  0.05456032  1
  Zn  Zn166  1  0.03104727  0.83154768  0.58017207  1
  Zn  Zn167  1  0.56538751  0.31206552  0.06054147  1
  Zn  Zn168  1  0.56259762  0.30502543  0.56238402  1
  Zn  Zn169  1  0.56801856  0.81319947  0.06536387  1
  Zn  Zn170  1  0.56286347  0.81015112  0.56245679  1
  O  O171  1  0.11077021  0.13058661  0.12330330  1
  O  O172  1  0.12536205  0.12036233  0.61571667  1
  O  O173  1  0.12990725  0.61019901  0.12364028  1
  O  O174  1  0.12215227  0.61722122  0.61457037  1
  O  O175  1  0.61949789  0.11880130  0.12045633  1
  O  O176  1  0.62002295  0.12305360  0.61603142  1
  O  O177  1  0.61895059  0.61973849  0.12050147  1
  O  O178  1  0.61710063  0.62802586  0.61141904  1
  O  O179  1  0.38179750  0.38274504  0.38315755  1
  O  O180  1  0.38504797  0.38335760  0.86721894  1
  O  O181  1  0.38278428  0.88137043  0.37976591  1
  O  O182  1  0.38337502  0.88043854  0.88067331  1
  O  O183  1  0.88322416  0.38096347  0.37837890  1
  O  O184  1  0.88436551  0.36769438  0.88651621  1
  O  O185  1  0.88425288  0.88445155  0.38364949  1
  O  O186  1  0.88371190  0.88459672  0.87797984  1
  O  O187  1  0.25787692  -0.00138993  0.36495312  1
  O  O188  1  0.26200090  -0.00248104  0.87324460  1
  O  O189  1  0.25824008  0.49219703  0.36174462  1
  O  O190  1  0.25623559  0.50145732  0.87233520  1
  O  O191  1  0.75570135  -0.00340572  0.36159937  1
  O  O192  1  0.76210361  -0.00432826  0.86804574  1
  O  O193  1  0.76388588  0.50209726  0.37217167  1
  O  O194  1  0.74804328  0.50564504  0.86908654  1
  O  O195  1  0.24975540  0.49252982  0.13573049  1
  O  O196  1  0.24459368  0.49268001  0.62926710  1
  O  O197  1  0.25444303  0.99430675  0.13791093  1
  O  O198  1  0.24262066  0.99022055  0.62432344  1
  O  O199  1  0.75315955  0.48760787  0.12050219  1
  O  O200  1  0.74902363  0.49823627  0.63432708  1
  O  O201  1  0.74659402  0.99599800  0.13609801  1
  O  O202  1  0.75315136  0.99641786  0.63604802  1
  O  O203  1  0.00161865  0.36702525  0.25531922  1
  O  O204  1  0.01097619  0.37735927  0.75633354  1
  O  O205  1  -0.00656141  0.86469292  0.25868397  1
  O  O206  1  0.00062251  0.86958458  0.76287884  1
  O  O207  1  0.49811291  0.37879104  0.26454960  1
  O  O208  1  0.50433687  0.36563226  0.75464041  1
  O  O209  1  0.49237059  0.86413629  0.26017790  1
  O  O210  1  0.50230426  0.86612152  0.75700120  1
  O  O211  1  0.49240208  0.12179312  0.23740136  1
  O  O212  1  0.49720693  0.12909980  0.74501060  1
  O  O213  1  0.48781203  0.63270331  0.25232634  1
  O  O214  1  0.49783447  0.62876221  0.74843669  1
  O  O215  1  1.00276015  0.13692859  0.24477736  1
  O  O216  1  0.98325824  0.12124232  0.74837691  1
  O  O217  1  0.98959252  0.63902581  0.25112788  1
  O  O218  1  0.99676793  0.63142020  0.74557946  1
  O  O219  1  0.36354652  0.24567048  0.01002402  1
  O  O220  1  0.36875708  0.25957653  0.49482410  1
  O  O221  1  0.36840548  0.75525831  0.00571477  1
  O  O222  1  0.36801176  0.75177277  0.50371313  1
  O  O223  1  0.86455885  0.25371990  0.00524417  1
  O  O224  1  0.87285254  0.25944388  0.50455597  1
  O  O225  1  0.85095857  0.75498578  -0.00318585  1
  O  O226  1  0.85506725  0.74870975  0.49388443  1
  O  O227  1  0.13176547  0.24290766  0.49873570  1
  O  O228  1  0.13641528  0.25080590  0.99379669  1
  O  O229  1  0.13213009  0.74434463  0.49156339  1
  O  O230  1  0.13179752  0.74428737  0.98965666  1
  O  O231  1  0.62864198  0.24191826  0.49072177  1
  O  O232  1  0.64053951  0.24244191  1.00387945  1
  O  O233  1  0.63354819  0.74355832  0.49454319  1
  O  O234  1  0.64053269  0.74814297  1.00555589  1
  O  O235  1  0.49112317  0.24369139  0.12042943  1
  O  O236  1  0.50096570  0.23566714  0.63442038  1
  O  O237  1  0.49430000  0.75261099  0.13494440  1
  O  O238  1  0.49260785  0.74212267  0.63168945  1
  O  O239  1  0.99354076  0.24582504  0.13097511  1
  O  O240  1  0.98539995  0.24993419  0.62053587  1
  O  O241  1  1.00408897  0.75821064  0.13913476  1
  O  O242  1  1.02121410  0.73550470  0.64142219  1
  O  O243  1  -0.00017163  0.25771277  0.36734114  1
  O  O244  1  0.01388665  0.25817662  0.88252102  1
  O  O245  1  0.00635434  0.76040851  0.37161898  1
  O  O246  1  0.00522820  0.75717176  0.86878613  1
  O  O247  1  0.51184877  0.25933385  0.37971325  1
  O  O248  1  0.49457776  0.25740948  0.86835654  1
  O  O249  1  0.50765345  0.75580977  0.37120424  1
  O  O250  1  0.49294214  0.75734774  0.86590787  1
  O  O251  1  0.24639238  0.13227392  0.49913777  1
  O  O252  1  0.24771442  0.13325405  0.99887473  1
  O  O253  1  0.24324308  0.63709968  0.50432283  1
  O  O254  1  0.25214188  0.63184153  0.99261933  1
  O  O255  1  0.73875018  0.12419191  0.50250335  1
  O  O256  1  0.74464141  0.13743962  1.00569089  1
  O  O257  1  0.74297787  0.63391782  0.49771244  1
  O  O258  1  0.74849467  0.63142607  0.98799662  1
  O  O259  1  0.24914650  0.36891843  0.01368548  1
  O  O260  1  0.25733857  0.36965930  0.50359478  1
  O  O261  1  0.25605635  0.86899879  0.00774470  1
  O  O262  1  0.25464873  0.86456868  0.50819653  1
  O  O263  1  0.75710219  0.36390731  0.00159487  1
  O  O264  1  0.76249502  0.37657056  0.49963565  1
  O  O265  1  0.74718349  0.86837319  0.00435237  1
  O  O266  1  0.74671978  0.86075247  0.50303224  1
  O  O267  1  0.13241722  0.49796693  0.24465062  1
  O  O268  1  0.13244926  0.49229178  0.74503485  1
  O  O269  1  0.14017977  1.00503261  0.25434590  1
  O  O270  1  0.12640312  1.00773747  0.73739858  1
  O  O271  1  0.62800519  0.49684595  0.24794702  1
  O  O272  1  0.63575814  0.49045238  0.75100005  1
  O  O273  1  0.63942193  1.00456909  0.24409872  1
  O  O274  1  0.63511346  0.99274860  0.74768931  1
  O  O275  1  0.36995582  0.00947116  0.25798637  1
  O  O276  1  0.37517525  0.00897204  0.75814221  1
  O  O277  1  0.37003935  0.50667900  0.25677114  1
  O  O278  1  0.37045815  0.50317777  0.75852756  1
  O  O279  1  0.86193156  -0.00035044  0.25784820  1
  O  O280  1  0.86927267  0.00463798  0.75703816  1
  O  O281  1  0.87627137  0.51381567  0.25387735  1
  O  O282  1  0.85730558  0.49913077  0.74916973  1
  O  O283  1  0.11179250  0.37680675  0.36984772  1
  O  O284  1  0.11951124  0.36949520  0.86864831  1
  O  O285  1  0.12016589  0.86428095  0.37312906  1
  O  O286  1  0.11681242  0.86514636  0.87957166  1
  O  O287  1  0.61711600  0.36413749  0.37439727  1
  O  O288  1  0.61198093  0.37565001  0.86203044  1
  O  O289  1  0.61236382  0.86786218  0.37932497  1
  O  O290  1  0.61057914  0.88221316  0.86524621  1
  O  O291  1  0.38266133  0.13245111  0.13079981  1
  O  O292  1  0.38389860  0.11909741  0.63419711  1
  O  O293  1  0.37796744  0.63314035  0.13483004  1
  O  O294  1  0.38017122  0.62866286  0.63145863  1
  O  O295  1  0.88502803  0.13757890  0.12033568  1
  O  O296  1  0.87795958  0.13500105  0.63298092  1
  O  O297  1  0.87202519  0.62629152  0.13724568  1
  O  O298  1  0.88926032  0.62153115  0.62637585  1
  O  O299  1  0.25513148  0.25638238  0.11975267  1
  O  O300  1  0.24716026  0.25685049  0.61152119  1
  O  O301  1  0.25459211  0.75733219  0.12354692  1
  O  O302  1  0.25322844  0.75477411  0.61911321  1
  O  O303  1  0.75764008  0.25942819  0.11951672  1
  O  O304  1  0.76200178  0.25460774  0.62049313  1
  O  O305  1  0.74450374  0.76536685  0.12504326  1
  O  O306  1  0.74853668  0.74636755  0.61698607  1
  O  O307  1  0.24760260  0.25058855  0.38693986  1
  O  O308  1  0.24346083  0.25158168  0.88468703  1
  O  O309  1  0.24159206  0.75542901  0.38287692  1
  O  O310  1  0.24481791  0.74516374  0.87872599  1
  O  O311  1  0.73477242  0.25448013  0.37671789  1
  O  O312  1  0.75183923  0.25053961  0.88744555  1
  O  O313  1  0.73714376  0.75329472  0.37405139  1
  O  O314  1  0.74144763  0.75316907  0.88091122  1
  O  O315  1  0.00233132  0.11740584  0.00853673  1
  O  O316  1  0.00946520  0.11636132  0.50017422  1
  O  O317  1  -0.00922842  0.62053603  0.00026110  1
  O  O318  1  0.00779954  0.62732383  0.50839152  1
  O  O319  1  0.50753059  0.12372538  0.01199185  1
  O  O320  1  0.50804516  0.12396074  0.50766881  1
  O  O321  1  0.50079287  0.61397667  -0.00099894  1
  O  O322  1  0.50624505  0.61606221  0.50381185  1
  O  O323  1  0.49444115  0.37893837  0.49610787  1
  O  O324  1  0.50318173  0.37922968  0.98866342  1
  O  O325  1  0.49254827  0.87485379  0.49239797  1
  O  O326  1  0.49666983  0.87480126  0.99347204  1
  O  O327  1  0.99135488  0.37763325  0.49032375  1
  O  O328  1  0.98721986  0.37063361  0.99472136  1
  O  O329  1  1.01430941  0.89397840  0.48200141  1
  O  O330  1  0.99597830  0.88052893  0.99158887  1
  O  O331  1  0.49311913  0.49276580  0.38631312  1
  O  O332  1  0.49301006  0.49202694  0.88244618  1
  O  O333  1  0.49347675  0.99202139  0.37273238  1
  O  O334  1  0.48928745  0.99089234  0.87651312  1
  O  O335  1  0.99069329  0.49365619  0.37300130  1
  O  O336  1  1.00515726  0.48690587  0.87295394  1
  O  O337  1  0.99291219  0.99669284  0.37614436  1
  O  O338  1  0.99312274  0.99344653  0.88150135  1
  O  O339  1  -0.00724397  0.00843245  0.11819676  1
  O  O340  1  0.00955427  0.00655220  0.61593891  1
  O  O341  1  0.01512035  0.49400833  0.13143117  1
  O  O342  1  0.00902976  0.50836373  0.62491270  1
  O  O343  1  0.51010096  0.00573469  0.12606457  1
  O  O344  1  0.50338627  0.01119234  0.62359261  1
  O  O345  1  0.49462640  0.49688725  0.10985786  1
  O  O346  1  0.49408575  0.50352072  0.61180197  1
  O  O347  1  0.24504489  0.38098569  0.24191015  1
  O  O348  1  0.24334635  0.37778026  0.74453486  1
  O  O349  1  0.25542145  0.88937833  0.24226579  1
  O  O350  1  0.25547323  0.87449409  0.73542724  1
  O  O351  1  0.75124912  0.37916290  0.23821268  1
  O  O352  1  0.74218055  0.38467791  0.74934799  1
  O  O353  1  0.75179888  0.87994724  0.24150635  1
  O  O354  1  0.74025530  0.88233547  0.75504687  1
  O  O355  1  0.25748007  0.11517671  0.25010827  1
  O  O356  1  0.26027465  0.12259080  0.75185037  1
  O  O357  1  0.26222618  0.61817564  0.24833316  1
  O  O358  1  0.25403325  0.61779389  0.75663092  1
  O  O359  1  0.75183555  0.11589833  0.24595596  1
  O  O360  1  0.76182915  0.11467604  0.74806465  1
  O  O361  1  0.76340381  0.62731257  0.25332436  1
  O  O362  1  0.74628249  0.61152890  0.75543077  1
  O  O363  1  0.37611519  0.11855502  0.36727553  1
  O  O364  1  0.37526229  0.11596074  0.86948987  1
  O  O365  1  0.37787851  0.61140896  0.37117879  1
  O  O366  1  0.36736220  0.61599717  0.86900329  1
  O  O367  1  0.87811416  0.11401082  0.37933561  1
  O  O368  1  0.87943744  0.11623177  0.86939239  1
  O  O369  1  0.87644614  0.61861987  0.36860022  1
  O  O370  1  0.84939825  0.63613180  0.86639562  1
  O  O371  1  0.13279901  0.38318377  0.13004789  1
  O  O372  1  0.12765729  0.37928950  0.63152601  1
  O  O373  1  0.13724890  0.87191134  0.11973152  1
  O  O374  1  0.13135185  0.88595331  0.61876128  1
  O  O375  1  0.63452113  0.37621969  0.12655399  1
  O  O376  1  0.62284820  0.36840692  0.63835746  1
  O  O377  1  0.63714451  0.88922716  0.12300862  1
  O  O378  1  0.61540851  0.87720468  0.63997228  1
  O  O379  1  0.11718391  0.25842907  0.25201999  1
  O  O380  1  0.13141163  0.25892652  0.75967616  1
  O  O381  1  0.11147148  0.74112325  0.25909885  1
  O  O382  1  0.11971185  0.74374594  0.76482727  1
  O  O383  1  0.62611467  0.25117579  0.26202111  1
  O  O384  1  0.61453006  0.25219813  0.74968642  1
  O  O385  1  0.61243242  0.74287548  0.25886345  1
  O  O386  1  0.61262582  0.75554419  0.74711739  1
  O  O387  1  0.36778084  0.23740899  0.24352803  1
  O  O388  1  0.38576005  0.23609052  0.75425911  1
  O  O389  1  0.38046530  0.74343564  0.25018163  1
  O  O390  1  0.38409093  0.74273782  0.74524748  1
  O  O391  1  0.88367621  0.25582358  0.23942504  1
  O  O392  1  0.86965792  0.24340024  0.74372077  1
  O  O393  1  0.88632328  0.74056291  0.25541358  1
  O  O394  1  0.88746314  0.75009284  0.75032066  1
  O  O395  1  0.37927903  0.49344148  0.49301604  1
  O  O396  1  0.37867281  0.50266500  0.98828568  1
  O  O397  1  0.37517345  0.99622626  0.48637348  1
  O  O398  1  0.37815260  0.99430888  0.99354773  1
  O  O399  1  0.87880925  0.49492930  0.49145491  1
  O  O400  1  0.86932627  0.48166684  0.99829594  1
  O  O401  1  0.88370505  1.00011075  0.49493716  1
  O  O402  1  0.88300654  0.99977519  0.99287742  1
  O  O403  1  0.11099598  0.00075509  -0.00468647  1
  O  O404  1  0.12324532  0.00929207  0.50620258  1
  O  O405  1  0.13003059  0.50045879  0.01533921  1
  O  O406  1  0.12454460  0.50842229  0.50356950  1
  O  O407  1  0.62679758  0.00904886  0.01043141  1
  O  O408  1  0.62320273  0.00776342  0.49881399  1
  O  O409  1  0.61474054  0.50036227  -0.00039367  1
  O  O410  1  0.61731415  0.50707560  0.49322626  1
  O  O411  1  0.36756953  0.36182325  0.13290334  1
  O  O412  1  0.37006860  0.37866541  0.61282209  1
  O  O413  1  0.36965618  0.87069861  0.11960026  1
  O  O414  1  0.36907234  0.86957125  0.61880076  1
  O  O415  1  0.87153446  0.36578393  0.11255066  1
  O  O416  1  0.87527907  0.37155788  0.61621305  1
  O  O417  1  0.85724186  0.88056059  0.12215769  1
  O  O418  1  0.92119496  0.86564876  0.60742979  1
  O  O419  1  0.12907655  0.12700305  0.38759221  1
  O  O420  1  0.12777926  0.13337090  0.87696093  1
  O  O421  1  0.11795550  0.63348144  0.38727175  1
  O  O422  1  0.13447414  0.62923083  0.87878616  1
  O  O423  1  0.61723903  0.13777452  0.38124527  1
  O  O424  1  0.61764318  0.11799510  0.89042969  1
  O  O425  1  0.62468770  0.63408996  0.38648452  1
  O  O426  1  0.64105683  0.62546716  0.87597643  1
