# generated using pymatgen
data_V85Zn86O256
_symmetry_space_group_name_H-M   'P 1'
_cell_length_a   16.99109713
_cell_length_b   16.97200127
_cell_length_c   16.99989960
_cell_angle_alpha   90.00500839
_cell_angle_beta   90.01314014
_cell_angle_gamma   90.10764703
_symmetry_Int_Tables_number   1
_chemical_formula_structural   V85Zn86O256
_chemical_formula_sum   'V85 Zn86 O256'
_cell_volume   4902.30192293
_cell_formula_units_Z   1
loop_
 _symmetry_equiv_pos_site_id
 _symmetry_equiv_pos_as_xyz
  1  'x, y, z'
loop_
 _atom_site_type_symbol
 _atom_site_label
 _atom_site_symmetry_multiplicity
 _atom_site_fract_x
 _atom_site_fract_y
 _atom_site_fract_z
 _atom_site_occupancy
  V  V0  1  -0.00689753  0.88193322  0.36928068  1
  V  V1  1  0.12760546  0.62855149  0.50041432  1
  V  V2  1  0.61751485  -0.00011394  0.62630970  1
  V  V3  1  0.50003169  0.62690805  0.11765451  1
  V  V4  1  0.00554852  0.37833276  0.37786012  1
  V  V5  1  0.49508022  0.50081762  -0.00509871  1
  V  V6  1  0.00702163  0.50061504  -0.00179362  1
  V  V7  1  0.13359155  0.37849487  0.25385021  1
  V  V8  1  0.00422685  0.62383349  0.12062778  1
  V  V9  1  0.87436708  0.62426917  0.25010168  1
  V  V10  1  0.49695141  0.75066756  0.24846461  1
  V  V11  1  0.74251799  0.63142759  0.88507223  1
  V  V12  1  0.75080757  0.00066376  0.75154001  1
  V  V13  1  0.62178683  0.87216891  0.75254868  1
  V  V14  1  0.12643147  0.50316006  0.62843340  1
  V  V15  1  0.49369301  -0.00044169  -0.00153396  1
  V  V16  1  0.75054404  0.50086318  0.75095204  1
  V  V17  1  -0.00197011  0.36702558  0.87368748  1
  V  V18  1  0.62209384  0.37286986  0.75093066  1
  V  V19  1  0.13532446  0.87703051  0.23980809  1
  V  V20  1  0.87511836  -0.00236212  0.87700988  1
  V  V21  1  0.49473255  0.74523600  0.75288911  1
  V  V22  1  0.74994608  0.37535935  0.12393082  1
  V  V23  1  0.25020657  0.76769465  0.00043956  1
  V  V24  1  0.75106714  0.24992296  0.00021021  1
  V  V25  1  -0.00064182  -0.00010125  0.00511009  1
  V  V26  1  0.49720696  0.12859992  0.12869035  1
  V  V27  1  0.11858545  0.74599109  0.87863910  1
  V  V28  1  0.61962784  0.24934082  0.87308155  1
  V  V29  1  0.37536600  0.76678609  0.62417122  1
  V  V30  1  0.37009506  0.49969369  0.36953316  1
  V  V31  1  0.12597147  0.75097454  0.37287825  1
  V  V32  1  0.87689036  0.50064867  0.87531577  1
  V  V33  1  0.24762006  0.36794566  0.11945346  1
  V  V34  1  0.13096896  0.25089635  0.88457884  1
  V  V35  1  0.00454994  0.25032918  0.24821282  1
  V  V36  1  0.87611834  0.87155635  -0.00298292  1
  V  V37  1  0.74859589  0.50263855  0.24919730  1
  V  V38  1  0.49347326  0.87469840  0.38598082  1
  V  V39  1  0.05820597  0.19106941  0.70236819  1
  V  V40  1  0.74883143  0.62667833  0.37387260  1
  V  V41  1  0.26202357  0.51035406  0.75119718  1
  V  V42  1  0.74914353  -0.00061374  0.25023498  1
  V  V43  1  0.75340794  0.12519269  0.87348130  1
  V  V44  1  0.62306917  0.74924448  0.37455008  1
  V  V45  1  0.37050412  0.36894613  -0.00235146  1
  V  V46  1  0.12150047  0.37748683  0.75264441  1
  V  V47  1  0.36519037  0.13493915  0.74632725  1
  V  V48  1  0.87454277  0.49880783  0.37993974  1
  V  V49  1  0.92598678  0.92978052  0.54948966  1
  V  V50  1  0.37398628  0.37199676  0.50429440  1
  V  V51  1  0.62163339  0.87184068  0.24967945  1
  V  V52  1  0.74543266  0.86969748  0.11861933  1
  V  V53  1  0.49062576  0.87598192  0.87758265  1
  V  V54  1  0.50090513  0.14827987  0.63484034  1
  V  V55  1  0.25134571  0.36515535  0.62852016  1
  V  V56  1  0.25993292  0.62091046  0.88579781  1
  V  V57  1  0.48745218  0.62247663  0.63001645  1
  V  V58  1  0.00371245  0.63038885  0.62665875  1
  V  V59  1  0.25959212  0.75904135  0.50088984  1
  V  V60  1  0.87533573  0.62715745  0.75078438  1
  V  V61  1  0.63207641  0.25222054  0.37763584  1
  V  V62  1  0.62318226  0.50465696  0.11806113  1
  V  V63  1  0.86882006  0.74685497  0.11967128  1
  V  V64  1  0.13347855  0.50366605  0.12701871  1
  V  V65  1  0.25991872  0.13298304  0.36230649  1
  V  V66  1  0.62555421  0.50341764  0.62483607  1
  V  V67  1  0.86558637  0.23817337  0.63671002  1
  V  V68  1  0.00050920  0.75082798  0.24736041  1
  V  V69  1  0.37613885  0.00386168  0.37492740  1
  V  V70  1  0.62625808  0.13027249  0.50085411  1
  V  V71  1  0.25080821  0.62391271  0.37258843  1
  V  V72  1  0.87414554  0.12550995  0.25056776  1
  V  V73  1  0.49817309  0.50194228  0.49973592  1
  V  V74  1  0.74919286  0.75673876  0.49973806  1
  V  V75  1  0.37063241  0.76369186  0.12007443  1
  V  V76  1  0.49912509  0.37558355  0.37391255  1
  V  V77  1  0.36804641  0.62188089  0.24423384  1
  V  V78  1  0.13576186  0.87858523  0.75220099  1
  V  V79  1  0.49248752  0.37609599  0.87186343  1
  V  V80  1  0.25328971  0.24445368  0.49778022  1
  V  V81  1  0.87560564  0.74699119  0.61933247  1
  V  V82  1  0.07913887  0.19348017  0.42908746  1
  V  V83  1  0.62113527  0.37355332  0.24726345  1
  V  V84  1  0.25477320  0.12523965  0.88936412  1
  Zn  Zn85  1  0.26268238  0.00494293  0.23984429  1
  Zn  Zn86  1  0.00090130  0.50150301  0.50281260  1
  Zn  Zn87  1  0.74922522  0.87646962  0.62316058  1
  Zn  Zn88  1  0.62559623  0.12093921  0.00028792  1
  Zn  Zn89  1  0.12546074  0.12974476  0.00613459  1
  Zn  Zn90  1  0.87544667  0.37483716  0.00105333  1
  Zn  Zn91  1  0.62196958  0.74846684  0.88804265  1
  Zn  Zn92  1  0.75247910  0.37159774  0.61751868  1
  Zn  Zn93  1  0.49264678  0.23953606  0.25630843  1
  Zn  Zn94  1  0.62303106  0.00031885  0.12251550  1
  Zn  Zn95  1  0.00012041  0.75721024  0.75373457  1
  Zn  Zn96  1  0.36694864  0.24398552  0.12894421  1
  Zn  Zn97  1  0.86962599  0.36493569  0.50248238  1
  Zn  Zn98  1  0.00033032  0.12548030  0.12382650  1
  Zn  Zn99  1  0.49636488  0.00009679  0.50430625  1
  Zn  Zn100  1  0.74552194  0.12411244  0.37566493  1
  Zn  Zn101  1  0.21346320  0.92356642  0.58810578  1
  Zn  Zn102  1  0.13815755  -0.00057477  0.11649295  1
  Zn  Zn103  1  0.87073327  -0.00535090  0.37827191  1
  Zn  Zn104  1  0.87409359  0.25136439  0.12647990  1
  Zn  Zn105  1  0.36630685  -0.00325734  0.87015939  1
  Zn  Zn106  1  0.62359869  0.62520665  0.50007500  1
  Zn  Zn107  1  0.18164341  0.18718590  0.18524446  1
  Zn  Zn108  1  0.19415454  0.05863489  0.69687655  1
  Zn  Zn109  1  0.18862597  0.69041750  0.18309906  1
  Zn  Zn110  1  0.19145138  0.69537904  0.68996001  1
  Zn  Zn111  1  0.68200453  0.18638806  0.18603720  1
  Zn  Zn112  1  0.68767297  0.18637880  0.69062213  1
  Zn  Zn113  1  0.68561940  0.68668455  0.06272178  1
  Zn  Zn114  1  0.68521502  0.68662867  0.69002080  1
  Zn  Zn115  1  0.31366242  0.31092273  0.31006172  1
  Zn  Zn116  1  0.31113182  0.30704134  0.80917384  1
  Zn  Zn117  1  0.31560779  0.81159986  0.31373057  1
  Zn  Zn118  1  0.31327704  0.80500108  0.81296828  1
  Zn  Zn119  1  0.81375349  0.31484889  0.31333805  1
  Zn  Zn120  1  0.81311202  0.31230602  0.80712870  1
  Zn  Zn121  1  0.81080637  0.81118904  0.30687630  1
  Zn  Zn122  1  0.81186488  0.81335432  0.80933900  1
  Zn  Zn123  1  0.18895364  0.43962002  0.44058611  1
  Zn  Zn124  1  0.18820373  0.44221123  0.93704854  1
  Zn  Zn125  1  0.18517114  0.94506677  0.42228675  1
  Zn  Zn126  1  0.18392015  0.93816666  0.93017384  1
  Zn  Zn127  1  0.68776425  0.43684948  0.43869344  1
  Zn  Zn128  1  0.68558757  0.43805031  0.93697689  1
  Zn  Zn129  1  0.68205255  0.93892415  0.43782398  1
  Zn  Zn130  1  0.68182849  0.93480859  0.93855440  1
  Zn  Zn131  1  0.31628782  0.05759205  0.06274405  1
  Zn  Zn132  1  0.32444477  0.06980646  0.55818771  1
  Zn  Zn133  1  0.31563585  0.55829743  0.06038172  1
  Zn  Zn134  1  0.31001188  0.56150090  0.56156166  1
  Zn  Zn135  1  0.81127377  0.06216591  0.06579800  1
  Zn  Zn136  1  0.80252271  0.07029580  0.56971705  1
  Zn  Zn137  1  0.81801537  0.55680458  0.06110875  1
  Zn  Zn138  1  0.81046585  0.56309213  0.55979940  1
  Zn  Zn139  1  0.43380058  0.43391007  0.18596212  1
  Zn  Zn140  1  0.43761486  0.43273564  0.68725132  1
  Zn  Zn141  1  0.43786883  0.94330977  0.19013695  1
  Zn  Zn142  1  0.43118346  0.94611662  0.69366041  1
  Zn  Zn143  1  0.93885281  0.43675936  0.18954579  1
  Zn  Zn144  1  0.93682420  0.43528380  0.68567076  1
  Zn  Zn145  1  0.93499255  0.93598670  0.18616067  1
  Zn  Zn146  1  0.95830797  0.94991881  0.71797975  1
  Zn  Zn147  1  0.06181036  0.05714410  0.30580566  1
  Zn  Zn148  1  0.06605965  0.05651441  0.82856018  1
  Zn  Zn149  1  0.06247943  0.56212858  0.31004493  1
  Zn  Zn150  1  0.06780864  0.56754663  0.81368068  1
  Zn  Zn151  1  0.56171322  0.05932116  0.31203028  1
  Zn  Zn152  1  0.56111930  0.06298235  0.81245300  1
  Zn  Zn153  1  0.55972463  0.56372257  0.30687295  1
  Zn  Zn154  1  0.56128717  0.56166912  0.81258872  1
  Zn  Zn155  1  0.44142619  0.18801785  0.44030696  1
  Zn  Zn156  1  0.43785691  0.18801958  0.94153211  1
  Zn  Zn157  1  0.43752222  0.68584278  0.43882115  1
  Zn  Zn158  1  0.43298723  0.68944666  0.93828856  1
  Zn  Zn159  1  0.91040467  0.17622514  0.45099381  1
  Zn  Zn160  1  0.93508442  0.18487919  0.93592030  1
  Zn  Zn161  1  0.93997619  0.69040056  0.43837947  1
  Zn  Zn162  1  0.93445093  0.68406666  0.94049526  1
  Zn  Zn163  1  0.06030938  0.31557987  0.06421302  1
  Zn  Zn164  1  0.05786482  0.31615995  0.56605338  1
  Zn  Zn165  1  0.06084357  0.81086814  0.05720670  1
  Zn  Zn166  1  0.08127131  0.83816210  0.54762193  1
  Zn  Zn167  1  0.56243113  0.31174385  0.05846786  1
  Zn  Zn168  1  0.56959626  0.31860150  0.55869593  1
  Zn  Zn169  1  0.55591649  0.81688125  0.06074408  1
  Zn  Zn170  1  0.56326824  0.80945647  0.56564111  1
  O  O171  1  0.11831727  0.11936671  0.12197681  1
  O  O172  1  0.12227612  0.13687425  0.64928667  1
  O  O173  1  0.11462176  0.61686967  0.13236619  1
  O  O174  1  0.11919103  0.62558268  0.62313861  1
  O  O175  1  0.61528137  0.12004039  0.12025941  1
  O  O176  1  0.61807421  0.12134415  0.62064917  1
  O  O177  1  0.61409845  0.61576582  0.12423662  1
  O  O178  1  0.61678446  0.61359372  0.62665768  1
  O  O179  1  0.37947814  0.38449454  0.38066442  1
  O  O180  1  0.38609098  0.36829479  0.87858757  1
  O  O181  1  0.38678412  0.88102546  0.37088578  1
  O  O182  1  0.38739662  0.87794859  0.86539199  1
  O  O183  1  0.88421342  0.38269387  0.37687784  1
  O  O184  1  0.88329467  0.38291855  0.87335852  1
  O  O185  1  0.88437790  0.87514270  0.36509415  1
  O  O186  1  0.86242854  0.88149351  0.88788239  1
  O  O187  1  0.25840189  0.01254550  0.36911632  1
  O  O188  1  0.25008491  0.01937090  0.87883304  1
  O  O189  1  0.26337842  0.50642372  0.37888221  1
  O  O190  1  0.24495401  0.51189863  0.86377590  1
  O  O191  1  0.74768512  -0.00362470  0.36061170  1
  O  O192  1  0.75267945  0.00577427  0.87188590  1
  O  O193  1  0.75612797  0.50683202  0.36982827  1
  O  O194  1  0.75377355  0.50876409  0.86997878  1
  O  O195  1  0.23674823  0.49520357  0.12092965  1
  O  O196  1  0.24486626  0.49573928  0.63603993  1
  O  O197  1  0.25124967  0.99953244  0.12872628  1
  O  O198  1  0.26870479  1.00707151  0.63168660  1
  O  O199  1  0.74190668  0.49662445  0.12775641  1
  O  O200  1  0.74164322  0.50488048  0.63453851  1
  O  O201  1  0.74774919  0.99061476  0.13575081  1
  O  O202  1  0.73675994  0.99836915  0.63494386  1
  O  O203  1  0.00390567  0.36820400  0.26141774  1
  O  O204  1  0.01426222  0.38977683  0.76106902  1
  O  O205  1  0.00461238  0.86782799  0.25290433  1
  O  O206  1  0.02077285  0.86932892  0.75831557  1
  O  O207  1  0.51333407  0.38317415  0.25415742  1
  O  O208  1  0.51012243  0.38227869  0.75949495  1
  O  O209  1  0.50672947  0.87007522  0.25551692  1
  O  O210  1  0.50577481  0.86876088  0.75600700  1
  O  O211  1  0.50616568  0.12274756  0.23318277  1
  O  O212  1  0.50976741  0.13243255  0.73616858  1
  O  O213  1  0.49120998  0.63064742  0.23771537  1
  O  O214  1  0.50466042  0.63316999  0.74308869  1
  O  O215  1  0.99223595  0.13309525  0.25152157  1
  O  O216  1  1.00618691  0.12739685  0.75968257  1
  O  O217  1  0.99330721  0.62988979  0.24080846  1
  O  O218  1  0.99361708  0.62989599  0.74352184  1
  O  O219  1  0.38137263  0.26601164  0.00742821  1
  O  O220  1  0.36910628  0.26493948  0.49456876  1
  O  O221  1  0.36069887  0.74856683  0.00706581  1
  O  O222  1  0.37018058  0.74263439  0.51105326  1
  O  O223  1  0.86197455  0.25252162  0.00008975  1
  O  O224  1  0.88339255  0.25153896  0.52500645  1
  O  O225  1  0.87736432  0.75555336  0.01081781  1
  O  O226  1  0.86496787  0.74071485  0.51200319  1
  O  O227  1  0.13229057  0.25403521  0.49531388  1
  O  O228  1  0.11893099  0.25248449  0.98798082  1
  O  O229  1  0.13518696  0.74653413  0.49148595  1
  O  O230  1  0.13768973  0.75288062  0.99166355  1
  O  O231  1  0.62174225  0.24438460  0.48966210  1
  O  O232  1  0.63752486  0.25203476  0.98982155  1
  O  O233  1  0.63124599  0.74537415  0.49402811  1
  O  O234  1  0.62410517  0.75375922  1.00031681  1
  O  O235  1  0.50588896  0.23530312  0.12260509  1
  O  O236  1  0.50796684  0.24615205  0.62503210  1
  O  O237  1  0.49053153  0.74215462  0.12716279  1
  O  O238  1  0.49389026  0.74105798  0.63098655  1
  O  O239  1  0.99400118  0.25193749  0.13513424  1
  O  O240  1  1.00077602  0.24646376  0.63613020  1
  O  O241  1  0.99402337  0.74040938  0.12726588  1
  O  O242  1  0.99207250  0.73907432  0.62317403  1
  O  O243  1  0.01059439  0.25495844  0.37285760  1
  O  O244  1  0.00215506  0.26399064  0.88032770  1
  O  O245  1  0.00485552  0.75559124  0.36664848  1
  O  O246  1  0.01555068  0.73840194  0.87989200  1
  O  O247  1  0.50946190  0.25965701  0.37384090  1
  O  O248  1  0.51427675  0.25833525  0.88298294  1
  O  O249  1  0.50196622  0.75541460  0.36960686  1
  O  O250  1  0.49958021  0.75528026  0.86854411  1
  O  O251  1  0.25694756  0.14137291  0.49312582  1
  O  O252  1  0.25189812  0.12985421  0.99141463  1
  O  O253  1  0.24460935  0.62999682  0.49262646  1
  O  O254  1  0.25179311  0.62079757  0.98778870  1
  O  O255  1  0.73162057  0.12122856  0.49558898  1
  O  O256  1  0.74711590  0.13237668  0.99448020  1
  O  O257  1  0.74617330  0.63347593  0.49023342  1
  O  O258  1  0.75257205  0.62081609  0.98921713  1
  O  O259  1  0.25821758  0.38294640  0.00624945  1
  O  O260  1  0.25685766  0.37099998  0.50591437  1
  O  O261  1  0.25210784  0.86543143  -0.00664350  1
  O  O262  1  0.25982435  0.85932155  0.49196497  1
  O  O263  1  0.75115656  0.36922721  0.00529383  1
  O  O264  1  0.75609674  0.38277574  0.50393061  1
  O  O265  1  0.75619757  0.88104544  0.01383281  1
  O  O266  1  0.74233363  0.86068502  0.50083498  1
  O  O267  1  0.11596440  0.48980404  0.23804653  1
  O  O268  1  0.13407976  0.49503340  0.74594353  1
  O  O269  1  0.12703955  0.98396389  0.24692230  1
  O  O270  1  0.12496123  0.98654235  0.75808711  1
  O  O271  1  0.62920210  0.49565118  0.23854508  1
  O  O272  1  0.63151944  0.49437387  0.74450016  1
  O  O273  1  0.63030297  0.98741193  0.24856276  1
  O  O274  1  0.62928461  0.99156367  0.74596648  1
  O  O275  1  0.37694732  -0.00170196  0.26674853  1
  O  O276  1  0.39291863  0.02878496  0.76078892  1
  O  O277  1  0.38045037  0.50883995  0.25839547  1
  O  O278  1  0.35938054  0.49415634  0.74820735  1
  O  O279  1  0.86625809  0.00733823  0.25016275  1
  O  O280  1  0.86391135  -0.00907374  0.76440286  1
  O  O281  1  0.87061217  0.50298221  0.26087395  1
  O  O282  1  0.86721810  0.50596161  0.75565369  1
  O  O283  1  0.11773396  0.38738383  0.36593106  1
  O  O284  1  0.12144010  0.37109655  0.86997538  1
  O  O285  1  0.11546044  0.86653257  0.35890163  1
  O  O286  1  0.12966003  0.85553435  0.87051011  1
  O  O287  1  0.61955484  0.37234025  0.36697104  1
  O  O288  1  0.61792017  0.37012695  0.86829543  1
  O  O289  1  0.61692757  0.86926922  0.36803780  1
  O  O290  1  0.61705434  0.87131701  0.86394518  1
  O  O291  1  0.39259573  0.12847623  0.11729052  1
  O  O292  1  0.39172944  0.13105507  0.63602154  1
  O  O293  1  0.38005861  0.62782898  0.13057527  1
  O  O294  1  0.38620481  0.62376631  0.62362680  1
  O  O295  1  0.87449610  0.12887963  0.13954445  1
  O  O296  1  0.87011337  0.13677801  0.63044071  1
  O  O297  1  0.88019941  0.62912090  0.12934877  1
  O  O298  1  0.88086392  0.62991678  0.63025364  1
  O  O299  1  0.24614886  0.26452877  0.12557298  1
  O  O300  1  0.24774047  0.26546138  0.61387489  1
  O  O301  1  0.25495836  0.74644480  0.10784937  1
  O  O302  1  0.26494135  0.74317716  0.61559692  1
  O  O303  1  0.74834363  0.25654428  0.11681506  1
  O  O304  1  0.75954394  0.25291094  0.63393977  1
  O  O305  1  0.75850628  0.75538829  0.12522659  1
  O  O306  1  0.75565793  0.74951818  0.61787021  1
  O  O307  1  0.25245575  0.24539618  0.38268662  1
  O  O308  1  0.24064706  0.24057013  0.87259528  1
  O  O309  1  0.24844483  0.74180042  0.38074421  1
  O  O310  1  0.24783450  0.73980814  0.88754303  1
  O  O311  1  0.73543111  0.24931224  0.36686010  1
  O  O312  1  0.74483049  0.24368151  0.87888787  1
  O  O313  1  0.74542293  0.74520980  0.37995215  1
  O  O314  1  0.74908589  0.73319493  0.86866981  1
  O  O315  1  -0.00163617  0.11521978  0.00186372  1
  O  O316  1  0.01751722  0.13664946  0.48070266  1
  O  O317  1  -0.00477090  0.61643917  0.01328434  1
  O  O318  1  0.01001683  0.62570848  0.50767651  1
  O  O319  1  0.50499168  0.11695747  0.00557905  1
  O  O320  1  0.50861964  0.12629364  0.51521852  1
  O  O321  1  0.49157412  0.61739405  0.00963329  1
  O  O322  1  0.50211536  0.61755443  0.50897861  1
  O  O323  1  0.49274899  0.38225703  0.49538108  1
  O  O324  1  0.49514526  0.38199225  0.99229077  1
  O  O325  1  0.50785365  0.87419248  0.48808969  1
  O  O326  1  0.49949213  0.88659372  0.98991993  1
  O  O327  1  1.00169485  0.37974749  0.48759027  1
  O  O328  1  0.99700596  0.38360476  0.99177075  1
  O  O329  1  0.98266335  0.86626875  0.48913584  1
  O  O330  1  0.98309745  0.88040238  1.00543352  1
  O  O331  1  0.49175742  0.49698714  0.37947201  1
  O  O332  1  0.50679272  0.49075994  0.88460796  1
  O  O333  1  0.49605391  0.99102664  0.37766344  1
  O  O334  1  0.50368175  0.99229679  0.88290677  1
  O  O335  1  0.99192913  0.49391703  0.37492662  1
  O  O336  1  0.99975928  0.49772842  0.88302860  1
  O  O337  1  0.99742273  0.98547101  0.37133685  1
  O  O338  1  0.98184637  1.00166820  0.88694872  1
  O  O339  1  -0.00367376  0.00027977  0.11312543  1
  O  O340  1  -0.01803921  -0.01613934  0.61091089  1
  O  O341  1  0.00537777  0.50516198  0.11882897  1
  O  O342  1  0.00648348  0.51353507  0.62582645  1
  O  O343  1  0.49912425  0.00773338  0.11507471  1
  O  O344  1  0.51059664  0.00426810  0.62699499  1
  O  O345  1  0.50553827  0.50703108  0.11886879  1
  O  O346  1  0.50566939  0.50510594  0.62210001  1
  O  O347  1  0.23670309  0.37489533  0.24362604  1
  O  O348  1  0.24142914  0.38120617  0.74564529  1
  O  O349  1  0.23635462  0.87070826  0.25363572  1
  O  O350  1  0.23709030  0.87152150  0.76305340  1
  O  O351  1  0.73907502  0.38193905  0.24565830  1
  O  O352  1  0.74164370  0.39010444  0.75252265  1
  O  O353  1  0.74229061  0.87815350  0.23942367  1
  O  O354  1  0.73992873  0.88312047  0.74874999  1
  O  O355  1  0.24938496  0.13121717  0.25999624  1
  O  O356  1  0.26292343  0.12953855  0.76006139  1
  O  O357  1  0.26201529  0.62991470  0.25341474  1
  O  O358  1  0.24931444  0.61351547  0.75476653  1
  O  O359  1  0.75349563  0.11612938  0.25013217  1
  O  O360  1  0.74198135  0.10930719  0.75975537  1
  O  O361  1  0.75924996  0.61690707  0.26034212  1
  O  O362  1  0.75391353  0.61616536  0.75763307  1
  O  O363  1  0.36993482  0.12152334  0.37578251  1
  O  O364  1  0.36393445  0.13205000  0.87223550  1
  O  O365  1  0.37262391  0.61822921  0.36572646  1
  O  O366  1  0.35884619  0.62867203  0.87313545  1
  O  O367  1  0.86659247  0.11913623  0.36546850  1
  O  O368  1  0.85966198  0.11529543  0.88020865  1
  O  O369  1  0.87122572  0.61964295  0.37012065  1
  O  O370  1  0.86578771  0.62056692  0.86996579  1
  O  O371  1  0.12986196  0.38345229  0.13069864  1
  O  O372  1  0.13023576  0.38182081  0.63424282  1
  O  O373  1  0.11858956  0.87200700  0.13805935  1
  O  O374  1  0.13591749  0.85651286  0.64898197  1
  O  O375  1  0.62898699  0.38099253  0.13109413  1
  O  O376  1  0.62633090  0.38780239  0.63348703  1
  O  O377  1  0.63000447  0.87519059  0.13358672  1
  O  O378  1  0.62370750  0.88173768  0.63592098  1
  O  O379  1  0.11148345  0.26188197  0.24651232  1
  O  O380  1  0.11479039  0.26170047  0.76472254  1
  O  O381  1  0.11986764  0.75610595  0.25222510  1
  O  O382  1  0.12563372  0.75166558  0.76568106  1
  O  O383  1  0.61911537  0.25995159  0.25520825  1
  O  O384  1  0.63313075  0.26518445  0.75879995  1
  O  O385  1  0.61599643  0.76288996  0.25732998  1
  O  O386  1  0.61374645  0.75729327  0.74988409  1
  O  O387  1  0.38599451  0.26952445  0.23824280  1
  O  O388  1  0.38271263  0.23440181  0.75554937  1
  O  O389  1  0.37899618  0.74160252  0.24209077  1
  O  O390  1  0.38740189  0.75113628  0.74120572  1
  O  O391  1  0.88535795  0.24385080  0.25384340  1
  O  O392  1  0.87974862  0.25488116  0.73742859  1
  O  O393  1  0.88000441  0.74441323  0.23703782  1
  O  O394  1  0.87587094  0.74715809  0.73721912  1
  O  O395  1  0.37916674  0.49262498  0.49253341  1
  O  O396  1  0.38898914  0.48903512  1.00206888  1
  O  O397  1  0.38175515  1.00432734  0.48313580  1
  O  O398  1  0.38998620  1.00559765  0.98919960  1
  O  O399  1  0.87902654  0.50479825  0.48689175  1
  O  O400  1  0.88762113  0.49708228  0.99255341  1
  O  O401  1  0.86469760  0.99634850  0.49971620  1
  O  O402  1  0.87604269  0.99145435  0.99692616  1
  O  O403  1  0.11131137  -0.00254955  -0.00253181  1
  O  O404  1  0.12704750  -0.05826465  0.51479575  1
  O  O405  1  0.11322958  0.49653783  0.00922998  1
  O  O406  1  0.12659447  0.50995193  0.51082563  1
  O  O407  1  0.61284602  -0.00007103  0.00235175  1
  O  O408  1  0.62036495  0.00686944  0.51027310  1
  O  O409  1  0.61432239  0.49305763  0.01188526  1
  O  O410  1  0.61661493  0.50198988  0.50893485  1
  O  O411  1  0.36158729  0.38120319  0.11520881  1
  O  O412  1  0.36508887  0.38153013  0.61492671  1
  O  O413  1  0.38161747  0.86156659  0.13091182  1
  O  O414  1  0.38350245  0.86622209  0.62670127  1
  O  O415  1  0.86360190  0.37501770  0.12596030  1
  O  O416  1  0.87369243  0.36826081  0.62372137  1
  O  O417  1  0.86553221  0.86478763  0.12064436  1
  O  O418  1  0.87218678  0.86825994  0.61726968  1
  O  O419  1  0.13320948  0.12668050  0.37179886  1
  O  O420  1  0.13719403  0.13375263  0.88127404  1
  O  O421  1  0.13015935  0.63026586  0.37738949  1
  O  O422  1  0.13958316  0.63831470  0.87143758  1
  O  O423  1  0.62059653  0.13404282  0.38221332  1
  O  O424  1  0.63378440  0.13424136  0.87571847  1
  O  O425  1  0.63061250  0.63158816  0.37184943  1
  O  O426  1  0.63999437  0.62499869  0.87255938  1
