# generated using pymatgen
data_V85Zn86O256
_symmetry_space_group_name_H-M   'P 1'
_cell_length_a   16.95200306
_cell_length_b   16.97898397
_cell_length_c   16.96209132
_cell_angle_alpha   89.92958048
_cell_angle_beta   89.95118555
_cell_angle_gamma   89.99496746
_symmetry_Int_Tables_number   1
_chemical_formula_structural   V85Zn86O256
_chemical_formula_sum   'V85 Zn86 O256'
_cell_volume   4882.15574860
_cell_formula_units_Z   1
loop_
 _symmetry_equiv_pos_site_id
 _symmetry_equiv_pos_as_xyz
  1  'x, y, z'
loop_
 _atom_site_type_symbol
 _atom_site_label
 _atom_site_symmetry_multiplicity
 _atom_site_fract_x
 _atom_site_fract_y
 _atom_site_fract_z
 _atom_site_occupancy
  V  V0  1  0.24474981  0.23887645  0.00280450  1
  V  V1  1  0.00224871  0.12815997  0.61867328  1
  V  V2  1  0.50521564  0.24843956  0.25026290  1
  V  V3  1  0.74814830  0.00165407  0.24100988  1
  V  V4  1  -0.00704316  0.87390686  0.37932975  1
  V  V5  1  0.26534184  0.65248397  0.36368095  1
  V  V6  1  0.00111439  0.37442936  0.37826419  1
  V  V7  1  0.62324892  0.00283844  0.62254520  1
  V  V8  1  0.37437135  0.12432728  0.25041737  1
  V  V9  1  0.00182489  0.50111180  0.00149475  1
  V  V10  1  0.74429093  0.12475286  0.37569961  1
  V  V11  1  0.24270509  0.12432595  0.37925075  1
  V  V12  1  0.87172345  0.87534334  0.00368636  1
  V  V13  1  0.29580510  0.42507541  0.08121100  1
  V  V14  1  0.37263631  0.00338868  0.37727857  1
  V  V15  1  0.87840270  0.49911231  0.87647211  1
  V  V16  1  -0.00058131  0.24630013  0.25042416  1
  V  V17  1  0.87554833  0.62714996  0.74917876  1
  V  V18  1  0.36815937  0.48920441  0.38104424  1
  V  V19  1  0.61750122  0.88377919  0.24745043  1
  V  V20  1  0.12641641  0.75407965  0.87984186  1
  V  V21  1  0.50216063  0.11333113  0.12582734  1
  V  V22  1  0.75432142  0.37325141  0.12506282  1
  V  V23  1  -0.00172925  0.87598983  0.87630926  1
  V  V24  1  0.49822216  -0.00184118  -0.01887346  1
  V  V25  1  -0.01021906  -0.00188061  0.50118028  1
  V  V26  1  0.00497966  0.12474400  0.12232732  1
  V  V27  1  0.75016687  0.50814156  0.25111245  1
  V  V28  1  0.00544675  0.49929352  0.50539243  1
  V  V29  1  0.74877534  0.00179470  0.74790800  1
  V  V30  1  0.87490470  0.75070041  0.61250146  1
  V  V31  1  0.00664326  0.00344747  0.00039539  1
  V  V32  1  0.01574408  0.37709686  0.87238338  1
  V  V33  1  0.23782519  0.49216445  0.75054890  1
  V  V34  1  0.74744918  0.74521786  -0.00028882  1
  V  V35  1  0.24671342  0.38552005  0.61679833  1
  V  V36  1  0.25903671  0.11273839  0.86892745  1
  V  V37  1  0.37506738  0.75207042  0.61858709  1
  V  V38  1  0.49915580  0.37120062  0.37963261  1
  V  V39  1  0.12380492  0.88146038  0.74997952  1
  V  V40  1  0.61616825  0.14281507  0.50831874  1
  V  V41  1  0.12644106  0.62683667  0.48964935  1
  V  V42  1  0.62771339  0.37277033  0.25338943  1
  V  V43  1  0.30919046  0.69769489  0.04927022  1
  V  V44  1  0.49795202  0.00664132  0.50615757  1
  V  V45  1  0.62159730  0.50575159  0.11412370  1
  V  V46  1  0.62765494  0.11991636  0.00430856  1
  V  V47  1  0.11952309  0.49886100  0.12536683  1
  V  V48  1  0.49792519  0.75397362  0.74755495  1
  V  V49  1  0.12693729  0.24057010  0.87741085  1
  V  V50  1  0.86872339  0.25366042  0.62621073  1
  V  V51  1  0.60774937  0.72349133  0.36478429  1
  V  V52  1  0.58401969  0.39248050  0.76936718  1
  V  V53  1  -0.00276219  0.75316488  0.25613411  1
  V  V54  1  0.87346234  0.00112830  0.87596151  1
  V  V55  1  0.49571863  0.49985011  0.50125046  1
  V  V56  1  0.12406984  0.63220742  0.00429449  1
  V  V57  1  0.24533248  -0.00049554  0.25091222  1
  V  V58  1  0.37983055  0.11561095  0.73584708  1
  V  V59  1  0.25835560  0.87395778  0.12310117  1
  V  V60  1  0.50244186  0.87928287  0.37733994  1
  V  V61  1  0.75477944  0.87486859  0.61591832  1
  V  V62  1  0.36936076  0.24538767  0.12104481  1
  V  V63  1  0.37337130  0.88083095  -0.01326766  1
  V  V64  1  0.24009860  0.75438867  0.50473383  1
  V  V65  1  0.62063805  0.87671211  0.74938785  1
  V  V66  1  0.25387870  0.49498176  0.26004575  1
  V  V67  1  0.12779131  0.37283735  0.24784243  1
  V  V68  1  0.12203120  0.24531272  0.38716499  1
  V  V69  1  0.49813129  0.62202513  0.62417132  1
  V  V70  1  0.24996685  0.62962841  0.86587563  1
  V  V71  1  0.74787819  0.12929320  0.87132734  1
  V  V72  1  0.62666262  0.74885175  0.86920874  1
  V  V73  1  0.00725560  0.25382571  0.74906977  1
  V  V74  1  0.75030350  0.25588125  0.49048574  1
  V  V75  1  0.12555107  0.86595332  0.25429059  1
  V  V76  1  0.61319183  0.25500580  0.87437300  1
  V  V77  1  0.75109912  0.49285014  0.74934632  1
  V  V78  1  0.00034061  0.63134008  0.12863874  1
  V  V79  1  0.25001335  0.88329371  0.62994322  1
  V  V80  1  0.26335817  0.24831741  0.50751572  1
  V  V81  1  0.87746802  0.49989493  0.37507217  1
  V  V82  1  0.00961537  0.62325120  0.62770588  1
  V  V83  1  0.12368078  0.00436227  0.62102078  1
  V  V84  1  0.87330570  0.12677409  0.74974049  1
  Zn  Zn85  1  0.37294433  0.87972518  0.50148218  1
  Zn  Zn86  1  0.86908905  -0.00366404  0.37812894  1
  Zn  Zn87  1  0.75858606  0.62767783  0.38597656  1
  Zn  Zn88  1  0.74129207  0.37514211  0.62820981  1
  Zn  Zn89  1  0.37115291  0.62140714  0.74803925  1
  Zn  Zn90  1  0.47544077  0.24438745  0.70294333  1
  Zn  Zn91  1  -0.00288141  0.75241584  0.74993234  1
  Zn  Zn92  1  0.87565524  0.62763619  0.25083433  1
  Zn  Zn93  1  0.87920969  0.37194969  0.00084659  1
  Zn  Zn94  1  0.74298945  0.75270170  0.49217354  1
  Zn  Zn95  1  0.87484490  0.12280023  0.25246566  1
  Zn  Zn96  1  0.87301048  0.37898374  0.50420676  1
  Zn  Zn97  1  0.87783657  0.24907386  0.12242348  1
  Zn  Zn98  1  0.74713610  0.62273013  0.87555204  1
  Zn  Zn99  1  0.86456418  0.75010592  0.12956622  1
  Zn  Zn100  1  0.63136838  0.62120108  0.50458848  1
  Zn  Zn101  1  0.12683616  -0.00074749  0.12381787  1
  Zn  Zn102  1  0.62440273  0.49973580  0.62882688  1
  Zn  Zn103  1  0.46945311  0.38742488  -0.07879016  1
  Zn  Zn104  1  0.75426662  0.24995101  0.00036867  1
  Zn  Zn105  1  0.74047938  0.88002155  0.12060872  1
  Zn  Zn106  1  0.57622630  0.65753563  0.02910173  1
  Zn  Zn107  1  0.18348688  0.18523359  0.18991541  1
  Zn  Zn108  1  0.19005203  0.18423066  0.69144241  1
  Zn  Zn109  1  0.32470935  0.66255614  0.20563697  1
  Zn  Zn110  1  0.18220575  0.69313943  0.68833743  1
  Zn  Zn111  1  0.68683656  0.18741314  0.18738499  1
  Zn  Zn112  1  0.65389804  0.20986282  0.67272020  1
  Zn  Zn113  1  0.64518243  0.71113044  0.16981791  1
  Zn  Zn114  1  0.68908900  0.68468612  0.68557831  1
  Zn  Zn115  1  0.31253844  0.30899450  0.31159807  1
  Zn  Zn116  1  0.31522787  0.30584096  0.80301608  1
  Zn  Zn117  1  0.30982694  0.82033913  0.32017184  1
  Zn  Zn118  1  0.31011157  0.81388389  0.80724169  1
  Zn  Zn119  1  0.81526616  0.31571612  0.31223468  1
  Zn  Zn120  1  0.81781915  0.31250358  0.81706059  1
  Zn  Zn121  1  0.80458244  0.81199263  0.31328942  1
  Zn  Zn122  1  0.80977323  0.81421665  0.80912644  1
  Zn  Zn123  1  0.18212176  0.43154509  0.44325619  1
  Zn  Zn124  1  0.29129873  0.43695381  0.91809296  1
  Zn  Zn125  1  0.17742247  0.93748084  0.44043497  1
  Zn  Zn126  1  0.18939728  0.93510993  0.94064993  1
  Zn  Zn127  1  0.68457219  0.43928340  0.43769823  1
  Zn  Zn128  1  0.69332037  0.43652220  0.93870791  1
  Zn  Zn129  1  0.68454548  0.94197884  0.43661392  1
  Zn  Zn130  1  0.68380963  0.93724960  0.93479884  1
  Zn  Zn131  1  0.31265052  0.06019497  0.05934708  1
  Zn  Zn132  1  0.30753372  0.06525885  0.56198580  1
  Zn  Zn133  1  0.44333325  0.55116013  0.04694309  1
  Zn  Zn134  1  0.31375427  0.56216708  0.55818628  1
  Zn  Zn135  1  0.81817198  0.06571778  0.06416620  1
  Zn  Zn136  1  0.80847659  0.06836318  0.56246037  1
  Zn  Zn137  1  0.81259510  0.56370195  0.06419084  1
  Zn  Zn138  1  0.81583596  0.56296634  0.56536489  1
  Zn  Zn139  1  0.46940535  0.40890040  0.14438221  1
  Zn  Zn140  1  0.41750895  0.43771459  0.68576319  1
  Zn  Zn141  1  0.43345617  0.93651080  0.18752608  1
  Zn  Zn142  1  0.43553850  0.94383623  0.69099093  1
  Zn  Zn143  1  0.93838367  0.43535749  0.19083848  1
  Zn  Zn144  1  0.93991912  0.43729563  0.68902197  1
  Zn  Zn145  1  0.93322250  0.93897486  0.18825912  1
  Zn  Zn146  1  0.93590695  0.93739842  0.68747609  1
  Zn  Zn147  1  0.06160967  0.05819745  0.31272623  1
  Zn  Zn148  1  0.06277422  0.06454101  0.80984301  1
  Zn  Zn149  1  0.06786558  0.56632180  0.31333423  1
  Zn  Zn150  1  0.06849435  0.56301199  0.81178420  1
  Zn  Zn151  1  0.56558771  0.06465208  0.31901777  1
  Zn  Zn152  1  0.56036515  0.06877498  0.80716938  1
  Zn  Zn153  1  0.56595838  0.55678628  0.31388767  1
  Zn  Zn154  1  0.55286217  0.56427173  0.82773043  1
  Zn  Zn155  1  0.43718970  0.18873527  0.43541812  1
  Zn  Zn156  1  0.43341340  0.18724976  0.93790709  1
  Zn  Zn157  1  0.44628192  0.67449497  0.40719005  1
  Zn  Zn158  1  0.43989871  0.69133223  0.92142389  1
  Zn  Zn159  1  0.93171901  0.18482884  0.43807629  1
  Zn  Zn160  1  0.93770873  0.18796909  0.93883517  1
  Zn  Zn161  1  0.93971652  0.68615047  0.43630430  1
  Zn  Zn162  1  0.93686807  0.68942216  0.93836528  1
  Zn  Zn163  1  0.06563925  0.31316677  0.06031553  1
  Zn  Zn164  1  0.06684344  0.31492329  0.56703387  1
  Zn  Zn165  1  0.06424202  0.81487756  0.06762190  1
  Zn  Zn166  1  0.05864748  0.81390454  0.56291473  1
  Zn  Zn167  1  0.56929131  0.30475388  0.06137468  1
  Zn  Zn168  1  0.56636654  0.32317018  0.56642463  1
  Zn  Zn169  1  0.55347894  0.82250374  0.06544771  1
  Zn  Zn170  1  0.56335513  0.81257913  0.55492696  1
  O  O171  1  0.11050159  0.11885685  0.13072054  1
  O  O172  1  0.11352895  0.11625366  0.63336492  1
  O  O173  1  0.11005029  0.61806361  0.12253011  1
  O  O174  1  0.11253397  0.63215845  0.61625999  1
  O  O175  1  0.61712936  0.13030776  0.11188247  1
  O  O176  1  0.64427652  0.10784535  0.61478151  1
  O  O177  1  0.64514087  0.60537162  0.11818446  1
  O  O178  1  0.60961055  0.62236996  0.62616036  1
  O  O179  1  0.38422105  0.38155834  0.36732399  1
  O  O180  1  0.36766243  0.36971436  0.87811236  1
  O  O181  1  0.38004120  0.88867224  0.37963161  1
  O  O182  1  0.36551406  0.87159067  0.88764631  1
  O  O183  1  0.88337109  0.38497892  0.37892733  1
  O  O184  1  0.88617606  0.38805487  0.87634196  1
  O  O185  1  0.88766804  0.87639026  0.36997403  1
  O  O186  1  0.87722428  0.88125232  0.88242380  1
  O  O187  1  0.25016636  0.00720074  0.37436319  1
  O  O188  1  0.24234097  0.01570941  0.88051716  1
  O  O189  1  0.25420718  0.48965565  0.37497904  1
  O  O190  1  0.23594581  0.51400832  0.86031728  1
  O  O191  1  0.75017035  0.00903947  0.36909716  1
  O  O192  1  0.75120989  0.01068655  0.86909128  1
  O  O193  1  0.76135847  0.49643395  0.36871672  1
  O  O194  1  0.76197591  0.50320947  0.87068018  1
  O  O195  1  0.23910802  0.49262214  0.13760086  1
  O  O196  1  0.24608056  0.49122417  0.62256392  1
  O  O197  1  0.25011517  0.99159317  0.13176554  1
  O  O198  1  0.23663758  0.99413593  0.61845757  1
  O  O199  1  0.74848545  0.48913773  0.13244873  1
  O  O200  1  0.75055227  0.49693678  0.63495183  1
  O  O201  1  0.75138059  1.00262302  0.13700843  1
  O  O202  1  0.74814160  0.99231613  0.62913042  1
  O  O203  1  0.00929852  0.36756365  0.25799004  1
  O  O204  1  -0.00398887  0.36460126  0.75842310  1
  O  O205  1  0.00427202  0.87099520  0.25397214  1
  O  O206  1  0.00413469  0.87556796  0.75935679  1
  O  O207  1  0.50860135  0.36597290  0.24935127  1
  O  O208  1  0.49310196  0.35983541  0.72855704  1
  O  O209  1  0.50858115  0.88660013  0.25995571  1
  O  O210  1  0.51036383  0.86737126  0.73673507  1
  O  O211  1  0.49821906  0.12927461  0.24541756  1
  O  O212  1  0.48490737  0.13063472  0.75268716  1
  O  O213  1  0.52437562  0.66180271  0.31747268  1
  O  O214  1  0.49339346  0.63323554  0.74251220  1
  O  O215  1  0.99879791  0.13163706  0.24621811  1
  O  O216  1  0.99139640  0.13162892  0.74061123  1
  O  O217  1  1.00146638  0.63557500  0.24625752  1
  O  O218  1  0.99482508  0.62615222  0.74253819  1
  O  O219  1  0.36670123  0.24535260  0.01501785  1
  O  O220  1  0.36207468  0.24852001  0.49667616  1
  O  O221  1  0.37706276  0.75640503  -0.00222138  1
  O  O222  1  0.36474165  0.75640288  0.51179104  1
  O  O223  1  0.87194478  0.25318506  0.00307419  1
  O  O224  1  0.86676310  0.25256135  0.50902555  1
  O  O225  1  0.86709559  0.76014047  0.00079179  1
  O  O226  1  0.87408441  0.74732306  0.51034394  1
  O  O227  1  0.12848111  0.25045591  0.48867342  1
  O  O228  1  0.13401834  0.24980951  0.99260148  1
  O  O229  1  0.13044918  0.74131211  0.50930816  1
  O  O230  1  0.11844318  0.74629141  0.99182702  1
  O  O231  1  0.63572882  0.24662993  0.49472256  1
  O  O232  1  0.63346098  0.23941012  0.99175641  1
  O  O233  1  0.61933208  0.74353553  0.48146310  1
  O  O234  1  0.63185038  0.75738976  0.98294832  1
  O  O235  1  0.49195026  0.23861618  0.13424297  1
  O  O236  1  0.54840837  0.22604340  0.61851939  1
  O  O237  1  0.54268004  0.72504728  0.11531802  1
  O  O238  1  0.49322402  0.74549441  0.62670024  1
  O  O239  1  1.00343832  0.24335097  0.13337617  1
  O  O240  1  0.99414728  0.24498780  0.63049559  1
  O  O241  1  0.99817166  0.74557775  0.13663990  1
  O  O242  1  0.99079858  0.74377325  0.62777492  1
  O  O243  1  0.00523278  0.25107163  0.37133292  1
  O  O244  1  0.00470090  0.25346817  0.86791453  1
  O  O245  1  -0.00301802  0.75658713  0.36476985  1
  O  O246  1  0.00827533  0.75776862  0.87382248  1
  O  O247  1  0.49237021  0.25720979  0.35964028  1
  O  O248  1  0.51230087  0.25893166  0.89204087  1
  O  O249  1  0.49815291  0.77763973  0.39363953  1
  O  O250  1  0.50838229  0.75451551  0.85476785  1
  O  O251  1  0.25041203  0.13405077  0.48691521  1
  O  O252  1  0.25235896  0.13277615  0.99081538  1
  O  O253  1  0.24395597  0.63632835  0.49528869  1
  O  O254  1  0.24449103  0.63918008  0.99288814  1
  O  O255  1  0.74231703  0.13597559  0.49452005  1
  O  O256  1  0.74189612  0.12123823  0.99227198  1
  O  O257  1  0.74986187  0.63185870  0.50583897  1
  O  O258  1  0.75808691  0.64080842  0.99536189  1
  O  O259  1  0.24525765  0.36839688  0.01346909  1
  O  O260  1  0.24680792  0.36129750  0.50786049  1
  O  O261  1  0.25960130  0.87793280  0.01015245  1
  O  O262  1  0.24473436  0.87142276  0.51247731  1
  O  O263  1  0.75596259  0.37311865  0.01178537  1
  O  O264  1  0.75034656  0.36874896  0.50301664  1
  O  O265  1  0.75541438  0.86993139  -0.00165494  1
  O  O266  1  0.74334713  0.87432387  0.51222425  1
  O  O267  1  0.12830117  0.49193865  0.24467309  1
  O  O268  1  0.13831858  0.51152968  0.73853777  1
  O  O269  1  0.13096685  0.98998260  0.24743835  1
  O  O270  1  0.11546989  0.98861099  0.73933451  1
  O  O271  1  0.63268635  0.49311140  0.24261655  1
  O  O272  1  0.63611018  0.49575381  0.75421897  1
  O  O273  1  0.63251223  0.99280764  0.25635485  1
  O  O274  1  0.62729184  0.99605574  0.74227345  1
  O  O275  1  0.36554103  0.00573310  0.25690275  1
  O  O276  1  0.37521281  0.01376074  0.75411859  1
  O  O277  1  0.35581735  0.50045973  0.25921525  1
  O  O278  1  0.34800613  0.50909758  0.74136534  1
  O  O279  1  0.86249388  0.00177642  0.25433864  1
  O  O280  1  0.86934651  0.00645026  0.75607463  1
  O  O281  1  0.86960009  0.49917980  0.25940857  1
  O  O282  1  0.87394841  0.51008431  0.75614150  1
  O  O283  1  0.11801451  0.36492507  0.36994241  1
  O  O284  1  0.11490619  0.35933120  0.87403127  1
  O  O285  1  0.10910686  0.88222538  0.36539006  1
  O  O286  1  0.12098413  0.87215643  0.86937565  1
  O  O287  1  0.61547470  0.38215718  0.36037280  1
  O  O288  1  0.63786732  0.36034782  0.87252784  1
  O  O289  1  0.61428840  0.88211257  0.36770862  1
  O  O290  1  0.63196392  0.86747611  0.85614760  1
  O  O291  1  0.38121319  0.12882952  0.13081401  1
  O  O292  1  0.37447931  0.11787056  0.63509317  1
  O  O293  1  0.36739419  0.63180284  0.10518874  1
  O  O294  1  0.38284390  0.63533696  0.62183137  1
  O  O295  1  0.88770843  0.12891971  0.13134231  1
  O  O296  1  0.87860583  0.13768761  0.62946363  1
  O  O297  1  0.88758332  0.62719525  0.12754961  1
  O  O298  1  0.88572815  0.63242829  0.63241436  1
  O  O299  1  0.25544778  0.23917321  0.11761154  1
  O  O300  1  0.24531751  0.23850402  0.60665799  1
  O  O301  1  0.26310604  0.74878863  0.12436953  1
  O  O302  1  0.25500254  0.75879619  0.62104396  1
  O  O303  1  0.75171243  0.26247158  0.12805833  1
  O  O304  1  0.75389200  0.25331638  0.61736486  1
  O  O305  1  0.74314178  0.75744626  0.11376032  1
  O  O306  1  0.75760111  0.75822300  0.62476089  1
  O  O307  1  0.24252185  0.24348138  0.38189143  1
  O  O308  1  0.24151495  0.24207369  0.88312615  1
  O  O309  1  0.23961842  0.75694476  0.39570186  1
  O  O310  1  0.23307925  0.74738564  0.86597562  1
  O  O311  1  0.75714903  0.24592413  0.38467847  1
  O  O312  1  0.74663469  0.23823524  0.87436342  1
  O  O313  1  0.73443560  0.74528119  0.37364103  1
  O  O314  1  0.74385158  0.74923278  0.87824525  1
  O  O315  1  -0.00476910  0.11444260  0.00795866  1
  O  O316  1  -0.00479507  0.12101861  0.51343022  1
  O  O317  1  0.00353553  0.62139979  0.00810208  1
  O  O318  1  0.00830854  0.61958717  0.50445138  1
  O  O319  1  0.50465761  0.11517843  0.00510172  1
  O  O320  1  0.50883594  0.11848089  0.49121517  1
  O  O321  1  0.49938025  0.60481277  -0.03499202  1
  O  O322  1  0.49870458  0.61410977  0.50541442  1
  O  O323  1  0.50592779  0.37662415  0.48474524  1
  O  O324  1  0.49506828  0.38162892  1.03056130  1
  O  O325  1  0.49907992  0.89351505  0.49743351  1
  O  O326  1  0.49253050  0.89150496  1.00150733  1
  O  O327  1  1.00167634  0.38294979  0.49741642  1
  O  O328  1  1.00165573  0.38418717  0.99164398  1
  O  O329  1  1.00158925  0.88395375  0.49192508  1
  O  O330  1  0.99063727  0.88045349  0.99596552  1
  O  O331  1  0.49033642  0.49069304  0.38002412  1
  O  O332  1  0.52394357  0.45596088  0.84205173  1
  O  O333  1  0.49281173  0.99834596  0.38377669  1
  O  O334  1  0.50216711  1.00212359  0.88326494  1
  O  O335  1  0.99627662  0.49629584  0.38080022  1
  O  O336  1  0.99990553  0.49422859  0.87845172  1
  O  O337  1  0.99533281  0.99548188  0.38527199  1
  O  O338  1  0.99429651  0.99708466  0.88182538  1
  O  O339  1  -0.00139711  0.00579045  0.11697790  1
  O  O340  1  0.00121458  0.00811687  0.62075572  1
  O  O341  1  0.00383316  0.50723860  0.12491566  1
  O  O342  1  -0.00594003  0.50980674  0.61621455  1
  O  O343  1  0.49603254  0.01209133  0.12327333  1
  O  O344  1  0.51079834  -0.00024049  0.61712841  1
  O  O345  1  0.51514122  0.51410909  0.13210866  1
  O  O346  1  0.49259534  0.50699033  0.61926339  1
  O  O347  1  0.23449977  0.37695035  0.25682075  1
  O  O348  1  0.24406644  0.38872911  0.74777070  1
  O  O349  1  0.24405548  0.87919237  0.24639183  1
  O  O350  1  0.23997269  0.87455872  0.73751069  1
  O  O351  1  0.74454079  0.38123703  0.24638163  1
  O  O352  1  0.76376681  0.38961049  0.75168725  1
  O  O353  1  0.73817767  0.88684460  0.24936050  1
  O  O354  1  0.74275457  0.88266551  0.73900353  1
  O  O355  1  0.25260352  0.11993259  0.25996498  1
  O  O356  1  0.25772170  0.12380357  0.76227035  1
  O  O357  1  0.23807906  0.60970363  0.26634924  1
  O  O358  1  0.24582886  0.62492784  0.75381699  1
  O  O359  1  0.74653259  0.11926593  0.25795604  1
  O  O360  1  0.75353000  0.11990019  0.75705695  1
  O  O361  1  0.75360697  0.60955042  0.24868824  1
  O  O362  1  0.76030905  0.61454680  0.74982180  1
  O  O363  1  0.36588761  0.12137469  0.36834464  1
  O  O364  1  0.36165372  0.12572263  0.87445080  1
  O  O365  1  0.35884045  0.60104597  0.39465565  1
  O  O366  1  0.35366287  0.63563181  0.86976170  1
  O  O367  1  0.85970057  0.12248978  0.37397692  1
  O  O368  1  0.86651245  0.12026835  0.87078404  1
  O  O369  1  0.87637251  0.61241521  0.37248993  1
  O  O370  1  0.87968095  0.61475766  0.86669947  1
  O  O371  1  0.11619633  0.38529207  0.13604374  1
  O  O372  1  0.14778994  0.35891386  0.63056525  1
  O  O373  1  0.14010517  0.87480283  0.13232222  1
  O  O374  1  0.12754390  0.88213001  0.63253836  1
  O  O375  1  0.63399581  0.38343190  0.13573663  1
  O  O376  1  0.62436673  0.38313489  0.64839051  1
  O  O377  1  0.62101813  0.88122841  0.14306857  1
  O  O378  1  0.63218735  0.88446327  0.62883740  1
  O  O379  1  0.11608580  0.25566078  0.25772209  1
  O  O380  1  0.11243579  0.24323192  0.75698987  1
  O  O381  1  0.11403228  0.76550580  0.24948947  1
  O  O382  1  0.11822929  0.76535858  0.75512749  1
  O  O383  1  0.61545972  0.25804647  0.24557033  1
  O  O384  1  0.61843503  0.26470107  0.76877699  1
  O  O385  1  0.62618477  0.77315808  0.26483426  1
  O  O386  1  0.61928612  0.75899863  0.74674860  1
  O  O387  1  0.37883788  0.24243695  0.23996992  1
  O  O388  1  0.37149672  0.22844665  0.74641274  1
  O  O389  1  0.34387468  0.71446367  0.30154252  1
  O  O390  1  0.38135139  0.75202121  0.73636874  1
  O  O391  1  0.89087894  0.25125378  0.25127377  1
  O  O392  1  0.88265991  0.24515720  0.74480742  1
  O  O393  1  0.88105833  0.74969371  0.24739946  1
  O  O394  1  0.87444942  0.73749344  0.74691619  1
  O  O395  1  0.38558701  0.49061133  0.49658315  1
  O  O396  1  0.35101508  0.48492021  1.01864417  1
  O  O397  1  0.38177708  1.00361708  0.49548275  1
  O  O398  1  0.38874237  0.99504878  1.00032456  1
  O  O399  1  0.88742334  0.49963126  0.49351504  1
  O  O400  1  0.88319732  0.50153171  0.99146660  1
  O  O401  1  0.88524302  1.00446457  0.50290018  1
  O  O402  1  0.88067509  0.99324564  0.99406638  1
  O  O403  1  0.10958643  -0.00852779  0.00299841  1
  O  O404  1  0.10950899  -0.00100180  0.51423916  1
  O  O405  1  0.11986352  0.50979488  0.01751975  1
  O  O406  1  0.11346289  0.50886611  0.49675738  1
  O  O407  1  0.61214268  0.00792642  -0.00558586  1
  O  O408  1  0.61722883  0.01011526  0.50654731  1
  O  O409  1  0.62990575  0.49381745  0.01511504  1
  O  O410  1  0.60992590  0.49766154  0.50552322  1
  O  O411  1  0.36029744  0.36589768  0.13774028  1
  O  O412  1  0.34559363  0.36284009  0.63386640  1
  O  O413  1  0.36521806  0.87453354  0.11950915  1
  O  O414  1  0.36506530  0.87300740  0.62405771  1
  O  O415  1  0.86820706  0.37283328  0.12566606  1
  O  O416  1  0.87590315  0.36191159  0.62511435  1
  O  O417  1  0.87063409  0.87479754  0.11209012  1
  O  O418  1  0.86653967  0.86304586  0.63260028  1
  O  O419  1  0.13224677  0.13269008  0.36853454  1
  O  O420  1  0.13213994  0.13450185  0.86939994  1
  O  O421  1  0.13716955  0.62648065  0.38588165  1
  O  O422  1  0.12905954  0.63575122  0.88235469  1
  O  O423  1  0.63627755  0.12510159  0.38924246  1
  O  O424  1  0.62906597  0.13637253  0.87920988  1
  O  O425  1  0.64201227  0.61823351  0.38337936  1
  O  O426  1  0.62923178  0.64271740  0.86306463  1
