# generated using pymatgen
data_V85Zn86O256
_symmetry_space_group_name_H-M   'P 1'
_cell_length_a   16.95628984
_cell_length_b   16.95183298
_cell_length_c   16.97074786
_cell_angle_alpha   90.04397259
_cell_angle_beta   90.04216149
_cell_angle_gamma   90.07668178
_symmetry_Int_Tables_number   1
_chemical_formula_structural   V85Zn86O256
_chemical_formula_sum   'V85 Zn86 O256'
_cell_volume   4878.06791262
_cell_formula_units_Z   1
loop_
 _symmetry_equiv_pos_site_id
 _symmetry_equiv_pos_as_xyz
  1  'x, y, z'
loop_
 _atom_site_type_symbol
 _atom_site_label
 _atom_site_symmetry_multiplicity
 _atom_site_fract_x
 _atom_site_fract_y
 _atom_site_fract_z
 _atom_site_occupancy
  V  V0  1  0.12033935  0.12162011  0.50654992  1
  V  V1  1  0.50216186  0.37406916  0.88094573  1
  V  V2  1  0.37887504  0.87478022  0.00368250  1
  V  V3  1  0.87971235  0.37523276  -0.00611780  1
  V  V4  1  0.37590206  0.50024677  0.87597612  1
  V  V5  1  -0.00272965  -0.00275188  0.00155724  1
  V  V6  1  0.74985508  -0.00438729  0.26518528  1
  V  V7  1  0.38166469  0.75339260  0.13036738  1
  V  V8  1  0.87507459  0.24781613  0.12408422  1
  V  V9  1  -0.00256199  0.37556881  0.86735086  1
  V  V10  1  0.61985957  0.11715471  0.49924535  1
  V  V11  1  0.62167750  0.37871485  0.25038254  1
  V  V12  1  0.25075417  0.49486764  0.74618351  1
  V  V13  1  0.11860330  -0.00216840  0.63529325  1
  V  V14  1  0.62745158  0.12372342  0.00077692  1
  V  V15  1  0.61714673  0.24925191  0.37409050  1
  V  V16  1  0.35859995  0.37985876  0.01009150  1
  V  V17  1  0.50669616  -0.00044449  0.00010510  1
  V  V18  1  -0.00235180  0.24985927  0.25496502  1
  V  V19  1  0.00296906  0.75714708  0.74453199  1
  V  V20  1  0.00120279  0.62312810  0.62524943  1
  V  V21  1  0.12833998  0.75196509  0.86783107  1
  V  V22  1  0.75202224  0.38715027  0.63213103  1
  V  V23  1  0.49454579  0.12010354  0.62264365  1
  V  V24  1  0.86986092  0.11816261  0.25365938  1
  V  V25  1  0.24963782  0.62451180  0.87579237  1
  V  V26  1  0.00469669  0.87550645  0.87245916  1
  V  V27  1  0.62541920  0.24900007  0.87634474  1
  V  V28  1  0.37013020  0.75176547  0.62705336  1
  V  V29  1  0.63076328  0.62136916  0.00595021  1
  V  V30  1  0.24943759  0.87542393  0.12666785  1
  V  V31  1  0.12545052  0.87919223  0.25387427  1
  V  V32  1  0.60673692  0.75049422  0.37276465  1
  V  V33  1  0.50525852  0.74966053  0.74421957  1
  V  V34  1  0.12425436  0.12786051  0.00418001  1
  V  V35  1  0.50296469  0.87485701  0.87261206  1
  V  V36  1  0.25142343  0.12912173  0.88477586  1
  V  V37  1  0.87843692  0.74982318  0.12746173  1
  V  V38  1  0.86700426  0.49149393  0.38081110  1
  V  V39  1  0.37331256  0.12293704  0.75657152  1
  V  V40  1  0.87644451  0.23930004  0.63086637  1
  V  V41  1  0.60599742  0.87108717  0.25121244  1
  V  V42  1  0.62937649  0.00281495  0.12651452  1
  V  V43  1  0.12691888  0.25117953  0.37570077  1
  V  V44  1  0.87176884  0.61204966  0.25404691  1
  V  V45  1  0.75319304  0.62157769  0.86559492  1
  V  V46  1  0.25089584  0.74821773  0.00146387  1
  V  V47  1  0.12919741  0.49278229  0.62052746  1
  V  V48  1  0.75359372  0.25743983  0.50158212  1
  V  V49  1  0.75157019  0.12325220  0.37543276  1
  V  V50  1  -0.01416932  0.88042403  0.38023145  1
  V  V51  1  -0.00002606  0.74760851  0.25408404  1
  V  V52  1  0.12807134  0.36968312  0.74339760  1
  V  V53  1  0.37620847  0.49136533  0.37587200  1
  V  V54  1  0.37221591  0.37241361  0.50989673  1
  V  V55  1  0.62554937  0.75153416  0.87867464  1
  V  V56  1  0.24654467  0.48038112  0.24818825  1
  V  V57  1  0.75093235  0.25001887  0.00181689  1
  V  V58  1  0.12586125  0.75290953  0.37974176  1
  V  V59  1  0.75085435  0.87452948  0.12742156  1
  V  V60  1  0.50641322  0.49952663  0.50689720  1
  V  V61  1  0.50307012  0.62599982  0.13011790  1
  V  V62  1  0.30801625  0.80904580  0.45633056  1
  V  V63  1  0.25132649  0.62371415  0.37641549  1
  V  V64  1  0.13094923  0.62822203  0.50049301  1
  V  V65  1  0.75677953  0.11847246  0.86198554  1
  V  V66  1  0.75267618  0.38029584  0.12994042  1
  V  V67  1  0.50033798  0.24865749  0.75271634  1
  V  V68  1  0.75291460  0.74481222  0.00009970  1
  V  V69  1  0.42823709  0.16593853  0.17896879  1
  V  V70  1  0.37772429  0.62273144  0.25026415  1
  V  V71  1  0.24410329  0.87224895  0.63893370  1
  V  V72  1  0.12549248  0.25149846  0.88048124  1
  V  V73  1  -0.00111345  0.37395706  0.38128502  1
  V  V74  1  0.75718376  0.87568874  0.61275209  1
  V  V75  1  0.37511337  0.00152164  0.88074800  1
  V  V76  1  0.24733386  0.25095255  0.51024536  1
  V  V77  1  0.25576454  0.11383394  0.36924804  1
  V  V78  1  0.63782082  0.87804841  0.75040068  1
  V  V79  1  -0.01309982  -0.00071850  0.50427570  1
  V  V80  1  0.38204090  0.62341654  0.74538449  1
  V  V81  1  -0.00259000  0.12305170  0.12909523  1
  V  V82  1  0.62525720  -0.00265077  0.62631485  1
  V  V83  1  0.75997992  0.75521754  0.48905486  1
  V  V84  1  0.12773774  -0.00127611  0.13052247  1
  Zn  Zn85  1  0.74363736  0.62215343  0.37247721  1
  Zn  Zn86  1  0.88050940  0.00803120  0.86473577  1
  Zn  Zn87  1  0.49663324  0.36764709  0.37264743  1
  Zn  Zn88  1  0.36906462  0.25237938  0.63241186  1
  Zn  Zn89  1  0.87485300  0.87445703  -0.00557261  1
  Zn  Zn90  1  0.87535950  0.62522738  0.74362985  1
  Zn  Zn91  1  0.50153693  0.49835547  0.00663823  1
  Zn  Zn92  1  0.24472242  -0.00268447  0.75767737  1
  Zn  Zn93  1  0.62871149  0.38179185  0.74850963  1
  Zn  Zn94  1  0.62736976  0.62581692  0.50200059  1
  Zn  Zn95  1  -0.00137669  0.23639635  0.74514241  1
  Zn  Zn96  1  -0.00045181  0.49667008  0.49888367  1
  Zn  Zn97  1  0.38362877  1.00152056  0.40252407  1
  Zn  Zn98  1  0.13726774  0.49595597  0.11865147  1
  Zn  Zn99  1  0.00466551  0.62160653  0.12330068  1
  Zn  Zn100  1  0.60223401  0.54064985  0.65608676  1
  Zn  Zn101  1  0.86653720  0.49251751  0.85981832  1
  Zn  Zn102  1  0.28782194  0.22775053  0.04989683  1
  Zn  Zn103  1  0.12052308  0.62480326  0.00185956  1
  Zn  Zn104  1  0.63396388  0.50477669  0.13459352  1
  Zn  Zn105  1  0.00198591  0.50402556  -0.00258459  1
  Zn  Zn106  1  0.88149858  0.75395199  0.61571411  1
  Zn  Zn107  1  0.18603258  0.18427275  0.19725342  1
  Zn  Zn108  1  0.18409909  0.18204361  0.69207086  1
  Zn  Zn109  1  0.18790472  0.68228369  0.18797258  1
  Zn  Zn110  1  0.19051438  0.68308946  0.68838745  1
  Zn  Zn111  1  0.59856963  0.19116078  0.18584005  1
  Zn  Zn112  1  0.68406515  0.19101376  0.68501332  1
  Zn  Zn113  1  0.69044689  0.68984036  0.19359908  1
  Zn  Zn114  1  0.69154789  0.69597472  0.68283941  1
  Zn  Zn115  1  0.31749809  0.29863447  0.31130524  1
  Zn  Zn116  1  0.31112752  0.31209987  0.81891932  1
  Zn  Zn117  1  0.31547911  0.81574802  0.29525481  1
  Zn  Zn118  1  0.31657150  0.81328501  0.81332580  1
  Zn  Zn119  1  0.80815950  0.31030937  0.31015103  1
  Zn  Zn120  1  0.80928427  0.30707732  0.80756603  1
  Zn  Zn121  1  0.81019221  0.81220893  0.31218090  1
  Zn  Zn122  1  0.85933610  0.86955032  0.75846076  1
  Zn  Zn123  1  0.18815852  0.43338898  0.43529803  1
  Zn  Zn124  1  0.18246477  0.44105570  0.93387910  1
  Zn  Zn125  1  0.18095934  0.94415692  0.43961604  1
  Zn  Zn126  1  0.18641880  0.93775208  0.94164967  1
  Zn  Zn127  1  0.68789986  0.43433810  0.43685704  1
  Zn  Zn128  1  0.68851102  0.43934341  0.93922434  1
  Zn  Zn129  1  0.55095121  0.93068088  0.43212925  1
  Zn  Zn130  1  0.69518950  0.93680249  0.93705485  1
  Zn  Zn131  1  0.32542110  0.05600469  0.08430806  1
  Zn  Zn132  1  0.30188808  0.06587037  0.56928932  1
  Zn  Zn133  1  0.31197636  0.56137524  0.06538089  1
  Zn  Zn134  1  0.31352296  0.56187425  0.56307245  1
  Zn  Zn135  1  0.81134524  0.06170705  0.06097395  1
  Zn  Zn136  1  0.80441189  0.06255959  0.55865798  1
  Zn  Zn137  1  0.84215509  0.54701563  0.07279497  1
  Zn  Zn138  1  0.81212151  0.56777549  0.55698597  1
  Zn  Zn139  1  0.44078697  0.43699381  0.18759967  1
  Zn  Zn140  1  0.44032965  0.43313193  0.68951822  1
  Zn  Zn141  1  0.44104442  0.96232882  0.19522052  1
  Zn  Zn142  1  0.43729378  0.93538183  0.57575115  1
  Zn  Zn143  1  0.97074248  0.42049059  0.16740433  1
  Zn  Zn144  1  0.93238600  0.43496973  0.68478262  1
  Zn  Zn145  1  0.93777782  0.93576312  0.19177106  1
  Zn  Zn146  1  0.93076190  1.05532576  0.69075885  1
  Zn  Zn147  1  0.06195391  0.06333399  0.31975388  1
  Zn  Zn148  1  0.06304253  0.06464155  0.81551871  1
  Zn  Zn149  1  0.06278320  0.56018968  0.31235974  1
  Zn  Zn150  1  0.06104089  0.56116156  0.80944816  1
  Zn  Zn151  1  0.55841665  0.06243974  0.31321376  1
  Zn  Zn152  1  0.56613610  0.06113882  0.81146707  1
  Zn  Zn153  1  0.56107228  0.55905672  0.31559695  1
  Zn  Zn154  1  0.56253170  0.56343472  0.82419751  1
  Zn  Zn155  1  0.43306819  0.18578075  0.44020291  1
  Zn  Zn156  1  0.43676634  0.18906320  0.95938293  1
  Zn  Zn157  1  0.44126383  0.67843322  0.43780086  1
  Zn  Zn158  1  0.44085218  0.68611892  0.94121335  1
  Zn  Zn159  1  0.93467699  0.18345692  0.44150375  1
  Zn  Zn160  1  0.94011891  0.18885262  0.93450001  1
  Zn  Zn161  1  0.94065753  0.68294055  0.43690132  1
  Zn  Zn162  1  0.93771127  0.68938725  0.93544462  1
  Zn  Zn163  1  0.11515279  0.30963359  0.08568100  1
  Zn  Zn164  1  0.05800023  0.31148710  0.56056548  1
  Zn  Zn165  1  0.06359616  0.80890699  0.06033284  1
  Zn  Zn166  1  0.06522063  0.81623344  0.56037908  1
  Zn  Zn167  1  0.55617662  0.31125325  0.06697325  1
  Zn  Zn168  1  0.56489299  0.31178837  0.56370655  1
  Zn  Zn169  1  0.56422040  0.81121816  0.06601209  1
  Zn  Zn170  1  0.57034686  0.79972221  0.56580734  1
  O  O171  1  0.11600130  0.11370810  0.12585194  1
  O  O172  1  0.12996267  0.11540941  0.61451754  1
  O  O173  1  0.12239531  0.61611238  0.12513687  1
  O  O174  1  0.12068989  0.61815329  0.61775570  1
  O  O175  1  0.64044791  0.11346704  0.11357162  1
  O  O176  1  0.61926749  0.11815586  0.61933077  1
  O  O177  1  0.62114161  0.62589379  0.12490686  1
  O  O178  1  0.62176318  0.63937068  0.61606078  1
  O  O179  1  0.37667704  0.37602128  0.38164317  1
  O  O180  1  0.37946613  0.38903569  0.87783167  1
  O  O181  1  0.35875818  0.86716877  0.38990596  1
  O  O182  1  0.38305628  0.88059557  0.88242370  1
  O  O183  1  0.87661433  0.38683714  0.36998110  1
  O  O184  1  0.88104745  0.36892987  0.87441867  1
  O  O185  1  0.88788121  0.87705337  0.36565515  1
  O  O186  1  0.89599784  0.87183161  0.87704131  1
  O  O187  1  0.25630479  0.00990560  0.38276191  1
  O  O188  1  0.25565256  0.00784024  0.87925740  1
  O  O189  1  0.26144322  0.50158899  0.36891457  1
  O  O190  1  0.25780409  0.50483161  0.86669091  1
  O  O191  1  0.74391900  0.00689910  0.36553185  1
  O  O192  1  0.75419095  0.01501778  0.87872201  1
  O  O193  1  0.76328983  0.50078528  0.37840267  1
  O  O194  1  0.74448341  0.51900987  0.87529849  1
  O  O195  1  0.25449021  0.49986683  0.14417715  1
  O  O196  1  0.23765191  0.50414387  0.63093351  1
  O  O197  1  0.23443181  0.99215643  0.11849565  1
  O  O198  1  0.23862623  0.99078005  0.63218493  1
  O  O199  1  0.75298827  0.48397320  0.11719140  1
  O  O200  1  0.75294928  0.48667614  0.61465622  1
  O  O201  1  0.74594269  0.99022555  0.13009537  1
  O  O202  1  0.73277243  0.99109009  0.61273431  1
  O  O203  1  -0.01415615  0.35448805  0.26364202  1
  O  O204  1  0.01130383  0.36916432  0.75226482  1
  O  O205  1  0.00868848  0.86807310  0.25720555  1
  O  O206  1  0.00890165  0.86020601  0.75891673  1
  O  O207  1  0.51556500  0.37444028  0.25107649  1
  O  O208  1  0.49542007  0.36205012  0.76387624  1
  O  O209  1  0.50763378  0.87834414  0.23411552  1
  O  O210  1  0.51519718  0.86327696  0.76180901  1
  O  O211  1  0.51177638  0.13294246  0.23840374  1
  O  O212  1  0.49393040  0.13347171  0.75003859  1
  O  O213  1  0.48705926  0.61821562  0.24536104  1
  O  O214  1  0.48870871  0.63348495  0.76091711  1
  O  O215  1  0.98865253  0.12816615  0.25266692  1
  O  O216  1  1.00019900  0.12393342  0.74762497  1
  O  O217  1  0.99124534  0.63241741  0.25048735  1
  O  O218  1  1.00595010  0.63619940  0.73950143  1
  O  O219  1  0.36596255  0.27767569  -0.01953188  1
  O  O220  1  0.36474735  0.25596213  0.50386975  1
  O  O221  1  0.37248248  0.75470147  0.01110727  1
  O  O222  1  0.37164431  0.74307997  0.50739127  1
  O  O223  1  0.86853925  0.25400772  0.00184882  1
  O  O224  1  0.85840020  0.24111100  0.50713749  1
  O  O225  1  0.86847460  0.75172841  0.01091370  1
  O  O226  1  0.86514124  0.74857458  0.49556841  1
  O  O227  1  0.12789762  0.24252192  0.49523246  1
  O  O228  1  0.11452650  0.24370933  0.98780698  1
  O  O229  1  0.12289483  0.74026108  0.49224774  1
  O  O230  1  0.13509938  0.74731100  0.99085346  1
  O  O231  1  0.63499583  0.24153093  0.49489198  1
  O  O232  1  0.63214941  0.24283125  0.99720656  1
  O  O233  1  0.63281598  0.74822839  0.48236278  1
  O  O234  1  0.63300906  0.74062982  1.00139579  1
  O  O235  1  0.50338717  0.23156506  0.12853647  1
  O  O236  1  0.49933067  0.24115711  0.63793041  1
  O  O237  1  0.49332359  0.73797401  0.12183857  1
  O  O238  1  0.49077289  0.75248378  0.64060378  1
  O  O239  1  0.99450619  0.23890745  0.13870637  1
  O  O240  1  0.97921771  0.25276379  0.62016013  1
  O  O241  1  0.99303075  0.75026112  0.13479995  1
  O  O242  1  1.00643610  0.74313434  0.62891641  1
  O  O243  1  0.00298466  0.25202191  0.37468107  1
  O  O244  1  0.00675691  0.25880299  0.86915726  1
  O  O245  1  0.00462610  0.75741243  0.36991092  1
  O  O246  1  0.01066938  0.75364604  0.86780895  1
  O  O247  1  0.51320400  0.24807273  0.38194044  1
  O  O248  1  0.50508860  0.25478920  0.87398933  1
  O  O249  1  0.50748604  0.74751409  0.37565624  1
  O  O250  1  0.50625962  0.75439211  0.87109843  1
  O  O251  1  0.23938173  0.13278578  0.49425010  1
  O  O252  1  0.24190719  0.12502602  0.99406079  1
  O  O253  1  0.23926752  0.61847767  0.49306491  1
  O  O254  1  0.25469570  0.63240517  0.99243889  1
  O  O255  1  0.73870570  0.13067021  0.49203083  1
  O  O256  1  0.74400289  0.13162229  0.99321077  1
  O  O257  1  0.74826911  0.63900668  0.49275833  1
  O  O258  1  0.74592396  0.63077476  1.00054405  1
  O  O259  1  0.25823771  0.38670447  0.00271348  1
  O  O260  1  0.25853258  0.36292325  0.49442030  1
  O  O261  1  0.25795104  0.86815864  0.00682654  1
  O  O262  1  0.24508214  0.86983641  0.50883842  1
  O  O263  1  0.75656791  0.36622255  0.00074631  1
  O  O264  1  0.74667925  0.36025071  0.50530241  1
  O  O265  1  0.75379676  0.86655636  0.00974694  1
  O  O266  1  0.74589396  0.85885305  0.50278671  1
  O  O267  1  0.14636369  0.50198799  0.25860356  1
  O  O268  1  0.12972437  0.49079982  0.74091779  1
  O  O269  1  0.11464892  0.99060179  0.24248023  1
  O  O270  1  0.12586985  1.00333542  0.73887989  1
  O  O271  1  0.62759184  0.48508428  0.25335544  1
  O  O272  1  0.61008531  0.49357419  0.75289292  1
  O  O273  1  0.63298579  0.99145411  0.24255545  1
  O  O274  1  0.62289102  0.98975114  0.74018181  1
  O  O275  1  0.38626396  0.06040114  0.18704800  1
  O  O276  1  0.37369234  0.01729364  0.76529277  1
  O  O277  1  0.36917795  0.50251290  0.25781767  1
  O  O278  1  0.37449763  0.50556689  0.75504184  1
  O  O279  1  0.86604864  0.00998725  0.24470344  1
  O  O280  1  0.87784070  -0.01790668  0.75527528  1
  O  O281  1  0.87836630  0.51203487  0.25870380  1
  O  O282  1  0.88434105  0.51081807  0.75113082  1
  O  O283  1  0.11517390  0.36190146  0.37840793  1
  O  O284  1  0.11884321  0.36665821  0.86783710  1
  O  O285  1  0.12127836  0.87086101  0.36892907  1
  O  O286  1  0.11713307  0.86541544  0.88268417  1
  O  O287  1  0.62473902  0.36738491  0.36656690  1
  O  O288  1  0.61709540  0.36853788  0.87686750  1
  O  O289  1  0.61882486  0.86206105  0.36313027  1
  O  O290  1  0.62578051  0.87054636  0.87026006  1
  O  O291  1  0.37874479  0.15845741  0.07829203  1
  O  O292  1  0.37976776  0.12950265  0.64041495  1
  O  O293  1  0.38238432  0.63120232  0.13140821  1
  O  O294  1  0.36882962  0.63528473  0.63551342  1
  O  O295  1  0.87756210  0.12828881  0.13207202  1
  O  O296  1  0.86711147  0.13405132  0.62434263  1
  O  O297  1  0.86855168  0.64104487  0.13968133  1
  O  O298  1  0.89207574  0.62741684  0.61891630  1
  O  O299  1  0.21112245  0.25897610  0.12080694  1
  O  O300  1  0.24800342  0.24320678  0.61393426  1
  O  O301  1  0.25839148  0.75521806  0.12186533  1
  O  O302  1  0.25619009  0.75727908  0.63050706  1
  O  O303  1  0.75733638  0.25922143  0.10944939  1
  O  O304  1  0.75592314  0.25023720  0.61490025  1
  O  O305  1  0.75517675  0.75758324  0.12008398  1
  O  O306  1  0.75327305  0.75803242  0.60799738  1
  O  O307  1  0.24186903  0.23993498  0.38228073  1
  O  O308  1  0.23833353  0.24177075  0.87509778  1
  O  O309  1  0.25249198  0.75063389  0.38415435  1
  O  O310  1  0.24720823  0.74596743  0.87977920  1
  O  O311  1  0.74384151  0.24375752  0.38594831  1
  O  O312  1  0.74521017  0.24284557  0.88380617  1
  O  O313  1  0.74536972  0.74982840  0.38159992  1
  O  O314  1  0.74299778  0.74157082  0.89284552  1
  O  O315  1  0.00440446  0.11715255  0.00620520  1
  O  O316  1  0.00849032  0.11177382  0.49362433  1
  O  O317  1  0.00146431  0.62628427  0.00153165  1
  O  O318  1  0.01409632  0.62167467  0.50529619  1
  O  O319  1  0.52031102  0.11624246  -0.00941142  1
  O  O320  1  0.50706061  0.13648594  0.51364613  1
  O  O321  1  0.51179003  0.62449126  0.00994235  1
  O  O322  1  0.49801372  0.60265113  0.49942987  1
  O  O323  1  0.49223069  0.38067482  0.49766870  1
  O  O324  1  0.49598801  0.37587413  0.99054450  1
  O  O325  1  0.50319632  0.87089943  0.51226985  1
  O  O326  1  0.49937380  0.87776483  0.99337876  1
  O  O327  1  0.99736375  0.37501792  0.48588234  1
  O  O328  1  0.98439993  0.37203822  0.98671449  1
  O  O329  1  1.00213563  0.88758431  0.49269819  1
  O  O330  1  0.99977391  0.88188756  0.99579954  1
  O  O331  1  0.48729434  0.49410276  0.38226569  1
  O  O332  1  0.49148784  0.49213238  0.88305520  1
  O  O333  1  0.48774255  0.99117705  0.35906889  1
  O  O334  1  0.49742997  0.99354711  0.88065640  1
  O  O335  1  0.99198254  0.48908505  0.37209700  1
  O  O336  1  1.00340194  0.48365018  0.87364201  1
  O  O337  1  1.00556849  0.99093052  0.38974057  1
  O  O338  1  1.00546960  0.99192153  0.88632780  1
  O  O339  1  0.00572778  0.00181406  0.12064299  1
  O  O340  1  0.00595025  -0.00129647  0.61155528  1
  O  O341  1  -0.04450645  0.51525694  0.10826162  1
  O  O342  1  0.01242746  0.50596142  0.62166457  1
  O  O343  1  0.52324257  -0.00690943  0.11375938  1
  O  O344  1  0.50886376  0.01490410  0.63254376  1
  O  O345  1  0.50460338  0.51351820  0.12510652  1
  O  O346  1  0.50065141  0.49216167  0.61112274  1
  O  O347  1  0.25571030  0.38209864  0.25705178  1
  O  O348  1  0.23724390  0.37933706  0.75549044  1
  O  O349  1  0.23419917  0.87347822  0.24307589  1
  O  O350  1  0.25330921  0.87809002  0.74302761  1
  O  O351  1  0.74171911  0.37096390  0.23889011  1
  O  O352  1  0.74848717  0.37510857  0.73715611  1
  O  O353  1  0.74485880  0.88028442  0.24293334  1
  O  O354  1  0.73962626  0.86463150  0.73816509  1
  O  O355  1  0.23915814  0.11834476  0.27116450  1
  O  O356  1  0.25659139  0.12429558  0.76566943  1
  O  O357  1  0.26368628  0.62425632  0.25845066  1
  O  O358  1  0.26282440  0.61797718  0.75772695  1
  O  O359  1  0.75501429  0.11505706  0.25919525  1
  O  O360  1  0.74374965  0.13049057  0.76429586  1
  O  O361  1  0.76743977  0.63079119  0.25574455  1
  O  O362  1  0.75047898  0.63732081  0.76392021  1
  O  O363  1  0.35980044  0.12377145  0.37867837  1
  O  O364  1  0.36780858  0.12387687  0.87956649  1
  O  O365  1  0.37086505  0.61465684  0.36907084  1
  O  O366  1  0.37224068  0.61570146  0.87165270  1
  O  O367  1  0.85976522  0.12803944  0.36934942  1
  O  O368  1  0.86127927  0.12671385  0.87758340  1
  O  O369  1  0.87772835  0.61448522  0.36550453  1
  O  O370  1  0.85844730  0.63029155  0.87407903  1
  O  O371  1  0.07897698  0.39991943  0.13314333  1
  O  O372  1  0.12109285  0.38034602  0.63081102  1
  O  O373  1  0.12631519  0.87977713  0.13283740  1
  O  O374  1  0.13346825  0.88397114  0.62312938  1
  O  O375  1  0.63199255  0.37453013  0.13537829  1
  O  O376  1  0.64402094  0.36702380  0.62695841  1
  O  O377  1  0.63632679  0.87746888  0.13084518  1
  O  O378  1  0.63074518  0.88030266  0.63256605  1
  O  O379  1  0.11018574  0.23834653  0.26859054  1
  O  O380  1  0.12349772  0.25518874  0.75798516  1
  O  O381  1  0.11565393  0.75452617  0.25639587  1
  O  O382  1  0.12587249  0.74532898  0.76303403  1
  O  O383  1  0.63429023  0.26337556  0.26401247  1
  O  O384  1  0.61543313  0.25223266  0.75860662  1
  O  O385  1  0.62715397  0.75841764  0.26199911  1
  O  O386  1  0.61962881  0.75474541  0.75797731  1
  O  O387  1  0.37290418  0.22817578  0.23480947  1
  O  O388  1  0.38082118  0.24103502  0.75591215  1
  O  O389  1  0.37605707  0.74079629  0.23770212  1
  O  O390  1  0.38200167  0.74279445  0.74563752  1
  O  O391  1  0.87570978  0.23588104  0.24649865  1
  O  O392  1  0.87441047  0.24763763  0.73382762  1
  O  O393  1  0.88674520  0.74683554  0.24805841  1
  O  O394  1  0.89058017  0.75125039  0.73840612  1
  O  O395  1  0.37933545  0.49070672  0.49495192  1
  O  O396  1  0.37709404  0.49475463  0.99248877  1
  O  O397  1  0.37838713  1.00789227  0.51453862  1
  O  O398  1  0.38485450  0.99224382  1.00037222  1
  O  O399  1  0.88070178  0.50623316  0.48259181  1
  O  O400  1  0.86788697  0.48382014  0.97834598  1
  O  O401  1  0.88817340  1.00618600  0.50345458  1
  O  O402  1  0.88740286  0.99785872  0.99857215  1
  O  O403  1  0.11447735  0.00499637  0.00978181  1
  O  O404  1  0.11802261  0.00731135  0.51070419  1
  O  O405  1  0.12170070  0.50604988  0.00113764  1
  O  O406  1  0.12471465  0.50385143  0.50532502  1
  O  O407  1  0.62948477  0.00547056  0.00602511  1
  O  O408  1  0.61535401  0.01309917  0.50384178  1
  O  O409  1  0.62547401  0.51250865  0.00566672  1
  O  O410  1  0.61032170  0.49908879  0.49209770  1
  O  O411  1  0.38054434  0.37945180  0.10801913  1
  O  O412  1  0.37582078  0.37116038  0.61492755  1
  O  O413  1  0.37245548  0.87009034  0.12570801  1
  O  O414  1  0.36213062  0.85923899  0.62573040  1
  O  O415  1  0.87116923  0.36511726  0.11418338  1
  O  O416  1  0.85939963  0.36174385  0.62462849  1
  O  O417  1  0.86768869  0.86444446  0.12870941  1
  O  O418  1  0.85721766  0.87532394  0.62713809  1
  O  O419  1  0.13216854  0.12804876  0.38850990  1
  O  O420  1  0.13262698  0.13142553  0.88292517  1
  O  O421  1  0.13172905  0.63152346  0.38040811  1
  O  O422  1  0.13576706  0.63154230  0.87337001  1
  O  O423  1  0.63168313  0.12989943  0.38016981  1
  O  O424  1  0.63620859  0.12860385  0.88101484  1
  O  O425  1  0.62431761  0.63695961  0.37269900  1
  O  O426  1  0.63356757  0.63250270  0.88697804  1
