# generated using pymatgen
data_V85Zn86O256
_symmetry_space_group_name_H-M   'P 1'
_cell_length_a   16.94013132
_cell_length_b   16.92886833
_cell_length_c   16.94170328
_cell_angle_alpha   90.06192628
_cell_angle_beta   90.02149953
_cell_angle_gamma   89.99710962
_symmetry_Int_Tables_number   1
_chemical_formula_structural   V85Zn86O256
_chemical_formula_sum   'V85 Zn86 O256'
_cell_volume   4858.49193476
_cell_formula_units_Z   1
loop_
 _symmetry_equiv_pos_site_id
 _symmetry_equiv_pos_as_xyz
  1  'x, y, z'
loop_
 _atom_site_type_symbol
 _atom_site_label
 _atom_site_symmetry_multiplicity
 _atom_site_fract_x
 _atom_site_fract_y
 _atom_site_fract_z
 _atom_site_occupancy
  V  V0  1  0.75194425  0.12802730  0.38854836  1
  V  V1  1  -0.00127331  0.62407074  0.62655864  1
  V  V2  1  0.61836670  0.49938440  0.61666187  1
  V  V3  1  0.73931265  0.87594822  0.12859439  1
  V  V4  1  0.50588261  0.76293493  0.25200807  1
  V  V5  1  0.12546754  0.49833743  0.62699318  1
  V  V6  1  0.12730181  0.87343176  0.74737151  1
  V  V7  1  0.87624645  0.49878485  0.87540894  1
  V  V8  1  0.50479301  0.75297610  0.74692573  1
  V  V9  1  0.74549798  -0.00043506  0.76402032  1
  V  V10  1  0.74133033  -0.00197900  0.24864107  1
  V  V11  1  0.37593390  0.12385178  0.74774663  1
  V  V12  1  0.24619189  0.75877286  0.50111418  1
  V  V13  1  0.87373740  0.62714945  0.74506799  1
  V  V14  1  0.12662177  -0.00524456  0.62108487  1
  V  V15  1  0.75417811  0.36370700  0.12589484  1
  V  V16  1  0.37698607  0.00033536  0.87313338  1
  V  V17  1  0.00172733  0.37489979  0.87722498  1
  V  V18  1  0.62590091  0.76561906  0.37181066  1
  V  V19  1  0.24839040  0.62373061  0.87628597  1
  V  V20  1  0.87843782  0.12991696  0.24802470  1
  V  V21  1  0.37926306  0.38248361  0.50048022  1
  V  V22  1  0.50721126  0.00092775  -0.00011166  1
  V  V23  1  0.00090500  0.24990679  0.74552130  1
  V  V24  1  -0.00160758  0.49752883  0.49816190  1
  V  V25  1  0.62870936  0.24706253  0.38921400  1
  V  V26  1  0.37919358  0.75168511  0.12495410  1
  V  V27  1  0.87875787  0.88772976  -0.00386781  1
  V  V28  1  0.62515505  0.49696638  0.12457190  1
  V  V29  1  0.24964364  0.63371471  0.37729391  1
  V  V30  1  0.50185922  0.12127855  0.12923454  1
  V  V31  1  -0.00024217  0.36991098  0.37527238  1
  V  V32  1  0.50926471  0.12354297  0.61849652  1
  V  V33  1  0.24825019  0.37471722  0.12597124  1
  V  V34  1  0.12983450  0.24287804  0.37315795  1
  V  V35  1  0.37358689  0.24413869  0.12938511  1
  V  V36  1  0.88685456  0.62721815  0.24614397  1
  V  V37  1  0.63192851  0.12365945  0.00092405  1
  V  V38  1  0.37536807  0.24815411  0.62309078  1
  V  V39  1  0.88850154  0.74922909  0.12686838  1
  V  V40  1  0.75110579  0.62523022  0.87427416  1
  V  V41  1  0.85880917  0.25286147  0.61976236  1
  V  V42  1  0.24980364  0.75315087  0.00587434  1
  V  V43  1  0.50329452  0.87436368  0.87082585  1
  V  V44  1  0.63518386  0.24558787  0.87559179  1
  V  V45  1  0.50102566  0.38405590  0.37677945  1
  V  V46  1  0.37478980  0.62514174  0.75028623  1
  V  V47  1  0.26949251  0.10503062  0.36715589  1
  V  V48  1  0.62650209  0.62231244  -0.00186258  1
  V  V49  1  0.24863320  0.37149204  0.62312893  1
  V  V50  1  0.10462299  0.75299358  0.37060516  1
  V  V51  1  0.37364402  0.49852291  0.87646657  1
  V  V52  1  -0.00110856  0.12468921  0.62088020  1
  V  V53  1  0.12478460  0.24595484  0.88283961  1
  V  V54  1  0.86730732  0.12378177  0.76161117  1
  V  V55  1  0.62743526  0.75325087  0.87070233  1
  V  V56  1  0.62642129  -0.01139013  0.62428439  1
  V  V57  1  0.49902021  0.49779524  0.00056309  1
  V  V58  1  0.11921170  0.62406778  0.01230841  1
  V  V59  1  0.50046997  0.24762366  0.75115453  1
  V  V60  1  0.49970887  0.37293329  0.87527700  1
  V  V61  1  0.13067862  -0.00099396  0.11091821  1
  V  V62  1  0.49713854  0.62448942  0.61399193  1
  V  V63  1  0.87799096  -0.01233645  0.37628380  1
  V  V64  1  0.36866549  0.75743708  0.62673644  1
  V  V65  1  0.87759318  0.36830335  0.00516033  1
  V  V66  1  0.74743604  0.62644054  0.37380440  1
  V  V67  1  0.25092676  0.50175011  0.25281175  1
  V  V68  1  0.37802576  0.87641893  0.49293012  1
  V  V69  1  0.11105342  0.88315994  0.25309859  1
  V  V70  1  0.12166232  0.75097555  0.87569745  1
  V  V71  1  0.25272581  -0.00335960  0.74049224  1
  V  V72  1  0.37369747  0.87482006  -0.00238234  1
  V  V73  1  0.75496674  0.75425337  0.50212025  1
  V  V74  1  0.24791497  0.12318010  0.88161567  1
  V  V75  1  0.74819699  0.49680330  0.74660259  1
  V  V76  1  0.37830000  0.62980330  0.25078402  1
  V  V77  1  0.00348793  0.12167801  0.11071083  1
  V  V78  1  0.75224461  0.50204247  0.24737248  1
  V  V79  1  0.76430643  0.87922285  0.62698257  1
  V  V80  1  -0.00704568  -0.01665240  0.50119990  1
  V  V81  1  0.50032425  0.24663028  0.25324907  1
  V  V82  1  0.62793150  0.37433542  0.74607491  1
  V  V83  1  0.75254884  0.74933155  0.00309088  1
  V  V84  1  0.50348888  -0.00290350  0.49346310  1
  Zn  Zn85  1  0.88020114  0.75829353  0.62364979  1
  Zn  Zn86  1  0.37930939  0.50681126  0.38162607  1
  Zn  Zn87  1  0.37216955  0.37158917  0.00077559  1
  Zn  Zn88  1  0.25154640  0.24349199  0.49695223  1
  Zn  Zn89  1  0.00395320  0.89651913  0.88632863  1
  Zn  Zn90  1  -0.00251940  0.74958013  0.75336286  1
  Zn  Zn91  1  0.12807528  0.11965613  0.49700819  1
  Zn  Zn92  1  0.12689951  0.37233684  0.75102106  1
  Zn  Zn93  1  0.50173615  0.62363304  0.12626568  1
  Zn  Zn94  1  0.12530913  0.62817819  0.50130056  1
  Zn  Zn95  1  0.87557968  0.49616399  0.37211086  1
  Zn  Zn96  1  -0.00345723  0.50419941  0.00877277  1
  Zn  Zn97  1  0.62075524  0.62528791  0.49482027  1
  Zn  Zn98  1  0.75603230  0.24226413  0.00174032  1
  Zn  Zn99  1  0.86018637  0.36280483  0.49610329  1
  Zn  Zn100  1  0.11951811  0.50512968  0.13237845  1
  Zn  Zn101  1  0.24938770  0.49766126  0.75098694  1
  Zn  Zn102  1  0.12486073  0.37495921  0.25222751  1
  Zn  Zn103  1  0.24769466  0.24446329  0.00603636  1
  Zn  Zn104  1  0.43606467  0.93230689  0.33060968  1
  Zn  Zn105  1  -0.00125979  0.24998238  0.24453333  1
  Zn  Zn106  1  0.62622854  0.37261906  0.25056729  1
  Zn  Zn107  1  0.18555655  0.18004226  0.19270732  1
  Zn  Zn108  1  0.18596893  0.18418990  0.68911857  1
  Zn  Zn109  1  0.21396588  0.73605600  0.21568564  1
  Zn  Zn110  1  0.18862700  0.68537185  0.68787996  1
  Zn  Zn111  1  0.68383208  0.18266786  0.19288662  1
  Zn  Zn112  1  0.68652746  0.18228783  0.68759167  1
  Zn  Zn113  1  0.68916411  0.68782674  0.18685962  1
  Zn  Zn114  1  0.68759287  0.68707728  0.68359215  1
  Zn  Zn115  1  0.31466091  0.31138602  0.31224045  1
  Zn  Zn116  1  0.31118847  0.31110909  0.81137799  1
  Zn  Zn117  1  0.26637452  0.96047652  0.24725274  1
  Zn  Zn118  1  0.31021312  0.81240913  0.81379587  1
  Zn  Zn119  1  0.81202913  0.31190637  0.31246993  1
  Zn  Zn120  1  0.81484988  0.31240980  0.80990612  1
  Zn  Zn121  1  0.81304847  0.81160186  0.30863595  1
  Zn  Zn122  1  0.81169506  0.81725668  0.81107931  1
  Zn  Zn123  1  0.18703329  0.43748170  0.43801407  1
  Zn  Zn124  1  0.18678766  0.43583996  0.94141047  1
  Zn  Zn125  1  0.18537662  0.93260323  0.43371251  1
  Zn  Zn126  1  0.19131264  0.93628021  0.93317317  1
  Zn  Zn127  1  0.68594092  0.43339009  0.43521745  1
  Zn  Zn128  1  0.69021460  0.43285565  0.93659205  1
  Zn  Zn129  1  0.69291406  0.94103334  0.44237364  1
  Zn  Zn130  1  0.68911428  0.93323244  0.94241869  1
  Zn  Zn131  1  0.31341898  0.05881148  0.06906317  1
  Zn  Zn132  1  0.31531124  0.06256069  0.55563924  1
  Zn  Zn133  1  0.30909676  0.56399320  0.06459617  1
  Zn  Zn134  1  0.31059627  0.56468247  0.56244850  1
  Zn  Zn135  1  0.81409686  0.06223433  0.06914967  1
  Zn  Zn136  1  0.81590651  0.06207061  0.56627107  1
  Zn  Zn137  1  0.81655718  0.56087826  0.06416229  1
  Zn  Zn138  1  0.79162996  0.52953884  0.54359429  1
  Zn  Zn139  1  0.43469397  0.43478476  0.19079728  1
  Zn  Zn140  1  0.43748873  0.43747106  0.68879772  1
  Zn  Zn141  1  0.44104960  0.93702637  0.17213462  1
  Zn  Zn142  1  0.44002350  0.93532412  0.68277738  1
  Zn  Zn143  1  0.94014427  0.43892320  0.18752309  1
  Zn  Zn144  1  0.93530738  0.43425035  0.68659098  1
  Zn  Zn145  1  0.93786555  0.93990919  0.18516343  1
  Zn  Zn146  1  0.94875091  0.95238360  0.71999754  1
  Zn  Zn147  1  0.05906717  0.05973634  0.31454498  1
  Zn  Zn148  1  0.06352706  0.06487110  0.81299921  1
  Zn  Zn149  1  0.06646896  0.56398366  0.31502517  1
  Zn  Zn150  1  0.06270108  0.56147347  0.81444187  1
  Zn  Zn151  1  0.56540555  0.06880133  0.31446627  1
  Zn  Zn152  1  0.56694229  0.06340418  0.81176167  1
  Zn  Zn153  1  0.56496164  0.56572209  0.30997769  1
  Zn  Zn154  1  0.56044199  0.56420103  0.81006825  1
  Zn  Zn155  1  0.43827359  0.18894734  0.43942566  1
  Zn  Zn156  1  0.43801473  0.18709603  0.94078532  1
  Zn  Zn157  1  0.43583912  0.69910407  0.43319473  1
  Zn  Zn158  1  0.43963784  0.68474141  0.93722464  1
  Zn  Zn159  1  0.93785522  0.18349897  0.43806203  1
  Zn  Zn160  1  0.93882565  0.18812275  0.93790079  1
  Zn  Zn161  1  0.93065324  0.67883862  0.44219269  1
  Zn  Zn162  1  0.93817480  0.69120501  0.93811313  1
  Zn  Zn163  1  0.06229904  0.30960508  0.06585029  1
  Zn  Zn164  1  0.06297724  0.31033996  0.55661477  1
  Zn  Zn165  1  0.06243710  0.81857966  0.06467913  1
  Zn  Zn166  1  0.06432411  0.81172731  0.56659454  1
  Zn  Zn167  1  0.56299235  0.30998433  0.06288671  1
  Zn  Zn168  1  0.56093040  0.31449158  0.56319840  1
  Zn  Zn169  1  0.56258668  0.81097447  0.05993515  1
  Zn  Zn170  1  0.56727963  0.81332595  0.55961247  1
  O  O171  1  0.11555183  0.11131549  0.12971637  1
  O  O172  1  0.11795958  0.11332253  0.62404738  1
  O  O173  1  0.13067973  0.62992783  0.11010203  1
  O  O174  1  0.11736012  0.61553685  0.62610179  1
  O  O175  1  0.61143716  0.13250945  0.11540306  1
  O  O176  1  0.61327447  0.11668329  0.62756028  1
  O  O177  1  0.62633361  0.61161879  0.11832584  1
  O  O178  1  0.61329372  0.61876223  0.62399641  1
  O  O179  1  0.38307692  0.37701582  0.38319940  1
  O  O180  1  0.38032086  0.38024503  0.87626284  1
  O  O181  1  0.37891500  0.85793083  0.39423752  1
  O  O182  1  0.38278741  0.87969458  0.87834230  1
  O  O183  1  0.88288108  0.37501664  0.37841521  1
  O  O184  1  0.88198693  0.37914480  0.88029599  1
  O  O185  1  0.87033064  0.88899105  0.37277705  1
  O  O186  1  0.87535947  0.86567408  0.89398340  1
  O  O187  1  0.25272401  0.00128433  0.36873104  1
  O  O188  1  0.25683244  0.00577533  0.86397917  1
  O  O189  1  0.25080582  0.51337305  0.37098655  1
  O  O190  1  0.25652341  0.50369870  0.87444195  1
  O  O191  1  0.75905652  0.00696652  0.36859314  1
  O  O192  1  0.74357483  -0.00419739  0.86273954  1
  O  O193  1  0.74605719  0.50693068  0.35911639  1
  O  O194  1  0.75357365  0.50512809  0.86560552  1
  O  O195  1  0.24825398  0.49261075  0.13411481  1
  O  O196  1  0.24143910  0.49312728  0.62584189  1
  O  O197  1  0.23525251  1.00415263  0.13372106  1
  O  O198  1  0.24414127  1.00806427  0.63385308  1
  O  O199  1  0.74394493  0.49409088  0.13186607  1
  O  O200  1  0.73371264  0.51265191  0.64300703  1
  O  O201  1  0.75489810  0.99259016  0.14096625  1
  O  O202  1  0.74241768  0.99412699  0.62525247  1
  O  O203  1  0.00048421  0.37085859  0.26299876  1
  O  O204  1  -0.00062942  0.36323952  0.75632440  1
  O  O205  1  0.00987363  0.87105867  0.24406080  1
  O  O206  1  0.01992989  0.86328528  0.73876453  1
  O  O207  1  0.50126409  0.36696533  0.25944758  1
  O  O208  1  0.50608117  0.36795661  0.75608490  1
  O  O209  1  0.50098874  0.86519041  0.24778618  1
  O  O210  1  0.49593810  0.86094321  0.75401979  1
  O  O211  1  0.50452977  0.13254744  0.24145575  1
  O  O212  1  0.49503585  0.12902158  0.74254906  1
  O  O213  1  0.48875649  0.62839380  0.24863122  1
  O  O214  1  0.49272890  0.63632342  0.74472908  1
  O  O215  1  0.98662848  0.12506399  0.25204058  1
  O  O216  1  0.99255167  0.13579542  0.73937488  1
  O  O217  1  0.98530497  0.61867480  0.25649061  1
  O  O218  1  0.99283368  0.62489779  0.74465658  1
  O  O219  1  0.37468925  0.25119200  0.01511714  1
  O  O220  1  0.37282281  0.26068482  0.50709162  1
  O  O221  1  0.37006890  0.75199078  0.00279893  1
  O  O222  1  0.36766556  0.75416014  0.50980095  1
  O  O223  1  0.87217438  0.26288724  -0.00472820  1
  O  O224  1  0.87594565  0.24660133  0.51491350  1
  O  O225  1  0.86869731  0.74991658  0.01112910  1
  O  O226  1  0.85935621  0.74201855  0.50628712  1
  O  O227  1  0.12871259  0.24409719  0.48797921  1
  O  O228  1  0.12693552  0.24974541  0.98649014  1
  O  O229  1  0.13164549  0.75194978  0.49399353  1
  O  O230  1  0.13186078  0.74672827  0.99625346  1
  O  O231  1  0.62335338  0.25348557  0.48819232  1
  O  O232  1  0.62632695  0.24246969  0.99163558  1
  O  O233  1  0.63495052  0.74665714  0.49157244  1
  O  O234  1  0.63105482  0.74126707  0.99219325  1
  O  O235  1  0.49461002  0.24579500  0.13358830  1
  O  O236  1  0.49707245  0.24124134  0.62988429  1
  O  O237  1  0.49722369  0.74561547  0.12993488  1
  O  O238  1  0.49496382  0.74432633  0.63136844  1
  O  O239  1  1.00979958  0.22912470  0.12889034  1
  O  O240  1  1.00154321  0.24247820  0.63091318  1
  O  O241  1  0.98653717  0.74960851  0.11988945  1
  O  O242  1  0.99957083  0.73451386  0.62588452  1
  O  O243  1  0.01054641  0.25373558  0.37671155  1
  O  O244  1  0.00710937  0.25353556  0.86711393  1
  O  O245  1  0.00785663  0.74447498  0.38762711  1
  O  O246  1  0.01423448  0.75206716  0.87411991  1
  O  O247  1  0.50942724  0.25417215  0.37093495  1
  O  O248  1  0.50594855  0.25539360  0.87030492  1
  O  O249  1  0.51280331  0.74723854  0.36436805  1
  O  O250  1  0.50743560  0.75185618  0.86744736  1
  O  O251  1  0.24885337  0.12211520  0.48259282  1
  O  O252  1  0.25875984  0.12305010  0.98486167  1
  O  O253  1  0.24865000  0.63414847  0.49407908  1
  O  O254  1  0.24277212  0.63313370  0.99355415  1
  O  O255  1  0.75420024  0.12063137  0.48738902  1
  O  O256  1  0.73713025  0.12404758  1.00968530  1
  O  O257  1  0.74591068  0.62573250  0.48881781  1
  O  O258  1  0.74636006  0.62775604  0.99311132  1
  O  O259  1  0.25180239  0.36985658  0.01116899  1
  O  O260  1  0.25608484  0.37353990  0.51090417  1
  O  O261  1  0.26056647  0.86477144  -0.00790495  1
  O  O262  1  0.25671414  0.86457959  0.49839935  1
  O  O263  1  0.75777397  0.37287764  0.00904715  1
  O  O264  1  0.76460160  0.42013733  0.51028912  1
  O  O265  1  0.75944438  0.86896752  0.00810955  1
  O  O266  1  0.74880984  0.86647851  0.51246966  1
  O  O267  1  0.13995260  0.50095846  0.25155262  1
  O  O268  1  0.12486949  0.49551562  0.73849722  1
  O  O269  1  0.12639418  0.98756167  0.25523907  1
  O  O270  1  0.13551583  0.99349928  0.74139889  1
  O  O271  1  0.63141373  0.49788187  0.23956962  1
  O  O272  1  0.62885701  0.49207902  0.74792482  1
  O  O273  1  0.64278728  1.00564273  0.25592344  1
  O  O274  1  0.63771132  1.00610809  0.74140949  1
  O  O275  1  0.37626984  -0.01791512  0.25005679  1
  O  O276  1  0.37016428  0.00216904  0.75115234  1
  O  O277  1  0.36586497  0.51016764  0.25249038  1
  O  O278  1  0.37474184  0.50620188  0.75989734  1
  O  O279  1  0.87067257  0.00719637  0.26150242  1
  O  O280  1  0.85365530  0.01318519  0.73942218  1
  O  O281  1  0.86638630  0.50745222  0.25012026  1
  O  O282  1  0.86621099  0.50321340  0.75404009  1
  O  O283  1  0.11952790  0.36351524  0.37604462  1
  O  O284  1  0.11908952  0.36757962  0.87300707  1
  O  O285  1  0.11845412  0.86263191  0.36758045  1
  O  O286  1  0.12238293  0.86922431  0.86782407  1
  O  O287  1  0.61876462  0.36537244  0.37365260  1
  O  O288  1  0.61877824  0.36919117  0.86569990  1
  O  O289  1  0.63426507  0.86469371  0.37638186  1
  O  O290  1  0.62021570  0.86025315  0.88046780  1
  O  O291  1  0.38900455  0.13161147  0.12077261  1
  O  O292  1  0.38248105  0.12970536  0.62925651  1
  O  O293  1  0.37711265  0.63381715  0.13064252  1
  O  O294  1  0.38035876  0.63210575  0.63077598  1
  O  O295  1  0.88883086  0.11732207  0.13814915  1
  O  O296  1  0.88161612  0.13538316  0.63197048  1
  O  O297  1  0.86946505  0.63883320  0.13147086  1
  O  O298  1  0.88161723  0.62008438  0.63835442  1
  O  O299  1  0.25686513  0.25170383  0.12896818  1
  O  O300  1  0.25469063  0.25473500  0.62298028  1
  O  O301  1  0.26196360  0.74579177  0.11217078  1
  O  O302  1  0.25810423  0.74311122  0.61591782  1
  O  O303  1  0.74267746  0.26137187  0.12663778  1
  O  O304  1  0.75993447  0.24789271  0.62755649  1
  O  O305  1  0.75364102  0.75739010  0.11945135  1
  O  O306  1  0.74950171  0.76019459  0.61977436  1
  O  O307  1  0.23946091  0.24925729  0.37567393  1
  O  O308  1  0.24272600  0.24085860  0.87378718  1
  O  O309  1  0.23986063  0.73994531  0.38482991  1
  O  O310  1  0.24176677  0.74522784  0.88479671  1
  O  O311  1  0.73705921  0.24529707  0.37171589  1
  O  O312  1  0.73784026  0.25583218  0.87692333  1
  O  O313  1  0.74639773  0.74455328  0.38017314  1
  O  O314  1  0.74345799  0.74555739  0.87942223  1
  O  O315  1  -0.00558633  0.12160896  0.01176321  1
  O  O316  1  0.00035203  0.11713694  0.51264689  1
  O  O317  1  0.01591764  0.62599718  -0.00563763  1
  O  O318  1  0.00432358  0.61740515  0.51047836  1
  O  O319  1  0.50803808  0.11744205  0.00458113  1
  O  O320  1  0.49258215  0.11405239  0.51026839  1
  O  O321  1  0.50794798  0.61485381  0.00093827  1
  O  O322  1  0.49734940  0.63204203  0.51108624  1
  O  O323  1  0.49116355  0.37126653  0.49068115  1
  O  O324  1  0.49882225  0.38184071  0.99388632  1
  O  O325  1  0.49257300  0.88402988  0.50831404  1
  O  O326  1  0.49617001  0.88188018  0.99206154  1
  O  O327  1  0.99662995  0.38044349  0.49077319  1
  O  O328  1  0.99426975  0.37350405  0.99392059  1
  O  O329  1  0.99494218  0.88455286  0.51226236  1
  O  O330  1  0.98528069  0.87579001  1.00011734  1
  O  O331  1  0.50110532  0.48805555  0.36956173  1
  O  O332  1  0.49429776  0.49445150  0.87990602  1
  O  O333  1  0.50890846  1.00131337  0.38807120  1
  O  O334  1  0.49558262  0.99518389  0.87722342  1
  O  O335  1  1.00481117  0.49008618  0.38259534  1
  O  O336  1  0.99505864  0.49086963  0.87768862  1
  O  O337  1  0.98606700  1.00247546  0.38565595  1
  O  O338  1  0.98555424  0.99010478  0.82821443  1
  O  O339  1  0.01194910  0.01296737  0.13019473  1
  O  O340  1  0.00654465  0.00700379  0.62375967  1
  O  O341  1  0.00768965  0.49608058  0.12124373  1
  O  O342  1  0.00525404  0.50494145  0.62147500  1
  O  O343  1  0.50334108  0.00833453  0.11116418  1
  O  O344  1  0.50860026  0.00525966  0.62121009  1
  O  O345  1  0.50752124  0.49762292  0.11973538  1
  O  O346  1  0.50652657  0.51290898  0.63517222  1
  O  O347  1  0.25188055  0.38661198  0.24677184  1
  O  O348  1  0.25008946  0.37588823  0.73572397  1
  O  O349  1  0.21566132  0.85416289  0.24266967  1
  O  O350  1  0.24174689  0.88469802  0.75418573  1
  O  O351  1  0.74990249  0.38316110  0.24263784  1
  O  O352  1  0.74007926  0.38377238  0.75398919  1
  O  O353  1  0.75412164  0.88827864  0.24353019  1
  O  O354  1  0.75065073  0.88997154  0.74426620  1
  O  O355  1  0.25090428  0.12597158  0.26960628  1
  O  O356  1  0.25739167  0.11669716  0.75684273  1
  O  O357  1  0.26153797  0.62885440  0.25740804  1
  O  O358  1  0.25713315  0.62205363  0.75835865  1
  O  O359  1  0.76020489  0.11524399  0.25258949  1
  O  O360  1  0.75456740  0.11499896  0.75030127  1
  O  O361  1  0.75610873  0.61830612  0.25334848  1
  O  O362  1  0.75653552  0.62082268  0.75598237  1
  O  O363  1  0.36767540  0.12289041  0.37685721  1
  O  O364  1  0.37177386  0.11957327  0.86724537  1
  O  O365  1  0.36899267  0.62744254  0.36864780  1
  O  O366  1  0.36876769  0.61928392  0.87108462  1
  O  O367  1  0.86813421  0.12084428  0.36603537  1
  O  O368  1  0.87580182  0.13367604  0.86047731  1
  O  O369  1  0.86204388  0.62326127  0.36523310  1
  O  O370  1  0.87250635  0.61986827  0.86581370  1
  O  O371  1  0.13829613  0.37187188  0.13045959  1
  O  O372  1  0.13214731  0.37955471  0.62440518  1
  O  O373  1  0.11619249  0.89274192  0.13267555  1
  O  O374  1  0.12925054  0.88685375  0.62995482  1
  O  O375  1  0.63247020  0.38446466  0.12386224  1
  O  O376  1  0.61566829  0.38322813  0.63828592  1
  O  O377  1  0.63982184  0.87329047  0.11626406  1
  O  O378  1  0.63117964  0.88486084  0.62803389  1
  O  O379  1  0.12250699  0.25136102  0.26317370  1
  O  O380  1  0.11633838  0.25056830  0.75719294  1
  O  O381  1  0.11167004  0.74625980  0.26702130  1
  O  O382  1  0.13133452  0.75655902  0.75928054  1
  O  O383  1  0.61377512  0.25247370  0.25712925  1
  O  O384  1  0.62108652  0.25542082  0.75531464  1
  O  O385  1  0.61695310  0.74395943  0.25745304  1
  O  O386  1  0.61647299  0.74332604  0.75831511  1
  O  O387  1  0.38731027  0.25392887  0.24036543  1
  O  O388  1  0.38139239  0.24461941  0.74337955  1
  O  O389  1  0.38560132  0.74394409  0.23813477  1
  O  O390  1  0.37906998  0.74526337  0.74448378  1
  O  O391  1  0.87426413  0.23354606  0.25273674  1
  O  O392  1  0.88010037  0.24457209  0.73997464  1
  O  O393  1  0.87086845  0.74361488  0.23532060  1
  O  O394  1  0.87575447  0.74121813  0.74753395  1
  O  O395  1  0.37174362  0.48771944  0.50090064  1
  O  O396  1  0.38074493  0.49985670  0.99328917  1
  O  O397  1  0.38617699  0.98656784  0.50720073  1
  O  O398  1  0.38469267  0.99493647  0.99459162  1
  O  O399  1  0.89419429  0.50993194  0.49343235  1
  O  O400  1  0.87484304  0.49027457  0.99195603  1
  O  O401  1  0.87932322  1.00386037  0.48671843  1
  O  O402  1  0.86879304  0.98634480  1.00141303  1
  O  O403  1  0.13147436  -0.00467281  0.01155405  1
  O  O404  1  0.11669383  -0.00244533  0.50565370  1
  O  O405  1  0.12795268  0.51637435  0.00084393  1
  O  O406  1  0.11658116  0.50014341  0.51134376  1
  O  O407  1  0.61476631  0.00742005  -0.00941651  1
  O  O408  1  0.61668282  -0.00365953  0.51095703  1
  O  O409  1  0.62055511  0.50170814  0.00420576  1
  O  O410  1  0.62020241  0.50215053  0.51413861  1
  O  O411  1  0.36372053  0.36716855  0.12602405  1
  O  O412  1  0.37020506  0.36988446  0.62019001  1
  O  O413  1  0.38083202  0.85929109  0.11150205  1
  O  O414  1  0.37584241  0.86106365  0.62107195  1
  O  O415  1  0.86624102  0.37829163  0.11693765  1
  O  O416  1  0.87991653  0.35542058  0.62476907  1
  O  O417  1  0.86932422  0.86514520  0.11729231  1
  O  O418  1  0.86580943  0.87754325  0.63618355  1
  O  O419  1  0.12702703  0.13391565  0.37574840  1
  O  O420  1  0.13565756  0.13189512  0.86785381  1
  O  O421  1  0.13090808  0.63557619  0.37950114  1
  O  O422  1  0.13211277  0.63279435  0.87835388  1
  O  O423  1  0.63482616  0.13953433  0.37432271  1
  O  O424  1  0.61860191  0.13598122  0.88536362  1
  O  O425  1  0.63594771  0.63072184  0.37371602  1
  O  O426  1  0.62982430  0.63255448  0.87808388  1
