# generated using pymatgen
data_V85Zn86O256
_symmetry_space_group_name_H-M   'P 1'
_cell_length_a   16.90510267
_cell_length_b   16.89931617
_cell_length_c   16.90412188
_cell_angle_alpha   90.01446300
_cell_angle_beta   89.96434030
_cell_angle_gamma   89.95610360
_symmetry_Int_Tables_number   1
_chemical_formula_structural   V85Zn86O256
_chemical_formula_sum   'V85 Zn86 O256'
_cell_volume   4829.24605612
_cell_formula_units_Z   1
loop_
 _symmetry_equiv_pos_site_id
 _symmetry_equiv_pos_as_xyz
  1  'x, y, z'
loop_
 _atom_site_type_symbol
 _atom_site_label
 _atom_site_symmetry_multiplicity
 _atom_site_fract_x
 _atom_site_fract_y
 _atom_site_fract_z
 _atom_site_occupancy
  V  V0  1  0.62550240  0.00715034  0.62151533  1
  V  V1  1  0.25123525  0.62587777  0.37568923  1
  V  V2  1  0.13164650  0.62239732  0.00356666  1
  V  V3  1  -0.00377537  0.24812891  0.75129571  1
  V  V4  1  0.49425334  0.25404730  0.75269362  1
  V  V5  1  0.87436474  0.00282495  0.37454167  1
  V  V6  1  0.47908921  0.02392292  0.01684940  1
  V  V7  1  0.74546129  0.49879016  0.74040257  1
  V  V8  1  0.24686306  0.50320555  0.75847512  1
  V  V9  1  0.50493362  0.86975790  0.37690853  1
  V  V10  1  0.37316121  0.62753336  0.75648390  1
  V  V11  1  0.74910680  0.00401625  0.24991525  1
  V  V12  1  0.49092127  0.23622193  0.23466134  1
  V  V13  1  0.74791149  0.37423749  0.12711442  1
  V  V14  1  0.12045841  0.24844363  0.36067309  1
  V  V15  1  -0.00099111  0.12318088  0.63061635  1
  V  V16  1  0.37471094  0.37225804  0.49947486  1
  V  V17  1  0.13247487  0.74416298  0.87522018  1
  V  V18  1  -0.00076702  0.75173878  0.75091983  1
  V  V19  1  0.50226226  0.62241439  0.62750890  1
  V  V20  1  0.74629774  -0.00207529  0.75265437  1
  V  V21  1  0.86996169  0.36711473  0.49959405  1
  V  V22  1  0.25716041  0.74257666  0.00222355  1
  V  V23  1  0.24674338  0.37498131  0.63109808  1
  V  V24  1  0.61834502  0.49731742  0.12965688  1
  V  V25  1  0.62454915  0.75640764  0.87253152  1
  V  V26  1  0.13644341  0.23548086  0.87064021  1
  V  V27  1  0.73987203  0.13073548  0.38688469  1
  V  V28  1  0.38268576  0.48977049  0.87466939  1
  V  V29  1  0.24936984  0.12559375  0.37880092  1
  V  V30  1  0.00131145  0.74836846  0.24924964  1
  V  V31  1  0.12503427  0.75038126  0.37580561  1
  V  V32  1  0.00045360  0.00372842  0.00624345  1
  V  V33  1  0.75221203  0.25126469  0.00299656  1
  V  V34  1  0.87246054  0.87379148  0.50321201  1
  V  V35  1  0.50255052  0.75872501  0.75065439  1
  V  V36  1  0.13190398  0.87370559  0.74548206  1
  V  V37  1  0.13201382  0.00027261  0.62214414  1
  V  V38  1  0.87299942  0.62392207  0.74959063  1
  V  V39  1  0.01305103  0.37343666  0.86933945  1
  V  V40  1  0.62681726  0.86542447  0.25336554  1
  V  V41  1  0.86599926  0.24366162  0.62561628  1
  V  V42  1  0.00058880  0.49627956  0.49956642  1
  V  V43  1  0.24698074  0.00484440  0.24919477  1
  V  V44  1  0.50033772  0.88989524  0.87594189  1
  V  V45  1  0.87653945  0.00307540  0.87213508  1
  V  V46  1  0.87471996  0.62368824  0.25076536  1
  V  V47  1  0.74349864  0.63176873  0.37468712  1
  V  V48  1  0.62169980  0.37746739  0.74155661  1
  V  V49  1  0.74925610  0.75059965  0.00015650  1
  V  V50  1  0.00349956  0.00588400  0.50149543  1
  V  V51  1  0.31255177  0.05907737  0.92680138  1
  V  V52  1  0.12360638  0.49443010  0.63099662  1
  V  V53  1  -0.00184642  0.62285843  0.62525963  1
  V  V54  1  0.87870171  0.74789619  0.12245751  1
  V  V55  1  0.87309497  0.49625418  0.87501316  1
  V  V56  1  0.50581490  0.49581870  0.50331695  1
  V  V57  1  0.61841250  0.25858159  0.38060949  1
  V  V58  1  0.23723168  0.24761744  0.50274552  1
  V  V59  1  0.49847723  0.48593458  -0.00297266  1
  V  V60  1  0.49881145  0.12857299  0.61886373  1
  V  V61  1  0.62192159  0.62583665  0.00020967  1
  V  V62  1  0.37568833  0.86856206  -0.00459534  1
  V  V63  1  0.00452210  0.49732880  0.00064012  1
  V  V64  1  0.25583596  0.87044985  0.12897985  1
  V  V65  1  0.00339520  0.37066927  0.36246106  1
  V  V66  1  0.62138824  0.25965151  0.87615279  1
  V  V67  1  0.37464256  0.87702326  0.50660506  1
  V  V68  1  0.62279897  0.12666097  0.00411581  1
  V  V69  1  0.49021774  0.75462823  0.24649068  1
  V  V70  1  0.37790642  0.00512220  0.37472774  1
  V  V71  1  0.49102627  0.62909306  0.12354756  1
  V  V72  1  0.62404331  0.00123148  0.12579850  1
  V  V73  1  -0.00036585  0.87523367  0.37628503  1
  V  V74  1  0.62123608  0.63215403  0.49908963  1
  V  V75  1  0.28672471  0.32581905  0.06082874  1
  V  V76  1  0.75267571  0.12884233  0.86848944  1
  V  V77  1  0.74148751  0.87310150  0.63039413  1
  V  V78  1  0.25683028  0.00285327  0.74740989  1
  V  V79  1  0.87482929  0.49784183  0.37463478  1
  V  V80  1  0.24246884  0.48776769  0.24937751  1
  V  V81  1  0.88011851  0.13376028  0.24659528  1
  V  V82  1  0.25004201  0.75392944  0.50793961  1
  V  V83  1  0.74385140  0.49604369  0.25142535  1
  V  V84  1  0.37598768  0.49942694  0.37304746  1
  Zn  Zn85  1  0.50391311  0.37718684  0.35280365  1
  Zn  Zn86  1  -0.00065277  0.87535798  0.87668641  1
  Zn  Zn87  1  0.12552454  0.87465545  0.24756289  1
  Zn  Zn88  1  0.50567243  0.00493071  0.49765156  1
  Zn  Zn89  1  0.13469468  0.46790125  0.12477990  1
  Zn  Zn90  1  0.87667236  0.87468702  -0.00028960  1
  Zn  Zn91  1  0.74407616  0.75306302  0.49807305  1
  Zn  Zn92  1  0.12516971  0.62398125  0.50160246  1
  Zn  Zn93  1  0.13996706  0.12438036  0.00125964  1
  Zn  Zn94  1  0.37193607  0.75387782  0.62858895  1
  Zn  Zn95  1  0.75229956  0.87405723  0.12611036  1
  Zn  Zn96  1  0.87921624  0.37310485  0.00051596  1
  Zn  Zn97  1  0.74760941  0.62376149  0.87336529  1
  Zn  Zn98  1  0.00610681  0.61691873  0.12814889  1
  Zn  Zn99  1  0.01179989  0.14152581  0.12880047  1
  Zn  Zn100  1  0.74502066  0.37169602  0.61747670  1
  Zn  Zn101  1  0.87072182  0.74992833  0.62632829  1
  Zn  Zn102  1  0.37020136  0.12813468  0.75589337  1
  Zn  Zn103  1  0.88803807  0.25955973  0.13011331  1
  Zn  Zn104  1  0.12580020  0.00123693  0.12669103  1
  Zn  Zn105  1  0.37168372  0.62654411  0.24628893  1
  Zn  Zn106  1  0.36976810  0.24738930  0.62772017  1
  Zn  Zn107  1  0.18784046  0.18563743  0.18793638  1
  Zn  Zn108  1  0.18210035  0.18465335  0.69082464  1
  Zn  Zn109  1  0.19069800  0.68618876  0.18660285  1
  Zn  Zn110  1  0.18598671  0.68190574  0.68672659  1
  Zn  Zn111  1  0.67983492  0.19055016  0.19411910  1
  Zn  Zn112  1  0.68404458  0.18728254  0.68960177  1
  Zn  Zn113  1  0.68503799  0.68483669  0.18563367  1
  Zn  Zn114  1  0.68384833  0.68709787  0.68675288  1
  Zn  Zn115  1  0.31662532  0.30713856  0.31067505  1
  Zn  Zn116  1  0.31054615  0.31829325  0.81987602  1
  Zn  Zn117  1  0.31514214  0.81681640  0.31760772  1
  Zn  Zn118  1  0.31222658  0.81343581  0.81407536  1
  Zn  Zn119  1  0.80702813  0.31194408  0.31536384  1
  Zn  Zn120  1  0.81388559  0.31455203  0.81019733  1
  Zn  Zn121  1  0.81355198  0.81315516  0.31212595  1
  Zn  Zn122  1  0.81258523  0.81595269  0.81378833  1
  Zn  Zn123  1  0.18582550  0.43347044  0.43713366  1
  Zn  Zn124  1  0.18985231  0.43170702  0.93961912  1
  Zn  Zn125  1  0.18852168  0.93650988  0.43891954  1
  Zn  Zn126  1  0.18044422  0.92875352  0.93895190  1
  Zn  Zn127  1  0.68482607  0.43894627  0.43722009  1
  Zn  Zn128  1  0.68656004  0.43761151  0.93748600  1
  Zn  Zn129  1  0.68717328  0.94042464  0.43818453  1
  Zn  Zn130  1  0.68545826  0.93838025  0.94014804  1
  Zn  Zn131  1  0.34369161  0.16381515  0.08921305  1
  Zn  Zn132  1  0.31427013  0.06548563  0.56246047  1
  Zn  Zn133  1  0.31377053  0.55300699  0.06242350  1
  Zn  Zn134  1  0.31550817  0.56343664  0.56419077  1
  Zn  Zn135  1  0.81305090  0.06472635  0.06238094  1
  Zn  Zn136  1  0.81440003  0.06098335  0.56493005  1
  Zn  Zn137  1  0.81245650  0.56347382  0.06176529  1
  Zn  Zn138  1  0.81179622  0.56186401  0.56060702  1
  Zn  Zn139  1  0.42763452  0.42505717  0.18270962  1
  Zn  Zn140  1  0.43591562  0.43650733  0.68674821  1
  Zn  Zn141  1  0.41118910  0.98401737  0.16653902  1
  Zn  Zn142  1  0.43996529  0.93978215  0.68769259  1
  Zn  Zn143  1  0.93712669  0.43829892  0.18365911  1
  Zn  Zn144  1  0.93402597  0.43156797  0.68822696  1
  Zn  Zn145  1  0.93644780  0.93603074  0.18769643  1
  Zn  Zn146  1  0.93431083  0.93800432  0.69012069  1
  Zn  Zn147  1  0.06475619  0.06587374  0.31487337  1
  Zn  Zn148  1  0.06093919  0.06075458  0.80926746  1
  Zn  Zn149  1  0.06538690  0.56082613  0.31231208  1
  Zn  Zn150  1  0.06327562  0.56445297  0.81481437  1
  Zn  Zn151  1  0.56170868  0.06356471  0.31110869  1
  Zn  Zn152  1  0.56489694  0.07046880  0.81036947  1
  Zn  Zn153  1  0.55964631  0.56561398  0.31245953  1
  Zn  Zn154  1  0.56309955  0.56529942  0.81255671  1
  Zn  Zn155  1  0.43576654  0.19082771  0.43658367  1
  Zn  Zn156  1  0.43457216  0.21232711  0.94303030  1
  Zn  Zn157  1  0.43739485  0.68988075  0.43680994  1
  Zn  Zn158  1  0.43892988  0.68618133  0.93525737  1
  Zn  Zn159  1  0.93707279  0.18656384  0.43637759  1
  Zn  Zn160  1  0.93855363  0.18689682  0.94040380  1
  Zn  Zn161  1  0.93530902  0.68600184  0.43858868  1
  Zn  Zn162  1  0.94048425  0.68256760  0.93634114  1
  Zn  Zn163  1  0.08020438  0.30823406  0.06037571  1
  Zn  Zn164  1  0.05796559  0.31243978  0.56293038  1
  Zn  Zn165  1  0.06586396  0.81569212  0.06190040  1
  Zn  Zn166  1  0.06219135  0.81437969  0.56424402  1
  Zn  Zn167  1  0.56138479  0.31139259  0.07321026  1
  Zn  Zn168  1  0.56243335  0.30803093  0.56035146  1
  Zn  Zn169  1  0.56065816  0.81878651  0.06514674  1
  Zn  Zn170  1  0.56169395  0.81449443  0.56517424  1
  O  O171  1  0.12582911  0.11863217  0.11950860  1
  O  O172  1  0.11156685  0.11327024  0.62678851  1
  O  O173  1  0.12365306  0.62893988  0.11030010  1
  O  O174  1  0.11751546  0.61172645  0.62199748  1
  O  O175  1  0.63278998  0.11669331  0.11464826  1
  O  O176  1  0.61485337  0.11905533  0.63006463  1
  O  O177  1  0.61628184  0.61437411  0.12018521  1
  O  O178  1  0.61094800  0.62565796  0.61832827  1
  O  O179  1  0.37422840  0.38199790  0.38634155  1
  O  O180  1  0.38857425  0.39161077  0.86186109  1
  O  O181  1  0.38425121  0.88208125  0.38563627  1
  O  O182  1  0.38698580  0.86550530  0.88559875  1
  O  O183  1  0.88027440  0.37753181  0.38071457  1
  O  O184  1  0.88214483  0.38542584  0.87704200  1
  O  O185  1  0.87853426  0.88201528  0.38260916  1
  O  O186  1  0.87615143  0.88842116  0.87792538  1
  O  O187  1  0.25396452  0.00655328  0.37280385  1
  O  O188  1  0.24642349  0.00116700  0.86943262  1
  O  O189  1  0.25354161  0.50690369  0.37105258  1
  O  O190  1  0.26175773  0.49616378  0.86342323  1
  O  O191  1  0.75310962  0.01046651  0.36875894  1
  O  O192  1  0.75234966  0.00665558  0.87128989  1
  O  O193  1  0.75299918  0.50703971  0.36742112  1
  O  O194  1  0.75869332  0.50109885  0.86896227  1
  O  O195  1  0.24686432  0.51226334  0.14653496  1
  O  O196  1  0.24249693  0.49553955  0.63077344  1
  O  O197  1  0.25252008  0.99371130  0.14468606  1
  O  O198  1  0.23892180  1.00276232  0.62929576  1
  O  O199  1  0.74189045  0.49741216  0.13157999  1
  O  O200  1  0.75353774  0.49711023  0.63707377  1
  O  O201  1  0.74357399  0.99819511  0.13234287  1
  O  O202  1  0.74556299  0.99683656  0.63324410  1
  O  O203  1  -0.00486099  0.38065790  0.26353088  1
  O  O204  1  -0.00354048  0.36555202  0.75873382  1
  O  O205  1  0.00016664  0.86762610  0.25889113  1
  O  O206  1  0.00759470  0.86685244  0.75134185  1
  O  O207  1  0.49560839  0.35806523  0.24041615  1
  O  O208  1  0.50734436  0.36458443  0.74272693  1
  O  O209  1  0.51002845  0.86732408  0.25753816  1
  O  O210  1  0.49535669  0.86669103  0.75929940  1
  O  O211  1  0.49802828  0.13452753  0.25257542  1
  O  O212  1  0.49704674  0.13815933  0.74444996  1
  O  O213  1  0.49904590  0.63570238  0.24272797  1
  O  O214  1  0.49556512  0.63389917  0.74408068  1
  O  O215  1  0.98336016  0.11836398  0.24919996  1
  O  O216  1  0.99660411  0.13001414  0.74087787  1
  O  O217  1  0.99407752  0.62898284  0.24955637  1
  O  O218  1  0.99448377  0.63064598  0.74491700  1
  O  O219  1  0.36654103  0.25416326  0.01976619  1
  O  O220  1  0.36190489  0.25904137  0.50137791  1
  O  O221  1  0.36848135  0.75446326  -0.00180923  1
  O  O222  1  0.36708472  0.75720696  0.50107455  1
  O  O223  1  0.86145303  0.25041213  0.00309563  1
  O  O224  1  0.88078867  0.25705908  0.50896631  1
  O  O225  1  0.86966092  0.74700428  0.00533831  1
  O  O226  1  0.87433513  0.76288534  0.50200660  1
  O  O227  1  0.13469165  0.25489339  0.49716330  1
  O  O228  1  0.12525972  0.24051757  0.97596525  1
  O  O229  1  0.13076795  0.74921504  0.49413917  1
  O  O230  1  0.13255663  0.74414600  0.99281795  1
  O  O231  1  0.62278311  0.24953461  0.48212348  1
  O  O232  1  0.63339888  0.24748355  0.99566453  1
  O  O233  1  0.62304333  0.73687467  0.50190506  1
  O  O234  1  0.63135829  0.74691041  0.99733641  1
  O  O235  1  0.50197992  0.23796051  0.13241695  1
  O  O236  1  0.49656609  0.24402683  0.63207146  1
  O  O237  1  0.50586783  0.74177558  0.13337512  1
  O  O238  1  0.49863528  0.74566747  0.63570289  1
  O  O239  1  1.00050919  0.25481112  0.11657570  1
  O  O240  1  0.99509512  0.24171164  0.63092753  1
  O  O241  1  0.99439991  0.74805082  0.12921495  1
  O  O242  1  0.99946342  0.74459176  0.63639724  1
  O  O243  1  0.01210415  0.25465707  0.37861699  1
  O  O244  1  -0.00171462  0.25614210  0.86822978  1
  O  O245  1  0.00689417  0.75288769  0.37245279  1
  O  O246  1  0.00634589  0.74843022  0.86391022  1
  O  O247  1  0.50832746  0.25418698  0.37448674  1
  O  O248  1  0.50999450  0.25134582  0.86715235  1
  O  O249  1  0.49741722  0.76196189  0.36750877  1
  O  O250  1  0.50723111  0.75847725  0.86996152  1
  O  O251  1  0.25047987  0.13388386  0.49117484  1
  O  O252  1  0.26138396  0.10721936  0.99925415  1
  O  O253  1  0.24982157  0.63003777  0.49036582  1
  O  O254  1  0.24670045  0.63264199  1.00443934  1
  O  O255  1  0.75729819  0.12182922  0.48423156  1
  O  O256  1  0.74189461  0.13168535  0.99268166  1
  O  O257  1  0.73991621  0.62378346  0.49323931  1
  O  O258  1  0.74300519  0.63465060  0.99802231  1
  O  O259  1  0.27121019  0.35768486  -0.03651017  1
  O  O260  1  0.25447420  0.37118404  0.51023273  1
  O  O261  1  0.25612319  0.86502771  0.00386241  1
  O  O262  1  0.26054921  0.86501038  0.49405795  1
  O  O263  1  0.75087880  0.36806656  0.00746219  1
  O  O264  1  0.76470188  0.38432837  0.49986156  1
  O  O265  1  0.75197331  0.86190835  0.00188277  1
  O  O266  1  0.75622079  0.87438743  0.50635366  1
  O  O267  1  0.13688594  0.49674063  0.24942620  1
  O  O268  1  0.13427943  0.50572456  0.74389856  1
  O  O269  1  0.13266331  0.99487243  0.25407572  1
  O  O270  1  0.13125991  0.99101855  0.74377959  1
  O  O271  1  0.63121579  0.50544051  0.24147925  1
  O  O272  1  0.63281324  0.49082803  0.75767215  1
  O  O273  1  0.63262785  0.99447137  0.24479373  1
  O  O274  1  0.63829243  1.00550228  0.74284628  1
  O  O275  1  0.36398761  -0.00496174  0.26776584  1
  O  O276  1  0.36047571  -0.00342931  0.74925414  1
  O  O277  1  0.36755249  0.50070180  0.26198606  1
  O  O278  1  0.37172095  0.50761347  0.75667239  1
  O  O279  1  0.86649357  0.00564711  0.25482553  1
  O  O280  1  0.86196378  -0.00113323  0.75917088  1
  O  O281  1  0.86723295  0.50596954  0.25422793  1
  O  O282  1  0.86742213  0.50239292  0.75626714  1
  O  O283  1  0.11638269  0.36066975  0.38058829  1
  O  O284  1  0.11572770  0.36397814  0.87357431  1
  O  O285  1  0.12003214  0.86270501  0.37563138  1
  O  O286  1  0.12045105  0.86075966  0.86608921  1
  O  O287  1  0.62394937  0.36398243  0.37484537  1
  O  O288  1  0.63164715  0.36441173  0.86597612  1
  O  O289  1  0.61711817  0.88169989  0.36729132  1
  O  O290  1  0.61611568  0.86409661  0.88373138  1
  O  O291  1  0.40952513  0.07324313  0.09091327  1
  O  O292  1  0.38318731  0.12692135  0.63197920  1
  O  O293  1  0.38781300  0.61886031  0.12661498  1
  O  O294  1  0.38582278  0.62824741  0.63371979  1
  O  O295  1  0.87228025  0.12797526  0.14000707  1
  O  O296  1  0.88621339  0.13124324  0.61987626  1
  O  O297  1  0.87952709  0.63252843  0.13016875  1
  O  O298  1  0.87987663  0.62655355  0.63102946  1
  O  O299  1  0.26535756  0.23848087  0.12550073  1
  O  O300  1  0.24571710  0.25741096  0.62153896  1
  O  O301  1  0.25042574  0.75739720  0.11632151  1
  O  O302  1  0.24953219  0.74382559  0.61185248  1
  O  O303  1  0.74634571  0.25973687  0.12100231  1
  O  O304  1  0.76209829  0.24775330  0.62977162  1
  O  O305  1  0.75840531  0.74690220  0.11740184  1
  O  O306  1  0.74964289  0.75869811  0.62307743  1
  O  O307  1  0.24054079  0.24546041  0.38078466  1
  O  O308  1  0.23425132  0.24213159  0.85432196  1
  O  O309  1  0.24381340  0.74443209  0.38233469  1
  O  O310  1  0.24266556  0.75164567  0.88544579  1
  O  O311  1  0.73659197  0.23829454  0.36901461  1
  O  O312  1  0.74720658  0.24574058  0.88201042  1
  O  O313  1  0.75519013  0.73582423  0.37618163  1
  O  O314  1  0.74299949  0.74924790  0.88153541  1
  O  O315  1  -0.00262451  0.11086208  0.00437306  1
  O  O316  1  -0.00504807  0.11026622  0.50486462  1
  O  O317  1  0.00885308  0.61115821  0.00004053  1
  O  O318  1  -0.00096588  0.61487943  0.50652992  1
  O  O319  1  0.51469756  0.12578532  -0.01512094  1
  O  O320  1  0.49391918  0.12474454  0.51417860  1
  O  O321  1  0.50518968  0.62076347  0.00730684  1
  O  O322  1  0.50309468  0.62005097  0.50564039  1
  O  O323  1  0.49037732  0.38227352  0.50276399  1
  O  O324  1  0.50675648  0.38655278  1.00348379  1
  O  O325  1  0.49542828  0.87719526  0.49295480  1
  O  O326  1  0.49033714  0.88597269  0.99719918  1
  O  O327  1  0.99006853  0.38119477  0.49377625  1
  O  O328  1  1.00248866  0.38590701  0.99009674  1
  O  O329  1  0.99194343  0.88221601  0.49695265  1
  O  O330  1  0.99858696  0.88639075  0.99732681  1
  O  O331  1  0.49166273  0.49589963  0.37944335  1
  O  O332  1  0.49181550  0.50603936  0.88249286  1
  O  O333  1  0.49368460  0.99234616  0.37657351  1
  O  O334  1  0.50999429  0.99206885  0.87947051  1
  O  O335  1  0.99702586  0.49342570  0.38263420  1
  O  O336  1  0.99570949  0.49243697  0.87802607  1
  O  O337  1  0.99614578  0.99574469  0.38320039  1
  O  O338  1  0.99144060  1.00015602  0.88243061  1
  O  O339  1  0.00013153  -0.00134574  0.11446327  1
  O  O340  1  0.00403666  0.00433820  0.62082606  1
  O  O341  1  0.01408088  0.49395195  0.11605019  1
  O  O342  1  0.00459972  0.49958959  0.62035183  1
  O  O343  1  0.51941448  -0.01511816  0.12119367  1
  O  O344  1  0.50935097  0.00894365  0.62760148  1
  O  O345  1  0.50363377  0.50391513  0.11942926  1
  O  O346  1  0.49265507  0.50909073  0.61522108  1
  O  O347  1  0.25278783  0.38915852  0.25838926  1
  O  O348  1  0.25511308  0.38562317  0.73735208  1
  O  O349  1  0.25033199  0.87749578  0.24418984  1
  O  O350  1  0.23897304  0.88099659  0.75413612  1
  O  O351  1  0.75315655  0.38793225  0.24444203  1
  O  O352  1  0.74235560  0.38228454  0.74704021  1
  O  O353  1  0.74493258  0.88628836  0.25349722  1
  O  O354  1  0.75127669  0.88354967  0.74235803  1
  O  O355  1  0.24571471  0.11649159  0.26659890  1
  O  O356  1  0.25098260  0.11110850  0.74613143  1
  O  O357  1  0.25127364  0.62221075  0.26441723  1
  O  O358  1  0.26055454  0.61552346  0.74369099  1
  O  O359  1  0.75576576  0.11648387  0.25644820  1
  O  O360  1  0.74805433  0.12075790  0.76331319  1
  O  O361  1  0.75234935  0.61655677  0.25581164  1
  O  O362  1  0.75397369  0.61782829  0.75114846  1
  O  O363  1  0.36507859  0.11559579  0.38328520  1
  O  O364  1  0.37316898  0.12674391  0.87808253  1
  O  O365  1  0.36822065  0.61727763  0.37444776  1
  O  O366  1  0.38062069  0.61826894  0.86071189  1
  O  O367  1  0.86679805  0.12217831  0.36504685  1
  O  O368  1  0.86552920  0.11354582  0.88260043  1
  O  O369  1  0.86724849  0.61650199  0.37174888  1
  O  O370  1  0.87529646  0.61229512  0.86797240  1
  O  O371  1  0.17660969  0.36582513  0.08577163  1
  O  O372  1  0.12970839  0.38651022  0.62185789  1
  O  O373  1  0.14088121  0.87939867  0.12514526  1
  O  O374  1  0.12016861  0.88405633  0.63575859  1
  O  O375  1  0.63546210  0.38850448  0.12138394  1
  O  O376  1  0.62793616  0.36901186  0.63620182  1
  O  O377  1  0.63289750  0.88062800  0.13495951  1
  O  O378  1  0.63568125  0.88322688  0.62384881  1
  O  O379  1  0.12674852  0.25137304  0.26200346  1
  O  O380  1  0.10774240  0.24513026  0.75796012  1
  O  O381  1  0.11972482  0.74972754  0.25859262  1
  O  O382  1  0.12155485  0.75310081  0.75415823  1
  O  O383  1  0.60969561  0.24350064  0.26528820  1
  O  O384  1  0.61918082  0.25795170  0.75826322  1
  O  O385  1  0.62211765  0.76129826  0.24723279  1
  O  O386  1  0.61564706  0.74697504  0.76068467  1
  O  O387  1  0.38905341  0.24421922  0.25355901  1
  O  O388  1  0.38161332  0.25230578  0.75060831  1
  O  O389  1  0.38645358  0.75027691  0.25246887  1
  O  O390  1  0.38139070  0.74470406  0.74940769  1
  O  O391  1  0.86908115  0.23716437  0.25029972  1
  O  O392  1  0.88439799  0.25309406  0.74027425  1
  O  O393  1  0.87956365  0.74342197  0.24324911  1
  O  O394  1  0.88272666  0.74446481  0.75100357  1
  O  O395  1  0.38127102  0.49559541  0.49080114  1
  O  O396  1  0.38234459  0.50608091  0.98239831  1
  O  O397  1  0.37624317  0.99335192  0.49186887  1
  O  O398  1  0.37546234  0.98867186  0.97301002  1
  O  O399  1  0.88480657  0.49449920  0.49496594  1
  O  O400  1  0.88461680  0.50057883  0.99285838  1
  O  O401  1  0.88079643  0.98989603  0.49575080  1
  O  O402  1  0.88311694  0.99783193  0.99588025  1
  O  O403  1  0.11183999  0.00155120  -0.00192842  1
  O  O404  1  0.11571497  -0.00912626  0.51004827  1
  O  O405  1  0.12340239  0.50635604  -0.00279164  1
  O  O406  1  0.11350897  0.49899117  0.50561089  1
  O  O407  1  0.62014015  0.00987706  0.00782416  1
  O  O408  1  0.62552333  -0.00062931  0.51589392  1
  O  O409  1  0.61806596  0.50646548  0.00509434  1
  O  O410  1  0.61056098  0.50784553  0.49627095  1
  O  O411  1  0.34654107  0.39187386  0.10811798  1
  O  O412  1  0.36468952  0.37560177  0.61469903  1
  O  O413  1  0.36355906  0.88627075  0.10911487  1
  O  O414  1  0.38102157  0.87439510  0.61142046  1
  O  O415  1  0.86130226  0.37752251  0.12132435  1
  O  O416  1  0.87370289  0.36346105  0.61597862  1
  O  O417  1  0.87223029  0.86003530  0.12482454  1
  O  O418  1  0.86383088  0.87578108  0.61858195  1
  O  O419  1  0.12928889  0.13971513  0.37737489  1
  O  O420  1  0.12236986  0.13178822  0.87491955  1
  O  O421  1  0.13077434  0.63467127  0.37913215  1
  O  O422  1  0.12225098  0.63565771  0.88536754  1
  O  O423  1  0.63600796  0.12694056  0.37661840  1
  O  O424  1  0.63460139  0.13788875  0.88075683  1
  O  O425  1  0.63222563  0.62049605  0.38419107  1
  O  O426  1  0.62427347  0.63804870  0.88268361  1
