# generated using pymatgen
data_V85Zn86O256
_symmetry_space_group_name_H-M   'P 1'
_cell_length_a   16.93379110
_cell_length_b   16.92689349
_cell_length_c   16.93162860
_cell_angle_alpha   89.97986289
_cell_angle_beta   89.99344481
_cell_angle_gamma   90.01827556
_symmetry_Int_Tables_number   1
_chemical_formula_structural   V85Zn86O256
_chemical_formula_sum   'V85 Zn86 O256'
_cell_volume   4853.22181460
_cell_formula_units_Z   1
loop_
 _symmetry_equiv_pos_site_id
 _symmetry_equiv_pos_as_xyz
  1  'x, y, z'
loop_
 _atom_site_type_symbol
 _atom_site_label
 _atom_site_symmetry_multiplicity
 _atom_site_fract_x
 _atom_site_fract_y
 _atom_site_fract_z
 _atom_site_occupancy
  V  V0  1  0.37615184  0.62550244  0.25007558  1
  V  V1  1  0.36988235  0.75276936  0.60387044  1
  V  V2  1  -0.00034518  0.37255984  0.37101203  1
  V  V3  1  0.37481107  0.23975669  0.63512150  1
  V  V4  1  0.00141902  0.74894214  0.24840077  1
  V  V5  1  0.62717765  0.24568752  0.38640480  1
  V  V6  1  -0.00777122  0.24057378  0.73233530  1
  V  V7  1  0.87308403  0.38195754  0.50475253  1
  V  V8  1  0.37572791  0.74939621  0.12516693  1
  V  V9  1  0.61883006  0.36591182  0.75017481  1
  V  V10  1  0.63271380  0.87594410  0.73011804  1
  V  V11  1  0.25229101  0.63060569  0.37831106  1
  V  V12  1  0.12728808  0.37249067  0.73217358  1
  V  V13  1  0.24526640  0.75105407  -0.00261598  1
  V  V14  1  0.38001693  0.87534499  -0.00332181  1
  V  V15  1  0.63930977  0.13962841  -0.00947748  1
  V  V16  1  0.62212313  0.75450674  0.87252866  1
  V  V17  1  0.74888985  0.75245635  0.50468207  1
  V  V18  1  0.01553355  0.36342312  0.87395928  1
  V  V19  1  0.62341435  0.62696571  0.49869798  1
  V  V20  1  0.33193544  0.18231387  0.19071586  1
  V  V21  1  0.78289647  0.21853655  0.52273374  1
  V  V22  1  0.75214595  0.00785349  0.74177755  1
  V  V23  1  0.24923973  0.87124174  0.61054681  1
  V  V24  1  0.37186778  0.37658699  0.51216865  1
  V  V25  1  -0.00043542  0.87552805  0.37567453  1
  V  V26  1  0.50923283  0.75717249  0.24687679  1
  V  V27  1  0.24592798  0.63579031  0.87512730  1
  V  V28  1  0.88510695  0.25277948  0.13208915  1
  V  V29  1  0.62500927  0.49601476  0.12536133  1
  V  V30  1  0.36571763  0.36455875  0.00619558  1
  V  V31  1  0.75007357  0.36266872  0.13184264  1
  V  V32  1  0.74938253  0.62049624  0.87741008  1
  V  V33  1  0.49975725  0.63151656  0.63022212  1
  V  V34  1  0.12133431  0.62671384  -0.00093281  1
  V  V35  1  0.00168177  -0.00129818  0.50802232  1
  V  V36  1  0.49693352  0.36794208  0.87266103  1
  V  V37  1  0.50128971  0.62390238  0.12524610  1
  V  V38  1  0.49770009  0.49795993  -0.00086254  1
  V  V39  1  0.37528063  0.49922530  0.37684516  1
  V  V40  1  0.74631225  0.49996453  0.74817358  1
  V  V41  1  0.62657720  0.62045222  -0.00184390  1
  V  V42  1  0.12898635  0.62200612  0.50401194  1
  V  V43  1  0.24890950  0.25434401  0.50764884  1
  V  V44  1  0.12513657  -0.00303501  0.62976413  1
  V  V45  1  0.74779575  0.49944344  0.25306293  1
  V  V46  1  0.87776249  0.50251910  0.37557490  1
  V  V47  1  0.87188806  0.02340376  0.87139414  1
  V  V48  1  0.24778400  0.49764519  0.24679226  1
  V  V49  1  0.87124633  0.87387070  0.50359269  1
  V  V50  1  0.24321247  0.50195597  0.73716805  1
  V  V51  1  0.62795020  -0.00073898  0.12845462  1
  V  V52  1  0.24943457  0.87367783  0.12344275  1
  V  V53  1  0.12950935  0.75082103  0.37979517  1
  V  V54  1  0.74685123  0.37577608  0.62006565  1
  V  V55  1  0.75144066  0.87430001  0.12518599  1
  V  V56  1  0.11878954  0.24867950  0.37459888  1
  V  V57  1  0.00566072  0.62083507  0.62707777  1
  V  V58  1  0.61560664  0.11857648  0.51066996  1
  V  V59  1  0.87589457  0.62500590  0.74991567  1
  V  V60  1  0.49795777  0.37286900  0.38004908  1
  V  V61  1  -0.00005495  0.49207626  -0.00284049  1
  V  V62  1  0.87460864  0.62560546  0.24564304  1
  V  V63  1  0.49875051  0.24432444  0.25377798  1
  V  V64  1  0.25576871  0.00053602  0.24523899  1
  V  V65  1  0.12745749  0.13791471  -0.00910368  1
  V  V66  1  0.12400240  0.12377630  0.50657196  1
  V  V67  1  0.50244167  0.12986385  0.12603769  1
  V  V68  1  0.50539478  0.00011851  -0.00231892  1
  V  V69  1  0.50617633  0.87771332  0.37228444  1
  V  V70  1  0.37030048  0.50113579  0.87392030  1
  V  V71  1  0.84349863  0.35678316  -0.03013356  1
  V  V72  1  0.37504814  -0.00266865  0.37642363  1
  V  V73  1  0.75104535  -0.00275932  0.25276165  1
  V  V74  1  0.00317318  0.75230526  0.76400164  1
  V  V75  1  0.49477828  -0.00736542  0.50792007  1
  V  V76  1  0.37577156  0.64045993  0.75240280  1
  V  V77  1  0.12069624  -0.00121049  0.11985374  1
  V  V78  1  0.62239859  0.37101739  0.25498191  1
  V  V79  1  0.12440189  0.87117189  0.76614840  1
  V  V80  1  0.87996470  0.87389944  -0.01226995  1
  V  V81  1  0.25390068  0.12574353  0.37399740  1
  V  V82  1  0.25521882  0.13568771  0.86968886  1
  V  V83  1  0.88519547  0.12705292  0.25481895  1
  V  V84  1  0.87667424  0.75450642  0.62820558  1
  Zn  Zn85  1  0.00625270  -0.00346575  -0.01708058  1
  Zn  Zn86  1  0.88060890  0.49898903  0.87269361  1
  Zn  Zn87  1  0.87459697  0.00267555  0.37746529  1
  Zn  Zn88  1  0.75272568  0.74817307  0.00184195  1
  Zn  Zn89  1  0.25018599  0.35903417  0.12617238  1
  Zn  Zn90  1  0.38631450  0.01643244  0.85976936  1
  Zn  Zn91  1  0.87590036  0.75197696  0.12362998  1
  Zn  Zn92  1  0.49835365  0.23063968  0.75883050  1
  Zn  Zn93  1  0.74879112  0.62934711  0.37557543  1
  Zn  Zn94  1  0.12550377  0.87619679  0.24894081  1
  Zn  Zn95  1  -0.00143449  0.12364362  0.11973437  1
  Zn  Zn96  1  0.50508529  0.87407353  0.86871215  1
  Zn  Zn97  1  0.49436908  0.10969328  0.64084187  1
  Zn  Zn98  1  0.00050377  0.62045608  0.12386529  1
  Zn  Zn99  1  0.49877108  0.50162773  0.50272191  1
  Zn  Zn100  1  0.12612249  0.49436387  0.12370484  1
  Zn  Zn101  1  0.74763277  0.12159859  0.37492480  1
  Zn  Zn102  1  0.63038086  0.75589184  0.37001961  1
  Zn  Zn103  1  0.12251191  0.37238309  0.24793361  1
  Zn  Zn104  1  0.25741918  0.00193267  0.75035442  1
  Zn  Zn105  1  0.00740738  0.49956529  0.50574746  1
  Zn  Zn106  1  0.61904057  0.50157494  0.62536339  1
  Zn  Zn107  1  0.16601044  0.18516838  0.18834796  1
  Zn  Zn108  1  0.18613751  0.18687950  0.69062765  1
  Zn  Zn109  1  0.18540283  0.68486397  0.18674626  1
  Zn  Zn110  1  0.18873204  0.69361606  0.68866693  1
  Zn  Zn111  1  0.68822934  0.18228832  0.18961320  1
  Zn  Zn112  1  0.68326056  0.18537833  0.68884998  1
  Zn  Zn113  1  0.68931783  0.68634705  0.18483049  1
  Zn  Zn114  1  0.68758756  0.69153023  0.68790187  1
  Zn  Zn115  1  0.30729833  0.31682193  0.32258739  1
  Zn  Zn116  1  0.30506891  0.31663390  0.81367302  1
  Zn  Zn117  1  0.31637236  0.81519393  0.31244024  1
  Zn  Zn118  1  0.32343472  0.83943882  0.79899351  1
  Zn  Zn119  1  0.81133464  0.30684066  0.32081676  1
  Zn  Zn120  1  0.81854357  0.31413195  0.80235001  1
  Zn  Zn121  1  0.81299408  0.81426657  0.31393136  1
  Zn  Zn122  1  0.80583012  0.81106327  0.81174637  1
  Zn  Zn123  1  0.18879247  0.43874008  0.43811971  1
  Zn  Zn124  1  0.18765095  0.43920659  0.93513445  1
  Zn  Zn125  1  0.18759871  0.93837003  0.43530681  1
  Zn  Zn126  1  0.19632945  0.94658806  0.93572727  1
  Zn  Zn127  1  0.68464805  0.44125837  0.43843687  1
  Zn  Zn128  1  0.68751212  0.42377870  0.93327110  1
  Zn  Zn129  1  0.68425125  0.93862102  0.44069015  1
  Zn  Zn130  1  0.69569455  0.94414661  0.93867302  1
  Zn  Zn131  1  0.30931573  0.05891730  0.04867912  1
  Zn  Zn132  1  0.31006632  0.05879989  0.56153438  1
  Zn  Zn133  1  0.31202242  0.56158843  0.06099440  1
  Zn  Zn134  1  0.31414424  0.56822564  0.56101645  1
  Zn  Zn135  1  0.81594137  0.06292929  0.06099348  1
  Zn  Zn136  1  0.81341727  0.05555433  0.56554613  1
  Zn  Zn137  1  0.81611323  0.54856670  0.06097288  1
  Zn  Zn138  1  0.81128962  0.56582907  0.56519306  1
  Zn  Zn139  1  0.43557515  0.43442929  0.18861917  1
  Zn  Zn140  1  0.43401382  0.44274908  0.68894269  1
  Zn  Zn141  1  0.43756949  0.93997577  0.18538400  1
  Zn  Zn142  1  0.44282726  0.92321558  0.69015196  1
  Zn  Zn143  1  0.93838320  0.43670288  0.18751452  1
  Zn  Zn144  1  0.93732756  0.43511682  0.68915172  1
  Zn  Zn145  1  0.93498165  0.93761772  0.18659810  1
  Zn  Zn146  1  0.93823073  0.93877099  0.69583702  1
  Zn  Zn147  1  0.06468146  0.06064177  0.31439217  1
  Zn  Zn148  1  0.06103254  0.06371333  0.81217379  1
  Zn  Zn149  1  0.06347698  0.56189219  0.31412615  1
  Zn  Zn150  1  0.06563951  0.56286742  0.81447977  1
  Zn  Zn151  1  0.56233381  0.06271319  0.31197869  1
  Zn  Zn152  1  0.57329618  0.06012492  0.81280937  1
  Zn  Zn153  1  0.56166378  0.56449627  0.31543795  1
  Zn  Zn154  1  0.55983146  0.56014221  0.81095884  1
  Zn  Zn155  1  0.43489773  0.18341971  0.44076312  1
  Zn  Zn156  1  0.43960719  0.18673013  0.94246597  1
  Zn  Zn157  1  0.44304178  0.68944718  0.43384742  1
  Zn  Zn158  1  0.43792836  0.68912861  0.93758025  1
  Zn  Zn159  1  0.93604336  0.18329533  0.45058936  1
  Zn  Zn160  1  0.94436507  0.19134559  0.93805724  1
  Zn  Zn161  1  0.94015627  0.68637459  0.43818000  1
  Zn  Zn162  1  0.93476870  0.68586356  0.93952108  1
  Zn  Zn163  1  0.06520318  0.31366887  0.06499161  1
  Zn  Zn164  1  0.05980206  0.31567822  0.55953298  1
  Zn  Zn165  1  0.06090118  0.81310180  0.06032191  1
  Zn  Zn166  1  0.06172715  0.80888283  0.56529184  1
  Zn  Zn167  1  0.55821347  0.31108438  0.06245020  1
  Zn  Zn168  1  0.55682629  0.30918942  0.56730639  1
  Zn  Zn169  1  0.56950573  0.81196764  0.06046807  1
  Zn  Zn170  1  0.55628880  0.81133880  0.55914266  1
  O  O171  1  0.12142476  0.11594312  0.11183601  1
  O  O172  1  0.13341890  0.10846244  0.61882374  1
  O  O173  1  0.12277903  0.62028956  0.11279218  1
  O  O174  1  0.11926746  0.63440350  0.61591450  1
  O  O175  1  0.61778659  0.11873027  0.11985360  1
  O  O176  1  0.61500034  0.12773570  0.61399878  1
  O  O177  1  0.62129922  0.61597926  0.11924154  1
  O  O178  1  0.61518237  0.62980668  0.62017841  1
  O  O179  1  0.37994774  0.37945646  0.38784979  1
  O  O180  1  0.37555216  0.38415346  0.88194110  1
  O  O181  1  0.38399394  0.88920335  0.36836590  1
  O  O182  1  0.38734601  0.85612732  0.89383325  1
  O  O183  1  0.87824065  0.38930687  0.37664872  1
  O  O184  1  0.90003706  0.37880523  0.87077387  1
  O  O185  1  0.88732082  0.87456493  0.38354466  1
  O  O186  1  0.87147193  0.87005218  0.88752684  1
  O  O187  1  0.25446775  0.00390221  0.36502708  1
  O  O188  1  0.25983236  0.01280257  0.87134408  1
  O  O189  1  0.25605647  0.50791586  0.36624620  1
  O  O190  1  0.25875741  0.51117385  0.87064540  1
  O  O191  1  0.75123073  -0.00157323  0.36635300  1
  O  O192  1  0.76563796  -0.00255607  0.86538508  1
  O  O193  1  0.75608260  0.50193115  0.36620117  1
  O  O194  1  0.74849338  0.50759260  0.86704642  1
  O  O195  1  0.25192228  0.50399200  0.14014768  1
  O  O196  1  0.25417551  0.50808547  0.63915808  1
  O  O197  1  0.24294425  0.99548911  0.12776108  1
  O  O198  1  0.24469314  0.98935146  0.62918710  1
  O  O199  1  0.74511326  0.49525337  0.14148728  1
  O  O200  1  0.74533183  0.49557233  0.63246882  1
  O  O201  1  0.74570135  0.99514734  0.13055647  1
  O  O202  1  0.76178997  0.99318341  0.64164525  1
  O  O203  1  0.00082352  0.37993906  0.26678710  1
  O  O204  1  0.01286839  0.37486005  0.75483156  1
  O  O205  1  0.00045728  0.86800592  0.25843644  1
  O  O206  1  0.01445442  0.86597879  0.74605573  1
  O  O207  1  0.50365778  0.36645081  0.25772274  1
  O  O208  1  0.50413568  0.37825036  0.75610277  1
  O  O209  1  0.49592985  0.86656779  0.25367587  1
  O  O210  1  0.52694609  0.87586107  0.75404317  1
  O  O211  1  0.50037939  0.13072482  0.24052791  1
  O  O212  1  0.49790222  0.11709307  0.75400790  1
  O  O213  1  0.49488447  0.63123674  0.24426397  1
  O  O214  1  0.48844289  0.62304107  0.74302024  1
  O  O215  1  0.98874426  0.11908467  0.24899440  1
  O  O216  1  1.01018860  0.14267947  0.74690621  1
  O  O217  1  0.99274230  0.63069562  0.24897290  1
  O  O218  1  0.99693018  0.63033272  0.74592019  1
  O  O219  1  0.37688217  0.26657552  0.00035462  1
  O  O220  1  0.36724084  0.25591330  0.50837816  1
  O  O221  1  0.36840298  0.75102370  0.00939146  1
  O  O222  1  0.37208192  0.74573979  0.50564651  1
  O  O223  1  0.87984272  0.26557733  0.00844162  1
  O  O224  1  0.86657392  0.27784928  0.47733431  1
  O  O225  1  0.87379245  0.75948990  0.00366902  1
  O  O226  1  0.87116473  0.75430259  0.50650550  1
  O  O227  1  0.13093831  0.24303189  0.49881840  1
  O  O228  1  0.12402186  0.23616247  1.00213400  1
  O  O229  1  0.11889862  0.74140499  0.48568332  1
  O  O230  1  0.13305051  0.74206856  1.00428025  1
  O  O231  1  0.61551910  0.23914998  0.49420989  1
  O  O232  1  0.62233571  0.23923439  1.00326826  1
  O  O233  1  0.63288397  0.74374934  0.49954433  1
  O  O234  1  0.63087785  0.73814219  0.99180274  1
  O  O235  1  0.50043555  0.23786608  0.13293963  1
  O  O236  1  0.48310610  0.24443894  0.62955369  1
  O  O237  1  0.49786067  0.74546333  0.12933457  1
  O  O238  1  0.48413185  0.74188105  0.62054634  1
  O  O239  1  0.98878999  0.25003074  0.12656918  1
  O  O240  1  0.99988679  0.25332718  0.63232835  1
  O  O241  1  0.99892110  0.74833165  0.13865024  1
  O  O242  1  0.99343714  0.73979883  0.63264582  1
  O  O243  1  0.00836489  0.25853451  0.38913088  1
  O  O244  1  0.00500750  0.26155767  0.86517009  1
  O  O245  1  0.00575579  0.75493361  0.36650223  1
  O  O246  1  -0.00371498  0.74437806  0.86275892  1
  O  O247  1  0.50529015  0.25315369  0.37387379  1
  O  O248  1  0.49045327  0.26379900  0.87266698  1
  O  O249  1  0.49992704  0.76040577  0.36409920  1
  O  O250  1  0.51903723  0.74746601  0.87894614  1
  O  O251  1  0.24010377  0.12974413  0.49508844  1
  O  O252  1  0.23604901  0.12195478  0.98917136  1
  O  O253  1  0.24564200  0.62434716  0.48634748  1
  O  O254  1  0.24308393  0.62942865  0.99377236  1
  O  O255  1  0.73248527  0.11918346  0.49829422  1
  O  O256  1  0.73787293  0.12639518  1.00805097  1
  O  O257  1  0.74229399  0.63340348  0.49900994  1
  O  O258  1  0.74729622  0.61806835  0.99280350  1
  O  O259  1  0.26161879  0.37948862  0.00175295  1
  O  O260  1  0.25763646  0.36549394  0.49622109  1
  O  O261  1  0.25936257  0.87053912  0.00377306  1
  O  O262  1  0.24606724  0.87605650  0.51026252  1
  O  O263  1  0.75177027  0.39444012  0.02752516  1
  O  O264  1  0.75283894  0.38287046  0.51173425  1
  O  O265  1  0.76278667  0.87468903  0.00712562  1
  O  O266  1  0.76333273  0.87026958  0.49683623  1
  O  O267  1  0.13414788  0.49859443  0.24933926  1
  O  O268  1  0.13775516  0.49756935  0.75050265  1
  O  O269  1  0.13830784  1.00196260  0.24254001  1
  O  O270  1  0.12302583  0.98730633  0.74376306  1
  O  O271  1  0.63101946  0.49364744  0.24969924  1
  O  O272  1  0.63409748  0.49421734  0.74739219  1
  O  O273  1  0.63317019  1.00573612  0.23662953  1
  O  O274  1  0.64087295  0.98527594  0.75380020  1
  O  O275  1  0.36228659  -0.00080236  0.25248574  1
  O  O276  1  0.36501679  -0.04732217  0.76626907  1
  O  O277  1  0.37014246  0.50551910  0.25712765  1
  O  O278  1  0.36243591  0.50871450  0.75648176  1
  O  O279  1  0.86904769  0.00770330  0.25291294  1
  O  O280  1  0.86572846  -0.00191954  0.76135848  1
  O  O281  1  0.86865881  0.50646173  0.25602667  1
  O  O282  1  0.86242482  0.50463496  0.75058522  1
  O  O283  1  0.11607587  0.36732171  0.37959183  1
  O  O284  1  0.11863979  0.38152159  0.86108196  1
  O  O285  1  0.11600212  0.86860427  0.37350902  1
  O  O286  1  0.13075941  0.87846975  0.86434219  1
  O  O287  1  0.61872263  0.36672199  0.37566812  1
  O  O288  1  0.60703288  0.38445546  0.86304901  1
  O  O289  1  0.61154201  0.87510549  0.37399991  1
  O  O290  1  0.62982078  0.85893129  0.88620186  1
  O  O291  1  0.38220171  0.12005457  0.12088003  1
  O  O292  1  0.37238625  0.13625625  0.62314520  1
  O  O293  1  0.38170596  0.62924307  0.12965932  1
  O  O294  1  0.37781726  0.63692043  0.63098997  1
  O  O295  1  0.87779167  0.13393599  0.13168967  1
  O  O296  1  0.86455066  0.15613690  0.55499239  1
  O  O297  1  0.87564345  0.62246305  0.13563381  1
  O  O298  1  0.88135269  0.63532531  0.63077008  1
  O  O299  1  0.25913348  0.24000978  0.14100178  1
  O  O300  1  0.25813693  0.24562259  0.61532572  1
  O  O301  1  0.25527718  0.75452161  0.12107768  1
  O  O302  1  0.26164617  0.75326111  0.62188604  1
  O  O303  1  0.75558471  0.25876369  0.13262587  1
  O  O304  1  0.74268327  0.25766870  0.61430376  1
  O  O305  1  0.75326751  0.75923611  0.12438164  1
  O  O306  1  0.76084950  0.74532942  0.61321695  1
  O  O307  1  0.24280839  0.24435397  0.38827757  1
  O  O308  1  0.24909866  0.23629669  0.87101800  1
  O  O309  1  0.24210627  0.74342442  0.36728827  1
  O  O310  1  0.25701502  0.73874792  0.87916853  1
  O  O311  1  0.73972892  0.24539704  0.39277684  1
  O  O312  1  0.76472377  0.32759652  0.90117896  1
  O  O313  1  0.75048987  0.75058541  0.38773180  1
  O  O314  1  0.74272117  0.73438989  0.87781871  1
  O  O315  1  0.01276334  0.11986253  -0.00168566  1
  O  O316  1  0.01650760  0.11280799  0.49589287  1
  O  O317  1  0.00476349  0.61562476  0.00022667  1
  O  O318  1  0.00916018  0.62475462  0.50836809  1
  O  O319  1  0.50700133  0.11740896  0.00810630  1
  O  O320  1  0.50134391  0.11172980  0.50300792  1
  O  O321  1  0.50476810  0.61788386  0.00615904  1
  O  O322  1  0.50786723  0.62655894  0.50671017  1
  O  O323  1  0.49137081  0.37771511  0.49692486  1
  O  O324  1  0.49077770  0.38092548  0.99307257  1
  O  O325  1  0.49951150  0.88134077  0.48764850  1
  O  O326  1  0.49697155  0.88397613  1.00533578  1
  O  O327  1  0.99058942  0.38267883  0.49294630  1
  O  O328  1  1.01030407  0.37714444  0.98449708  1
  O  O329  1  0.99333436  0.87717904  0.49454628  1
  O  O330  1  0.98444139  0.87881013  1.00502537  1
  O  O331  1  0.49221395  0.49333158  0.37748647  1
  O  O332  1  0.48559969  0.49514661  0.87721556  1
  O  O333  1  0.49188008  0.99495980  0.37655057  1
  O  O334  1  0.50238691  0.99500977  0.88782567  1
  O  O335  1  0.99214513  0.49577149  0.37953918  1
  O  O336  1  1.00238616  0.49427897  0.88454295  1
  O  O337  1  1.00289817  0.98996136  0.38656914  1
  O  O338  1  0.97918919  1.00409705  0.86853546  1
  O  O339  1  0.01392583  -0.00123943  0.12726581  1
  O  O340  1  0.00671144  -0.00663106  0.61502194  1
  O  O341  1  -0.00056739  0.49673154  0.11023984  1
  O  O342  1  -0.00682841  0.51665415  0.62599939  1
  O  O343  1  0.50868139  0.00752267  0.12015028  1
  O  O344  1  0.48793594  -0.00664197  0.61199755  1
  O  O345  1  0.50640331  0.50287562  0.12212647  1
  O  O346  1  0.49701669  0.51660512  0.62314182  1
  O  O347  1  0.24960990  0.38469300  0.25075521  1
  O  O348  1  0.23804153  0.38966999  0.75113915  1
  O  O349  1  0.24865245  0.88288804  0.24214360  1
  O  O350  1  0.23022643  0.86809560  0.73635925  1
  O  O351  1  0.74261885  0.38020956  0.25063760  1
  O  O352  1  0.74231922  0.38032515  0.73733047  1
  O  O353  1  0.75830861  0.88731199  0.24200930  1
  O  O354  1  0.73893129  0.87998579  0.75203670  1
  O  O355  1  0.25564476  0.12210093  0.24975644  1
  O  O356  1  0.24399758  0.12087320  0.76441409  1
  O  O357  1  0.25550190  0.62038198  0.25947308  1
  O  O358  1  0.25248733  0.61918749  0.75712611  1
  O  O359  1  0.75848339  0.11239538  0.25147821  1
  O  O360  1  0.74336054  0.10879009  0.74541647  1
  O  O361  1  0.75681615  0.61824369  0.25328100  1
  O  O362  1  0.75291054  0.61766118  0.75502542  1
  O  O363  1  0.36614488  0.11311894  0.37735370  1
  O  O364  1  0.36139295  0.12716789  0.88461131  1
  O  O365  1  0.36998656  0.62156949  0.37074857  1
  O  O366  1  0.37017956  0.62073621  0.86914790  1
  O  O367  1  0.87229841  0.12366608  0.36953916  1
  O  O368  1  0.87025259  0.12198741  0.88160414  1
  O  O369  1  0.87528438  0.61648807  0.36639022  1
  O  O370  1  0.86596786  0.62072907  0.86894211  1
  O  O371  1  0.13345490  0.37519679  0.13035335  1
  O  O372  1  0.12059061  0.38403860  0.63345013  1
  O  O373  1  0.13167308  0.88098146  0.12629261  1
  O  O374  1  0.13009780  0.88282838  0.62298962  1
  O  O375  1  0.62878638  0.37708922  0.13512122  1
  O  O376  1  0.62788088  0.37880769  0.63030789  1
  O  O377  1  0.64073041  0.88396108  0.11858175  1
  O  O378  1  0.62839525  0.86526569  0.63183534  1
  O  O379  1  0.12481117  0.25164676  0.26949190  1
  O  O380  1  0.12040043  0.26807741  0.74042534  1
  O  O381  1  0.11720835  0.74940424  0.25985983  1
  O  O382  1  0.11664210  0.76109155  0.74946787  1
  O  O383  1  0.62127975  0.25194429  0.26392048  1
  O  O384  1  0.61954808  0.26209468  0.74745372  1
  O  O385  1  0.61305995  0.74406890  0.24986270  1
  O  O386  1  0.63518123  0.76122320  0.76358554  1
  O  O387  1  0.37981731  0.24844861  0.25834917  1
  O  O388  1  0.37038060  0.25852933  0.73567670  1
  O  O389  1  0.38438742  0.74442477  0.24382788  1
  O  O390  1  0.36901471  0.74154208  0.74866722  1
  O  O391  1  0.86854999  0.23904214  0.24559678  1
  O  O392  1  0.89153728  0.25309032  0.74581121  1
  O  O393  1  0.88200123  0.74124033  0.25069223  1
  O  O394  1  0.87953725  0.74600237  0.74428796  1
  O  O395  1  0.37323530  0.49313676  0.49539164  1
  O  O396  1  0.37959484  0.49688067  0.99122886  1
  O  O397  1  0.38058613  1.00148101  0.48824834  1
  O  O398  1  0.38696317  0.98927149  0.99819331  1
  O  O399  1  0.87365773  0.49739478  0.49160895  1
  O  O400  1  0.88126730  0.47686173  0.99395522  1
  O  O401  1  0.88459346  0.98930351  0.49921975  1
  O  O402  1  0.87567258  0.99277672  0.98599128  1
  O  O403  1  0.12307233  0.00159887  0.00675620  1
  O  O404  1  0.12091903  0.00483133  0.50620806  1
  O  O405  1  0.11814271  0.50656502  0.00150287  1
  O  O406  1  0.12598395  0.51666022  0.49488079  1
  O  O407  1  0.62133941  0.00578915  0.01033237  1
  O  O408  1  0.60922352  0.00702825  0.49517079  1
  O  O409  1  0.61775672  0.50109913  0.00376644  1
  O  O410  1  0.62291183  0.51486075  0.50305621  1
  O  O411  1  0.37142906  0.37943557  0.11087937  1
  O  O412  1  0.37830262  0.36838376  0.61552589  1
  O  O413  1  0.37115103  0.86966724  0.11540813  1
  O  O414  1  0.36713542  0.85770199  0.62502766  1
  O  O415  1  0.86532908  0.36498934  0.13553516  1
  O  O416  1  0.86460111  0.38172382  0.61524337  1
  O  O417  1  0.86548689  0.87713488  0.11593054  1
  O  O418  1  0.88481447  0.86210490  0.61849093  1
  O  O419  1  0.13178285  0.13034475  0.38259617  1
  O  O420  1  0.13302259  0.12031819  0.88547736  1
  O  O421  1  0.13337733  0.63235339  0.37929128  1
  O  O422  1  0.13341283  0.62229034  0.88793430  1
  O  O423  1  0.62302951  0.13212624  0.38383484  1
  O  O424  1  0.62788029  0.12344474  0.89175631  1
  O  O425  1  0.62571772  0.63122766  0.38486545  1
  O  O426  1  0.63035233  0.62973865  0.87693862  1
