# generated using pymatgen
data_V85Zn86O256
_symmetry_space_group_name_H-M   'P 1'
_cell_length_a   16.96907435
_cell_length_b   16.94747311
_cell_length_c   16.95514920
_cell_angle_alpha   90.01119524
_cell_angle_beta   89.91455901
_cell_angle_gamma   90.06912766
_symmetry_Int_Tables_number   1
_chemical_formula_structural   V85Zn86O256
_chemical_formula_sum   'V85 Zn86 O256'
_cell_volume   4876.00244463
_cell_formula_units_Z   1
loop_
 _symmetry_equiv_pos_site_id
 _symmetry_equiv_pos_as_xyz
  1  'x, y, z'
loop_
 _atom_site_type_symbol
 _atom_site_label
 _atom_site_symmetry_multiplicity
 _atom_site_fract_x
 _atom_site_fract_y
 _atom_site_fract_z
 _atom_site_occupancy
  V  V0  1  0.75493147  0.75105525  0.00073344  1
  V  V1  1  0.37718009  0.75421796  0.62105532  1
  V  V2  1  0.37379271  0.37350434  -0.00373924  1
  V  V3  1  0.51557321  0.37149818  0.37002827  1
  V  V4  1  0.24898304  0.12659658  0.37165291  1
  V  V5  1  0.88410705  0.38139310  0.50127898  1
  V  V6  1  0.12472922  0.74975235  0.87993856  1
  V  V7  1  0.24714695  0.24802369  0.00150035  1
  V  V8  1  0.62905367  0.62024557  0.50100412  1
  V  V9  1  0.75038085  0.87664810  0.62509151  1
  V  V10  1  0.62586349  0.62289310  0.00161023  1
  V  V11  1  0.87479581  -0.00121630  0.87460613  1
  V  V12  1  0.87076520  0.74913177  0.14139126  1
  V  V13  1  0.24979301  0.62149268  0.37389670  1
  V  V14  1  0.12336988  0.49521248  0.62414080  1
  V  V15  1  0.75292633  0.61407969  0.87535633  1
  V  V16  1  0.49191946  -0.00116047  0.50290113  1
  V  V17  1  0.37299928  0.12249009  0.25326832  1
  V  V18  1  0.49249547  0.87365206  0.37965952  1
  V  V19  1  0.00131142  0.12661684  0.62454453  1
  V  V20  1  0.75376865  0.49570252  0.75337292  1
  V  V21  1  0.50118535  0.49191719  -0.00176156  1
  V  V22  1  0.12665739  0.00204557  0.62541776  1
  V  V23  1  0.74726869  0.12506101  0.87278938  1
  V  V24  1  -0.00549875  0.12304700  0.13129980  1
  V  V25  1  0.24815747  0.12615897  0.87065242  1
  V  V26  1  0.25418146  0.75525152  0.49835765  1
  V  V27  1  0.50141674  0.49752822  0.49902063  1
  V  V28  1  0.37530268  0.49468195  0.37244341  1
  V  V29  1  0.62498808  0.75143908  0.37414168  1
  V  V30  1  0.87719326  0.74961273  0.62413746  1
  V  V31  1  0.24912705  0.74775060  0.00774658  1
  V  V32  1  0.49625352  0.11287645  0.12214391  1
  V  V33  1  0.63487458  0.00334429  0.13336895  1
  V  V34  1  0.01361392  0.74997263  0.24532836  1
  V  V35  1  0.12242078  -0.00765877  0.12935432  1
  V  V36  1  0.62554467  0.13498799  0.49172348  1
  V  V37  1  -0.00193454  0.00265970  0.49320131  1
  V  V38  1  0.86964600  0.25735642  0.12937744  1
  V  V39  1  0.87623541  0.87879463  0.49374816  1
  V  V40  1  0.24820367  0.62729249  0.87487304  1
  V  V41  1  0.81942323  0.05457980  0.32248598  1
  V  V42  1  0.62517802  0.00336677  0.62386553  1
  V  V43  1  0.50367490  0.62424270  0.12607488  1
  V  V44  1  0.37345858  0.25639132  0.12745588  1
  V  V45  1  0.50017226  0.75046479  0.75118892  1
  V  V46  1  0.19586439  0.44346771  0.80617417  1
  V  V47  1  0.62607055  0.75189495  0.87422164  1
  V  V48  1  0.49739571  0.12993974  0.63720557  1
  V  V49  1  0.75543839  0.62432023  0.36465660  1
  V  V50  1  0.88134862  0.50521749  0.37371566  1
  V  V51  1  0.37150300  0.62353195  0.74845485  1
  V  V52  1  0.25234023  0.38063921  0.62216932  1
  V  V53  1  0.12548176  0.13099367  0.49659665  1
  V  V54  1  0.00033767  -0.00181467  -0.00087566  1
  V  V55  1  0.87452147  0.62284264  0.75109877  1
  V  V56  1  0.37882529  0.62372988  0.24909696  1
  V  V57  1  -0.00302094  0.50473255  -0.02073258  1
  V  V58  1  0.26128507  0.00332361  0.74956888  1
  V  V59  1  0.00762195  0.38064287  0.37054857  1
  V  V60  1  -0.00489335  0.61753939  0.12879139  1
  V  V61  1  0.74814420  0.37290239  0.62430945  1
  V  V62  1  0.38234274  0.49588855  0.86770305  1
  V  V63  1  0.61934259  0.11682859  -0.00038923  1
  V  V64  1  0.75244413  0.74726674  0.49993412  1
  V  V65  1  0.12309319  0.62353363  0.50015767  1
  V  V66  1  0.12557137  0.87760517  0.74993246  1
  V  V67  1  0.87883686  0.37792417  -0.01836664  1
  V  V68  1  0.60947443  0.25017749  0.87335832  1
  V  V69  1  0.75153178  0.25063589  0.00222562  1
  V  V70  1  0.25365428  0.87650354  0.62199713  1
  V  V71  1  0.37961662  0.00121537  0.88790547  1
  V  V72  1  0.00929734  0.25469461  0.24698119  1
  V  V73  1  0.00028608  0.62076791  0.62099469  1
  V  V74  1  0.87704635  0.25106685  0.62418921  1
  V  V75  1  0.61495471  0.37255592  0.75801366  1
  V  V76  1  0.51153934  0.25082529  0.25255541  1
  V  V77  1  0.37785742  0.24817485  0.63618523  1
  V  V78  1  0.87606225  0.12557189  0.74734966  1
  V  V79  1  0.75183391  0.48379850  0.24413361  1
  V  V80  1  0.01249791  0.26074308  0.76093862  1
  V  V81  1  0.24415597  -0.00923073  0.25286549  1
  V  V82  1  0.12286425  0.12702386  -0.00177894  1
  V  V83  1  0.00665084  0.87467719  0.36832564  1
  V  V84  1  0.00119419  0.75191864  0.74864966  1
  Zn  Zn85  1  0.62526471  0.48351004  0.13840404  1
  Zn  Zn86  1  0.37825881  0.36965844  0.49863384  1
  Zn  Zn87  1  0.25489943  0.25091508  0.49920806  1
  Zn  Zn88  1  0.87259137  0.87643677  0.00243526  1
  Zn  Zn89  1  0.74974810  0.00018664  0.74835956  1
  Zn  Zn90  1  -0.00123003  0.87501968  0.87414862  1
  Zn  Zn91  1  0.62476723  0.87599189  0.74929130  1
  Zn  Zn92  1  0.62348019  0.49737807  0.62804855  1
  Zn  Zn93  1  0.13146560  0.25901559  0.36569915  1
  Zn  Zn94  1  0.37946975  0.74933713  0.12368076  1
  Zn  Zn95  1  0.62889041  0.88510936  0.25748897  1
  Zn  Zn96  1  0.75206418  0.24933461  0.48751722  1
  Zn  Zn97  1  0.24732359  0.86972072  0.12957289  1
  Zn  Zn98  1  0.50038957  0.87921551  0.87981837  1
  Zn  Zn99  1  0.13138041  0.75210380  0.36696742  1
  Zn  Zn100  1  0.75099129  0.87872004  0.13065911  1
  Zn  Zn101  1  0.24341805  0.48246626  0.23693169  1
  Zn  Zn102  1  0.50272976  0.75381621  0.24874688  1
  Zn  Zn103  1  0.50066954  0.62345420  0.62402625  1
  Zn  Zn104  1  0.37930926  0.87527537  0.00979253  1
  Zn  Zn105  1  0.37038435  -0.00530260  0.38131141  1
  Zn  Zn106  1  0.11772295  0.49163058  0.12765076  1
  Zn  Zn107  1  0.18767227  0.31575073  0.17501818  1
  Zn  Zn108  1  0.19001786  0.19126262  0.68698755  1
  Zn  Zn109  1  0.18712312  0.63845256  0.17769829  1
  Zn  Zn110  1  0.18846181  0.68772897  0.68792954  1
  Zn  Zn111  1  0.69191501  0.18946973  0.31430243  1
  Zn  Zn112  1  0.68555169  0.19011429  0.68752158  1
  Zn  Zn113  1  0.68634999  0.68618072  0.18728693  1
  Zn  Zn114  1  0.68760100  0.68634996  0.68704300  1
  Zn  Zn115  1  0.31693829  0.31121522  0.31360409  1
  Zn  Zn116  1  0.31716864  0.30728151  0.81749605  1
  Zn  Zn117  1  0.31584619  0.80847973  0.30998653  1
  Zn  Zn118  1  0.31209720  0.81524472  0.81327506  1
  Zn  Zn119  1  0.82209005  0.31401438  0.31208591  1
  Zn  Zn120  1  0.80929726  0.30811496  0.81013797  1
  Zn  Zn121  1  0.81059266  0.82291725  0.31292435  1
  Zn  Zn122  1  0.81158419  0.81143929  0.81200793  1
  Zn  Zn123  1  0.18967120  0.44030992  0.44107910  1
  Zn  Zn124  1  0.16415622  0.41158352  0.98820293  1
  Zn  Zn125  1  0.18491711  0.93802389  0.43845288  1
  Zn  Zn126  1  0.19051610  0.93388878  0.93938825  1
  Zn  Zn127  1  0.69500155  0.43465742  0.43615189  1
  Zn  Zn128  1  0.66966204  0.41639679  0.96793066  1
  Zn  Zn129  1  0.68393936  0.93990538  0.44000362  1
  Zn  Zn130  1  0.68715607  0.93648568  0.94051635  1
  Zn  Zn131  1  0.30676761  0.06481415  0.06797778  1
  Zn  Zn132  1  0.31306473  0.06891911  0.56357748  1
  Zn  Zn133  1  0.31369573  0.56292754  0.05773308  1
  Zn  Zn134  1  0.31332404  0.56205826  0.56135073  1
  Zn  Zn135  1  0.81319968  0.06814821  0.06306761  1
  Zn  Zn136  1  0.81107565  0.06463237  0.55274351  1
  Zn  Zn137  1  0.81729261  0.56162372  0.06363418  1
  Zn  Zn138  1  0.81302620  0.55868694  0.56254645  1
  Zn  Zn139  1  0.43781606  0.43636713  0.18724478  1
  Zn  Zn140  1  0.43738796  0.43692302  0.68516997  1
  Zn  Zn141  1  0.43579447  0.93234870  0.19187864  1
  Zn  Zn142  1  0.43960394  0.93534829  0.68943231  1
  Zn  Zn143  1  0.93029392  0.43468031  0.18966163  1
  Zn  Zn144  1  0.93949580  0.43699019  0.69284572  1
  Zn  Zn145  1  0.93288698  0.93369760  0.18943553  1
  Zn  Zn146  1  0.93788616  0.93933012  0.68491010  1
  Zn  Zn147  1  0.05962874  0.06523213  0.31070709  1
  Zn  Zn148  1  0.06336752  0.06663741  0.81181473  1
  Zn  Zn149  1  0.05974210  0.56662529  0.30939979  1
  Zn  Zn150  1  0.06163612  0.56908294  0.81023268  1
  Zn  Zn151  1  0.55604898  0.06137837  0.31381655  1
  Zn  Zn152  1  0.56224133  0.06156940  0.81106032  1
  Zn  Zn153  1  0.56828437  0.55926672  0.31319915  1
  Zn  Zn154  1  0.56412226  0.56309125  0.81243272  1
  Zn  Zn155  1  0.43809387  0.18782105  0.44140914  1
  Zn  Zn156  1  0.43341340  0.18094440  0.93725595  1
  Zn  Zn157  1  0.43855024  0.68436059  0.43815196  1
  Zn  Zn158  1  0.43692615  0.68818710  0.93880720  1
  Zn  Zn159  1  0.93680312  0.19304713  0.43270152  1
  Zn  Zn160  1  0.93595575  0.18586629  0.93678459  1
  Zn  Zn161  1  0.94068122  0.68986307  0.43405163  1
  Zn  Zn162  1  0.93555200  0.68640838  0.93635639  1
  Zn  Zn163  1  0.04949091  0.30858539  0.05265978  1
  Zn  Zn164  1  0.06213242  0.31318195  0.56414442  1
  Zn  Zn165  1  0.05959770  0.81126332  0.06198727  1
  Zn  Zn166  1  0.06554035  0.81194400  0.56006567  1
  Zn  Zn167  1  0.56307872  0.30495072  0.06733136  1
  Zn  Zn168  1  0.55995043  0.31395526  0.56614414  1
  Zn  Zn169  1  0.56159633  0.81669877  0.06036073  1
  Zn  Zn170  1  0.56312722  0.81308378  0.56023776  1
  O  O171  1  0.10896062  0.11051987  0.10835513  1
  O  O172  1  0.12285874  0.12073519  0.61666794  1
  O  O173  1  0.09270097  0.63612101  0.10959623  1
  O  O174  1  0.12377561  0.61585358  0.62150042  1
  O  O175  1  0.61405914  0.11270894  0.11578047  1
  O  O176  1  0.61769066  0.12015153  0.62014438  1
  O  O177  1  0.62168080  0.61703564  0.11555213  1
  O  O178  1  0.62521666  0.62325833  0.61211487  1
  O  O179  1  0.38410089  0.38587401  0.37548984  1
  O  O180  1  0.37439423  0.38635699  0.87977187  1
  O  O181  1  0.38827492  0.87398131  0.37358218  1
  O  O182  1  0.37116702  0.89263136  0.87417347  1
  O  O183  1  0.88713946  0.38414571  0.38357829  1
  O  O184  1  0.87383263  0.36947548  0.88321701  1
  O  O185  1  0.88768873  0.86615111  0.38928569  1
  O  O186  1  0.87337084  0.88831782  0.87437495  1
  O  O187  1  0.25034196  0.00482476  0.37111700  1
  O  O188  1  0.25631692  0.00560963  0.86834833  1
  O  O189  1  0.25980594  0.50652032  0.37469817  1
  O  O190  1  0.25807995  0.50816331  0.86307542  1
  O  O191  1  0.76305994  -0.01096212  0.37906925  1
  O  O192  1  0.75462174  0.00910470  0.87394221  1
  O  O193  1  0.75921203  0.50579321  0.36794609  1
  O  O194  1  0.74603451  0.51133459  0.86935626  1
  O  O195  1  0.23427746  0.53335891  0.12859802  1
  O  O196  1  0.24787917  0.48866680  0.62476536  1
  O  O197  1  0.23904718  1.00027210  0.13565352  1
  O  O198  1  0.24768126  0.99826814  0.63107901  1
  O  O199  1  0.75388324  0.50670753  0.14259412  1
  O  O200  1  0.74830641  0.48792075  0.63254409  1
  O  O201  1  0.73727564  1.00332627  0.12044514  1
  O  O202  1  0.74278941  0.99337363  0.62226967  1
  O  O203  1  -0.00255133  0.37035748  0.25915088  1
  O  O204  1  -0.00099384  0.36023144  0.74955050  1
  O  O205  1  -0.00141662  0.86611745  0.25897658  1
  O  O206  1  0.00682958  0.87050919  0.74973135  1
  O  O207  1  0.49799278  0.36026898  0.25351900  1
  O  O208  1  0.51660532  0.38416234  0.74887095  1
  O  O209  1  0.50857642  0.87324878  0.26276228  1
  O  O210  1  0.50283502  0.86250916  0.75550621  1
  O  O211  1  0.49045864  0.13205821  0.24580076  1
  O  O212  1  0.50309455  0.12354124  0.73607805  1
  O  O213  1  0.49648309  0.62036701  0.24310150  1
  O  O214  1  0.49292941  0.63474214  0.74675207  1
  O  O215  1  1.00393956  0.13588697  0.23930856  1
  O  O216  1  0.99371375  0.12815066  0.74089952  1
  O  O217  1  0.99282068  0.63461547  0.23661937  1
  O  O218  1  0.99372326  0.63281193  0.74135610  1
  O  O219  1  0.37264724  0.25524152  0.00592091  1
  O  O220  1  0.37366704  0.25167354  0.51149254  1
  O  O221  1  0.36266270  0.74683319  0.00254956  1
  O  O222  1  0.36674474  0.74289368  0.50934367  1
  O  O223  1  0.87316737  0.25702414  0.00365561  1
  O  O224  1  0.87529033  0.25723791  0.51196546  1
  O  O225  1  0.86283988  0.75161243  0.00066418  1
  O  O226  1  0.87199424  0.75661204  0.50620209  1
  O  O227  1  0.12642118  0.23818189  0.50066368  1
  O  O228  1  0.13333179  0.23929055  1.00125490  1
  O  O229  1  0.13825559  0.73891063  0.50319030  1
  O  O230  1  0.12912621  0.75604196  0.98529943  1
  O  O231  1  0.62206422  0.23704419  0.50517635  1
  O  O232  1  0.63458196  0.23750334  0.99376097  1
  O  O233  1  0.63087178  0.74158410  0.49265258  1
  O  O234  1  0.63441714  0.73979608  0.99454810  1
  O  O235  1  0.49387998  0.24139779  0.13525800  1
  O  O236  1  0.48722914  0.24500978  0.62387404  1
  O  O237  1  0.50686620  0.73505273  0.12764229  1
  O  O238  1  0.49413476  0.74849266  0.63029066  1
  O  O239  1  0.99360002  0.24213980  0.12811874  1
  O  O240  1  0.99354482  0.24443220  0.63077910  1
  O  O241  1  0.98875504  0.74855518  0.12979066  1
  O  O242  1  0.99669786  0.74452051  0.62934535  1
  O  O243  1  0.00214833  0.26007721  0.36396070  1
  O  O244  1  -0.00317643  0.24139484  0.85907008  1
  O  O245  1  0.00448247  0.75575139  0.36377057  1
  O  O246  1  0.00767498  0.75082289  0.86906736  1
  O  O247  1  0.49319249  0.25670579  0.36131556  1
  O  O248  1  0.51039716  0.24288175  0.87869275  1
  O  O249  1  0.50852729  0.75590306  0.38015393  1
  O  O250  1  0.50947636  0.74518284  0.86620087  1
  O  O251  1  0.24226398  0.12383197  0.48931419  1
  O  O252  1  0.24117199  0.12851277  0.99493122  1
  O  O253  1  0.24798287  0.63135707  0.49017062  1
  O  O254  1  0.25491580  0.63114710  0.98067252  1
  O  O255  1  0.73028785  0.12981310  0.50642515  1
  O  O256  1  0.74433465  0.13215033  0.99174040  1
  O  O257  1  0.74457043  0.62769805  0.49472798  1
  O  O258  1  0.74440838  0.62720772  0.99284927  1
  O  O259  1  0.26613631  0.36330208  -0.00502803  1
  O  O260  1  0.25507629  0.37281942  0.50887724  1
  O  O261  1  0.25381788  0.86229718  0.00493670  1
  O  O262  1  0.24624326  0.86406822  0.50548234  1
  O  O263  1  0.76531210  0.35707741  -0.00705935  1
  O  O264  1  0.76065399  0.37326145  0.50983421  1
  O  O265  1  0.74997504  0.86425346  0.00540631  1
  O  O266  1  0.75748458  0.86982744  0.50873208  1
  O  O267  1  0.13435255  0.52707423  0.23804192  1
  O  O268  1  0.13108315  0.49935803  0.74611195  1
  O  O269  1  0.13218337  1.00606675  0.24136663  1
  O  O270  1  0.13185818  0.99507435  0.74432518  1
  O  O271  1  0.64437820  0.50004551  0.25250954  1
  O  O272  1  0.63707275  0.49517072  0.75051617  1
  O  O273  1  0.62116848  1.00588818  0.23616439  1
  O  O274  1  0.62735091  0.99772964  0.73700065  1
  O  O275  1  0.36734591  0.01034696  0.25198875  1
  O  O276  1  0.36348060  -0.00236409  0.75336613  1
  O  O277  1  0.37361028  0.50839359  0.25550812  1
  O  O278  1  0.38261347  0.51058570  0.75572102  1
  O  O279  1  0.88343694  0.00523256  0.25963744  1
  O  O280  1  0.87357504  0.00696758  0.75593068  1
  O  O281  1  0.86414408  0.49805381  0.26225368  1
  O  O282  1  0.86148996  0.50540693  0.74546729  1
  O  O283  1  0.11140515  0.37742148  0.38566816  1
  O  O284  1  0.14509968  0.39121486  0.87289114  1
  O  O285  1  0.11108452  0.86863288  0.38358714  1
  O  O286  1  0.12463507  0.86899050  0.86568981  1
  O  O287  1  0.61411457  0.37879397  0.37702444  1
  O  O288  1  0.63054913  0.36125241  0.87152346  1
  O  O289  1  0.61692216  0.86559604  0.37976879  1
  O  O290  1  0.62737498  0.86291688  0.87197376  1
  O  O291  1  0.37920161  0.13209155  0.13167649  1
  O  O292  1  0.38118415  0.13879496  0.62428328  1
  O  O293  1  0.38638357  0.62543555  0.13303550  1
  O  O294  1  0.37546335  0.63472351  0.63196158  1
  O  O295  1  0.88913765  0.13735298  0.11395478  1
  O  O296  1  0.87899437  0.13307291  0.62510386  1
  O  O297  1  0.88285855  0.63855891  0.12027997  1
  O  O298  1  0.87914345  0.62944982  0.62937223  1
  O  O299  1  0.26076999  0.24495259  0.11061550  1
  O  O300  1  0.25896704  0.26076102  0.62488516  1
  O  O301  1  0.24208558  0.73682945  0.11121108  1
  O  O302  1  0.25804974  0.75438088  0.61854369  1
  O  O303  1  0.76894992  0.24126596  0.11539265  1
  O  O304  1  0.75830486  0.26085916  0.62568583  1
  O  O305  1  0.75568920  0.74559991  0.11679852  1
  O  O306  1  0.75506499  0.75659577  0.61931153  1
  O  O307  1  0.24836849  0.24120655  0.37780421  1
  O  O308  1  0.25899069  0.23622260  0.88737587  1
  O  O309  1  0.25100157  0.74450479  0.38343380  1
  O  O310  1  0.24400266  0.74538106  0.88007856  1
  O  O311  1  0.74971205  0.26110808  0.37596574  1
  O  O312  1  0.74785898  0.23624012  0.88103781  1
  O  O313  1  0.74580960  0.74339576  0.38257734  1
  O  O314  1  0.74378564  0.74329945  0.88070153  1
  O  O315  1  0.00450628  0.11470045  0.00098791  1
  O  O316  1  0.00676708  0.12006295  0.50251216  1
  O  O317  1  -0.02033193  0.60740749  0.00631478  1
  O  O318  1  0.01279798  0.63324883  0.50710797  1
  O  O319  1  0.50702829  0.12935448  0.01058400  1
  O  O320  1  0.50991014  0.11862314  0.50809333  1
  O  O321  1  0.50588856  0.61884712  0.00733219  1
  O  O322  1  0.50992995  0.61307233  0.49807736  1
  O  O323  1  0.50105634  0.38398237  0.49230496  1
  O  O324  1  0.48882411  0.38655408  0.99953371  1
  O  O325  1  0.50518727  0.88705930  0.49456177  1
  O  O326  1  0.49125501  0.86526946  0.99108279  1
  O  O327  1  0.98917790  0.37102368  0.49482379  1
  O  O328  1  0.98738812  0.38687136  0.99270558  1
  O  O329  1  0.99451929  0.88218179  0.49668650  1
  O  O330  1  0.99664166  0.88725976  0.99604387  1
  O  O331  1  0.49551236  0.49286132  0.37841502  1
  O  O332  1  0.48948812  0.50887258  0.88352186  1
  O  O333  1  0.49783524  0.99192074  0.38544972  1
  O  O334  1  0.48277694  1.00196198  0.86970339  1
  O  O335  1  0.99051505  0.49710695  0.36963861  1
  O  O336  1  0.99403897  0.50960604  0.88003608  1
  O  O337  1  1.00776911  0.99244522  0.38698618  1
  O  O338  1  0.99123061  1.00102513  0.88086950  1
  O  O339  1  0.00108648  0.00385892  0.11845497  1
  O  O340  1  0.00645309  0.00643156  0.61501280  1
  O  O341  1  -0.00726170  0.51081879  0.12716227  1
  O  O342  1  0.01126062  0.50780528  0.63230104  1
  O  O343  1  0.50073555  0.01052514  0.13069873  1
  O  O344  1  0.50564938  0.00534599  0.62124124  1
  O  O345  1  0.50329573  0.50725799  0.11698694  1
  O  O346  1  0.50274693  0.50210164  0.61316592  1
  O  O347  1  0.25419199  0.37149499  0.24497500  1
  O  O348  1  0.25012006  0.37748557  0.74774278  1
  O  O349  1  0.25167187  0.88654387  0.25357546  1
  O  O350  1  0.24428736  0.88288436  0.74262808  1
  O  O351  1  0.75527490  0.38530072  0.24639070  1
  O  O352  1  0.74591535  0.38096408  0.74490109  1
  O  O353  1  0.73916415  0.86771610  0.24325512  1
  O  O354  1  0.75009173  0.87575409  0.73565398  1
  O  O355  1  0.25675702  0.11410864  0.26422263  1
  O  O356  1  0.24177924  0.11684212  0.76073079  1
  O  O357  1  0.26312382  0.63359089  0.26690769  1
  O  O358  1  0.26447901  0.63426420  0.75773833  1
  O  O359  1  0.75785781  0.11230185  0.26517898  1
  O  O360  1  0.75614196  0.12417087  0.75650205  1
  O  O361  1  0.74968452  0.62431702  0.26358223  1
  O  O362  1  0.75341374  0.61722182  0.75456819  1
  O  O363  1  0.36881631  0.12259125  0.36901494  1
  O  O364  1  0.36331779  0.11124473  0.87702096  1
  O  O365  1  0.37306585  0.61360157  0.37019607  1
  O  O366  1  0.37013451  0.61771544  0.86673065  1
  O  O367  1  0.87158073  0.11508446  0.38764185  1
  O  O368  1  0.86667124  0.11524975  0.87053566  1
  O  O369  1  0.86747632  0.61611184  0.38471776  1
  O  O370  1  0.86347627  0.63292358  0.86260161  1
  O  O371  1  0.12850472  0.37770335  0.09825325  1
  O  O372  1  0.13259870  0.38792748  0.61822678  1
  O  O373  1  0.12512916  0.88796537  0.12050933  1
  O  O374  1  0.13228073  0.88175611  0.62918469  1
  O  O375  1  0.63058712  0.39082254  0.07684157  1
  O  O376  1  0.63379868  0.37389105  0.63393053  1
  O  O377  1  0.62185889  0.89560861  0.12268673  1
  O  O378  1  0.63396148  0.88296795  0.62314295  1
  O  O379  1  0.11312246  0.25513859  0.24491330  1
  O  O380  1  0.11139975  0.24637416  0.74723372  1
  O  O381  1  0.11440689  0.73970546  0.24635637  1
  O  O382  1  0.12146844  0.75808411  0.75556621  1
  O  O383  1  0.60915293  0.24066830  0.24803483  1
  O  O384  1  0.63075774  0.25938245  0.76202435  1
  O  O385  1  0.62215042  0.74193604  0.26731999  1
  O  O386  1  0.61869574  0.74963646  0.75651772  1
  O  O387  1  0.37896641  0.23823304  0.24231729  1
  O  O388  1  0.37333836  0.25236213  0.73573631  1
  O  O389  1  0.38353158  0.73522838  0.25020658  1
  O  O390  1  0.38275565  0.74518276  0.74544152  1
  O  O391  1  0.88649485  0.25630614  0.23394177  1
  O  O392  1  0.87965474  0.24492483  0.73810756  1
  O  O393  1  0.88083407  0.75395644  0.24291609  1
  O  O394  1  0.88028625  0.74573390  0.74252319  1
  O  O395  1  0.38544579  0.49993009  0.49104729  1
  O  O396  1  0.38067678  0.49325010  0.99225115  1
  O  O397  1  0.38795234  1.00583963  0.50212268  1
  O  O398  1  0.36789371  1.00036235  0.99009254  1
  O  O399  1  0.87154624  0.49090210  0.49044903  1
  O  O400  1  0.87785930  0.48395656  1.00099493  1
  O  O401  1  0.88687224  0.98995702  0.50875699  1
  O  O402  1  0.88159633  1.00091287  0.99199866  1
  O  O403  1  0.11712273  0.00234548  0.00355809  1
  O  O404  1  0.11891074  0.01096699  0.50546922  1
  O  O405  1  0.09831109  0.50415985  0.00084405  1
  O  O406  1  0.13147127  0.51447666  0.51083209  1
  O  O407  1  0.62696513  0.01201615  0.00433700  1
  O  O408  1  0.61745348  0.00922439  0.51014300  1
  O  O409  1  0.61386724  0.51716081  -0.01806266  1
  O  O410  1  0.62149585  0.50526475  0.50018577  1
  O  O411  1  0.38192638  0.36266863  0.11625098  1
  O  O412  1  0.36938428  0.36734993  0.62374779  1
  O  O413  1  0.36731577  0.86615931  0.12940016  1
  O  O414  1  0.37029297  0.86181560  0.63014969  1
  O  O415  1  0.88159402  0.35996626  0.11197237  1
  O  O416  1  0.87102461  0.37045815  0.62005477  1
  O  O417  1  0.87159486  0.86392703  0.12114496  1
  O  O418  1  0.86953711  0.87054582  0.61646757  1
  O  O419  1  0.13137109  0.12909558  0.38094069  1
  O  O420  1  0.13452553  0.11565956  0.88812930  1
  O  O421  1  0.13397575  0.62749300  0.38445324  1
  O  O422  1  0.13665521  0.63724153  0.86373610  1
  O  O423  1  0.61920259  0.12452865  0.38812832  1
  O  O424  1  0.63035148  0.12737892  0.87930547  1
  O  O425  1  0.63345059  0.62887378  0.38594230  1
  O  O426  1  0.63309727  0.63626453  0.87800294  1
