# generated using pymatgen
data_V85Zn86O256
_symmetry_space_group_name_H-M   'P 1'
_cell_length_a   16.93355617
_cell_length_b   16.94359671
_cell_length_c   16.94315926
_cell_angle_alpha   90.03629509
_cell_angle_beta   90.02519545
_cell_angle_gamma   89.89863216
_symmetry_Int_Tables_number   1
_chemical_formula_structural   V85Zn86O256
_chemical_formula_sum   'V85 Zn86 O256'
_cell_volume   4861.24336117
_cell_formula_units_Z   1
loop_
 _symmetry_equiv_pos_site_id
 _symmetry_equiv_pos_as_xyz
  1  'x, y, z'
loop_
 _atom_site_type_symbol
 _atom_site_label
 _atom_site_symmetry_multiplicity
 _atom_site_fract_x
 _atom_site_fract_y
 _atom_site_fract_z
 _atom_site_occupancy
  V  V0  1  0.62025840  -0.00114686  0.62433446  1
  V  V1  1  0.12875888  0.37669576  0.24982368  1
  V  V2  1  0.13265955  0.50406086  0.62254400  1
  V  V3  1  0.87231306  0.74775775  0.62065455  1
  V  V4  1  0.38020013  0.62418001  0.24584032  1
  V  V5  1  0.25233218  0.37752474  0.12227967  1
  V  V6  1  0.49837548  0.75296964  0.75370194  1
  V  V7  1  0.38202295  0.75077406  0.12633620  1
  V  V8  1  0.49154448  0.37723407  0.87390901  1
  V  V9  1  -0.00211143  0.74772178  0.25413087  1
  V  V10  1  0.00146603  0.62686740  0.62186652  1
  V  V11  1  0.62762549  -0.00385041  0.10899182  1
  V  V12  1  0.12459881  0.74788164  0.87822707  1
  V  V13  1  0.76570664  0.75001518  0.00067905  1
  V  V14  1  -0.00138765  0.75065843  0.74873801  1
  V  V15  1  0.50420071  0.88128872  0.37693049  1
  V  V16  1  0.50408037  0.74709820  0.25618771  1
  V  V17  1  0.12093938  0.12664049  0.00984742  1
  V  V18  1  0.50483338  0.50269421  0.49616846  1
  V  V19  1  0.62152749  0.62842564  0.00252829  1
  V  V20  1  0.24976963  0.87853490  0.12247459  1
  V  V21  1  0.10991862  0.00555153  0.13094779  1
  V  V22  1  0.24975456  0.37276468  0.61806687  1
  V  V23  1  0.62583700  0.12079263  0.49703131  1
  V  V24  1  0.74734620  0.87335999  0.62537464  1
  V  V25  1  0.73610303  0.62815469  0.37559788  1
  V  V26  1  0.87339771  0.50055169  0.37306679  1
  V  V27  1  0.24972544  0.87829986  0.62401722  1
  V  V28  1  -0.00039503  0.88318275  0.37619099  1
  V  V29  1  0.62707606  0.86868386  0.25246669  1
  V  V30  1  0.12427516  0.63193969  0.49291528  1
  V  V31  1  0.37477082  0.61795913  0.75788242  1
  V  V32  1  0.10831354  0.50575480  0.12232606  1
  V  V33  1  0.24933053  0.63174082  0.37238049  1
  V  V34  1  0.37166448  0.12473571  0.75426261  1
  V  V35  1  0.79273692  0.43454035  0.68192369  1
  V  V36  1  0.73512690  0.74666323  0.49728736  1
  V  V37  1  0.74904925  0.00119331  0.26813816  1
  V  V38  1  0.87505804  0.38913513  -0.00378382  1
  V  V39  1  0.37466289  0.75113797  0.62445438  1
  V  V40  1  0.25205980  0.12924270  0.38080632  1
  V  V41  1  0.49340378  0.50392944  -0.00383651  1
  V  V42  1  0.87215724  0.88353785  0.49537491  1
  V  V43  1  0.12432944  0.87409037  0.74859866  1
  V  V44  1  0.12974344  0.25255907  0.37919244  1
  V  V45  1  -0.00108071  0.24633132  0.23489998  1
  V  V46  1  0.74547333  0.12259597  0.87544458  1
  V  V47  1  0.24997162  0.74702372  0.00198932  1
  V  V48  1  0.25096453  0.00168208  0.25220721  1
  V  V49  1  0.86805301  0.37468307  0.49950123  1
  V  V50  1  0.49611435  0.12004353  0.61954595  1
  V  V51  1  0.76223156  0.86941125  0.12475815  1
  V  V52  1  0.74779808  0.24815098  0.51062419  1
  V  V53  1  0.37590106  0.50037786  0.37328253  1
  V  V54  1  0.75401939  0.37094060  0.12244368  1
  V  V55  1  0.50257377  0.62600100  0.62045302  1
  V  V56  1  0.62387799  0.37558453  0.75125182  1
  V  V57  1  0.62932885  0.24570295  0.37391337  1
  V  V58  1  0.75096443  0.24424759  -0.00122863  1
  V  V59  1  0.37262260  0.00212405  0.88439168  1
  V  V60  1  0.37825620  0.88470802  0.49917571  1
  V  V61  1  0.62374907  0.49532916  0.62394179  1
  V  V62  1  0.37122948  0.24810948  0.62166821  1
  V  V63  1  0.11800529  0.13029754  0.50364213  1
  V  V64  1  0.37520185  0.36989010  0.49623888  1
  V  V65  1  -0.00036177  0.24517676  0.74622003  1
  V  V66  1  0.37905406  0.12372604  0.24790598  1
  V  V67  1  0.61806899  0.50105986  0.12451521  1
  V  V68  1  0.50545069  0.88237352  0.88429277  1
  V  V69  1  0.12745697  0.24222774  0.87590511  1
  V  V70  1  -0.00134217  0.38827411  0.87816925  1
  V  V71  1  0.50811527  0.11759169  0.11012644  1
  V  V72  1  0.74953625  0.61208793  0.86771085  1
  V  V73  1  0.87537150  0.62741427  0.24771215  1
  V  V74  1  0.50663744  0.24522318  0.24619643  1
  V  V75  1  0.75302876  -0.00495972  0.75720046  1
  V  V76  1  0.87697848  0.11954077  0.74805074  1
  V  V77  1  0.37767702  0.24938845  0.12009947  1
  V  V78  1  0.00123276  0.37470559  0.37639132  1
  V  V79  1  0.63136161  0.36944486  0.24802331  1
  V  V80  1  0.12792024  0.37519687  0.75099519  1
  V  V81  1  0.24927300  0.75284708  0.49713250  1
  V  V82  1  0.11591896  0.00493199  0.62488586  1
  V  V83  1  0.12657116  0.86703447  0.25799557  1
  V  V84  1  0.24807298  0.00203408  0.75991882  1
  Zn  Zn85  1  0.37737714  0.88024244  0.00411074  1
  Zn  Zn86  1  0.37101523  0.38251590  -0.00631695  1
  Zn  Zn87  1  -0.02248351  0.00496554  -0.00397797  1
  Zn  Zn88  1  -0.00858276  0.00852717  0.49973293  1
  Zn  Zn89  1  0.62132398  0.87546976  0.75036521  1
  Zn  Zn90  1  0.25227664  0.24973057  -0.00742111  1
  Zn  Zn91  1  0.25623930  0.49522019  0.76039920  1
  Zn  Zn92  1  0.50142182  0.37366859  0.37214496  1
  Zn  Zn93  1  0.94466399  0.67724145  0.08759910  1
  Zn  Zn94  1  0.25072239  0.50377875  0.24800930  1
  Zn  Zn95  1  0.00147305  0.50085283  0.49686937  1
  Zn  Zn96  1  0.74853056  0.49925664  0.24893480  1
  Zn  Zn97  1  0.62556253  0.75121291  0.87768383  1
  Zn  Zn98  1  0.62059252  0.24683738  0.87800877  1
  Zn  Zn99  1  0.11193245  0.62150593  0.00272156  1
  Zn  Zn100  1  0.25332024  0.61584207  0.88444211  1
  Zn  Zn101  1  -0.02701579  0.87508178  0.88867726  1
  Zn  Zn102  1  0.38216020  0.00560484  0.37885665  1
  Zn  Zn103  1  0.50008040  0.24855984  0.75093214  1
  Zn  Zn104  1  0.87564658  0.24833358  0.62661071  1
  Zn  Zn105  1  0.87830870  0.11849023  0.25452149  1
  Zn  Zn106  1  0.86762621  0.61182019  0.74554410  1
  Zn  Zn107  1  0.18853391  0.18955671  0.18804160  1
  Zn  Zn108  1  0.18958132  0.18789601  0.68735815  1
  Zn  Zn109  1  0.18776387  0.68807983  0.18725391  1
  Zn  Zn110  1  0.19066454  0.68816722  0.68735209  1
  Zn  Zn111  1  0.70970923  0.17143756  0.17983240  1
  Zn  Zn112  1  0.68628199  0.18619759  0.68967954  1
  Zn  Zn113  1  0.68974010  0.68586284  0.18471377  1
  Zn  Zn114  1  0.68178442  0.68533243  0.68645070  1
  Zn  Zn115  1  0.31417409  0.30992772  0.30866192  1
  Zn  Zn116  1  0.31147215  0.31241530  0.80847212  1
  Zn  Zn117  1  0.31606646  0.81385279  0.31364213  1
  Zn  Zn118  1  0.31200851  0.81441222  0.81692068  1
  Zn  Zn119  1  0.82587856  0.27947255  0.32579176  1
  Zn  Zn120  1  0.81773303  0.30614321  0.82050132  1
  Zn  Zn121  1  0.81270600  0.81069650  0.31491054  1
  Zn  Zn122  1  0.80709465  0.80204833  0.80913464  1
  Zn  Zn123  1  0.19127726  0.44326221  0.43675379  1
  Zn  Zn124  1  0.18561194  0.43854962  0.93934441  1
  Zn  Zn125  1  0.18605466  0.94291840  0.43769750  1
  Zn  Zn126  1  0.11870053  0.93556137  0.94070564  1
  Zn  Zn127  1  0.68793000  0.43566013  0.43511936  1
  Zn  Zn128  1  0.68138369  0.43461145  0.93838683  1
  Zn  Zn129  1  0.67946519  0.93067312  0.44134929  1
  Zn  Zn130  1  0.80513681  0.93861496  0.94136585  1
  Zn  Zn131  1  0.30212021  0.06920111  0.06161976  1
  Zn  Zn132  1  0.30461978  0.06273134  0.56386294  1
  Zn  Zn133  1  0.31078381  0.56412692  0.06600749  1
  Zn  Zn134  1  0.31649928  0.56289894  0.56132992  1
  Zn  Zn135  1  0.81499386  0.06911045  0.07936730  1
  Zn  Zn136  1  0.80736807  0.06415015  0.56857492  1
  Zn  Zn137  1  0.80341303  0.55815795  0.06102024  1
  Zn  Zn138  1  0.81358601  0.56749650  0.55332789  1
  Zn  Zn139  1  0.44131633  0.43472543  0.18596965  1
  Zn  Zn140  1  0.43986353  0.43663969  0.68546077  1
  Zn  Zn141  1  0.44154113  0.93875098  0.18802292  1
  Zn  Zn142  1  0.43597631  0.93921660  0.69057691  1
  Zn  Zn143  1  0.93308650  0.42648556  0.19159384  1
  Zn  Zn144  1  0.95680833  0.43560049  0.68465894  1
  Zn  Zn145  1  0.93278415  0.93801878  0.19334872  1
  Zn  Zn146  1  0.93486874  0.93428997  0.68885302  1
  Zn  Zn147  1  0.06065808  0.06580485  0.31360828  1
  Zn  Zn148  1  0.05886598  0.06337839  0.81475519  1
  Zn  Zn149  1  0.06230485  0.56175201  0.31014410  1
  Zn  Zn150  1  0.06828087  0.56562794  0.80854603  1
  Zn  Zn151  1  0.57021638  0.06045663  0.30674885  1
  Zn  Zn152  1  0.56211110  0.06127647  0.81145296  1
  Zn  Zn153  1  0.56145237  0.55928130  0.30818254  1
  Zn  Zn154  1  0.56504037  0.56099345  0.81327794  1
  Zn  Zn155  1  0.44228578  0.18845637  0.43663256  1
  Zn  Zn156  1  0.43922261  0.18842003  0.93581605  1
  Zn  Zn157  1  0.43773366  0.69080463  0.43608539  1
  Zn  Zn158  1  0.43926604  0.69085936  0.93949084  1
  Zn  Zn159  1  0.93761567  0.18786354  0.43194534  1
  Zn  Zn160  1  0.93454454  0.18887370  0.93601030  1
  Zn  Zn161  1  0.93629182  0.69322790  0.43183276  1
  Zn  Zn162  1  0.93812014  0.67531779  0.92008419  1
  Zn  Zn163  1  0.06397267  0.32058863  0.05761051  1
  Zn  Zn164  1  0.06102002  0.31245717  0.56078264  1
  Zn  Zn165  1  0.06318432  0.81479846  0.06819934  1
  Zn  Zn166  1  0.06125503  0.81493050  0.55962963  1
  Zn  Zn167  1  0.56447173  0.31199214  0.05839881  1
  Zn  Zn168  1  0.55904356  0.31172524  0.56361531  1
  Zn  Zn169  1  0.56594961  0.81332034  0.06372771  1
  Zn  Zn170  1  0.55860254  0.81463811  0.56250048  1
  O  O171  1  0.12588106  0.11806975  0.12386707  1
  O  O172  1  0.13204283  0.11919446  0.61442135  1
  O  O173  1  0.12734485  0.60911036  0.12958345  1
  O  O174  1  0.12449751  0.61970209  0.61740570  1
  O  O175  1  0.62122553  0.10651333  0.12861929  1
  O  O176  1  0.61522417  0.11931887  0.61950242  1
  O  O177  1  0.63112296  0.61322987  0.11581112  1
  O  O178  1  0.61016061  0.61297920  0.62977528  1
  O  O179  1  0.37535688  0.37924020  0.38041228  1
  O  O180  1  0.38629037  0.37126629  0.87355471  1
  O  O181  1  0.38160566  0.87886992  0.38339295  1
  O  O182  1  0.38221063  0.88462941  0.87822869  1
  O  O183  1  0.87784271  0.37931774  0.38233110  1
  O  O184  1  0.89095282  0.37423102  0.87789652  1
  O  O185  1  0.88252996  0.86943640  0.38701227  1
  O  O186  1  0.86449097  0.87419156  0.87042792  1
  O  O187  1  0.25193440  0.00862151  0.36491863  1
  O  O188  1  0.25537699  -0.00471010  0.86102129  1
  O  O189  1  0.25912838  0.51281333  0.37263824  1
  O  O190  1  0.24593106  0.50348378  0.87282935  1
  O  O191  1  0.74862133  -0.02016828  0.36574500  1
  O  O192  1  0.74487878  0.00549068  0.86253984  1
  O  O193  1  0.75535655  0.51021823  0.37419296  1
  O  O194  1  0.74087390  0.51378041  0.87801318  1
  O  O195  1  0.25045103  0.48708336  0.12858928  1
  O  O196  1  0.24357577  0.49513526  0.62430291  1
  O  O197  1  0.24922318  0.99467263  0.13882999  1
  O  O198  1  0.24005093  0.99411968  0.63248814  1
  O  O199  1  0.73681327  0.48754672  0.12623189  1
  O  O200  1  0.73965024  0.50225871  0.61699418  1
  O  O201  1  0.73696751  0.98629307  0.13706244  1
  O  O202  1  0.74079399  0.99291718  0.63502646  1
  O  O203  1  0.01726364  0.37394274  0.25711113  1
  O  O204  1  0.00960816  0.36780028  0.75954700  1
  O  O205  1  0.00691611  0.87326178  0.25857411  1
  O  O206  1  0.00599762  0.86113192  0.74555044  1
  O  O207  1  0.51337921  0.36396606  0.24736598  1
  O  O208  1  0.50527720  0.37426756  0.75591808  1
  O  O209  1  0.50601902  0.86698858  0.25701859  1
  O  O210  1  0.49651799  0.86704952  0.75824192  1
  O  O211  1  0.49738461  0.12883863  0.24243203  1
  O  O212  1  0.48847965  0.12450282  0.73814681  1
  O  O213  1  0.49230279  0.63353436  0.25424026  1
  O  O214  1  0.49109048  0.63092689  0.74482413  1
  O  O215  1  0.99788829  0.14108646  0.25148962  1
  O  O216  1  0.99078452  0.13239797  0.75511233  1
  O  O217  1  0.99064054  0.63493961  0.25869454  1
  O  O218  1  0.99796370  0.63493138  0.74185948  1
  O  O219  1  0.37425443  0.25071116  0.01138669  1
  O  O220  1  0.37917955  0.26238720  0.50377312  1
  O  O221  1  0.36867574  0.75194380  0.01012818  1
  O  O222  1  0.36900237  0.75969445  0.50573218  1
  O  O223  1  0.85838067  0.26165848  -0.00852868  1
  O  O224  1  0.86732346  0.25764419  0.50658849  1
  O  O225  1  0.86574615  0.73644614  0.00294627  1
  O  O226  1  0.86827785  0.75545229  0.50891330  1
  O  O227  1  0.12443389  0.24482514  0.49176887  1
  O  O228  1  0.12302089  0.24809021  0.98839910  1
  O  O229  1  0.13218679  0.73912232  0.50505222  1
  O  O230  1  0.13313736  0.74918496  0.99416464  1
  O  O231  1  0.62748190  0.24356081  0.49677694  1
  O  O232  1  0.64356968  0.26033575  0.99354272  1
  O  O233  1  0.63593840  0.75087600  0.50654227  1
  O  O234  1  0.62752134  0.73919217  1.00029420  1
  O  O235  1  0.49723196  0.24218421  0.12720549  1
  O  O236  1  0.48637464  0.24290438  0.62647705  1
  O  O237  1  0.48713069  0.75825571  0.13458517  1
  O  O238  1  0.49486494  0.74346458  0.63090393  1
  O  O239  1  1.01513865  0.25435978  0.13708120  1
  O  O240  1  1.00062128  0.25832276  0.64173898  1
  O  O241  1  1.00308077  0.75671499  0.14537618  1
  O  O242  1  0.99270012  0.74538470  0.62718416  1
  O  O243  1  0.01615883  0.25875969  0.36790457  1
  O  O244  1  0.01023526  0.25666484  0.86481947  1
  O  O245  1  0.00003467  0.76475895  0.36487507  1
  O  O246  1  0.00682057  0.75395682  0.86416112  1
  O  O247  1  0.51156883  0.25168871  0.36705785  1
  O  O248  1  0.50286463  0.25879916  0.87155764  1
  O  O249  1  0.49362720  0.75949173  0.36209619  1
  O  O250  1  0.49741321  0.76274940  0.86859559  1
  O  O251  1  0.24102647  0.12143318  0.48591033  1
  O  O252  1  0.23151728  0.13684410  1.00376398  1
  O  O253  1  0.24647408  0.63111596  0.49302565  1
  O  O254  1  0.24587016  0.63725251  1.00494429  1
  O  O255  1  0.73736237  0.13280056  0.50500460  1
  O  O256  1  0.75249174  0.13872511  0.99182759  1
  O  O257  1  0.75026594  0.63264567  0.48508737  1
  O  O258  1  0.74168706  0.63156844  0.99273784  1
  O  O259  1  0.25302210  0.37000393  0.00891665  1
  O  O260  1  0.25898869  0.38166512  0.51005713  1
  O  O261  1  0.24908158  0.86559117  0.01695547  1
  O  O262  1  0.25472343  0.87181954  0.50320086  1
  O  O263  1  0.75644694  0.37175465  0.00250278  1
  O  O264  1  0.76095475  0.36958701  0.49761090  1
  O  O265  1  0.74982542  0.85685289  0.00799919  1
  O  O266  1  0.75507049  0.86578254  0.50546765  1
  O  O267  1  0.12941645  0.49319997  0.24243794  1
  O  O268  1  0.12866543  0.49396891  0.73760623  1
  O  O269  1  0.13264941  0.99737673  0.24709855  1
  O  O270  1  0.13148615  0.99768851  0.74321222  1
  O  O271  1  0.62560579  0.48883631  0.24245129  1
  O  O272  1  0.62139655  0.48781264  0.73907500  1
  O  O273  1  0.62965372  0.97912904  0.24935296  1
  O  O274  1  0.63105416  0.99868584  0.73902859  1
  O  O275  1  0.36813319  0.00655074  0.25234508  1
  O  O276  1  0.36712990  0.00642768  0.75667520  1
  O  O277  1  0.37785034  0.50755371  0.25404566  1
  O  O278  1  0.37651987  0.51510548  0.74286259  1
  O  O279  1  0.85547272  0.00165715  0.25104793  1
  O  O280  1  0.86510039  0.00577672  0.74428627  1
  O  O281  1  0.87185239  0.50128150  0.26173914  1
  O  O282  1  0.86564353  0.49314950  0.73103311  1
  O  O283  1  0.12668911  0.37160117  0.37035417  1
  O  O284  1  0.11450373  0.36778215  0.87282908  1
  O  O285  1  0.11841453  0.88068101  0.36748685  1
  O  O286  1  0.13915469  0.85610551  0.86177181  1
  O  O287  1  0.62329723  0.36798200  0.36451078  1
  O  O288  1  0.61388257  0.37503740  0.86502144  1
  O  O289  1  0.61514892  0.86838111  0.36844604  1
  O  O290  1  0.60744027  0.87357486  0.87145493  1
  O  O291  1  0.38191788  0.13003538  0.12849081  1
  O  O292  1  0.37766794  0.13024404  0.62592575  1
  O  O293  1  0.37023258  0.63462334  0.13863941  1
  O  O294  1  0.38498548  0.63054302  0.63109547  1
  O  O295  1  0.82166286  0.14369402  0.15850199  1
  O  O296  1  0.86923455  0.12935996  0.64126728  1
  O  O297  1  0.86513250  0.61536668  0.14263070  1
  O  O298  1  0.88075521  0.63083171  0.62358026  1
  O  O299  1  0.26002676  0.26131121  0.12863813  1
  O  O300  1  0.26186724  0.25736370  0.62434243  1
  O  O301  1  0.25882319  0.75808733  0.12376614  1
  O  O302  1  0.25597217  0.75839610  0.61920600  1
  O  O303  1  0.73914187  0.26468600  0.11028608  1
  O  O304  1  0.74700761  0.25182165  0.61440586  1
  O  O305  1  0.74628700  0.75446823  0.11082097  1
  O  O306  1  0.75442893  0.75082199  0.61916404  1
  O  O307  1  0.24016834  0.24275389  0.36826204  1
  O  O308  1  0.23195472  0.25965727  0.87274686  1
  O  O309  1  0.25625601  0.73936805  0.38029809  1
  O  O310  1  0.24752780  0.74514642  0.88703544  1
  O  O311  1  0.73250513  0.25739658  0.39092571  1
  O  O312  1  0.74485373  0.24271505  0.88170521  1
  O  O313  1  0.75135749  0.73651020  0.38249053  1
  O  O314  1  0.74504105  0.74096295  0.88837962  1
  O  O315  1  0.01344943  0.12333117  -0.00779574  1
  O  O316  1  0.01151042  0.12589712  0.49383193  1
  O  O317  1  -0.00082456  0.63325918  0.00177656  1
  O  O318  1  0.00864037  0.62757615  0.50149953  1
  O  O319  1  0.50054751  0.12601653  0.01129175  1
  O  O320  1  0.50539379  0.12746908  0.51272666  1
  O  O321  1  0.51077638  0.61902544  -0.00603892  1
  O  O322  1  0.49252748  0.61665953  0.50765225  1
  O  O323  1  0.49095186  0.38247592  0.49743027  1
  O  O324  1  0.49783137  0.38353599  0.99101804  1
  O  O325  1  0.48989525  0.86974758  0.49044208  1
  O  O326  1  0.49645645  0.87150951  0.98743057  1
  O  O327  1  0.98738213  0.37589701  0.49514026  1
  O  O328  1  0.99225729  0.37419806  0.98616970  1
  O  O329  1  0.99079520  0.87732000  0.49333325  1
  O  O330  1  1.02096019  0.88689132  0.99537494  1
  O  O331  1  0.49448967  0.49746078  0.38056083  1
  O  O332  1  0.50413536  0.49207077  0.88433669  1
  O  O333  1  0.49997751  0.98639368  0.36918671  1
  O  O334  1  0.49042256  0.98835397  0.86905255  1
  O  O335  1  0.99205272  0.49332820  0.37609622  1
  O  O336  1  1.00627961  0.48672299  0.86611055  1
  O  O337  1  1.00033144  0.98959011  0.37719350  1
  O  O338  1  1.02333455  0.98481812  0.88364723  1
  O  O339  1  0.00824035  -0.00139174  0.12908633  1
  O  O340  1  0.01297681  -0.00494098  0.62441630  1
  O  O341  1  0.01052454  0.49450194  0.13331054  1
  O  O342  1  0.01583233  0.50774524  0.61827857  1
  O  O343  1  0.51437143  0.00417073  0.12780444  1
  O  O344  1  0.50697754  0.00718563  0.62888808  1
  O  O345  1  0.51171188  0.49477925  0.11693399  1
  O  O346  1  0.50407845  0.50651459  0.61598497  1
  O  O347  1  0.24145840  0.37645664  0.24529446  1
  O  O348  1  0.24644121  0.37675124  0.73497795  1
  O  O349  1  0.24502153  0.88165069  0.24759079  1
  O  O350  1  0.24644308  0.88112821  0.74218252  1
  O  O351  1  0.74077336  0.37088258  0.24117323  1
  O  O352  1  0.74442831  0.37257331  0.75202956  1
  O  O353  1  0.74267672  0.87091675  0.24429505  1
  O  O354  1  0.74394216  0.87829970  0.74201276  1
  O  O355  1  0.25608830  0.11941061  0.25849013  1
  O  O356  1  0.26273798  0.11651857  0.74338521  1
  O  O357  1  0.25825389  0.62610655  0.25762192  1
  O  O358  1  0.26788469  0.62602868  0.74668534  1
  O  O359  1  0.71943534  0.09777605  0.27216249  1
  O  O360  1  0.75459392  0.11583603  0.75411594  1
  O  O361  1  0.75537973  0.62449909  0.26148823  1
  O  O362  1  0.74493647  0.62796988  0.76283030  1
  O  O363  1  0.36912261  0.12651358  0.37039337  1
  O  O364  1  0.38075386  0.11679231  0.86526601  1
  O  O365  1  0.36999345  0.62154943  0.36571793  1
  O  O366  1  0.37644122  0.63076259  0.86026518  1
  O  O367  1  0.86224115  0.17107808  0.35379636  1
  O  O368  1  0.86028821  0.13107947  0.86046174  1
  O  O369  1  0.86839323  0.61633400  0.36885805  1
  O  O370  1  0.85645782  0.62337185  0.86314748  1
  O  O371  1  0.13300432  0.38349015  0.13169419  1
  O  O372  1  0.13314315  0.38218762  0.62495941  1
  O  O373  1  0.13431619  0.88551545  0.13907783  1
  O  O374  1  0.13017170  0.88208233  0.62892185  1
  O  O375  1  0.62953587  0.38004718  0.13040829  1
  O  O376  1  0.61845299  0.38702989  0.63029235  1
  O  O377  1  0.62947259  0.88019814  0.13268676  1
  O  O378  1  0.62772411  0.88275027  0.62575901  1
  O  O379  1  0.12114217  0.25862457  0.25680468  1
  O  O380  1  0.12166345  0.25403330  0.75737521  1
  O  O381  1  0.12272819  0.76240136  0.24976975  1
  O  O382  1  0.11786494  0.75155988  0.75293629  1
  O  O383  1  0.62707040  0.25054234  0.25653980  1
  O  O384  1  0.62153817  0.26401368  0.74597596  1
  O  O385  1  0.61576012  0.75663727  0.24139742  1
  O  O386  1  0.60888259  0.75068585  0.75074010  1
  O  O387  1  0.38412570  0.24464550  0.23875995  1
  O  O388  1  0.37475201  0.24100716  0.74075767  1
  O  O389  1  0.38195510  0.74416609  0.24510905  1
  O  O390  1  0.38274520  0.74412725  0.74451937  1
  O  O391  1  0.90272699  0.27985295  0.23942541  1
  O  O392  1  0.88387473  0.24410096  0.74799304  1
  O  O393  1  0.88291612  0.73873842  0.25601954  1
  O  O394  1  0.88094974  0.74666829  0.73465163  1
  O  O395  1  0.38389103  0.49130980  0.49490420  1
  O  O396  1  0.38938054  0.50319287  1.00796205  1
  O  O397  1  0.36855689  0.98850266  0.49992213  1
  O  O398  1  0.36316172  1.00198845  0.98741265  1
  O  O399  1  0.87627466  0.49407438  0.48853139  1
  O  O400  1  0.86839167  0.48899794  0.99591340  1
  O  O401  1  0.87303657  0.98799568  0.50990332  1
  O  O402  1  0.86592663  1.00506611  1.00815402  1
  O  O403  1  0.13730189  0.01285742  0.02101174  1
  O  O404  1  0.12244871  0.01070734  0.50834194  1
  O  O405  1  0.12455904  0.49977182  0.01874946  1
  O  O406  1  0.12651727  0.51298127  0.50519147  1
  O  O407  1  0.63210628  -0.00834762  0.01407651  1
  O  O408  1  0.63038669  0.00692643  0.51345305  1
  O  O409  1  0.61628167  0.50625698  0.00682463  1
  O  O410  1  0.61160448  0.49291923  0.50403779  1
  O  O411  1  0.36995151  0.36662910  0.12402749  1
  O  O412  1  0.37014192  0.36849167  0.61787170  1
  O  O413  1  0.36768587  0.87022015  0.12671668  1
  O  O414  1  0.37130257  0.87162379  0.61809821  1
  O  O415  1  0.86365222  0.38120322  0.11295642  1
  O  O416  1  0.86895923  0.37982636  0.62064157  1
  O  O417  1  0.86156240  0.87275375  0.13174015  1
  O  O418  1  0.86754057  0.86564224  0.61830874  1
  O  O419  1  0.13184531  0.13394654  0.38037099  1
  O  O420  1  0.12509501  0.13958012  0.87829764  1
  O  O421  1  0.13528690  0.62033931  0.38232664  1
  O  O422  1  0.12882351  0.63771282  0.87463623  1
  O  O423  1  0.61286095  0.13036484  0.39086227  1
  O  O424  1  0.63873985  0.12797476  0.86484418  1
  O  O425  1  0.63763321  0.62033325  0.37005107  1
  O  O426  1  0.63188651  0.62805522  0.88216029  1
