# generated using pymatgen
data_V85Zn86O256
_symmetry_space_group_name_H-M   'P 1'
_cell_length_a   16.93648911
_cell_length_b   16.94041699
_cell_length_c   16.93806149
_cell_angle_alpha   90.05960939
_cell_angle_beta   89.95832638
_cell_angle_gamma   90.01323695
_symmetry_Int_Tables_number   1
_chemical_formula_structural   V85Zn86O256
_chemical_formula_sum   'V85 Zn86 O256'
_cell_volume   4859.71529844
_cell_formula_units_Z   1
loop_
 _symmetry_equiv_pos_site_id
 _symmetry_equiv_pos_as_xyz
  1  'x, y, z'
loop_
 _atom_site_type_symbol
 _atom_site_label
 _atom_site_symmetry_multiplicity
 _atom_site_fract_x
 _atom_site_fract_y
 _atom_site_fract_z
 _atom_site_occupancy
  V  V0  1  0.00085504  0.12158389  0.12495797  1
  V  V1  1  0.00963767  0.49600358  0.00004245  1
  V  V2  1  0.39287147  0.87643612  0.49027850  1
  V  V3  1  0.50208770  0.25566436  0.24876163  1
  V  V4  1  0.87651270  0.63179747  0.23848160  1
  V  V5  1  0.00158558  0.74940687  0.74911074  1
  V  V6  1  0.25112326  0.75446239  0.49352019  1
  V  V7  1  0.62284375  0.37402275  0.74827868  1
  V  V8  1  0.63933803  0.12363278  -0.00384870  1
  V  V9  1  0.61930842  0.50341104  0.62356597  1
  V  V10  1  0.63073649  0.25797957  0.38418764  1
  V  V11  1  0.12752402  0.11763615  0.00287101  1
  V  V12  1  0.61759826  0.62506726  0.50179460  1
  V  V13  1  0.36799021  0.36153497  0.50056622  1
  V  V14  1  0.25296856  0.61132165  0.36802362  1
  V  V15  1  -0.00025124  0.87616776  0.87461578  1
  V  V16  1  0.75381093  0.02069238  0.75001957  1
  V  V17  1  0.25006795  0.50095328  0.74720043  1
  V  V18  1  0.49940205  0.50248296  0.00513170  1
  V  V19  1  0.37844805  0.74731079  0.12458926  1
  V  V20  1  0.24773423  0.62239709  0.88239221  1
  V  V21  1  0.86879438  0.36143580  0.49942301  1
  V  V22  1  0.00825240  0.37484383  0.37557873  1
  V  V23  1  0.87421065  0.87254555  0.00300655  1
  V  V24  1  0.12203463  0.49890480  0.62516806  1
  V  V25  1  0.37467426  0.12481721  0.25212909  1
  V  V26  1  0.25109123  0.25116396  -0.00227793  1
  V  V27  1  0.49924649  0.37158312  0.87430820  1
  V  V28  1  0.37302546  -0.00018112  0.85869130  1
  V  V29  1  0.11914668  0.37435381  0.75240747  1
  V  V30  1  0.74623765  0.00010223  0.25197652  1
  V  V31  1  0.49988816  0.75123777  0.24846200  1
  V  V32  1  0.87350451  0.75171898  0.62622499  1
  V  V33  1  0.87456038  0.62111683  0.74978596  1
  V  V34  1  0.24916063  0.00423690  0.24958795  1
  V  V35  1  0.12486323  0.74491142  0.88171303  1
  V  V36  1  0.75085945  0.62378768  0.37227953  1
  V  V37  1  0.37496098  0.49915174  0.87322560  1
  V  V38  1  0.25389685  0.12011299  0.86067905  1
  V  V39  1  0.75092144  0.87194914  0.13266613  1
  V  V40  1  0.50259388  0.12690025  0.12144798  1
  V  V41  1  0.12841459  0.24124871  0.39312782  1
  V  V42  1  0.37629547  0.61365832  0.24721519  1
  V  V43  1  0.87541514  0.87496606  0.50575941  1
  V  V44  1  0.48620609  0.50456103  0.49935928  1
  V  V45  1  0.12116064  0.24730162  0.87182086  1
  V  V46  1  0.87630834  0.50230241  0.37652912  1
  V  V47  1  0.61966530  0.62721029  0.00906592  1
  V  V48  1  0.74980721  0.62618030  0.87664935  1
  V  V49  1  0.75097789  0.74843877  0.50550495  1
  V  V50  1  0.12608288  0.88174834  0.25500955  1
  V  V51  1  -0.00158747  0.75393351  0.24521578  1
  V  V52  1  0.63454167  0.38043394  0.24417053  1
  V  V53  1  0.49410819  0.38271255  0.37327286  1
  V  V54  1  0.01141558  0.63129968  0.11523120  1
  V  V55  1  0.87399384  0.12601981  0.24794032  1
  V  V56  1  0.50155170  0.74439186  0.74284261  1
  V  V57  1  0.74624375  0.36432499  0.61587032  1
  V  V58  1  0.62462558  0.75118968  0.87625854  1
  V  V59  1  0.75100893  0.75228040  0.00463799  1
  V  V60  1  0.25471735  0.87409796  0.62510627  1
  V  V61  1  0.00047477  0.00019615  0.00126462  1
  V  V62  1  -0.01725634  0.12775412  0.62559098  1
  V  V63  1  0.37448009  0.24972752  0.12280064  1
  V  V64  1  0.63952719  0.87455047  0.74909206  1
  V  V65  1  0.12527115  0.00304560  0.62225622  1
  V  V66  1  0.87184238  0.01351015  0.87250096  1
  V  V67  1  0.87607397  -0.00113233  0.37562323  1
  V  V68  1  -0.00096175  0.62345839  0.62356877  1
  V  V69  1  0.13157280  0.87601719  0.74958862  1
  V  V70  1  0.62557322  -0.00262570  0.61885395  1
  V  V71  1  0.24316884  0.37686781  0.13994752  1
  V  V72  1  0.24390262  0.87926550  0.12325532  1
  V  V73  1  0.01112290  0.25038614  0.25031099  1
  V  V74  1  0.50083290  0.87543096  0.87390383  1
  V  V75  1  0.49295273  0.23906692  0.74390544  1
  V  V76  1  0.75324228  0.26782326  0.00117158  1
  V  V77  1  0.62186628  0.75333527  0.36979878  1
  V  V78  1  0.75381288  0.13453038  0.38443164  1
  V  V79  1  0.87213670  0.49404832  0.88448948  1
  V  V80  1  0.37426057  0.87744642  -0.00127430  1
  V  V81  1  0.87290122  0.27141795  0.12730059  1
  V  V82  1  -0.00286826  0.49917021  0.50402423  1
  V  V83  1  0.12588035  0.62587991  0.49713882  1
  V  V84  1  0.62468387  -0.00317711  0.12943494  1
  Zn  Zn85  1  0.37384287  0.37536976  -0.00016234  1
  Zn  Zn86  1  0.48971033  0.10933869  0.60975815  1
  Zn  Zn87  1  0.00129524  0.87560186  0.37478655  1
  Zn  Zn88  1  0.55838931  0.91564364  0.31587125  1
  Zn  Zn89  1  0.50088477  0.00423939  -0.00365579  1
  Zn  Zn90  1  0.39068657  0.00222397  0.38016911  1
  Zn  Zn91  1  0.76535187  0.49393345  0.23667278  1
  Zn  Zn92  1  0.24714812  0.74624030  0.00255862  1
  Zn  Zn93  1  0.13442662  0.50445636  0.13708627  1
  Zn  Zn94  1  0.12553672  0.75146525  0.37170134  1
  Zn  Zn95  1  0.24534306  0.36978908  0.61840743  1
  Zn  Zn96  1  -0.00867996  0.36661671  0.88077600  1
  Zn  Zn97  1  0.38121631  0.74263222  0.61741573  1
  Zn  Zn98  1  0.63067097  0.24391195  0.87162278  1
  Zn  Zn99  1  0.62615224  0.12898136  0.50296408  1
  Zn  Zn100  1  0.00148150  0.00282950  0.49934678  1
  Zn  Zn101  1  0.62889850  0.49959048  0.12380338  1
  Zn  Zn102  1  0.25715202  0.13521718  0.39313339  1
  Zn  Zn103  1  -0.02648453  0.22838591  0.75770024  1
  Zn  Zn104  1  0.74877675  0.49908589  0.74814975  1
  Zn  Zn105  1  0.36013498  0.23171685  0.62824029  1
  Zn  Zn106  1  0.38086363  0.62128815  0.74356817  1
  Zn  Zn107  1  0.18807474  0.18712462  0.18648436  1
  Zn  Zn108  1  0.18220791  0.18944807  0.68301140  1
  Zn  Zn109  1  0.18965958  0.69311290  0.18904978  1
  Zn  Zn110  1  0.19078198  0.68774813  0.68694304  1
  Zn  Zn111  1  0.69082072  0.19132509  0.18825825  1
  Zn  Zn112  1  0.68139807  0.18773530  0.68505339  1
  Zn  Zn113  1  0.68854306  0.68570058  0.18735463  1
  Zn  Zn114  1  0.68568243  0.68479587  0.68722282  1
  Zn  Zn115  1  0.31205489  0.31127976  0.31604552  1
  Zn  Zn116  1  0.30997271  0.31310244  0.80961255  1
  Zn  Zn117  1  0.31348922  0.81336033  0.31246736  1
  Zn  Zn118  1  0.31386766  0.80907493  0.81236624  1
  Zn  Zn119  1  0.81831651  0.31365803  0.31154036  1
  Zn  Zn120  1  0.80567117  0.30887143  0.81473609  1
  Zn  Zn121  1  0.81217348  0.81139146  0.31462698  1
  Zn  Zn122  1  0.81765415  0.81218476  0.81718136  1
  Zn  Zn123  1  0.18597441  0.43645050  0.43463494  1
  Zn  Zn124  1  0.18540852  0.43574354  0.93864522  1
  Zn  Zn125  1  0.20944386  0.96685352  0.45246119  1
  Zn  Zn126  1  0.18896548  0.93809802  0.93524131  1
  Zn  Zn127  1  0.68504153  0.44148694  0.43512020  1
  Zn  Zn128  1  0.68390967  0.43924229  0.93648911  1
  Zn  Zn129  1  0.69722618  0.93462472  0.43991828  1
  Zn  Zn130  1  0.69064486  0.94085525  0.93616823  1
  Zn  Zn131  1  0.31332525  0.06106469  0.06074667  1
  Zn  Zn132  1  0.31369519  0.06166246  0.56432483  1
  Zn  Zn133  1  0.31335606  0.55954698  0.06374251  1
  Zn  Zn134  1  0.31039124  0.56567770  0.56439101  1
  Zn  Zn135  1  0.81547364  0.06158843  0.06424942  1
  Zn  Zn136  1  0.80896758  0.06037989  0.56500852  1
  Zn  Zn137  1  0.81260282  0.56161358  0.06318268  1
  Zn  Zn138  1  0.80776794  0.55890881  0.56340932  1
  Zn  Zn139  1  0.43643631  0.43449541  0.18254122  1
  Zn  Zn140  1  0.43687390  0.43455263  0.68304093  1
  Zn  Zn141  1  0.43531917  0.93870192  0.18219257  1
  Zn  Zn142  1  0.44245534  0.92728950  0.68319572  1
  Zn  Zn143  1  0.97238229  0.45158231  0.20201982  1
  Zn  Zn144  1  0.91576554  0.40464548  0.70765392  1
  Zn  Zn145  1  0.93630258  0.93892306  0.18625519  1
  Zn  Zn146  1  0.93740308  0.93992338  0.68878233  1
  Zn  Zn147  1  0.06449319  0.06289669  0.31242246  1
  Zn  Zn148  1  0.06381850  0.05987637  0.80888748  1
  Zn  Zn149  1  0.06633561  0.56476755  0.30931634  1
  Zn  Zn150  1  0.06124973  0.56146475  0.81393806  1
  Zn  Zn151  1  0.56263491  0.07924549  0.31637715  1
  Zn  Zn152  1  0.56564561  0.05989484  0.81327173  1
  Zn  Zn153  1  0.55898571  0.56424331  0.31173031  1
  Zn  Zn154  1  0.56393983  0.56079469  0.81674439  1
  Zn  Zn155  1  0.44572823  0.18703936  0.43636394  1
  Zn  Zn156  1  0.43867517  0.18495817  0.93432278  1
  Zn  Zn157  1  0.43550892  0.68986265  0.43126413  1
  Zn  Zn158  1  0.43487878  0.68738115  0.93341134  1
  Zn  Zn159  1  0.94412102  0.18335913  0.44191053  1
  Zn  Zn160  1  0.93392998  0.19086494  0.94562743  1
  Zn  Zn161  1  0.93985413  0.69031387  0.43298634  1
  Zn  Zn162  1  0.93665358  0.68800379  0.93899330  1
  Zn  Zn163  1  0.06317243  0.31138024  0.06108071  1
  Zn  Zn164  1  0.05632663  0.30994162  0.56721354  1
  Zn  Zn165  1  0.06334919  0.81494769  0.06442883  1
  Zn  Zn166  1  0.06310796  0.81384914  0.56052122  1
  Zn  Zn167  1  0.56492587  0.31228547  0.06027811  1
  Zn  Zn168  1  0.55488930  0.31367609  0.56235132  1
  Zn  Zn169  1  0.56025434  0.81461891  0.06425039  1
  Zn  Zn170  1  0.57138513  0.81472027  0.56659931  1
  O  O171  1  0.11235133  0.13361021  0.11521810  1
  O  O172  1  0.12637235  0.10408270  0.62944783  1
  O  O173  1  0.11580570  0.62426596  0.13036188  1
  O  O174  1  0.12064274  0.61862987  0.61879948  1
  O  O175  1  0.62321082  0.11738106  0.12021448  1
  O  O176  1  0.62513593  0.10916248  0.62423201  1
  O  O177  1  0.62194617  0.62792127  0.11167098  1
  O  O178  1  0.62692139  0.61865521  0.61141377  1
  O  O179  1  0.38371886  0.37101679  0.38438227  1
  O  O180  1  0.38261621  0.38012771  0.87629035  1
  O  O181  1  0.37895861  0.87174329  0.38666419  1
  O  O182  1  0.37762334  0.87953582  0.88176192  1
  O  O183  1  0.87869353  0.38478230  0.38280013  1
  O  O184  1  0.87173482  0.39189621  0.88079147  1
  O  O185  1  0.87478050  0.88444615  0.38121586  1
  O  O186  1  0.88252947  0.88252664  0.88276791  1
  O  O187  1  0.26642445  -0.00925842  0.35256068  1
  O  O188  1  0.25658783  0.01244097  0.87748126  1
  O  O189  1  0.24656298  0.51272437  0.37258583  1
  O  O190  1  0.25293144  0.50464741  0.86993003  1
  O  O191  1  0.75935936  0.00738461  0.37057534  1
  O  O192  1  0.75814825  -0.00213954  0.86150971  1
  O  O193  1  0.75737355  0.51122132  0.37162584  1
  O  O194  1  0.75735986  0.50820523  0.87694246  1
  O  O195  1  0.24882293  0.48218896  0.11929955  1
  O  O196  1  0.24087178  0.49513595  0.63214730  1
  O  O197  1  0.25764899  0.99063169  0.13458540  1
  O  O198  1  0.23747843  0.98073095  0.62600544  1
  O  O199  1  0.74277525  0.50785576  0.12823872  1
  O  O200  1  0.73356784  0.49440545  0.62535971  1
  O  O201  1  0.74402373  0.99554455  0.13243796  1
  O  O202  1  0.74354646  1.00181223  0.64267020  1
  O  O203  1  -0.01648076  0.35860080  0.26889676  1
  O  O204  1  0.01691877  0.39061276  0.76254048  1
  O  O205  1  0.00750356  0.87194288  0.24674660  1
  O  O206  1  0.00615953  0.86749113  0.75573102  1
  O  O207  1  0.50407418  0.37372573  0.25645973  1
  O  O208  1  0.50769741  0.36964573  0.75418099  1
  O  O209  1  0.49788306  0.85847584  0.23805713  1
  O  O210  1  0.51295997  0.86373916  0.75647052  1
  O  O211  1  0.49451352  0.13709369  0.24049636  1
  O  O212  1  0.50628709  0.13927387  0.75402881  1
  O  O213  1  0.48386081  0.63348567  0.25394936  1
  O  O214  1  0.50455253  0.64084691  0.75868148  1
  O  O215  1  0.99501817  0.13105484  0.24296767  1
  O  O216  1  1.00159411  0.12000053  0.73580385  1
  O  O217  1  0.99400102  0.63709284  0.24256222  1
  O  O218  1  0.99399508  0.62942128  0.74473934  1
  O  O219  1  0.36679673  0.24839525  0.00389106  1
  O  O220  1  0.37640184  0.25977812  0.49914557  1
  O  O221  1  0.37342453  0.75968347  0.00458710  1
  O  O222  1  0.36761372  0.75649144  0.49778173  1
  O  O223  1  0.86456935  0.25397965  0.01381136  1
  O  O224  1  0.87626297  0.26263330  0.49296922  1
  O  O225  1  0.86896880  0.76490591  -0.00553284  1
  O  O226  1  0.86904175  0.75227173  0.50447408  1
  O  O227  1  0.12150803  0.25027052  0.49145740  1
  O  O228  1  0.12932638  0.24018553  0.98958163  1
  O  O229  1  0.13139595  0.74336675  0.49526664  1
  O  O230  1  0.12659065  0.75724254  0.98563751  1
  O  O231  1  0.62438512  0.25925635  0.48664029  1
  O  O232  1  0.63979356  0.24142213  1.00515559  1
  O  O233  1  0.63210762  0.74324986  0.49477283  1
  O  O234  1  0.62777666  0.74551665  0.99447716  1
  O  O235  1  0.49458535  0.24796170  0.12861727  1
  O  O236  1  0.49876169  0.24837452  0.63873632  1
  O  O237  1  0.48601848  0.75035705  0.12739087  1
  O  O238  1  0.50620605  0.75143600  0.64031037  1
  O  O239  1  0.99102060  0.24658330  0.13025506  1
  O  O240  1  1.00573544  0.23029307  0.63112409  1
  O  O241  1  1.00290901  0.74521043  0.13391356  1
  O  O242  1  0.99498183  0.74200984  0.62921208  1
  O  O243  1  0.00907234  0.25319708  0.37084022  1
  O  O244  1  0.00555153  0.24815661  0.87465607  1
  O  O245  1  0.00386082  0.75380048  0.36046674  1
  O  O246  1  0.00647815  0.75426381  0.86983323  1
  O  O247  1  0.51039395  0.26284205  0.36671489  1
  O  O248  1  0.50235633  0.25953891  0.86846872  1
  O  O249  1  0.51025028  0.74856451  0.36397200  1
  O  O250  1  0.50705455  0.75650379  0.86900273  1
  O  O251  1  0.23883912  0.07517404  0.48512763  1
  O  O252  1  0.24254226  0.13340546  0.99861588  1
  O  O253  1  0.24617163  0.63056066  0.48649589  1
  O  O254  1  0.25447702  0.62505342  0.98677342  1
  O  O255  1  0.74685868  0.12201147  0.48787195  1
  O  O256  1  0.74147960  0.13193494  1.00863849  1
  O  O257  1  0.74235007  0.62876453  0.49141237  1
  O  O258  1  0.74399489  0.63377558  0.99415681  1
  O  O259  1  0.25061350  0.35933716  -0.00286622  1
  O  O260  1  0.26600006  0.38210221  0.49650989  1
  O  O261  1  0.25627485  0.87412294  0.00565715  1
  O  O262  1  0.25662951  0.86763955  0.50470370  1
  O  O263  1  0.74160181  0.36592265  0.00547705  1
  O  O264  1  0.75192990  0.37985788  0.50759734  1
  O  O265  1  0.75631842  0.87267853  0.00738754  1
  O  O266  1  0.76459052  0.86086420  0.49737666  1
  O  O267  1  0.08118080  0.48480736  0.23543820  1
  O  O268  1  0.13156566  0.49654630  0.74554262  1
  O  O269  1  0.13488681  0.99600426  0.24917075  1
  O  O270  1  0.12165907  0.98282169  0.74103086  1
  O  O271  1  0.62173381  0.48841473  0.24949600  1
  O  O272  1  0.62228421  0.49377016  0.74114699  1
  O  O273  1  0.63002520  0.99999776  0.24420049  1
  O  O274  1  0.63930269  0.99368229  0.74958853  1
  O  O275  1  0.37396233  0.01589653  0.24326769  1
  O  O276  1  0.37785840  -0.01417043  0.76051929  1
  O  O277  1  0.38003711  0.51481460  0.24324794  1
  O  O278  1  0.36719486  0.49659213  0.75408882  1
  O  O279  1  0.86894467  0.00588898  0.25768740  1
  O  O280  1  0.86040557  -0.00458980  0.75693930  1
  O  O281  1  0.88182091  0.51083485  0.26250872  1
  O  O282  1  0.87238241  0.50394234  0.76480531  1
  O  O283  1  0.11316261  0.36480132  0.38099941  1
  O  O284  1  0.12352623  0.36264506  0.87207672  1
  O  O285  1  0.12468761  0.87830663  0.36036399  1
  O  O286  1  0.12112301  0.86949273  0.86763832  1
  O  O287  1  0.61859191  0.37398214  0.36551034  1
  O  O288  1  0.61792358  0.37378280  0.86479777  1
  O  O289  1  0.63814577  0.85867367  0.37474354  1
  O  O290  1  0.62113760  0.87131657  0.87089958  1
  O  O291  1  0.38198483  0.13161174  0.12748896  1
  O  O292  1  0.37926846  0.11979977  0.62823129  1
  O  O293  1  0.36495083  0.63318718  0.13765071  1
  O  O294  1  0.36961689  0.63112384  0.63160447  1
  O  O295  1  0.88589132  0.13016405  0.12850666  1
  O  O296  1  0.88295409  0.12236450  0.62687408  1
  O  O297  1  0.88307483  0.62615289  0.13591902  1
  O  O298  1  0.87814807  0.62887598  0.62977655  1
  O  O299  1  0.25416659  0.25677998  0.11717202  1
  O  O300  1  0.25030042  0.25835392  0.63197659  1
  O  O301  1  0.26031076  0.75865799  0.12246751  1
  O  O302  1  0.24724449  0.75743592  0.61082055  1
  O  O303  1  0.76504588  0.25212186  0.12010900  1
  O  O304  1  0.74110686  0.26542573  0.62327008  1
  O  O305  1  0.74367674  0.76127133  0.11853233  1
  O  O306  1  0.75501081  0.74126410  0.61228862  1
  O  O307  1  0.23285642  0.24960348  0.37323942  1
  O  O308  1  0.24545501  0.23867614  0.87945741  1
  O  O309  1  0.24779448  0.74546524  0.38355085  1
  O  O310  1  0.24284068  0.73996398  0.87468152  1
  O  O311  1  0.74545182  0.24479209  0.36953016  1
  O  O312  1  0.74913089  0.25345263  0.89450145  1
  O  O313  1  0.74706835  0.73866372  0.38322226  1
  O  O314  1  0.74519621  0.74413904  0.88276740  1
  O  O315  1  0.00687522  0.12147241  0.00677034  1
  O  O316  1  -0.00195058  0.11834280  0.51736714  1
  O  O317  1  -0.00145942  0.62215424  0.00809585  1
  O  O318  1  0.00591737  0.62061086  0.50231568  1
  O  O319  1  0.51188426  0.12710301  0.00694562  1
  O  O320  1  0.51358822  0.12826242  0.49943055  1
  O  O321  1  0.50880005  0.61582669  -0.01225659  1
  O  O322  1  0.50753969  0.61852091  0.48991232  1
  O  O323  1  0.48977890  0.38236299  0.49194582  1
  O  O324  1  0.50110642  0.38007509  0.98957805  1
  O  O325  1  0.49099707  0.86330709  0.50261530  1
  O  O326  1  0.49200356  0.87744085  0.99233500  1
  O  O327  1  0.98908115  0.37959082  0.49623485  1
  O  O328  1  1.00203319  0.39068966  0.99898030  1
  O  O329  1  0.98624611  0.87200225  0.49510314  1
  O  O330  1  0.99333674  0.88090380  0.99775439  1
  O  O331  1  0.50439644  0.49000227  0.38371699  1
  O  O332  1  0.49599163  0.48884975  0.87966555  1
  O  O333  1  0.50294773  0.99875936  0.36255742  1
  O  O334  1  0.49247616  0.99389240  0.87570864  1
  O  O335  1  0.99443192  0.49276684  0.38425424  1
  O  O336  1  0.99042511  0.50467747  0.88761035  1
  O  O337  1  0.98751606  1.00056515  0.37624826  1
  O  O338  1  0.99441740  0.99448587  0.88062329  1
  O  O339  1  -0.00502679  0.01139861  0.11645844  1
  O  O340  1  0.00832636  0.00598452  0.62620422  1
  O  O341  1  -0.00767657  0.51362108  0.10582754  1
  O  O342  1  0.00308099  0.50585184  0.61808636  1
  O  O343  1  0.50960976  0.00656568  0.12147862  1
  O  O344  1  0.52110470  -0.00377539  0.63539148  1
  O  O345  1  0.50276242  0.49484641  0.10822481  1
  O  O346  1  0.51087127  0.49474695  0.61476857  1
  O  O347  1  0.25145040  0.37160199  0.23843285  1
  O  O348  1  0.23805420  0.38738268  0.75428736  1
  O  O349  1  0.24463425  0.87922706  0.24125696  1
  O  O350  1  0.24163110  0.86217399  0.74026100  1
  O  O351  1  0.73782060  0.37917161  0.25702576  1
  O  O352  1  0.73495886  0.37766498  0.73991947  1
  O  O353  1  0.75518037  0.87990173  0.23944352  1
  O  O354  1  0.74074363  0.87055491  0.75574695  1
  O  O355  1  0.25852128  0.12004296  0.24866926  1
  O  O356  1  0.24417522  0.12550794  0.76359867  1
  O  O357  1  0.25796183  0.62935261  0.26048922  1
  O  O358  1  0.24807976  0.61195780  0.75775847  1
  O  O359  1  0.75597211  0.12034950  0.25762788  1
  O  O360  1  0.74810155  0.11935300  0.75288601  1
  O  O361  1  0.76012096  0.62703130  0.25729929  1
  O  O362  1  0.75380281  0.62246685  0.75934717  1
  O  O363  1  0.37377204  0.12674522  0.36518046  1
  O  O364  1  0.36241672  0.11584362  0.87811187  1
  O  O365  1  0.36215464  0.62773616  0.36180843  1
  O  O366  1  0.36636263  0.61770414  0.86669486  1
  O  O367  1  0.87076200  0.12065951  0.37078270  1
  O  O368  1  0.88002185  0.11286567  0.88079220  1
  O  O369  1  0.86901343  0.62032009  0.36968759  1
  O  O370  1  0.86391002  0.62199644  0.87147314  1
  O  O371  1  0.14131141  0.37093410  0.12035218  1
  O  O372  1  0.12121471  0.38222012  0.63373519  1
  O  O373  1  0.13826104  0.87261573  0.13148080  1
  O  O374  1  0.12967827  0.87357598  0.63487017  1
  O  O375  1  0.61991870  0.37484921  0.14168237  1
  O  O376  1  0.62891314  0.38157081  0.62720904  1
  O  O377  1  0.63405056  0.88924467  0.11746767  1
  O  O378  1  0.62999813  0.88451161  0.63617796  1
  O  O379  1  0.11286125  0.24823303  0.25156054  1
  O  O380  1  0.12247594  0.25687508  0.76221411  1
  O  O381  1  0.11809531  0.76177681  0.25003280  1
  O  O382  1  0.12003460  0.75593635  0.75781666  1
  O  O383  1  0.62277805  0.26346287  0.25517472  1
  O  O384  1  0.61576888  0.25745714  0.75255118  1
  O  O385  1  0.61451745  0.74004114  0.25781842  1
  O  O386  1  0.62080395  0.75478509  0.75566863  1
  O  O387  1  0.37854218  0.24153933  0.24416700  1
  O  O388  1  0.39029944  0.25564364  0.75045146  1
  O  O389  1  0.37967294  0.74418144  0.24214821  1
  O  O390  1  0.39398525  0.75186457  0.75081803  1
  O  O391  1  0.88014588  0.24371256  0.23968654  1
  O  O392  1  0.88791442  0.29693556  0.74431296  1
  O  O393  1  0.88408922  0.74311100  0.25444720  1
  O  O394  1  0.88015632  0.74245212  0.74564416  1
  O  O395  1  0.38440504  0.49670604  0.50304455  1
  O  O396  1  0.38266599  0.49883203  0.99172633  1
  O  O397  1  0.37916323  0.97916683  0.49910829  1
  O  O398  1  0.37660973  0.98810934  0.99408983  1
  O  O399  1  0.87813810  0.49992987  0.48902161  1
  O  O400  1  0.88355909  0.51078172  0.98771264  1
  O  O401  1  0.87267236  0.99034907  0.49440577  1
  O  O402  1  0.87730892  0.99157780  0.99226113  1
  O  O403  1  0.12056820  0.01157070  -0.00435363  1
  O  O404  1  0.11449863  -0.02253024  0.52063216  1
  O  O405  1  0.11206074  0.50210047  0.00155566  1
  O  O406  1  0.11857209  0.50460091  0.50490823  1
  O  O407  1  0.62790930  0.01102776  0.00745176  1
  O  O408  1  0.63729684  -0.00655971  0.51709739  1
  O  O409  1  0.61684267  0.51029763  -0.00235942  1
  O  O410  1  0.61567631  0.50815468  0.50379732  1
  O  O411  1  0.36397658  0.36695322  0.12089611  1
  O  O412  1  0.37509431  0.37254259  0.60769470  1
  O  O413  1  0.36661272  0.86912034  0.11649924  1
  O  O414  1  0.36930564  0.86561422  0.61615529  1
  O  O415  1  0.88399973  0.36748885  0.13655284  1
  O  O416  1  0.85321056  0.38873685  0.61126148  1
  O  O417  1  0.86364525  0.88262684  0.11478444  1
  O  O418  1  0.87997023  0.86409317  0.61888150  1
  O  O419  1  0.12320290  0.13925671  0.37470744  1
  O  O420  1  0.13448097  0.12764756  0.88021193  1
  O  O421  1  0.13596029  0.62691775  0.37621336  1
  O  O422  1  0.13308059  0.63411737  0.86977430  1
  O  O423  1  0.63806130  0.14227073  0.37255390  1
  O  O424  1  0.62282578  0.12558042  0.89282785  1
  O  O425  1  0.63264587  0.63087479  0.38102095  1
  O  O426  1  0.63668974  0.62890886  0.88146378  1
