# generated using pymatgen
data_V85Zn86O256
_symmetry_space_group_name_H-M   'P 1'
_cell_length_a   16.92814490
_cell_length_b   16.91748247
_cell_length_c   16.91586915
_cell_angle_alpha   90.01646082
_cell_angle_beta   90.00442242
_cell_angle_gamma   89.99387213
_symmetry_Int_Tables_number   1
_chemical_formula_structural   V85Zn86O256
_chemical_formula_sum   'V85 Zn86 O256'
_cell_volume   4844.39333861
_cell_formula_units_Z   1
loop_
 _symmetry_equiv_pos_site_id
 _symmetry_equiv_pos_as_xyz
  1  'x, y, z'
loop_
 _atom_site_type_symbol
 _atom_site_label
 _atom_site_symmetry_multiplicity
 _atom_site_fract_x
 _atom_site_fract_y
 _atom_site_fract_z
 _atom_site_occupancy
  V  V0  1  0.50556207  0.61900847  0.62590810  1
  V  V1  1  0.50084351  0.87299515  0.37358068  1
  V  V2  1  0.75253104  0.24824770  -0.01184385  1
  V  V3  1  0.74166684  0.00217614  0.75774173  1
  V  V4  1  0.50881020  0.75348567  0.74778207  1
  V  V5  1  0.37308518  0.74753846  0.62432373  1
  V  V6  1  0.49892822  0.00120037  0.00132837  1
  V  V7  1  0.23240996  0.49929489  0.74936702  1
  V  V8  1  0.37420917  0.62652179  0.24632011  1
  V  V9  1  0.62508508  0.61921648  0.50194119  1
  V  V10  1  0.87884073  0.49928673  0.88242613  1
  V  V11  1  0.11881091  0.50805453  0.11221950  1
  V  V12  1  0.24635247  0.62500604  0.88496619  1
  V  V13  1  0.49995085  0.49744426  0.50038093  1
  V  V14  1  0.50065721  0.62696448  0.11464953  1
  V  V15  1  0.37425555  0.49982633  0.37580000  1
  V  V16  1  0.75065907  0.37656337  0.12247584  1
  V  V17  1  0.11905539  0.87324271  0.75811250  1
  V  V18  1  0.74066339  0.87555568  0.62992609  1
  V  V19  1  0.87974118  0.87445066  -0.01010327  1
  V  V20  1  0.12424262  0.37839770  0.25030639  1
  V  V21  1  0.74697214  0.12712079  0.37193324  1
  V  V22  1  0.24820462  0.13461095  0.87312942  1
  V  V23  1  0.01547902  0.37752500  0.87861459  1
  V  V24  1  0.75037113  0.62376373  0.37582024  1
  V  V25  1  0.24726978  0.50629709  0.25415327  1
  V  V26  1  0.87509361  0.87383827  0.50974220  1
  V  V27  1  0.74265789  0.61908212  0.87577382  1
  V  V28  1  0.24829129  0.87141697  0.62525632  1
  V  V29  1  0.01220733  0.25656822  0.75440425  1
  V  V30  1  0.37245319  0.62498363  0.75064730  1
  V  V31  1  0.37196093  0.87281985  0.49862005  1
  V  V32  1  0.25150527  0.37417845  0.12479624  1
  V  V33  1  0.50833585  0.87696232  0.86922052  1
  V  V34  1  0.63165439  -0.00450578  0.12835860  1
  V  V35  1  0.49976160  -0.00021644  0.50213611  1
  V  V36  1  0.74867861  0.25139678  0.49784873  1
  V  V37  1  0.86891917  0.12679420  0.75994714  1
  V  V38  1  0.62106865  0.38231182  0.74710063  1
  V  V39  1  0.12972523  0.87986529  0.25205799  1
  V  V40  1  0.41862529  0.32002045  0.55503863  1
  V  V41  1  0.73968249  0.75363997  0.00335872  1
  V  V42  1  0.49733299  0.74852276  0.24484746  1
  V  V43  1  0.50070520  0.13216939  0.12930231  1
  V  V44  1  0.24618281  0.12018005  0.37214281  1
  V  V45  1  0.25784848  0.87178973  0.12754336  1
  V  V46  1  0.38155034  0.13560510  0.74032795  1
  V  V47  1  0.36945929  -0.00297230  0.36759279  1
  V  V48  1  0.11786189  0.50157326  0.60927497  1
  V  V49  1  0.50118409  0.36248733  0.87364179  1
  V  V50  1  0.63036794  0.12530809  -0.00781231  1
  V  V51  1  -0.00088742  0.37696079  0.37876667  1
  V  V52  1  0.12579039  0.25112851  0.37803473  1
  V  V53  1  0.62425852  0.74766740  0.37541694  1
  V  V54  1  0.12287164  -0.00092548  0.62530258  1
  V  V55  1  0.25053654  -0.00058146  0.74910328  1
  V  V56  1  0.24709317  0.73334651  0.49787357  1
  V  V57  1  0.12512032  0.12998665  -0.00386794  1
  V  V58  1  0.87554124  0.62426121  0.24442081  1
  V  V59  1  -0.01029965  0.74967431  0.75328719  1
  V  V60  1  0.62507416  0.50365283  0.12076991  1
  V  V61  1  0.87558290  0.12164923  0.25046649  1
  V  V62  1  0.87924308  0.50140992  0.37615145  1
  V  V63  1  0.87726363  0.38081048  0.50152253  1
  V  V64  1  0.50027195  0.36513213  0.36579178  1
  V  V65  1  0.00123295  0.63040533  0.61621217  1
  V  V66  1  0.37741497  0.49784243  0.87630948  1
  V  V67  1  0.37372860  -0.00035582  0.87300676  1
  V  V68  1  0.12837478  0.73791512  0.37861239  1
  V  V69  1  0.62388298  0.36049536  0.24894894  1
  V  V70  1  0.12261543  0.74784582  0.88205444  1
  V  V71  1  0.24376002  0.37239111  0.62330177  1
  V  V72  1  0.62583510  0.12514585  0.49682974  1
  V  V73  1  0.37520919  0.13270236  0.25002257  1
  V  V74  1  -0.00276693  0.12557764  0.62732397  1
  V  V75  1  0.00018288  0.75000442  0.24923610  1
  V  V76  1  0.75076413  0.39302125  0.63272711  1
  V  V77  1  0.87523778  0.61932429  0.74979894  1
  V  V78  1  -0.00078786  0.24962391  0.25028570  1
  V  V79  1  0.87613105  0.24840297  0.12172399  1
  V  V80  1  0.87344219  0.25261203  0.62730759  1
  V  V81  1  0.75368806  0.74902333  0.50746581  1
  V  V82  1  -0.00021543  0.87592962  0.37813571  1
  V  V83  1  0.12910479  0.00120273  0.12570523  1
  V  V84  1  0.87120886  0.76070101  0.12650288  1
  Zn  Zn85  1  0.62787058  0.24381716  0.86093439  1
  Zn  Zn86  1  0.75551145  -0.00955182  0.24886602  1
  Zn  Zn87  1  0.87366694  -0.00117417  0.37796193  1
  Zn  Zn88  1  0.25171551  0.25190883  0.50250028  1
  Zn  Zn89  1  0.37861569  0.37117468  0.00076102  1
  Zn  Zn90  1  0.62104241  0.00184652  0.62824559  1
  Zn  Zn91  1  0.25166785  0.25177943  -0.00259172  1
  Zn  Zn92  1  0.63237919  0.86847361  0.24453948  1
  Zn  Zn93  1  -0.00175261  0.62563861  0.10697730  1
  Zn  Zn94  1  0.62286583  0.74779567  0.87571384  1
  Zn  Zn95  1  0.12451543  0.12560763  0.50170393  1
  Zn  Zn96  1  0.25288662  0.74622730  0.00702522  1
  Zn  Zn97  1  0.74794946  0.49885399  0.24954071  1
  Zn  Zn98  1  0.37521665  0.87073747  0.00213102  1
  Zn  Zn99  1  0.88269262  0.37817527  0.00007895  1
  Zn  Zn100  1  0.00568346  -0.00435030  -0.00940443  1
  Zn  Zn101  1  0.00092012  0.12064034  0.12171211  1
  Zn  Zn102  1  0.50700147  0.50148528  -0.00559736  1
  Zn  Zn103  1  0.37894470  0.25444746  0.12623804  1
  Zn  Zn104  1  0.49840673  0.14371160  0.62198710  1
  Zn  Zn105  1  -0.00274828  0.00121053  0.50223171  1
  Zn  Zn106  1  0.87857915  -0.00158679  0.87269889  1
  Zn  Zn107  1  0.18851180  0.18652013  0.19061022  1
  Zn  Zn108  1  0.18921432  0.18593931  0.68795836  1
  Zn  Zn109  1  0.18661803  0.68898302  0.18990597  1
  Zn  Zn110  1  0.18199162  0.68456665  0.69099830  1
  Zn  Zn111  1  0.69025120  0.18388880  0.18097752  1
  Zn  Zn112  1  0.68678907  0.19046267  0.68431814  1
  Zn  Zn113  1  0.68656392  0.68674846  0.18662925  1
  Zn  Zn114  1  0.68985991  0.68225898  0.68811840  1
  Zn  Zn115  1  0.31188063  0.31481199  0.31339212  1
  Zn  Zn116  1  0.31080454  0.31609803  0.80563356  1
  Zn  Zn117  1  0.30956660  0.80886851  0.31102824  1
  Zn  Zn118  1  0.31295836  0.81154417  0.81592469  1
  Zn  Zn119  1  0.81062754  0.31087212  0.31074133  1
  Zn  Zn120  1  0.81673511  0.31845766  0.80975932  1
  Zn  Zn121  1  0.81166114  0.81319256  0.31688287  1
  Zn  Zn122  1  0.80467414  0.81105999  0.81217117  1
  Zn  Zn123  1  0.19144509  0.43784333  0.44012027  1
  Zn  Zn124  1  0.19341630  0.43466453  0.93693872  1
  Zn  Zn125  1  0.18664951  0.93407036  0.44031241  1
  Zn  Zn126  1  0.18878083  0.93969176  0.94013082  1
  Zn  Zn127  1  0.68621750  0.43688505  0.43468030  1
  Zn  Zn128  1  0.68769887  0.43671916  0.93593807  1
  Zn  Zn129  1  0.68839352  0.93776719  0.43439836  1
  Zn  Zn130  1  0.68954274  0.93559804  0.93996721  1
  Zn  Zn131  1  0.31004663  0.06014583  0.06376622  1
  Zn  Zn132  1  0.31052504  0.06402018  0.55862443  1
  Zn  Zn133  1  0.31429594  0.55894292  0.06458270  1
  Zn  Zn134  1  0.31550912  0.55474147  0.56414639  1
  Zn  Zn135  1  0.81243401  0.06222500  0.06026565  1
  Zn  Zn136  1  0.81207119  0.05963053  0.56673205  1
  Zn  Zn137  1  0.81180304  0.56633817  0.05846759  1
  Zn  Zn138  1  0.82114407  0.56649422  0.56121622  1
  Zn  Zn139  1  0.43885865  0.44032727  0.18782821  1
  Zn  Zn140  1  0.43924780  0.44182564  0.69481947  1
  Zn  Zn141  1  0.44184368  0.94147381  0.19003388  1
  Zn  Zn142  1  0.43621220  0.93821279  0.68658764  1
  Zn  Zn143  1  0.93845151  0.43820535  0.18677936  1
  Zn  Zn144  1  0.94294038  0.44269275  0.69282812  1
  Zn  Zn145  1  0.94246924  0.93790460  0.18456994  1
  Zn  Zn146  1  0.93257711  0.93717618  0.69120622  1
  Zn  Zn147  1  0.06092839  0.06060390  0.31182055  1
  Zn  Zn148  1  0.05899291  0.06289251  0.81534414  1
  Zn  Zn149  1  0.05892347  0.56216373  0.31014019  1
  Zn  Zn150  1  0.06005290  0.56447100  0.92915739  1
  Zn  Zn151  1  0.56117274  0.06410654  0.31296426  1
  Zn  Zn152  1  0.55917144  0.06562959  0.81051639  1
  Zn  Zn153  1  0.56282218  0.55712087  0.30802489  1
  Zn  Zn154  1  0.56351283  0.55772135  0.80938839  1
  Zn  Zn155  1  0.44056198  0.18183125  0.43018111  1
  Zn  Zn156  1  0.43362053  0.18629908  0.93998154  1
  Zn  Zn157  1  0.43423468  0.68332968  0.43439098  1
  Zn  Zn158  1  0.43279081  0.69237033  0.93706168  1
  Zn  Zn159  1  0.93577475  0.18831658  0.43910253  1
  Zn  Zn160  1  0.94288178  0.18883370  0.93602666  1
  Zn  Zn161  1  0.93601508  0.69150644  0.43631485  1
  Zn  Zn162  1  0.93114009  0.69363681  0.93434475  1
  Zn  Zn163  1  0.06610089  0.31225832  0.06186315  1
  Zn  Zn164  1  0.06271894  0.31500167  0.56497934  1
  Zn  Zn165  1  0.06162636  0.81125887  0.06436558  1
  Zn  Zn166  1  0.06393530  0.80901282  0.56419645  1
  Zn  Zn167  1  0.56493014  0.31283372  0.05758197  1
  Zn  Zn168  1  0.58240222  0.31773857  0.55989664  1
  Zn  Zn169  1  0.55722016  0.81475091  0.06172260  1
  Zn  Zn170  1  0.56269106  0.81026746  0.56132525  1
  O  O171  1  0.12715518  0.11692501  0.12097324  1
  O  O172  1  0.11712831  0.11620727  0.62613255  1
  O  O173  1  0.12341555  0.61073544  0.12981233  1
  O  O174  1  0.11176097  0.61555635  0.62835570  1
  O  O175  1  0.61797241  0.11649283  0.11614675  1
  O  O176  1  0.61963895  0.12666083  0.61068162  1
  O  O177  1  0.61447368  0.61554518  0.13125891  1
  O  O178  1  0.61265071  0.62667063  0.62058532  1
  O  O179  1  0.38840794  0.38601656  0.36561220  1
  O  O180  1  0.38344656  0.38177773  0.87020039  1
  O  O181  1  0.37896831  0.88014384  0.37750058  1
  O  O182  1  0.38194001  0.88852682  0.87212343  1
  O  O183  1  0.87616476  0.38176171  0.38111038  1
  O  O184  1  0.88230861  0.38546007  0.87585634  1
  O  O185  1  0.88421072  0.87490497  0.38715273  1
  O  O186  1  0.87184798  0.87098816  0.88774173  1
  O  O187  1  0.25724772  0.00627427  0.38118131  1
  O  O188  1  0.25813877  0.00565669  0.86892976  1
  O  O189  1  0.25979541  0.49427484  0.36607106  1
  O  O190  1  0.25535306  0.50551627  0.86707364  1
  O  O191  1  0.75258653  0.01379946  0.37390886  1
  O  O192  1  0.75307050  -0.00482648  0.86109619  1
  O  O193  1  0.76021032  0.50529584  0.37277016  1
  O  O194  1  0.75765227  0.51301633  0.88080793  1
  O  O195  1  0.24002114  0.49278705  0.13128402  1
  O  O196  1  0.23813498  0.49757229  0.62857526  1
  O  O197  1  0.23781189  0.98971114  0.12573377  1
  O  O198  1  0.24197487  0.99507458  0.62889549  1
  O  O199  1  0.74642119  0.49275185  0.12448421  1
  O  O200  1  0.75428410  0.49074973  0.61896169  1
  O  O201  1  0.73441679  1.00574076  0.12689900  1
  O  O202  1  0.74506639  0.99228864  0.63385973  1
  O  O203  1  0.00417460  0.36927257  0.25713356  1
  O  O204  1  -0.00306904  0.36317387  0.75796415  1
  O  O205  1  0.00514802  0.86951980  0.25928001  1
  O  O206  1  0.00661231  0.86101887  0.73935806  1
  O  O207  1  0.50761530  0.37623069  0.25800734  1
  O  O208  1  0.51275898  0.37735657  0.75504189  1
  O  O209  1  0.50245716  0.86528678  0.25509455  1
  O  O210  1  0.49381600  0.86571836  0.75607631  1
  O  O211  1  0.49043298  0.12124494  0.24174910  1
  O  O212  1  0.48715174  0.12358984  0.74196777  1
  O  O213  1  0.49374883  0.63045563  0.24279834  1
  O  O214  1  0.49361568  0.62871082  0.74354616  1
  O  O215  1  0.99263313  0.13137484  0.24770963  1
  O  O216  1  0.99270433  0.13617907  0.74297680  1
  O  O217  1  0.98661786  0.63118255  0.24895866  1
  O  O218  1  0.98963617  0.63995934  0.74363644  1
  O  O219  1  0.36962943  0.25133207  0.00725367  1
  O  O220  1  0.37129581  0.25084591  0.49417129  1
  O  O221  1  0.36605649  0.75831200  -0.00521025  1
  O  O222  1  0.36900028  0.75340431  0.50301053  1
  O  O223  1  0.87028391  0.24991269  0.00682436  1
  O  O224  1  0.86608143  0.25753770  0.50550062  1
  O  O225  1  0.86581653  0.76004956  0.00653712  1
  O  O226  1  0.86309759  0.75776872  0.49756810  1
  O  O227  1  0.12242217  0.24979497  0.48754052  1
  O  O228  1  0.13224849  0.23472213  1.00722446  1
  O  O229  1  0.13501092  0.75401987  0.49142775  1
  O  O230  1  0.12916179  0.76032776  0.98521766  1
  O  O231  1  0.64072990  0.24378000  0.49655422  1
  O  O232  1  0.63591103  0.24131034  0.99863052  1
  O  O233  1  0.62990705  0.74013587  0.49392028  1
  O  O234  1  0.63615581  0.75413234  1.00061513  1
  O  O235  1  0.50112676  0.23570141  0.11925727  1
  O  O236  1  0.49131140  0.26274516  0.60688478  1
  O  O237  1  0.50483514  0.74342996  0.13627792  1
  O  O238  1  0.49252570  0.74326090  0.62953400  1
  O  O239  1  0.98917136  0.25128964  0.13007189  1
  O  O240  1  0.99501554  0.24715606  0.63518090  1
  O  O241  1  0.99146108  0.74786895  0.13269276  1
  O  O242  1  1.00784617  0.73797257  0.63642188  1
  O  O243  1  0.00502067  0.25532944  0.37006458  1
  O  O244  1  -0.00346261  0.26149971  0.86205848  1
  O  O245  1  0.00572175  0.75997355  0.37135319  1
  O  O246  1  0.00685099  0.74965794  0.86032543  1
  O  O247  1  0.49737823  0.26628128  0.37700475  1
  O  O248  1  0.50169875  0.25951578  0.87718677  1
  O  O249  1  0.50386195  0.75183689  0.36684839  1
  O  O250  1  0.50170742  0.75779426  0.86604423  1
  O  O251  1  0.24587787  0.12913025  0.48775854  1
  O  O252  1  0.24609898  0.12400231  0.98934545  1
  O  O253  1  0.25693094  0.63441675  0.50439627  1
  O  O254  1  0.25386551  0.62366613  0.98866592  1
  O  O255  1  0.74567371  0.13097864  0.49555654  1
  O  O256  1  0.74177142  0.13418543  1.00403859  1
  O  O257  1  0.74665893  0.63090106  0.49828333  1
  O  O258  1  0.75632303  0.63927543  0.98521821  1
  O  O259  1  0.25393890  0.37287108  0.00960332  1
  O  O260  1  0.25301040  0.37497100  0.51399090  1
  O  O261  1  0.25114025  0.87802493  0.01638789  1
  O  O262  1  0.25596975  0.86724190  0.50756172  1
  O  O263  1  0.75155372  0.36707529  0.01015663  1
  O  O264  1  0.75619513  0.37023041  0.50547198  1
  O  O265  1  0.75796265  0.86072542  -0.00216285  1
  O  O266  1  0.75561854  0.86819955  0.50474527  1
  O  O267  1  0.13143312  0.49637447  0.24593247  1
  O  O268  1  0.13467284  0.50470911  0.74041139  1
  O  O269  1  0.11986947  0.98729593  0.24442057  1
  O  O270  1  0.12801579  0.99324131  0.74169925  1
  O  O271  1  0.62812167  0.48967805  0.23772443  1
  O  O272  1  0.63018362  0.48359646  0.75230858  1
  O  O273  1  0.62223855  1.00147270  0.23566352  1
  O  O274  1  0.63689774  1.00701169  0.74785440  1
  O  O275  1  0.37937618  0.00749444  0.26375042  1
  O  O276  1  0.36965309  0.00645340  0.75535747  1
  O  O277  1  0.36699967  0.50590031  0.25489704  1
  O  O278  1  0.36945934  0.51114291  0.75802217  1
  O  O279  1  0.87684736  0.01128137  0.24912334  1
  O  O280  1  0.86363327  0.00958631  0.74923248  1
  O  O281  1  0.87251797  0.50784957  0.25474678  1
  O  O282  1  0.88017785  0.51187242  0.76208713  1
  O  O283  1  0.12032697  0.37026503  0.37172950  1
  O  O284  1  0.11482775  0.37818716  0.87374943  1
  O  O285  1  0.11866570  0.87020604  0.36956815  1
  O  O286  1  0.13230682  0.87057536  0.86240329  1
  O  O287  1  0.61199432  0.37987243  0.36440367  1
  O  O288  1  0.61901386  0.37321703  0.86510706  1
  O  O289  1  0.61561045  0.86597092  0.37783124  1
  O  O290  1  0.61145034  0.87536194  0.87741601  1
  O  O291  1  0.38124873  0.12156923  0.13453291  1
  O  O292  1  0.37551035  0.12183588  0.63561342  1
  O  O293  1  0.38436885  0.61689133  0.13727707  1
  O  O294  1  0.38366411  0.62744894  0.63225407  1
  O  O295  1  0.87637224  0.13156446  0.13121447  1
  O  O296  1  0.88171070  0.13072651  0.63202926  1
  O  O297  1  0.87596394  0.63358822  0.13098078  1
  O  O298  1  0.88954273  0.61908621  0.63511096  1
  O  O299  1  0.24819575  0.26634394  0.13147550  1
  O  O300  1  0.23978453  0.26373881  0.62306185  1
  O  O301  1  0.24275528  0.76639031  0.12574596  1
  O  O302  1  0.25343906  0.75108295  0.62070651  1
  O  O303  1  0.76145050  0.25600391  0.11828733  1
  O  O304  1  0.75675295  0.26014849  0.61561114  1
  O  O305  1  0.75578909  0.74237333  0.11143522  1
  O  O306  1  0.74397417  0.75619905  0.61527664  1
  O  O307  1  0.24051869  0.24507941  0.37575370  1
  O  O308  1  0.25458896  0.23792420  0.87195425  1
  O  O309  1  0.24057494  0.75236657  0.38469521  1
  O  O310  1  0.24092842  0.74005371  0.87156304  1
  O  O311  1  0.75761905  0.23714000  0.38254406  1
  O  O312  1  0.75142629  0.25750637  0.88567827  1
  O  O313  1  0.74439256  0.74225119  0.38686412  1
  O  O314  1  0.74403876  0.74309269  0.88420869  1
  O  O315  1  0.00997617  0.12369178  0.00163088  1
  O  O316  1  0.00016262  0.12580978  0.51467665  1
  O  O317  1  0.00089036  0.63196795  -0.00530695  1
  O  O318  1  -0.00661519  0.63323790  0.51688219  1
  O  O319  1  0.50543983  0.11488999  0.00484963  1
  O  O320  1  0.50664326  0.11754503  0.49943002  1
  O  O321  1  0.49558282  0.62549103  0.01124681  1
  O  O322  1  0.50349395  0.61803520  0.50677983  1
  O  O323  1  0.49665583  0.37843741  0.49522583  1
  O  O324  1  0.49925031  0.37883314  0.98889309  1
  O  O325  1  0.49248908  0.87896911  0.49398136  1
  O  O326  1  0.49693759  0.88707823  0.99300700  1
  O  O327  1  0.98451480  0.36865382  0.49573448  1
  O  O328  1  1.00083473  0.36540798  0.98312658  1
  O  O329  1  0.99240419  0.87287930  0.49686306  1
  O  O330  1  0.98316257  0.87250464  1.00311563  1
  O  O331  1  0.49447146  0.49135023  0.38048773  1
  O  O332  1  0.49234017  0.49322692  0.87426747  1
  O  O333  1  0.49322097  0.99430724  0.38410303  1
  O  O334  1  0.49403477  0.99595864  0.87967322  1
  O  O335  1  0.98731011  0.49385269  0.37050631  1
  O  O336  1  0.99610740  0.48523342  0.87251167  1
  O  O337  1  0.99992561  0.98735488  0.37958756  1
  O  O338  1  0.99285107  0.99912741  0.87652251  1
  O  O339  1  0.01425209  -0.00054564  0.11856753  1
  O  O340  1  0.00529515  0.00890151  0.62901155  1
  O  O341  1  0.01537833  0.50122252  0.12731567  1
  O  O342  1  0.01150194  0.51006593  0.62779218  1
  O  O343  1  0.50657768  0.00836825  0.11722891  1
  O  O344  1  0.50009568  -0.00243838  0.61042345  1
  O  O345  1  0.50745588  0.50854745  0.12206218  1
  O  O346  1  0.49390883  0.50800010  0.61562095  1
  O  O347  1  0.24434626  0.38624717  0.24539623  1
  O  O348  1  0.25446674  0.38790550  0.73717277  1
  O  O349  1  0.24131486  0.87294198  0.24163310  1
  O  O350  1  0.24320468  0.87912089  0.74431089  1
  O  O351  1  0.74527790  0.37467205  0.23853834  1
  O  O352  1  0.74879167  0.37923936  0.73670131  1
  O  O353  1  0.74474565  0.87796535  0.25742837  1
  O  O354  1  0.75389666  0.88750395  0.74180585  1
  O  O355  1  0.25639963  0.12504864  0.26348354  1
  O  O356  1  0.25732282  0.11781176  0.75457570  1
  O  O357  1  0.25732631  0.61454313  0.24460013  1
  O  O358  1  0.25729803  0.61911326  0.75543897  1
  O  O359  1  0.75743014  0.12342725  0.25621262  1
  O  O360  1  0.75617956  0.11336668  0.74231706  1
  O  O361  1  0.76114557  0.62552939  0.25603959  1
  O  O362  1  0.76196409  0.63463620  0.76349446  1
  O  O363  1  0.36775449  0.11698803  0.36877156  1
  O  O364  1  0.37172129  0.11541748  0.86498008  1
  O  O365  1  0.38198763  0.60967676  0.36152341  1
  O  O366  1  0.37007025  0.61870260  0.86672495  1
  O  O367  1  0.87008465  0.12316685  0.36673859  1
  O  O368  1  0.87543994  0.12761197  0.86258455  1
  O  O369  1  0.87170962  0.61883362  0.36910784  1
  O  O370  1  0.86780827  0.61961000  0.86777878  1
  O  O371  1  0.12937919  0.38547848  0.13061368  1
  O  O372  1  0.12770288  0.39145009  0.62244977  1
  O  O373  1  0.13063777  0.88029666  0.13351091  1
  O  O374  1  0.12907281  0.88012588  0.63423143  1
  O  O375  1  0.63224127  0.37858592  0.13010450  1
  O  O376  1  0.64034395  0.38052939  0.63296918  1
  O  O377  1  0.61771820  0.89210170  0.12430554  1
  O  O378  1  0.63671569  0.87779479  0.61821079  1
  O  O379  1  0.11982519  0.25624522  0.26012828  1
  O  O380  1  0.11008317  0.24595060  0.74897867  1
  O  O381  1  0.12002594  0.75940921  0.25740381  1
  O  O382  1  0.11662064  0.75633810  0.75795504  1
  O  O383  1  0.63081209  0.26073392  0.24346329  1
  O  O384  1  0.63521824  0.26891621  0.74858725  1
  O  O385  1  0.61645881  0.74761538  0.25798782  1
  O  O386  1  0.61148181  0.74596126  0.74917328  1
  O  O387  1  0.37162136  0.23695603  0.24883321  1
  O  O388  1  0.37163373  0.23366322  0.75030554  1
  O  O389  1  0.38341924  0.73832780  0.25631371  1
  O  O390  1  0.38076714  0.73899081  0.74703109  1
  O  O391  1  0.87759695  0.24028960  0.24252079  1
  O  O392  1  0.87826540  0.24399780  0.74383224  1
  O  O393  1  0.87769610  0.74450353  0.24382702  1
  O  O394  1  0.88515550  0.74706283  0.75470640  1
  O  O395  1  0.38755896  0.50392916  0.48956502  1
  O  O396  1  0.37552562  0.49802840  0.98503101  1
  O  O397  1  0.38070266  0.99503108  0.49077615  1
  O  O398  1  0.38303528  0.99981535  0.99148013  1
  O  O399  1  0.87239570  0.49179248  0.48959302  1
  O  O400  1  0.87502190  0.49940955  0.98841896  1
  O  O401  1  0.87697733  0.99014926  0.49951502  1
  O  O402  1  0.86985063  0.98350086  1.00055567  1
  O  O403  1  0.12632885  0.01004155  0.00772758  1
  O  O404  1  0.12090142  -0.00138543  0.51446485  1
  O  O405  1  0.12738625  0.50037495  0.00908245  1
  O  O406  1  0.12509205  0.50362963  0.51022701  1
  O  O407  1  0.62058751  0.00536552  0.00732444  1
  O  O408  1  0.61677163  0.00727973  0.49954867  1
  O  O409  1  0.62595806  0.49505412  0.01472260  1
  O  O410  1  0.61101628  0.50415528  0.49409327  1
  O  O411  1  0.36653929  0.37682229  0.12565055  1
  O  O412  1  0.36823119  0.37962512  0.62491317  1
  O  O413  1  0.36026428  0.88411599  0.13041714  1
  O  O414  1  0.36859197  0.86698496  0.61986857  1
  O  O415  1  0.86882855  0.36890672  0.12306157  1
  O  O416  1  0.86813599  0.37632325  0.62003758  1
  O  O417  1  0.87549888  0.86428431  0.12050439  1
  O  O418  1  0.86381605  0.87745379  0.61524293  1
  O  O419  1  0.12963976  0.13124316  0.37505828  1
  O  O420  1  0.13702530  0.11961669  0.88198170  1
  O  O421  1  0.11845802  0.63879035  0.36994531  1
  O  O422  1  0.13505112  0.63386157  0.87166482  1
  O  O423  1  0.63174805  0.12279977  0.38533235  1
  O  O424  1  0.61913338  0.12711961  0.88739614  1
  O  O425  1  0.63059638  0.62650544  0.37930763  1
  O  O426  1  0.63908843  0.62376573  0.86955763  1
