# generated using pymatgen
data_V85Zn86O256
_symmetry_space_group_name_H-M   'P 1'
_cell_length_a   16.96521583
_cell_length_b   16.94966724
_cell_length_c   16.96037783
_cell_angle_alpha   89.99069640
_cell_angle_beta   90.04173584
_cell_angle_gamma   90.06954482
_symmetry_Int_Tables_number   1
_chemical_formula_structural   V85Zn86O256
_chemical_formula_sum   'V85 Zn86 O256'
_cell_volume   4877.03247322
_cell_formula_units_Z   1
loop_
 _symmetry_equiv_pos_site_id
 _symmetry_equiv_pos_as_xyz
  1  'x, y, z'
loop_
 _atom_site_type_symbol
 _atom_site_label
 _atom_site_symmetry_multiplicity
 _atom_site_fract_x
 _atom_site_fract_y
 _atom_site_fract_z
 _atom_site_occupancy
  V  V0  1  -0.00108282  0.87375399  0.86890086  1
  V  V1  1  0.49572982  0.14389695  0.13023406  1
  V  V2  1  0.87319000  0.49930430  0.86991827  1
  V  V3  1  0.12076369  0.74652714  0.87500194  1
  V  V4  1  0.24296397  0.73101051  -0.00039196  1
  V  V5  1  0.50022840  -0.00408623  0.01209071  1
  V  V6  1  0.49891757  0.49146787  -0.01707953  1
  V  V7  1  0.00053729  0.37312970  0.87400837  1
  V  V8  1  -0.00122413  0.87388665  0.37267104  1
  V  V9  1  0.37683215  0.13340656  0.75560957  1
  V  V10  1  0.86798077  0.12761885  0.25076024  1
  V  V11  1  0.37058212  0.86733708  -0.00122696  1
  V  V12  1  0.12797067  0.38632504  0.25071083  1
  V  V13  1  0.74661394  0.87791810  0.12455314  1
  V  V14  1  0.24658642  0.86675131  0.12236027  1
  V  V15  1  0.12763518  0.24502285  0.88760574  1
  V  V16  1  0.62239179  0.87547279  0.24488954  1
  V  V17  1  0.37397615  0.50822106  0.37817914  1
  V  V18  1  0.87946233  0.12016849  0.75538534  1
  V  V19  1  0.87824874  0.63223561  0.74570700  1
  V  V20  1  0.12875435  0.87407857  0.74205521  1
  V  V21  1  0.49574405  0.73985730  0.25257309  1
  V  V22  1  0.49859413  0.62411398  0.12044453  1
  V  V23  1  0.87036562  0.00213746  0.37455956  1
  V  V24  1  0.74783341  0.37603448  0.11942877  1
  V  V25  1  -0.00251277  0.25705858  0.24417388  1
  V  V26  1  0.75373623  0.36645575  0.61510049  1
  V  V27  1  0.37200355  0.73873230  0.12748829  1
  V  V28  1  0.49470953  0.37415301  0.36768279  1
  V  V29  1  0.50284806  0.50114479  0.51297481  1
  V  V30  1  0.00351348  0.63095742  0.62339194  1
  V  V31  1  0.74844559  0.75072774  -0.00265342  1
  V  V32  1  0.62340594  0.87604560  0.74988289  1
  V  V33  1  0.49653848  0.87370779  0.37555464  1
  V  V34  1  0.01029237  0.00361717  0.50098885  1
  V  V35  1  -0.00185847  0.12463444  0.12368313  1
  V  V36  1  0.25283103  0.50989348  0.26198942  1
  V  V37  1  0.25281123  0.37321224  0.63143892  1
  V  V38  1  0.00986098  0.62110886  0.11992104  1
  V  V39  1  0.24687075  0.12520063  0.89145715  1
  V  V40  1  0.49268803  0.74548554  0.73047604  1
  V  V41  1  0.62087982  0.36795578  0.24842137  1
  V  V42  1  0.74182588  0.62622183  0.37456366  1
  V  V43  1  -0.00031420  0.50699823  -0.00301717  1
  V  V44  1  0.74571136  0.49567118  0.73908906  1
  V  V45  1  0.25123946  -0.00184311  0.74610573  1
  V  V46  1  0.87051913  0.50074804  0.38410967  1
  V  V47  1  0.26022725  -0.00116354  0.24697727  1
  V  V48  1  0.00247027  0.00373820  -0.00584053  1
  V  V49  1  0.13041238  0.37684439  0.75177602  1
  V  V50  1  0.61958854  0.49994281  0.12145044  1
  V  V51  1  0.74932656  0.87445895  0.62395167  1
  V  V52  1  0.50006634  0.00109505  0.50236720  1
  V  V53  1  0.87327449  0.62490717  0.24866957  1
  V  V54  1  -0.00035872  0.74847116  0.24885736  1
  V  V55  1  0.79130551  0.18452720  0.43798934  1
  V  V56  1  0.87244682  0.88470659  -0.00687795  1
  V  V57  1  0.49703731  0.86730878  0.87547339  1
  V  V58  1  0.61928731  0.24545355  0.37527387  1
  V  V59  1  0.62483799  0.12812644  0.50012597  1
  V  V60  1  0.37334938  -0.00308128  0.87943108  1
  V  V61  1  0.74777056  0.50111335  0.24726977  1
  V  V62  1  0.36994611  0.62068224  0.73913548  1
  V  V63  1  0.00332784  0.50205329  0.50313038  1
  V  V64  1  0.61114168  0.24952664  0.86803903  1
  V  V65  1  0.13287937  0.50308210  0.62507970  1
  V  V66  1  0.12503463  0.00388806  0.12308697  1
  V  V67  1  0.12870303  0.74239684  0.37945292  1
  V  V68  1  0.62113268  0.62301450  0.51761995  1
  V  V69  1  0.62466120  0.11897438  0.00265677  1
  V  V70  1  0.87221848  0.25032773  0.12234851  1
  V  V71  1  0.87506117  0.87373475  0.49927965  1
  V  V72  1  0.50215321  0.13322495  0.63289067  1
  V  V73  1  0.61510626  0.37263104  0.74616883  1
  V  V74  1  0.74989876  0.24859487  -0.00969807  1
  V  V75  1  0.87457126  0.74951468  0.12333004  1
  V  V76  1  0.25053472  0.74813363  0.51486239  1
  V  V77  1  0.12591994  0.87096281  0.24718596  1
  V  V78  1  -0.00878490  0.37836014  0.37760823  1
  V  V79  1  0.74843799  0.62420399  0.87037445  1
  V  V80  1  0.87446468  0.37529031  -0.00478242  1
  V  V81  1  0.37052678  0.87324014  0.51475456  1
  V  V82  1  0.37656064  0.36875514  0.50346597  1
  V  V83  1  0.74315635  0.00457428  0.25000145  1
  V  V84  1  0.16006483  0.48210512  0.09464478  1
  Zn  Zn85  1  -0.00062637  0.25049513  0.74502007  1
  Zn  Zn86  1  0.75999004  -0.00561636  0.75816216  1
  Zn  Zn87  1  0.35818469  0.49827712  0.86994821  1
  Zn  Zn88  1  0.12435783  0.24495796  0.37842633  1
  Zn  Zn89  1  0.37654490  0.25084637  0.63155751  1
  Zn  Zn90  1  0.75391345  0.11431453  0.87480683  1
  Zn  Zn91  1  0.38127507  0.14866441  0.25389735  1
  Zn  Zn92  1  0.37407243  0.00224563  0.37573130  1
  Zn  Zn93  1  0.24847433  0.62539705  0.38677196  1
  Zn  Zn94  1  0.14438592  0.01044971  0.60965723  1
  Zn  Zn95  1  0.00786752  0.13171871  0.62442144  1
  Zn  Zn96  1  0.25001293  0.12579180  0.38523027  1
  Zn  Zn97  1  0.88077922  0.75358950  0.62726449  1
  Zn  Zn98  1  0.62670347  0.62330703  -0.00386302  1
  Zn  Zn99  1  0.22936154  0.23169903  0.51165984  1
  Zn  Zn100  1  0.24674368  0.62330320  0.86693285  1
  Zn  Zn101  1  0.62884353  0.00310333  0.62724688  1
  Zn  Zn102  1  0.37430012  0.35368560  -0.00006204  1
  Zn  Zn103  1  0.87441788  0.24814656  0.61974658  1
  Zn  Zn104  1  0.62048827  0.74698360  0.87311901  1
  Zn  Zn105  1  0.74927800  0.74938740  0.49956555  1
  Zn  Zn106  1  0.62321223  0.74904673  0.37666989  1
  Zn  Zn107  1  0.17709209  0.17755027  0.21920175  1
  Zn  Zn108  1  0.18682321  0.18716857  0.69366451  1
  Zn  Zn109  1  0.18568882  0.67726241  0.18782039  1
  Zn  Zn110  1  0.18370573  0.69004171  0.68752198  1
  Zn  Zn111  1  0.68387652  0.18736508  0.18279065  1
  Zn  Zn112  1  0.69400601  0.18675768  0.68843921  1
  Zn  Zn113  1  0.68348831  0.68971047  0.18721035  1
  Zn  Zn114  1  0.68908522  0.69470983  0.68971378  1
  Zn  Zn115  1  0.30514634  0.31085637  0.32046348  1
  Zn  Zn116  1  0.31210398  0.31399521  0.82216690  1
  Zn  Zn117  1  0.31442986  0.80914359  0.31509173  1
  Zn  Zn118  1  0.30932628  0.80501406  0.80948969  1
  Zn  Zn119  1  0.80993318  0.31887189  0.30887131  1
  Zn  Zn120  1  0.81197827  0.30769327  0.80535848  1
  Zn  Zn121  1  0.81012740  0.81214234  0.31307936  1
  Zn  Zn122  1  0.81258289  0.81354263  0.81317947  1
  Zn  Zn123  1  0.17295281  0.40498030  0.45364612  1
  Zn  Zn124  1  0.19436235  0.43998199  0.92708375  1
  Zn  Zn125  1  0.19118942  0.93057780  0.43100262  1
  Zn  Zn126  1  0.18650580  0.93443754  0.93715208  1
  Zn  Zn127  1  0.68204473  0.43970691  0.43729443  1
  Zn  Zn128  1  0.68278298  0.43605532  0.92959296  1
  Zn  Zn129  1  0.68508059  0.93964713  0.43471123  1
  Zn  Zn130  1  0.68338379  0.93808499  0.93326649  1
  Zn  Zn131  1  0.30590842  0.18153090  0.07347850  1
  Zn  Zn132  1  0.31698216  0.06543999  0.56381921  1
  Zn  Zn133  1  0.35659325  0.50525180  0.10475103  1
  Zn  Zn134  1  0.31540898  0.56216390  0.56604874  1
  Zn  Zn135  1  0.81015743  0.06140553  0.06357295  1
  Zn  Zn136  1  0.82159700  0.05567960  0.57466857  1
  Zn  Zn137  1  0.81395888  0.56380260  0.05995431  1
  Zn  Zn138  1  0.80947957  0.56377981  0.56340532  1
  Zn  Zn139  1  0.42206810  0.32979514  0.18067535  1
  Zn  Zn140  1  0.43771500  0.43981478  0.68997934  1
  Zn  Zn141  1  0.43657953  0.92626300  0.18298203  1
  Zn  Zn142  1  0.44012349  0.94289430  0.69023211  1
  Zn  Zn143  1  0.93437388  0.43983086  0.18501490  1
  Zn  Zn144  1  0.93508774  0.43779234  0.68570568  1
  Zn  Zn145  1  0.93422536  0.93832825  0.18512763  1
  Zn  Zn146  1  0.94140995  0.93929999  0.68584702  1
  Zn  Zn147  1  0.06229535  0.06120765  0.31069791  1
  Zn  Zn148  1  0.06482038  0.06268101  0.80902688  1
  Zn  Zn149  1  0.06079584  0.56347680  0.31346926  1
  Zn  Zn150  1  0.06335131  0.56074763  0.80653824  1
  Zn  Zn151  1  0.56260616  0.06110719  0.31308615  1
  Zn  Zn152  1  0.56263956  0.05875624  0.81739033  1
  Zn  Zn153  1  0.55926996  0.55679370  0.31208454  1
  Zn  Zn154  1  0.56351281  0.56424648  0.80211247  1
  Zn  Zn155  1  0.43454307  0.18644997  0.43384735  1
  Zn  Zn156  1  0.43773445  0.18297283  0.93969223  1
  Zn  Zn157  1  0.43735628  0.68900861  0.44658528  1
  Zn  Zn158  1  0.43151563  0.67770329  0.93654264  1
  Zn  Zn159  1  0.95424991  0.18652588  0.43441875  1
  Zn  Zn160  1  0.94086122  0.18619408  0.93463975  1
  Zn  Zn161  1  0.93750413  0.68609110  0.43862844  1
  Zn  Zn162  1  0.93418718  0.69153606  0.93411848  1
  Zn  Zn163  1  0.17767828  0.30708276  0.07561076  1
  Zn  Zn164  1  0.05585116  0.31715228  0.56380827  1
  Zn  Zn165  1  0.05968823  0.81166768  0.05752729  1
  Zn  Zn166  1  0.06590441  0.81586862  0.56195583  1
  Zn  Zn167  1  0.56477341  0.31389914  0.05318535  1
  Zn  Zn168  1  0.56539416  0.31292558  0.56201783  1
  Zn  Zn169  1  0.56229237  0.80981165  0.06275246  1
  Zn  Zn170  1  0.56576525  0.81229738  0.55917031  1
  O  O171  1  0.11273959  0.10730688  0.13948114  1
  O  O172  1  0.12004054  0.11666196  0.63869241  1
  O  O173  1  0.11149772  0.61040755  0.12578076  1
  O  O174  1  0.11595217  0.61466439  0.63336535  1
  O  O175  1  0.61419526  0.13129598  0.10970194  1
  O  O176  1  0.62080792  0.12371107  0.61944203  1
  O  O177  1  0.61944365  0.61693587  0.12308030  1
  O  O178  1  0.63086737  0.62596103  0.61556418  1
  O  O179  1  0.38134969  0.38440025  0.38552965  1
  O  O180  1  0.35500192  0.38554693  0.89290607  1
  O  O181  1  0.38770711  0.87553104  0.38152133  1
  O  O182  1  0.37856595  0.87613386  0.87858945  1
  O  O183  1  0.88179649  0.38663638  0.36784358  1
  O  O184  1  0.88046664  0.37819764  0.87435196  1
  O  O185  1  0.87927463  0.88014299  0.38001642  1
  O  O186  1  0.88394720  0.87120171  0.88276431  1
  O  O187  1  0.25002753  -0.00478208  0.35640041  1
  O  O188  1  0.25701653  0.00295433  0.87170512  1
  O  O189  1  0.25427839  0.50220410  0.37380885  1
  O  O190  1  0.24181990  0.51122447  0.86227355  1
  O  O191  1  0.75676324  -0.00671265  0.36034092  1
  O  O192  1  0.74949373  0.00021868  0.87150740  1
  O  O193  1  0.75386819  0.50499931  0.36890069  1
  O  O194  1  0.75388881  0.50676627  0.86564186  1
  O  O195  1  0.24676687  0.51906010  0.14496188  1
  O  O196  1  0.23845840  0.49528666  0.62289712  1
  O  O197  1  0.23762019  0.98275043  0.13596569  1
  O  O198  1  0.25769538  0.99872872  0.64240741  1
  O  O199  1  0.73946497  0.49709109  0.12504971  1
  O  O200  1  0.75148178  0.49316080  0.63548578  1
  O  O201  1  0.75522731  0.98980780  0.13771326  1
  O  O202  1  0.74903866  0.98547294  0.63166313  1
  O  O203  1  -0.00153031  0.37362120  0.25422656  1
  O  O204  1  0.00369070  0.37747474  0.76183901  1
  O  O205  1  0.00465536  0.86888254  0.25255437  1
  O  O206  1  0.01169571  0.88417978  0.76006968  1
  O  O207  1  0.50788923  0.37784671  0.26093981  1
  O  O208  1  0.51611812  0.37411805  0.74409691  1
  O  O209  1  0.50609349  0.86660844  0.25588826  1
  O  O210  1  0.50246059  0.86535106  0.75566782  1
  O  O211  1  0.50729832  0.12115069  0.23107988  1
  O  O212  1  0.49137166  0.11388352  0.74352379  1
  O  O213  1  0.50917859  0.63539158  0.24308574  1
  O  O214  1  0.49636748  0.64140512  0.75043666  1
  O  O215  1  0.98706590  0.13496433  0.24625727  1
  O  O216  1  0.99092147  0.12728176  0.75188817  1
  O  O217  1  0.99328494  0.62902602  0.24122745  1
  O  O218  1  0.98816825  0.61776479  0.73685258  1
  O  O219  1  0.36808927  0.24091420  0.00088601  1
  O  O220  1  0.38208432  0.26420920  0.50343948  1
  O  O221  1  0.36473840  0.74834388  0.00754652  1
  O  O222  1  0.36440980  0.76297219  0.49886691  1
  O  O223  1  0.86816594  0.25467419  0.00163036  1
  O  O224  1  0.86388307  0.23557314  0.49074853  1
  O  O225  1  0.86334351  0.75971133  0.00231966  1
  O  O226  1  0.87346790  0.76386484  0.49805994  1
  O  O227  1  0.13053412  0.29031035  0.48622128  1
  O  O228  1  0.12148566  0.25653118  0.98572801  1
  O  O229  1  0.14146613  0.76453956  0.49137960  1
  O  O230  1  0.13167426  0.75438839  0.98956547  1
  O  O231  1  0.62545560  0.23651941  0.49257862  1
  O  O232  1  0.63150270  0.24460772  0.98725078  1
  O  O233  1  0.62588385  0.73562609  0.49636810  1
  O  O234  1  0.63850060  0.74956097  0.99816476  1
  O  O235  1  0.50254113  0.24693887  0.12434804  1
  O  O236  1  0.49972723  0.23607175  0.62200697  1
  O  O237  1  0.49544380  0.74139049  0.13090809  1
  O  O238  1  0.49959600  0.75303265  0.63277284  1
  O  O239  1  0.98988033  0.24637204  0.13667179  1
  O  O240  1  0.99247442  0.25091243  0.62500216  1
  O  O241  1  0.99498726  0.74071316  0.12699646  1
  O  O242  1  1.00147591  0.73556481  0.61529859  1
  O  O243  1  -0.00084902  0.26195821  0.36291944  1
  O  O244  1  0.01012788  0.25841498  0.87421897  1
  O  O245  1  0.00497850  0.75534747  0.37024964  1
  O  O246  1  0.00520985  0.76415255  0.88050582  1
  O  O247  1  0.51228307  0.25944494  0.38100523  1
  O  O248  1  0.51319676  0.24456150  0.87559287  1
  O  O249  1  0.49885832  0.75455719  0.36837755  1
  O  O250  1  0.49860577  0.76030497  0.87767491  1
  O  O251  1  0.24466343  0.11864151  0.50014811  1
  O  O252  1  0.25084070  0.11398155  0.98953132  1
  O  O253  1  0.25600471  0.64317067  0.50410198  1
  O  O254  1  0.24636606  0.63321431  0.99724274  1
  O  O255  1  0.74372051  0.11597636  0.50250297  1
  O  O256  1  0.74165299  0.13101163  1.00046865  1
  O  O257  1  0.73779244  0.62404507  0.49278053  1
  O  O258  1  0.75093466  0.63319459  0.98949161  1
  O  O259  1  0.21540705  0.40794203  0.03279522  1
  O  O260  1  0.26538016  0.38081414  0.51712657  1
  O  O261  1  0.25413912  0.86640161  0.00629304  1
  O  O262  1  0.26546124  0.87121652  0.49736227  1
  O  O263  1  0.75288065  0.36789636  -0.00009634  1
  O  O264  1  0.73972529  0.38311046  0.51747427  1
  O  O265  1  0.75450806  0.87052659  0.00345674  1
  O  O266  1  0.75672795  0.87654982  0.50526086  1
  O  O267  1  0.13183934  0.49721678  0.25118807  1
  O  O268  1  0.11778199  0.48511579  0.73962409  1
  O  O269  1  0.13060581  0.98595595  0.24344464  1
  O  O270  1  0.13711603  0.98849352  0.75770634  1
  O  O271  1  0.62798591  0.48958193  0.24092629  1
  O  O272  1  0.63240375  0.48284486  0.75575597  1
  O  O273  1  0.63243111  0.98898607  0.25480834  1
  O  O274  1  0.62031914  0.98410771  0.74838602  1
  O  O275  1  0.36236205  -0.01844392  0.24992004  1
  O  O276  1  0.37042382  0.00127236  0.76348364  1
  O  O277  1  0.35472522  0.49435543  0.26166456  1
  O  O278  1  0.38469399  0.51691106  0.75244795  1
  O  O279  1  0.86921150  0.00782444  0.25586697  1
  O  O280  1  0.87854272  0.01362758  0.74524356  1
  O  O281  1  0.86632791  0.50704551  0.25680819  1
  O  O282  1  0.86568715  0.50875600  0.75330859  1
  O  O283  1  0.10397562  0.38766501  0.36047200  1
  O  O284  1  0.11873915  0.36766034  0.87000204  1
  O  O285  1  0.11970146  0.86539586  0.36169136  1
  O  O286  1  0.11643715  0.86744266  0.86894338  1
  O  O287  1  0.61809664  0.37029373  0.36701837  1
  O  O288  1  0.62939202  0.35828008  0.86272028  1
  O  O289  1  0.61270724  0.87210809  0.36899214  1
  O  O290  1  0.61427254  0.86964533  0.86704156  1
  O  O291  1  0.39436959  0.12474913  0.13028938  1
  O  O292  1  0.38460103  0.12552103  0.63788822  1
  O  O293  1  0.39326789  0.62042839  0.12745176  1
  O  O294  1  0.37941327  0.62340899  0.63841176  1
  O  O295  1  0.87798780  0.13214079  0.12959655  1
  O  O296  1  0.88443544  0.12769432  0.63448118  1
  O  O297  1  0.87680986  0.63230228  0.13120641  1
  O  O298  1  0.88081141  0.62756788  0.62998727  1
  O  O299  1  0.23242816  0.23511189  0.13772068  1
  O  O300  1  0.25428929  0.25845338  0.62532172  1
  O  O301  1  0.25005331  0.74643554  0.11996912  1
  O  O302  1  0.24259331  0.75703962  0.61259040  1
  O  O303  1  0.75121352  0.25570942  0.11086346  1
  O  O304  1  0.75352393  0.26168381  0.62280845  1
  O  O305  1  0.75418752  0.75567593  0.11745026  1
  O  O306  1  0.75448584  0.76201205  0.62102821  1
  O  O307  1  0.24346799  0.24855503  0.38872182  1
  O  O308  1  0.23542250  0.23981273  0.87312865  1
  O  O309  1  0.24285731  0.74855033  0.38257470  1
  O  O310  1  0.23949835  0.74762040  0.88377370  1
  O  O311  1  0.73990229  0.25317777  0.37601575  1
  O  O312  1  0.74609132  0.24578929  0.88402049  1
  O  O313  1  0.74684996  0.73990190  0.37715632  1
  O  O314  1  0.74841784  0.74262068  0.88088568  1
  O  O315  1  -0.00677154  0.11391204  0.00876677  1
  O  O316  1  0.00695869  0.10732583  0.49340862  1
  O  O317  1  -0.01418982  0.61877711  0.00767462  1
  O  O318  1  -0.00630481  0.61195520  0.50718877  1
  O  O319  1  0.50551029  0.11553393  0.01140019  1
  O  O320  1  0.50615419  0.11763277  0.50628553  1
  O  O321  1  0.50885463  0.62348975  0.00681261  1
  O  O322  1  0.51388833  0.61880179  0.49771376  1
  O  O323  1  0.49858620  0.38251107  0.49217939  1
  O  O324  1  0.50385600  0.38905824  0.99363236  1
  O  O325  1  0.49459436  0.87943753  0.49416054  1
  O  O326  1  0.49481060  0.87675431  0.99445306  1
  O  O327  1  0.99222458  0.39046236  0.48935882  1
  O  O328  1  0.99006733  0.38806802  0.98382339  1
  O  O329  1  0.99293006  0.88054514  0.49231250  1
  O  O330  1  0.98985311  0.88169823  0.99332870  1
  O  O331  1  0.49189072  0.49171608  0.37943468  1
  O  O332  1  0.50736032  0.50544312  0.88358100  1
  O  O333  1  0.49968408  0.99264247  0.38584786  1
  O  O334  1  0.49307849  0.98579908  0.88177726  1
  O  O335  1  0.98922051  0.49947095  0.38036418  1
  O  O336  1  0.99291735  0.49759645  0.87839156  1
  O  O337  1  0.99406232  0.99440100  0.37956056  1
  O  O338  1  1.00877332  0.99212611  0.88862552  1
  O  O339  1  0.00490983  0.00135709  0.11681951  1
  O  O340  1  -0.00011126  -0.00160264  0.60423568  1
  O  O341  1  -0.01381074  0.50991347  0.11099934  1
  O  O342  1  0.00480428  0.50522169  0.61772064  1
  O  O343  1  0.49673586  -0.00497775  0.11330594  1
  O  O344  1  0.50332187  0.00722108  0.61407387  1
  O  O345  1  0.51385904  0.50704790  0.11418856  1
  O  O346  1  0.50328060  0.49417532  0.61168961  1
  O  O347  1  0.23142554  0.38780586  0.25948360  1
  O  O348  1  0.24452734  0.37160385  0.74021099  1
  O  O349  1  0.24115357  0.87209705  0.24382457  1
  O  O350  1  0.23747171  0.88168181  0.75812674  1
  O  O351  1  0.74155442  0.38293292  0.24035079  1
  O  O352  1  0.74331388  0.38077941  0.74319685  1
  O  O353  1  0.74075332  0.87849661  0.24501234  1
  O  O354  1  0.74029784  0.87137231  0.74321331  1
  O  O355  1  0.26704790  0.10078846  0.23750853  1
  O  O356  1  0.26025075  0.11497313  0.76169398  1
  O  O357  1  0.24254906  0.61410778  0.26567339  1
  O  O358  1  0.26700568  0.63852377  0.74598609  1
  O  O359  1  0.75209244  0.11517841  0.24222547  1
  O  O360  1  0.76353275  0.12009205  0.75005500  1
  O  O361  1  0.75193221  0.62074056  0.25535931  1
  O  O362  1  0.75306139  0.61817710  0.75315294  1
  O  O363  1  0.37306941  0.11883060  0.36739882  1
  O  O364  1  0.37034971  0.11311341  0.87223338  1
  O  O365  1  0.37672022  0.61137022  0.38310225  1
  O  O366  1  0.37098997  0.62351247  0.85972195  1
  O  O367  1  0.86303985  0.12672604  0.37480863  1
  O  O368  1  0.87423411  0.12890167  0.86118710  1
  O  O369  1  0.86292165  0.62019436  0.36986761  1
  O  O370  1  0.86516581  0.62182071  0.86628206  1
  O  O371  1  0.11252312  0.39233820  0.14156309  1
  O  O372  1  0.13340415  0.38150755  0.63376670  1
  O  O373  1  0.12318806  0.87519566  0.13477673  1
  O  O374  1  0.11945102  0.88424216  0.64025910  1
  O  O375  1  0.62791782  0.38016463  0.12930996  1
  O  O376  1  0.63521024  0.36439517  0.63975214  1
  O  O377  1  0.62932700  0.87005173  0.13679903  1
  O  O378  1  0.63237615  0.87602735  0.63023499  1
  O  O379  1  0.10970001  0.27333346  0.24940474  1
  O  O380  1  0.12117629  0.26409183  0.75905019  1
  O  O381  1  0.11868569  0.75266451  0.25418784  1
  O  O382  1  0.12843957  0.76734628  0.75608662  1
  O  O383  1  0.63138162  0.26170452  0.25635461  1
  O  O384  1  0.63035736  0.25483630  0.76167841  1
  O  O385  1  0.61632985  0.75910426  0.25302366  1
  O  O386  1  0.61190495  0.75905353  0.75024951  1
  O  O387  1  0.38076297  0.26186894  0.25643204  1
  O  O388  1  0.37224273  0.23620211  0.75652511  1
  O  O389  1  0.38510861  0.75305335  0.24165635  1
  O  O390  1  0.38845209  0.74579030  0.74980355  1
  O  O391  1  0.87507663  0.24739456  0.24403559  1
  O  O392  1  0.87815518  0.23732208  0.74625239  1
  O  O393  1  0.88057123  0.74575185  0.24461765  1
  O  O394  1  0.87067060  0.73652171  0.74821893  1
  O  O395  1  0.38412488  0.49295395  0.49644349  1
  O  O396  1  0.39798703  0.51360471  0.99361131  1
  O  O397  1  0.38347146  0.98859487  0.49872305  1
  O  O398  1  0.38395773  0.98747354  0.98729923  1
  O  O399  1  0.87610908  0.50558427  0.48745296  1
  O  O400  1  0.87676028  0.49484415  0.98922772  1
  O  O401  1  0.88319168  0.99038642  0.49332148  1
  O  O402  1  0.88229899  0.98903383  1.00623342  1
  O  O403  1  0.11545308  -0.01065784  0.01327775  1
  O  O404  1  0.11347570  -0.01467871  0.49663940  1
  O  O405  1  0.10628474  0.50761467  0.00049646  1
  O  O406  1  0.11486854  0.49257737  0.51192982  1
  O  O407  1  0.61350474  0.00840748  -0.00498610  1
  O  O408  1  0.61794779  0.01011456  0.49993168  1
  O  O409  1  0.62049334  0.50086636  0.00414432  1
  O  O410  1  0.61724213  0.51550567  0.49474354  1
  O  O411  1  0.37617727  0.39435499  0.10645197  1
  O  O412  1  0.37059503  0.37316245  0.62351763  1
  O  O413  1  0.36740755  0.85991689  0.11679640  1
  O  O414  1  0.38193491  0.87786271  0.61247278  1
  O  O415  1  0.86644868  0.37030448  0.11664003  1
  O  O416  1  0.85874635  0.37348068  0.62742323  1
  O  O417  1  0.86867179  0.86787619  0.11627303  1
  O  O418  1  0.87085942  0.87389025  0.61703359  1
  O  O419  1  0.14069507  0.13843486  0.33098326  1
  O  O420  1  0.13040880  0.13726933  0.87300928  1
  O  O421  1  0.12011939  0.63980493  0.37734366  1
  O  O422  1  0.11859490  0.64373570  0.86157058  1
  O  O423  1  0.62185346  0.13416554  0.38228176  1
  O  O424  1  0.62555084  0.13365518  0.88360188  1
  O  O425  1  0.63533656  0.62297939  0.37254723  1
  O  O426  1  0.63814173  0.62721841  0.87150071  1
