# generated using pymatgen
data_V85Zn86O256
_symmetry_space_group_name_H-M   'P 1'
_cell_length_a   16.96641017
_cell_length_b   16.95178308
_cell_length_c   16.96757791
_cell_angle_alpha   90.01528134
_cell_angle_beta   90.02924929
_cell_angle_gamma   89.99037000
_symmetry_Int_Tables_number   1
_chemical_formula_structural   V85Zn86O256
_chemical_formula_sum   'V85 Zn86 O256'
_cell_volume   4880.05955904
_cell_formula_units_Z   1
loop_
 _symmetry_equiv_pos_site_id
 _symmetry_equiv_pos_as_xyz
  1  'x, y, z'
loop_
 _atom_site_type_symbol
 _atom_site_label
 _atom_site_symmetry_multiplicity
 _atom_site_fract_x
 _atom_site_fract_y
 _atom_site_fract_z
 _atom_site_occupancy
  V  V0  1  0.50440780  -0.00902743  0.49613623  1
  V  V1  1  0.74766253  0.37360101  0.12989491  1
  V  V2  1  0.75141020  0.25526273  -0.00195372  1
  V  V3  1  0.50132177  0.86192391  0.86922878  1
  V  V4  1  0.74124882  0.74813139  0.00107934  1
  V  V5  1  0.88053029  0.50121434  0.37855851  1
  V  V6  1  0.87283308  0.74896947  0.12732893  1
  V  V7  1  0.47964772  0.62639291  0.61387902  1
  V  V8  1  0.62666000  0.25040377  0.36730274  1
  V  V9  1  0.37811357  0.86779216  0.50124602  1
  V  V10  1  0.74659923  0.63033048  0.37584253  1
  V  V11  1  0.49688742  0.75503828  0.25374087  1
  V  V12  1  0.62163092  0.25806050  0.87628666  1
  V  V13  1  0.11727491  0.75658336  0.37777462  1
  V  V14  1  0.55716187  0.06807345  0.67230551  1
  V  V15  1  0.12956683  0.87915307  0.75079063  1
  V  V16  1  0.49464786  -0.00135294  0.00039430  1
  V  V17  1  0.24770841  0.37511899  0.62640860  1
  V  V18  1  0.24341028  0.37751514  0.12275788  1
  V  V19  1  0.75185063  0.11810165  0.87397581  1
  V  V20  1  0.13266708  0.00213071  0.62703513  1
  V  V21  1  0.87241308  0.37189183  0.50190477  1
  V  V22  1  -0.00739102  0.61686293  0.62435157  1
  V  V23  1  0.62065557  0.61826260  0.50525222  1
  V  V24  1  0.00214302  0.61987154  0.12885189  1
  V  V25  1  0.37250264  0.37730696  -0.00264789  1
  V  V26  1  0.62525893  0.62328526  -0.00807865  1
  V  V27  1  0.25418703  0.86846478  0.62844141  1
  V  V28  1  -0.00032633  0.49853494  -0.00155266  1
  V  V29  1  0.25237963  0.24637671  0.49892039  1
  V  V30  1  0.62332009  0.49790358  0.12846741  1
  V  V31  1  0.12401149  0.37702431  0.24642734  1
  V  V32  1  0.49673254  0.24922922  0.24979531  1
  V  V33  1  0.25562369  0.12378460  0.36660931  1
  V  V34  1  0.62222340  0.00087314  0.12735933  1
  V  V35  1  0.12279771  0.25560206  0.87369448  1
  V  V36  1  0.73143953  0.87805225  0.64302960  1
  V  V37  1  0.87356504  0.62307308  0.25168416  1
  V  V38  1  0.25012173  0.11955558  0.87047093  1
  V  V39  1  0.87690710  0.50697084  0.86743459  1
  V  V40  1  0.62371101  0.12852110  0.00337341  1
  V  V41  1  0.25364918  0.49691790  0.75414510  1
  V  V42  1  0.12784408  0.24809354  0.37434421  1
  V  V43  1  0.24474980  0.50137020  0.24476494  1
  V  V44  1  0.37494963  0.62572866  0.24876463  1
  V  V45  1  0.00064489  0.25010625  0.24930055  1
  V  V46  1  0.37104782  0.24680652  0.12765416  1
  V  V47  1  0.25342572  0.61825358  0.87666356  1
  V  V48  1  0.37071088  0.11721504  0.74301317  1
  V  V49  1  0.49442283  0.12685201  0.12741559  1
  V  V50  1  0.50834225  0.37835215  0.37004954  1
  V  V51  1  0.74828228  0.87654856  0.12520871  1
  V  V52  1  0.37959371  -0.00253826  0.37155012  1
  V  V53  1  0.61937577  0.12129887  0.49892405  1
  V  V54  1  0.36881345  0.87615872  0.00583252  1
  V  V55  1  0.49751198  0.50068468  -0.00353740  1
  V  V56  1  0.37706853  0.24780398  0.63201759  1
  V  V57  1  0.12525345  0.61885472  0.00553965  1
  V  V58  1  0.88210767  -0.00789507  0.37397809  1
  V  V59  1  0.87458703  0.11168316  0.74605349  1
  V  V60  1  0.00436562  -0.00544100  0.49932102  1
  V  V61  1  0.74282843  0.49400700  0.25684445  1
  V  V62  1  -0.00127856  0.11964114  0.11994484  1
  V  V63  1  0.12103195  0.12027843  -0.00431237  1
  V  V64  1  -0.00567620  0.25693981  0.75237002  1
  V  V65  1  0.49913164  0.62551586  0.12564256  1
  V  V66  1  0.87369055  0.87370186  0.50785317  1
  V  V67  1  0.49561009  0.37773744  0.87608221  1
  V  V68  1  0.37894926  0.37822133  0.50139250  1
  V  V69  1  0.87633600  0.12531259  0.25111247  1
  V  V70  1  0.37257820  0.64021758  0.74923563  1
  V  V71  1  0.75224771  0.12222268  0.37760900  1
  V  V72  1  0.24746907  0.75348772  0.00811752  1
  V  V73  1  -0.00345847  0.74634422  0.74595790  1
  V  V74  1  0.87714585  0.37619752  -0.00684549  1
  V  V75  1  0.24854038  0.62736817  0.37634396  1
  V  V76  1  0.25231849  -0.00780256  0.24578422  1
  V  V77  1  0.62022581  0.87651048  0.25705153  1
  V  V78  1  0.12468462  0.74744477  0.87285258  1
  V  V79  1  0.12158277  0.61570065  0.50106519  1
  V  V80  1  0.76264651  0.63006277  0.86179122  1
  V  V81  1  0.00446991  0.37838454  0.38189277  1
  V  V82  1  0.55344846  0.31021492  0.70339382  1
  V  V83  1  0.37782353  0.49896643  0.37672834  1
  V  V84  1  0.12599952  -0.00791499  0.12266803  1
  Zn  Zn85  1  0.00153742  0.12578099  0.62357002  1
  Zn  Zn86  1  0.87172593  0.25207503  0.62596690  1
  Zn  Zn87  1  0.11995600  0.37810726  0.75223732  1
  Zn  Zn88  1  0.11978467  0.87628681  0.25169054  1
  Zn  Zn89  1  0.88238765  0.88274838  0.00150816  1
  Zn  Zn90  1  0.74941662  0.00104435  0.25006348  1
  Zn  Zn91  1  -0.00425796  0.75745237  0.25504810  1
  Zn  Zn92  1  0.89483538  0.00583324  0.89090289  1
  Zn  Zn93  1  0.74744371  0.24990235  0.50638287  1
  Zn  Zn94  1  0.61842773  0.75489913  0.37827322  1
  Zn  Zn95  1  0.87551155  0.25107334  0.12472584  1
  Zn  Zn96  1  0.00200106  0.88366241  0.88132998  1
  Zn  Zn97  1  0.36992346  -0.00343705  0.86986307  1
  Zn  Zn98  1  0.12547581  0.12338318  0.49948140  1
  Zn  Zn99  1  0.74380642  0.75478782  0.50165396  1
  Zn  Zn100  1  0.36877400  0.75438721  0.12863333  1
  Zn  Zn101  1  0.69539632  0.45423999  0.68060426  1
  Zn  Zn102  1  0.87287817  0.75074069  0.62854581  1
  Zn  Zn103  1  0.25310574  0.74681363  0.50533016  1
  Zn  Zn104  1  0.65425411  0.79669030  0.81226744  1
  Zn  Zn105  1  0.24818746  0.24935223  -0.00174170  1
  Zn  Zn106  1  0.12130589  0.49654919  0.62435523  1
  Zn  Zn107  1  0.18696129  0.18376945  0.18666575  1
  Zn  Zn108  1  0.18714539  0.18820462  0.68897056  1
  Zn  Zn109  1  0.18335543  0.68816703  0.18998607  1
  Zn  Zn110  1  0.18545118  0.68615458  0.68688240  1
  Zn  Zn111  1  0.68787948  0.18811215  0.18953487  1
  Zn  Zn112  1  0.70146142  0.19170193  0.68722060  1
  Zn  Zn113  1  0.68350624  0.68643522  0.18951092  1
  Zn  Zn114  1  0.69145521  0.68770754  0.67651393  1
  Zn  Zn115  1  0.31431692  0.31354889  0.30999309  1
  Zn  Zn116  1  0.31232060  0.30734410  0.81224433  1
  Zn  Zn117  1  0.31021295  0.81552955  0.31512717  1
  Zn  Zn118  1  0.30832840  0.81528064  0.82038741  1
  Zn  Zn119  1  0.81388771  0.31187013  0.31699038  1
  Zn  Zn120  1  0.81037776  0.31579154  0.80751880  1
  Zn  Zn121  1  0.81113652  0.81483614  0.31121653  1
  Zn  Zn122  1  0.82181305  0.82022204  0.81435861  1
  Zn  Zn123  1  0.19168062  0.43716315  0.43670850  1
  Zn  Zn124  1  0.18493901  0.43847003  0.93749287  1
  Zn  Zn125  1  0.19385138  0.93748582  0.44103000  1
  Zn  Zn126  1  0.18334068  0.93909592  0.93572083  1
  Zn  Zn127  1  0.70355454  0.45705082  0.47823172  1
  Zn  Zn128  1  0.68346114  0.44992317  0.84105534  1
  Zn  Zn129  1  0.69209991  0.93794511  0.44078197  1
  Zn  Zn130  1  0.68445355  0.93727676  0.94203803  1
  Zn  Zn131  1  0.30787369  0.06430602  0.06096385  1
  Zn  Zn132  1  0.31378298  0.05934510  0.55924407  1
  Zn  Zn133  1  0.31353805  0.56163982  0.06322557  1
  Zn  Zn134  1  0.30921523  0.55982059  0.56234269  1
  Zn  Zn135  1  0.81164370  0.06357470  0.06269901  1
  Zn  Zn136  1  0.80724218  0.05404937  0.56637950  1
  Zn  Zn137  1  0.81167161  0.56033554  0.06237398  1
  Zn  Zn138  1  0.81370993  0.56292667  0.56232909  1
  Zn  Zn139  1  0.43358828  0.43554310  0.18794286  1
  Zn  Zn140  1  0.43583082  0.45354039  0.68575486  1
  Zn  Zn141  1  0.43450706  0.93745641  0.18713890  1
  Zn  Zn142  1  0.43496718  0.93037393  0.68895419  1
  Zn  Zn143  1  0.93367618  0.43760981  0.18717386  1
  Zn  Zn144  1  0.93497794  0.43802998  0.68707740  1
  Zn  Zn145  1  0.93979351  0.93666597  0.18820264  1
  Zn  Zn146  1  0.94588459  0.93511113  0.68672307  1
  Zn  Zn147  1  0.06452945  0.06093238  0.31159677  1
  Zn  Zn148  1  0.06085375  0.06385418  0.80896002  1
  Zn  Zn149  1  0.06344270  0.56407796  0.31221476  1
  Zn  Zn150  1  0.06367639  0.56202601  0.81157649  1
  Zn  Zn151  1  0.55826656  0.06409819  0.31278118  1
  Zn  Zn152  1  0.55896426  0.06538065  0.83088874  1
  Zn  Zn153  1  0.56394766  0.56403741  0.31635078  1
  Zn  Zn154  1  0.58378116  0.60431957  0.77947699  1
  Zn  Zn155  1  0.43700732  0.18400801  0.43922439  1
  Zn  Zn156  1  0.43440446  0.18969858  0.93664238  1
  Zn  Zn157  1  0.43835082  0.68830897  0.43491238  1
  Zn  Zn158  1  0.43200799  0.68689032  0.93719859  1
  Zn  Zn159  1  0.94187268  0.18460082  0.43825487  1
  Zn  Zn160  1  0.93774092  0.18712916  0.93456450  1
  Zn  Zn161  1  0.93784075  0.68666472  0.44311351  1
  Zn  Zn162  1  0.94384754  0.70869902  0.94771004  1
  Zn  Zn163  1  0.06087250  0.30936758  0.06025833  1
  Zn  Zn164  1  0.06160528  0.30869395  0.56440610  1
  Zn  Zn165  1  0.05903997  0.80737777  0.06419173  1
  Zn  Zn166  1  0.06431472  0.81111152  0.56179453  1
  Zn  Zn167  1  0.56356192  0.31580794  0.06383656  1
  Zn  Zn168  1  0.56362495  0.31439062  0.54180542  1
  Zn  Zn169  1  0.55915267  0.81229320  0.06474361  1
  Zn  Zn170  1  0.55988294  0.80312550  0.56688251  1
  O  O171  1  0.11815101  0.11995855  0.11566616  1
  O  O172  1  0.12751257  0.11641844  0.62192298  1
  O  O173  1  0.11496899  0.62791196  0.11800593  1
  O  O174  1  0.11975277  0.62172333  0.61510614  1
  O  O175  1  0.61701623  0.12201545  0.12125084  1
  O  O176  1  0.62414244  0.12848340  0.61750369  1
  O  O177  1  0.61564596  0.61802186  0.12125809  1
  O  O178  1  0.62600300  0.61797925  0.60613448  1
  O  O179  1  0.37923041  0.38120013  0.38041390  1
  O  O180  1  0.37858752  0.36601977  0.88967733  1
  O  O181  1  0.36697924  0.88898667  0.38546997  1
  O  O182  1  0.38194690  0.87742333  0.88678894  1
  O  O183  1  0.88760874  0.38129042  0.37649113  1
  O  O184  1  0.87088787  0.38606597  0.88955521  1
  O  O185  1  0.86603565  0.88878362  0.38178394  1
  O  O186  1  0.87970791  0.88620707  0.88055077  1
  O  O187  1  0.25518044  0.00683544  0.36801326  1
  O  O188  1  0.25037797  0.01462386  0.87755384  1
  O  O189  1  0.25705889  0.50909431  0.36781150  1
  O  O190  1  0.24682590  0.50772270  0.86944947  1
  O  O191  1  0.75712646  0.01083000  0.37291283  1
  O  O192  1  0.74083967  0.01822749  0.88406937  1
  O  O193  1  0.75743781  0.51070457  0.37123262  1
  O  O194  1  0.76393735  0.52190874  0.88595148  1
  O  O195  1  0.25351742  0.49067312  0.13330297  1
  O  O196  1  0.24812306  0.48709900  0.63022719  1
  O  O197  1  0.23998840  1.00869441  0.13537794  1
  O  O198  1  0.23871178  0.98928447  0.61679622  1
  O  O199  1  0.74584831  0.49249088  0.13524013  1
  O  O200  1  0.73961153  0.48517842  0.58555803  1
  O  O201  1  0.74032865  0.99333469  0.12767162  1
  O  O202  1  0.75177066  0.97647770  0.63052154  1
  O  O203  1  0.00579260  0.37014967  0.25323932  1
  O  O204  1  -0.00035486  0.36105744  0.74689654  1
  O  O205  1  0.00633217  0.87011604  0.24694870  1
  O  O206  1  0.01547551  0.86403225  0.75052023  1
  O  O207  1  0.49354101  0.36216733  0.25715027  1
  O  O208  1  0.48991315  0.37450586  0.75675881  1
  O  O209  1  0.50816212  0.86739262  0.24210331  1
  O  O210  1  0.49346955  0.87721123  0.77031879  1
  O  O211  1  0.50151192  0.13948538  0.24361445  1
  O  O212  1  0.49611720  0.11979573  0.73920968  1
  O  O213  1  0.49316719  0.63040494  0.24483796  1
  O  O214  1  0.47323277  0.62240932  0.74291255  1
  O  O215  1  0.99571689  0.13115068  0.24470266  1
  O  O216  1  0.98769880  0.13394976  0.74701841  1
  O  O217  1  0.99199159  0.62540168  0.24445507  1
  O  O218  1  1.01101049  0.63159699  0.73217315  1
  O  O219  1  0.37321672  0.25914509  0.01167926  1
  O  O220  1  0.37278030  0.25467476  0.51132772  1
  O  O221  1  0.36360650  0.75636794  0.00202336  1
  O  O222  1  0.37360138  0.76384028  0.49172382  1
  O  O223  1  0.86968965  0.25753049  -0.00012207  1
  O  O224  1  0.87899579  0.26164485  0.49622624  1
  O  O225  1  0.85510932  0.74266724  0.01816458  1
  O  O226  1  0.87617942  0.76569059  0.49808570  1
  O  O227  1  0.13409477  0.24949714  0.49214093  1
  O  O228  1  0.12425308  0.24014565  0.99111786  1
  O  O229  1  0.12787835  0.73940584  0.48994280  1
  O  O230  1  0.13062417  0.73733602  0.99378078  1
  O  O231  1  0.62590492  0.23981793  0.48489227  1
  O  O232  1  0.63170460  0.24855540  0.99499296  1
  O  O233  1  0.62359654  0.73754075  0.49352955  1
  O  O234  1  0.63284996  0.73990543  1.00985940  1
  O  O235  1  0.49343017  0.24929651  0.13128740  1
  O  O236  1  0.49748229  0.25910874  0.63215282  1
  O  O237  1  0.49615367  0.74108313  0.13396228  1
  O  O238  1  0.50515225  0.72469281  0.62855566  1
  O  O239  1  0.99969951  0.24057773  0.13370475  1
  O  O240  1  0.99493462  0.24589436  0.63680750  1
  O  O241  1  0.98836360  0.73611542  0.12910702  1
  O  O242  1  1.00185676  0.74041617  0.63105418  1
  O  O243  1  0.00750547  0.25633549  0.36683735  1
  O  O244  1  0.00767261  0.24466563  0.86163715  1
  O  O245  1  0.01457044  0.74256680  0.37532073  1
  O  O246  1  0.01757630  0.73321516  0.86064909  1
  O  O247  1  0.50299722  0.25359962  0.36762332  1
  O  O248  1  0.50752674  0.26193935  0.88194773  1
  O  O249  1  0.49882687  0.74778902  0.35793296  1
  O  O250  1  0.49709419  0.76272354  0.88191884  1
  O  O251  1  0.25041823  0.13024250  0.48774890  1
  O  O252  1  0.24069371  0.12986311  0.99115485  1
  O  O253  1  0.24420821  0.62662927  0.49169456  1
  O  O254  1  0.24474905  0.62700912  0.99482879  1
  O  O255  1  0.73887116  0.12044621  0.49352223  1
  O  O256  1  0.74445332  0.13897532  0.99871850  1
  O  O257  1  0.73923247  0.62853460  0.49091463  1
  O  O258  1  0.73888961  0.63211590  1.00777222  1
  O  O259  1  0.25530362  0.37490709  0.00647361  1
  O  O260  1  0.26026132  0.36804707  0.50490950  1
  O  O261  1  0.25535125  0.86482159  -0.00781137  1
  O  O262  1  0.25966672  0.87185988  0.50916945  1
  O  O263  1  0.75822974  0.36273403  0.00904488  1
  O  O264  1  0.77068959  0.36494986  0.47636560  1
  O  O265  1  0.74448911  0.86654867  0.01308850  1
  O  O266  1  0.75851480  0.87441651  0.50765222  1
  O  O267  1  0.13770524  0.49474169  0.25447021  1
  O  O268  1  0.13627532  0.49630543  0.74856082  1
  O  O269  1  0.13276009  0.99969170  0.24063616  1
  O  O270  1  0.12312345  0.99123179  0.73937840  1
  O  O271  1  0.63701158  0.50279640  0.24756304  1
  O  O272  1  0.62765729  0.50515531  0.75850070  1
  O  O273  1  0.62232779  0.99455205  0.24374171  1
  O  O274  1  0.61137239  1.01742280  0.73759141  1
  O  O275  1  0.36687056  -0.00452922  0.25824577  1
  O  O276  1  0.37827627  0.01305200  0.75020987  1
  O  O277  1  0.36238510  0.50256173  0.25634582  1
  O  O278  1  0.35729454  0.51140183  0.74716992  1
  O  O279  1  0.87491651  0.00791034  0.25806431  1
  O  O280  1  0.88417772  0.01135054  0.75382775  1
  O  O281  1  0.86494796  0.50275477  0.25974805  1
  O  O282  1  0.88546928  0.49962384  0.76824986  1
  O  O283  1  0.12130360  0.37016798  0.36927688  1
  O  O284  1  0.12950130  0.35972546  0.87458058  1
  O  O285  1  0.13214727  0.85790306  0.38075246  1
  O  O286  1  0.12578693  0.86420576  0.86841107  1
  O  O287  1  0.60998272  0.36583300  0.38209132  1
  O  O288  1  0.61355137  0.36428614  0.88110484  1
  O  O289  1  0.63407888  0.87500766  0.36023960  1
  O  O290  1  0.60857301  0.87533207  0.88157911  1
  O  O291  1  0.38043410  0.13646777  0.11797864  1
  O  O292  1  0.36873004  0.13417571  0.62994504  1
  O  O293  1  0.38155377  0.62686374  0.13201137  1
  O  O294  1  0.37181060  0.62889688  0.63026937  1
  O  O295  1  0.88245741  0.12798846  0.13331797  1
  O  O296  1  0.87322135  0.12251721  0.63729487  1
  O  O297  1  0.87799945  0.62911843  0.13314166  1
  O  O298  1  0.88848218  0.62908705  0.61754944  1
  O  O299  1  0.25602925  0.25623329  0.12457019  1
  O  O300  1  0.25799048  0.25933410  0.62183214  1
  O  O301  1  0.24711745  0.74461005  0.11204925  1
  O  O302  1  0.24210562  0.76399552  0.62259107  1
  O  O303  1  0.75084435  0.25664404  0.12000360  1
  O  O304  1  0.75811447  0.25489058  0.61835328  1
  O  O305  1  0.75206853  0.75707768  0.12416965  1
  O  O306  1  0.75581961  0.76218145  0.62068287  1
  O  O307  1  0.24981916  0.24299156  0.37662472  1
  O  O308  1  0.24121067  0.23976060  0.87538792  1
  O  O309  1  0.24390998  0.73666257  0.37478967  1
  O  O310  1  0.23992579  0.74103948  0.88483720  1
  O  O311  1  0.74263645  0.23764832  0.37474977  1
  O  O312  1  0.74221844  0.24464441  0.88299784  1
  O  O313  1  0.75229241  0.73840899  0.37454774  1
  O  O314  1  0.74989526  0.74340675  0.88505809  1
  O  O315  1  0.00801202  0.13270447  0.00963457  1
  O  O316  1  0.00265995  0.11200528  0.50344877  1
  O  O317  1  0.00776399  0.62238406  0.00920964  1
  O  O318  1  0.00842554  0.62745848  0.51339144  1
  O  O319  1  0.50325538  0.11893218  0.00500899  1
  O  O320  1  0.51268275  0.11657312  0.49677504  1
  O  O321  1  0.50289270  0.61929668  0.00314559  1
  O  O322  1  0.50273404  0.62797197  0.50634407  1
  O  O323  1  0.48543760  0.37440997  0.48686395  1
  O  O324  1  0.49142302  0.38121503  0.99797953  1
  O  O325  1  0.49349328  0.88116676  0.50672565  1
  O  O326  1  0.49190400  0.88243154  0.99747260  1
  O  O327  1  0.99604190  0.37043664  0.48595512  1
  O  O328  1  0.99136929  0.38681473  1.00939727  1
  O  O329  1  0.99368057  0.88675044  0.50506239  1
  O  O330  1  0.98434359  0.82490606  0.98352981  1
  O  O331  1  0.48518051  0.49177746  0.36034720  1
  O  O332  1  0.50013769  0.48289699  0.88649861  1
  O  O333  1  0.49079996  1.00146784  0.38203298  1
  O  O334  1  0.49416432  0.99500776  0.89101892  1
  O  O335  1  0.99329199  0.49015548  0.36658514  1
  O  O336  1  0.99349942  0.51108926  0.89079370  1
  O  O337  1  0.99156535  1.00527849  0.38336068  1
  O  O338  1  1.01057238  0.99783375  0.88126015  1
  O  O339  1  0.00871154  0.01412072  0.13033824  1
  O  O340  1  0.01421742  0.00166585  0.61793491  1
  O  O341  1  -0.00802057  0.51260428  0.11713125  1
  O  O342  1  0.00185855  0.51279550  0.62811009  1
  O  O343  1  0.50096667  0.00583530  0.11720011  1
  O  O344  1  0.49998301  0.00072458  0.61679685  1
  O  O345  1  0.50201998  0.50508546  0.12317811  1
  O  O346  1  0.49780326  0.52480242  0.62554011  1
  O  O347  1  0.24519461  0.38196409  0.24261242  1
  O  O348  1  0.25072622  0.37922031  0.74276875  1
  O  O349  1  0.24222488  0.88795883  0.25289939  1
  O  O350  1  0.23957262  0.87270956  0.74557505  1
  O  O351  1  0.75570887  0.38247992  0.24439903  1
  O  O352  1  0.74319574  0.38936429  0.76334344  1
  O  O353  1  0.74211767  0.87748450  0.23889203  1
  O  O354  1  0.73585958  0.85927290  0.74863006  1
  O  O355  1  0.24721218  0.11663898  0.26120984  1
  O  O356  1  0.25964047  0.13004147  0.75730414  1
  O  O357  1  0.25397238  0.61852788  0.25485159  1
  O  O358  1  0.25287876  0.61894684  0.75671766  1
  O  O359  1  0.75777941  0.12384010  0.25810631  1
  O  O360  1  0.76536131  0.12890852  0.76022811  1
  O  O361  1  0.75495592  0.61704883  0.25590510  1
  O  O362  1  0.76237046  0.63126320  0.76370841  1
  O  O363  1  0.36760438  0.11180389  0.37968108  1
  O  O364  1  0.36765009  0.12652501  0.86537035  1
  O  O365  1  0.36803724  0.61745434  0.36987847  1
  O  O366  1  0.36196488  0.62910090  0.86510770  1
  O  O367  1  0.86859406  0.11770321  0.37219667  1
  O  O368  1  0.86774276  0.12275154  0.86713536  1
  O  O369  1  0.87097543  0.61842118  0.37262286  1
  O  O370  1  0.86632666  0.62598271  0.88706807  1
  O  O371  1  0.13718967  0.36921470  0.12711571  1
  O  O372  1  0.13469491  0.37516533  0.62578319  1
  O  O373  1  0.11889342  0.88935405  0.11737009  1
  O  O374  1  0.13189316  0.88064356  0.63179737  1
  O  O375  1  0.63938047  0.38150831  0.12131444  1
  O  O376  1  0.60743899  0.36580642  0.63766332  1
  O  O377  1  0.62958262  0.88097741  0.13270138  1
  O  O378  1  0.63389294  0.87075905  0.62376941  1
  O  O379  1  0.12113186  0.25628442  0.25489442  1
  O  O380  1  0.11283496  0.25018342  0.75580500  1
  O  O381  1  0.12520384  0.74968457  0.26638208  1
  O  O382  1  0.12318282  0.75545812  0.75742637  1
  O  O383  1  0.61764183  0.24806338  0.26138188  1
  O  O384  1  0.61791653  0.24715285  0.75636095  1
  O  O385  1  0.61523236  0.75957157  0.24938374  1
  O  O386  1  0.61786358  0.71064954  0.75634005  1
  O  O387  1  0.38070281  0.25360900  0.23663492  1
  O  O388  1  0.37455465  0.24214244  0.73758891  1
  O  O389  1  0.37786940  0.74721424  0.24848468  1
  O  O390  1  0.36169269  0.73874805  0.75182137  1
  O  O391  1  0.88283227  0.24247058  0.25111333  1
  O  O392  1  0.88450339  0.24399433  0.75298840  1
  O  O393  1  0.87210334  0.74339720  0.24138179  1
  O  O394  1  0.89378324  0.75367741  0.75064568  1
  O  O395  1  0.36710374  0.49098057  0.48792896  1
  O  O396  1  0.38644828  0.49146124  1.00654538  1
  O  O397  1  0.38631567  0.99306354  0.49377386  1
  O  O398  1  0.37869775  0.99419681  0.99945634  1
  O  O399  1  0.87648108  0.48892323  0.48431746  1
  O  O400  1  0.88240929  0.49457576  0.99685796  1
  O  O401  1  0.88208883  0.99205991  0.49509246  1
  O  O402  1  0.87450560  0.99633411  1.00382488  1
  O  O403  1  0.13098424  0.01310906  0.00763436  1
  O  O404  1  0.11912725  -0.00082748  0.50449736  1
  O  O405  1  0.11740065  0.51100729  -0.00219220  1
  O  O406  1  0.13035800  0.51153414  0.49882783  1
  O  O407  1  0.61445323  0.00693488  0.00861976  1
  O  O408  1  0.61318935  0.00480032  0.49273200  1
  O  O409  1  0.60863420  0.50870912  0.01160808  1
  O  O410  1  0.61109657  0.52188790  0.47390009  1
  O  O411  1  0.36393108  0.36931092  0.11700567  1
  O  O412  1  0.37096514  0.37149127  0.61820933  1
  O  O413  1  0.37604545  0.87315773  0.11074086  1
  O  O414  1  0.36514456  0.87936169  0.61638557  1
  O  O415  1  0.86344492  0.37458661  0.11724336  1
  O  O416  1  0.88354033  0.37803154  0.60391768  1
  O  O417  1  0.86538567  0.86614995  0.12554160  1
  O  O418  1  0.87446221  0.87335276  0.61978106  1
  O  O419  1  0.13416110  0.13226348  0.37551560  1
  O  O420  1  0.13102443  0.13271767  0.87889368  1
  O  O421  1  0.13177076  0.62988869  0.38087427  1
  O  O422  1  0.13582600  0.62832730  0.88208594  1
  O  O423  1  0.63213445  0.12947701  0.37924304  1
  O  O424  1  0.62885120  0.13920982  0.88394462  1
  O  O425  1  0.63374180  0.63367748  0.37418711  1
  O  O426  1  0.64198216  0.61983322  0.89107557  1
