# generated using pymatgen
data_V85Zn86O256
_symmetry_space_group_name_H-M   'P 1'
_cell_length_a   16.94942953
_cell_length_b   16.92790193
_cell_length_c   16.94381937
_cell_angle_alpha   89.96395479
_cell_angle_beta   89.98787201
_cell_angle_gamma   89.97654275
_symmetry_Int_Tables_number   1
_chemical_formula_structural   V85Zn86O256
_chemical_formula_sum   'V85 Zn86 O256'
_cell_volume   4861.49004871
_cell_formula_units_Z   1
loop_
 _symmetry_equiv_pos_site_id
 _symmetry_equiv_pos_as_xyz
  1  'x, y, z'
loop_
 _atom_site_type_symbol
 _atom_site_label
 _atom_site_symmetry_multiplicity
 _atom_site_fract_x
 _atom_site_fract_y
 _atom_site_fract_z
 _atom_site_occupancy
  V  V0  1  -0.00450413  0.62771346  0.63805270  1
  V  V1  1  0.62186190  0.50368172  0.12188695  1
  V  V2  1  0.62641306  0.87424868  0.24604240  1
  V  V3  1  0.12746806  0.62370927  -0.00067760  1
  V  V4  1  0.74663514  0.74458347  0.50255134  1
  V  V5  1  0.25198691  0.75002837  -0.00076491  1
  V  V6  1  0.49891656  0.36951045  0.37593923  1
  V  V7  1  0.87351883  0.37570075  -0.00738088  1
  V  V8  1  0.51373434  0.25217254  0.75116358  1
  V  V9  1  0.13924610  0.49912670  0.63156714  1
  V  V10  1  0.87796145  0.00068436  0.87983409  1
  V  V11  1  0.31388668  0.31200082  0.67497750  1
  V  V12  1  0.87985605  0.49087919  0.37502286  1
  V  V13  1  0.00225060  0.25449656  0.74818381  1
  V  V14  1  0.62334153  0.00096918  0.62644226  1
  V  V15  1  0.48730511  0.50394066  0.00736774  1
  V  V16  1  0.25507995  0.25019014  0.49899882  1
  V  V17  1  0.25819259  0.11949322  0.87951946  1
  V  V18  1  0.50174308  0.73918952  0.24701452  1
  V  V19  1  0.38347479  0.23422840  0.13051381  1
  V  V20  1  0.49397783  0.74092262  0.75010722  1
  V  V21  1  0.49903030  0.37153765  0.88299538  1
  V  V22  1  0.12047338  0.88548780  0.24556025  1
  V  V23  1  0.00018551  0.74892243  0.25129863  1
  V  V24  1  0.51047451  0.50626815  0.49952680  1
  V  V25  1  0.36952460  0.37788472  0.49985331  1
  V  V26  1  0.87443661  0.75175900  0.12164041  1
  V  V27  1  0.00327938  0.11854289  0.12528943  1
  V  V28  1  0.62157176  0.39630398  0.74470472  1
  V  V29  1  0.74812321  0.00192826  0.75379382  1
  V  V30  1  -0.04737421  0.81827667  0.81557149  1
  V  V31  1  -0.00639849  0.87629733  0.37426957  1
  V  V32  1  0.00064333  0.25444846  0.25439010  1
  V  V33  1  0.37474645  0.88498545  -0.00297467  1
  V  V34  1  0.25071408  0.87286790  0.62338864  1
  V  V35  1  0.74949158  0.87446427  0.62355683  1
  V  V36  1  0.24549753  0.87997539  0.12399604  1
  V  V37  1  0.25891119  0.00104112  0.25627704  1
  V  V38  1  0.76912172  0.50575762  0.74449001  1
  V  V39  1  0.26048905  -0.00116308  0.75384873  1
  V  V40  1  0.24547645  0.62445678  0.36700090  1
  V  V41  1  0.76033959  0.61230304  0.87503172  1
  V  V42  1  0.12588388  0.74873792  0.86990848  1
  V  V43  1  0.12438151  -0.00041442  0.62399410  1
  V  V44  1  0.49514153  0.88224607  0.87378626  1
  V  V45  1  0.12528623  0.25159087  0.87751509  1
  V  V46  1  0.51378180  0.62587885  0.61927574  1
  V  V47  1  0.62059542  0.74417152  0.87688574  1
  V  V48  1  0.12492596  0.25361386  0.37791241  1
  V  V49  1  0.12416511  0.12003271  0.00313473  1
  V  V50  1  0.62084171  0.37226995  0.25102507  1
  V  V51  1  0.38016766  0.74563314  0.12287502  1
  V  V52  1  0.75016668  0.87998816  0.11869549  1
  V  V53  1  0.87631114  0.12034685  0.25400898  1
  V  V54  1  0.74457953  0.14257982  0.87908671  1
  V  V55  1  0.25390290  0.62189583  0.86123903  1
  V  V56  1  0.87319026  0.87631776  0.49821516  1
  V  V57  1  0.37348129  0.87632098  0.49429955  1
  V  V58  1  0.51389275  0.00539881  0.00536895  1
  V  V59  1  0.74724642  0.62255366  0.37933554  1
  V  V60  1  0.37249253  0.74101556  0.62483541  1
  V  V61  1  0.87738130  0.12731858  0.75026248  1
  V  V62  1  0.49182997  0.13042732  0.62584719  1
  V  V63  1  0.00029519  0.62287404  0.12555637  1
  V  V64  1  -0.00199366  0.00178399  0.49461851  1
  V  V65  1  0.12605139  0.87616931  0.75582717  1
  V  V66  1  0.75115756  -0.00195603  0.24970314  1
  V  V67  1  0.75160579  0.49976074  0.25072253  1
  V  V68  1  -0.00209300  0.49709494  -0.00427904  1
  V  V69  1  0.13100274  0.49780866  0.12894359  1
  V  V70  1  0.62430688  0.24601328  0.37325110  1
  V  V71  1  0.26056689  0.37383200  0.12164041  1
  V  V72  1  0.75387966  0.11921077  0.37835003  1
  V  V73  1  0.37027434  0.50182036  0.36811087  1
  V  V74  1  0.75022075  0.36990085  0.12434869  1
  V  V75  1  0.62539498  0.12594077  0.50336620  1
  V  V76  1  0.49696869  0.87604148  0.37074867  1
  V  V77  1  0.00378836  0.49783372  0.49903858  1
  V  V78  1  0.37254619  0.50225999  0.86150235  1
  V  V79  1  0.12971202  0.37608196  0.25158045  1
  V  V80  1  0.62006438  0.87427022  0.74932261  1
  V  V81  1  0.75143586  0.74867665  0.00024874  1
  V  V82  1  0.49718135  -0.00068603  0.49822528  1
  V  V83  1  -0.00129967  -0.01097225  -0.00119685  1
  V  V84  1  0.87439452  0.24952252  0.12087206  1
  Zn  Zn85  1  0.37679066  0.12677325  0.75304796  1
  Zn  Zn86  1  0.62362266  0.61814239  0.00071998  1
  Zn  Zn87  1  0.12370060  0.62906127  0.50133374  1
  Zn  Zn88  1  0.74791552  0.37838920  0.62112372  1
  Zn  Zn89  1  0.87661157  0.37164440  0.50326663  1
  Zn  Zn90  1  0.87167412  0.25537791  0.62516344  1
  Zn  Zn91  1  0.87969384  0.74796076  0.63338169  1
  Zn  Zn92  1  -0.00078929  0.37963910  0.87195457  1
  Zn  Zn93  1  0.63786343  0.16951167  0.00107449  1
  Zn  Zn94  1  0.75419703  0.25260086  0.50442408  1
  Zn  Zn95  1  0.12340453  0.75028262  0.37706018  1
  Zn  Zn96  1  0.25343131  0.24780894  0.00508645  1
  Zn  Zn97  1  0.25414707  0.12011904  0.37907126  1
  Zn  Zn98  1  0.37310093  0.61988567  0.24260931  1
  Zn  Zn99  1  0.12525452  0.12673405  0.50012003  1
  Zn  Zn100  1  0.52342436  0.11738448  0.13820195  1
  Zn  Zn101  1  0.13422363  0.37757459  0.74884382  1
  Zn  Zn102  1  0.39314422  0.12667275  0.26641722  1
  Zn  Zn103  1  -0.00128455  0.12750331  0.62186604  1
  Zn  Zn104  1  0.62393580  0.74444444  0.37807057  1
  Zn  Zn105  1  0.24740618  0.74924255  0.49620116  1
  Zn  Zn106  1  0.87542414  0.62315600  0.25135127  1
  Zn  Zn107  1  0.18839556  0.18698838  0.18752739  1
  Zn  Zn108  1  0.18225358  0.17999967  0.69315326  1
  Zn  Zn109  1  0.18780808  0.69119466  0.18880265  1
  Zn  Zn110  1  0.18226960  0.68665586  0.68459338  1
  Zn  Zn111  1  0.68520017  0.18605689  0.18859341  1
  Zn  Zn112  1  0.68727882  0.18982939  0.68945891  1
  Zn  Zn113  1  0.68828690  0.68538458  0.18970214  1
  Zn  Zn114  1  0.69051201  0.68486155  0.68987449  1
  Zn  Zn115  1  0.31116144  0.31006496  0.30997037  1
  Zn  Zn116  1  0.31880411  0.31000759  0.83798885  1
  Zn  Zn117  1  0.31290219  0.81039310  0.30977288  1
  Zn  Zn118  1  0.31328227  0.81027383  0.81179940  1
  Zn  Zn119  1  0.81082669  0.30950746  0.31391473  1
  Zn  Zn120  1  0.81231684  0.31949999  0.80507142  1
  Zn  Zn121  1  0.81420021  0.80947891  0.31352832  1
  Zn  Zn122  1  0.79337698  0.81307230  0.81598238  1
  Zn  Zn123  1  0.18674630  0.43953759  0.43800831  1
  Zn  Zn124  1  0.19113986  0.43692968  0.94046380  1
  Zn  Zn125  1  0.18250873  0.93233939  0.43524178  1
  Zn  Zn126  1  0.18449753  0.93885775  0.93750129  1
  Zn  Zn127  1  0.69053873  0.43558645  0.43794226  1
  Zn  Zn128  1  0.66367080  0.38290275  0.95634871  1
  Zn  Zn129  1  0.68468377  0.93682676  0.43416953  1
  Zn  Zn130  1  0.68881321  0.93476570  0.93481507  1
  Zn  Zn131  1  0.31366804  0.06011900  0.06647079  1
  Zn  Zn132  1  0.31223927  0.06176205  0.56072212  1
  Zn  Zn133  1  0.30811336  0.56297260  0.06237289  1
  Zn  Zn134  1  0.31474021  0.56605337  0.55295096  1
  Zn  Zn135  1  0.81039291  0.06445623  0.06040445  1
  Zn  Zn136  1  0.81401746  0.06226487  0.56395099  1
  Zn  Zn137  1  0.81109787  0.55949808  0.06160383  1
  Zn  Zn138  1  0.81846878  0.56192527  0.56364392  1
  Zn  Zn139  1  0.43879448  0.43462251  0.18943538  1
  Zn  Zn140  1  0.44510553  0.44575465  0.68673818  1
  Zn  Zn141  1  0.43721162  0.93625537  0.18359953  1
  Zn  Zn142  1  0.43694275  0.93348377  0.68275946  1
  Zn  Zn143  1  0.94025135  0.43628844  0.18649175  1
  Zn  Zn144  1  0.94285255  0.43665670  0.68229968  1
  Zn  Zn145  1  0.93266257  0.93723634  0.18398831  1
  Zn  Zn146  1  0.93279196  0.94455107  0.68048078  1
  Zn  Zn147  1  0.06691500  0.06518824  0.31516939  1
  Zn  Zn148  1  0.06393354  0.06353286  0.81538726  1
  Zn  Zn149  1  0.06245844  0.56035410  0.31256032  1
  Zn  Zn150  1  0.06597981  0.56025658  0.81050143  1
  Zn  Zn151  1  0.56742133  0.05593309  0.31341108  1
  Zn  Zn152  1  0.56324016  0.06654943  0.81724020  1
  Zn  Zn153  1  0.56452738  0.55906521  0.31565278  1
  Zn  Zn154  1  0.55808405  0.56357261  0.81724285  1
  Zn  Zn155  1  0.43351803  0.18733010  0.43749505  1
  Zn  Zn156  1  0.43703949  0.18967381  0.94387572  1
  Zn  Zn157  1  0.43415399  0.68860381  0.43466170  1
  Zn  Zn158  1  0.43633924  0.68364360  0.93990855  1
  Zn  Zn159  1  0.93817926  0.18932278  0.43712489  1
  Zn  Zn160  1  0.93814767  0.18713113  0.93710578  1
  Zn  Zn161  1  0.93419490  0.68234863  0.44106894  1
  Zn  Zn162  1  0.93456802  0.68094109  0.94278142  1
  Zn  Zn163  1  0.06247818  0.31013019  0.06475282  1
  Zn  Zn164  1  0.06539626  0.31834288  0.56556763  1
  Zn  Zn165  1  0.06421990  0.81013019  0.06176464  1
  Zn  Zn166  1  0.06181744  0.80958105  0.56351613  1
  Zn  Zn167  1  0.55060924  0.31539212  0.06740840  1
  Zn  Zn168  1  0.56319735  0.31327688  0.56350397  1
  Zn  Zn169  1  0.56367946  0.81329732  0.06232285  1
  Zn  Zn170  1  0.56229545  0.81064828  0.56110525  1
  O  O171  1  0.11415230  0.12895226  0.11696705  1
  O  O172  1  0.12195349  0.10951132  0.62514799  1
  O  O173  1  0.12355128  0.61768354  0.12091171  1
  O  O174  1  0.11598943  0.61608588  0.62356027  1
  O  O175  1  0.63128475  0.13438417  0.10807055  1
  O  O176  1  0.61593570  0.11943879  0.62353370  1
  O  O177  1  0.63188373  0.60719323  0.12439337  1
  O  O178  1  0.61281005  0.63606123  0.62120090  1
  O  O179  1  0.38083479  0.37900316  0.37977306  1
  O  O180  1  0.38392123  0.39237310  0.87642041  1
  O  O181  1  0.38390198  0.86970843  0.38168167  1
  O  O182  1  0.38433051  0.86759573  0.88403428  1
  O  O183  1  0.87209405  0.38746404  0.37370022  1
  O  O184  1  0.87661462  0.36807247  0.88960680  1
  O  O185  1  0.88581663  0.87434100  0.38015406  1
  O  O186  1  0.88454521  0.87762227  0.86694311  1
  O  O187  1  0.24275504  -0.00385005  0.35951732  1
  O  O188  1  0.24432032  0.00685629  0.86561398  1
  O  O189  1  0.25699622  0.51135822  0.37660851  1
  O  O190  1  0.26368133  0.50601086  0.88044920  1
  O  O191  1  0.74757565  0.01132480  0.36783041  1
  O  O192  1  0.75953879  -0.00048696  0.86992572  1
  O  O193  1  0.75734071  0.50457739  0.36992584  1
  O  O194  1  0.74589733  0.51260298  0.86649139  1
  O  O195  1  0.24423999  0.48721948  0.12359070  1
  O  O196  1  0.23727866  0.51066906  0.61798356  1
  O  O197  1  0.25199617  0.98584020  0.13310972  1
  O  O198  1  0.24254201  0.99337451  0.63178003  1
  O  O199  1  0.74410869  0.48924434  0.13154842  1
  O  O200  1  0.75307774  0.50467158  0.64126087  1
  O  O201  1  0.75837084  0.98639515  0.12937341  1
  O  O202  1  0.74374948  0.99532194  0.63308154  1
  O  O203  1  0.01318667  0.36342554  0.24091429  1
  O  O204  1  0.00609495  0.36792389  0.75454480  1
  O  O205  1  0.00208980  0.87160445  0.25383182  1
  O  O206  1  0.00605866  0.87911250  0.74986167  1
  O  O207  1  0.51250101  0.37814430  0.26044695  1
  O  O208  1  0.50700422  0.37289514  0.75284296  1
  O  O209  1  0.50767754  0.87112360  0.25386359  1
  O  O210  1  0.50199260  0.86672028  0.75637717  1
  O  O211  1  0.50382693  0.11634226  0.24844796  1
  O  O212  1  0.49729021  0.13481937  0.74791278  1
  O  O213  1  0.49914915  0.63638942  0.25620115  1
  O  O214  1  0.50284504  0.63556499  0.74100933  1
  O  O215  1  0.99429129  0.12742593  0.24457235  1
  O  O216  1  0.99239917  0.13118783  0.75082734  1
  O  O217  1  0.99963567  0.63313241  0.24372811  1
  O  O218  1  1.00226829  0.62082824  0.73751153  1
  O  O219  1  0.37060123  0.24277741  0.02193361  1
  O  O220  1  0.36317677  0.25985720  0.50238555  1
  O  O221  1  0.37184905  0.75797488  0.00478639  1
  O  O222  1  0.37391938  0.76081082  0.50602378  1
  O  O223  1  0.88377783  0.25598737  0.01505955  1
  O  O224  1  0.87512919  0.25144862  0.50460726  1
  O  O225  1  0.86084653  0.74583395  0.00596365  1
  O  O226  1  0.86688416  0.76238994  0.50075661  1
  O  O227  1  0.13397637  0.25413591  0.49472037  1
  O  O228  1  0.12360897  0.23781861  0.99434463  1
  O  O229  1  0.12824364  0.74869161  0.49535535  1
  O  O230  1  0.12994350  0.74627418  0.98860287  1
  O  O231  1  0.62589870  0.24403468  0.48986395  1
  O  O232  1  0.61740398  0.27949946  0.98644283  1
  O  O233  1  0.64238254  0.75848149  0.49722479  1
  O  O234  1  0.63183295  0.74549900  0.99412533  1
  O  O235  1  0.48559856  0.24796244  0.13115173  1
  O  O236  1  0.50442167  0.24159565  0.63565163  1
  O  O237  1  0.49197707  0.75549183  0.13291720  1
  O  O238  1  0.49365197  0.74596321  0.63061239  1
  O  O239  1  0.99445013  0.23933927  0.13486415  1
  O  O240  1  1.00469874  0.24734106  0.63776879  1
  O  O241  1  0.99252409  0.74441914  0.12820439  1
  O  O242  1  0.99958922  0.73440669  0.62394770  1
  O  O243  1  0.00791830  0.24577522  0.36209803  1
  O  O244  1  0.00876884  0.24976668  0.86642716  1
  O  O245  1  -0.00346412  0.75561768  0.36613756  1
  O  O246  1  0.00430494  0.75227976  0.87842331  1
  O  O247  1  0.50687581  0.26276904  0.38366961  1
  O  O248  1  0.48197154  0.26313618  0.86413627  1
  O  O249  1  0.50246736  0.75848014  0.36719605  1
  O  O250  1  0.50345353  0.75249820  0.86863817  1
  O  O251  1  0.24622064  0.13542501  0.50298479  1
  O  O252  1  0.24157991  0.11952651  0.99655271  1
  O  O253  1  0.24806339  0.62925619  0.48303596  1
  O  O254  1  0.24329693  0.63207500  0.99301272  1
  O  O255  1  0.74498290  0.12233502  0.49304496  1
  O  O256  1  0.75570766  0.12865483  0.98280529  1
  O  O257  1  0.75782828  0.63357762  0.49427131  1
  O  O258  1  0.74513730  0.62680221  0.99007688  1
  O  O259  1  0.24666501  0.37008546  0.01758817  1
  O  O260  1  0.26238434  0.37093918  0.49720137  1
  O  O261  1  0.25532864  0.87247663  0.00456082  1
  O  O262  1  0.25685211  0.87420415  0.50412578  1
  O  O263  1  0.76136578  0.38061196  0.01368120  1
  O  O264  1  0.75436325  0.37290004  0.50275584  1
  O  O265  1  0.74438776  0.86332275  0.00790470  1
  O  O266  1  0.75720471  0.87300544  0.50261134  1
  O  O267  1  0.11791212  0.49142248  0.23719073  1
  O  O268  1  0.12943124  0.49755233  0.73770619  1
  O  O269  1  0.12796231  0.98864780  0.24961983  1
  O  O270  1  0.13074109  0.99350455  0.74489721  1
  O  O271  1  0.62932342  0.49098557  0.24485068  1
  O  O272  1  0.62146643  0.49734889  0.74572599  1
  O  O273  1  0.64213554  0.98916087  0.25071341  1
  O  O274  1  0.62673204  0.99459674  0.74739219  1
  O  O275  1  0.36059102  -0.00446281  0.24791008  1
  O  O276  1  0.36308299  -0.00279941  0.74640014  1
  O  O277  1  0.38277874  0.50155889  0.26355808  1
  O  O278  1  0.37942666  0.50290291  0.76284099  1
  O  O279  1  0.86450341  0.00756833  0.24726191  1
  O  O280  1  0.87168679  0.00698158  0.75958356  1
  O  O281  1  0.87221293  0.50000603  0.25563603  1
  O  O282  1  0.86653358  0.49546581  0.75414430  1
  O  O283  1  0.13018836  0.36504100  0.36613664  1
  O  O284  1  0.12883835  0.36227571  0.87536537  1
  O  O285  1  0.11036161  0.87138798  0.36497434  1
  O  O286  1  0.12696452  0.86865489  0.86351462  1
  O  O287  1  0.61900412  0.36766305  0.37048632  1
  O  O288  1  0.60670101  0.38601434  0.85782943  1
  O  O289  1  0.62023804  0.86968797  0.36188958  1
  O  O290  1  0.61703325  0.86205946  0.87074680  1
  O  O291  1  0.37924307  0.12869805  0.13229858  1
  O  O292  1  0.38873841  0.11860743  0.62922777  1
  O  O293  1  0.36702208  0.64027538  0.12481165  1
  O  O294  1  0.38383760  0.63811146  0.61503465  1
  O  O295  1  0.87797718  0.13211079  0.13418843  1
  O  O296  1  0.87679346  0.12299620  0.64075132  1
  O  O297  1  0.87862840  0.63493504  0.12566847  1
  O  O298  1  0.88979213  0.62837339  0.62627333  1
  O  O299  1  0.25514732  0.25860787  0.12525542  1
  O  O300  1  0.24918591  0.24963688  0.62283212  1
  O  O301  1  0.25507234  0.76053490  0.11931155  1
  O  O302  1  0.25643701  0.75496906  0.62443059  1
  O  O303  1  0.76046618  0.26240712  0.13531739  1
  O  O304  1  0.75139071  0.25399061  0.62511384  1
  O  O305  1  0.75518644  0.75376976  0.11886022  1
  O  O306  1  0.75526534  0.75489147  0.62104362  1
  O  O307  1  0.24319942  0.25053364  0.38487730  1
  O  O308  1  0.24312447  0.24011953  0.88415383  1
  O  O309  1  0.24778307  0.73901061  0.37223507  1
  O  O310  1  0.24385538  0.74434492  0.88020597  1
  O  O311  1  0.74312736  0.23600460  0.37605932  1
  O  O312  1  0.75381853  0.24077550  0.86817877  1
  O  O313  1  0.75185065  0.74059209  0.38276222  1
  O  O314  1  0.73970375  0.74080504  0.88276138  1
  O  O315  1  0.00479999  0.11938268  0.00770371  1
  O  O316  1  0.00312699  0.11546549  0.50086343  1
  O  O317  1  0.00722145  0.61795622  0.00652822  1
  O  O318  1  0.00198389  0.61455037  0.50702827  1
  O  O319  1  0.50413173  0.10920614  -0.00726102  1
  O  O320  1  0.50506787  0.12187798  0.50870126  1
  O  O321  1  0.50531742  0.60878933  -0.00321930  1
  O  O322  1  0.49782821  0.61430115  0.50074377  1
  O  O323  1  0.49016614  0.38307204  0.49686666  1
  O  O324  1  0.49510491  0.38988248  0.99142092  1
  O  O325  1  0.49390825  0.87627228  0.49120018  1
  O  O326  1  0.49403324  0.88067238  0.99278625  1
  O  O327  1  0.99959891  0.39281640  0.50522493  1
  O  O328  1  0.99323396  0.38085245  1.00162083  1
  O  O329  1  0.99340152  0.87848075  0.49251579  1
  O  O330  1  1.00476988  0.88944586  1.00587397  1
  O  O331  1  0.49483594  0.49115623  0.38369495  1
  O  O332  1  0.48817677  0.49792772  0.88389262  1
  O  O333  1  0.50807740  0.98336471  0.38344755  1
  O  O334  1  0.50363450  0.98664500  0.88067451  1
  O  O335  1  0.99425447  0.50544623  0.38728502  1
  O  O336  1  1.01080412  0.49850458  0.89123344  1
  O  O337  1  1.00555959  0.99293683  0.38645820  1
  O  O338  1  0.99063002  1.00558063  0.88412585  1
  O  O339  1  -0.01001486  0.01215234  0.11708016  1
  O  O340  1  0.00755068  -0.00047515  0.61289425  1
  O  O341  1  0.00824663  0.50485897  0.11694272  1
  O  O342  1  0.00745572  0.51002519  0.61705372  1
  O  O343  1  0.49955032  -0.00142378  0.10903823  1
  O  O344  1  0.50594739  0.00471265  0.61978005  1
  O  O345  1  0.50445226  0.49404846  0.11488936  1
  O  O346  1  0.49529150  0.51116891  0.60877912  1
  O  O347  1  0.23690525  0.37097310  0.23919141  1
  O  O348  1  0.25868704  0.36210529  0.74379027  1
  O  O349  1  0.24156296  0.88095331  0.24403923  1
  O  O350  1  0.24308639  0.88027283  0.74572569  1
  O  O351  1  0.74043640  0.37983949  0.24728383  1
  O  O352  1  0.73716351  0.39376838  0.75524433  1
  O  O353  1  0.74679818  0.87841303  0.24512440  1
  O  O354  1  0.73975174  0.88197255  0.74422566  1
  O  O355  1  0.24410504  0.10493925  0.24709165  1
  O  O356  1  0.25329329  0.11561657  0.75863294  1
  O  O357  1  0.25254644  0.62835311  0.26104381  1
  O  O358  1  0.24756078  0.63164696  0.76265718  1
  O  O359  1  0.75672584  0.11691868  0.25532493  1
  O  O360  1  0.75603960  0.12020818  0.76088675  1
  O  O361  1  0.75392496  0.61702053  0.25696450  1
  O  O362  1  0.74914144  0.61497937  0.76039240  1
  O  O363  1  0.36738954  0.12451926  0.37607644  1
  O  O364  1  0.36159439  0.13022759  0.87439519  1
  O  O365  1  0.36503584  0.61860924  0.37128337  1
  O  O366  1  0.36756557  0.61348252  0.87832235  1
  O  O367  1  0.86876929  0.12902240  0.36167560  1
  O  O368  1  0.86806551  0.11928218  0.86694926  1
  O  O369  1  0.86550611  0.61384453  0.37301059  1
  O  O370  1  0.85918604  0.62586726  0.87790170  1
  O  O371  1  0.13311437  0.37993025  0.13012973  1
  O  O372  1  0.12734310  0.39354960  0.62750150  1
  O  O373  1  0.13342313  0.86914938  0.13305767  1
  O  O374  1  0.12802692  0.88187889  0.63551774  1
  O  O375  1  0.63058196  0.37931177  0.13518622  1
  O  O376  1  0.62423810  0.37487405  0.64173678  1
  O  O377  1  0.63607629  0.86785063  0.13693355  1
  O  O378  1  0.62879895  0.88024766  0.62962568  1
  O  O379  1  0.11983198  0.25508949  0.25629440  1
  O  O380  1  0.12038544  0.25149477  0.75950191  1
  O  O381  1  0.11092781  0.75948703  0.24831454  1
  O  O382  1  0.12636733  0.75816611  0.76144537  1
  O  O383  1  0.63045204  0.25698608  0.26518889  1
  O  O384  1  0.61526348  0.25812425  0.75470993  1
  O  O385  1  0.61829078  0.75489210  0.25095442  1
  O  O386  1  0.61799361  0.75481247  0.75767687  1
  O  O387  1  0.36452538  0.24229415  0.23631562  1
  O  O388  1  0.37427327  0.25617152  0.73961665  1
  O  O389  1  0.38503375  0.75097957  0.23990339  1
  O  O390  1  0.38419417  0.75520829  0.73927219  1
  O  O391  1  0.88318679  0.24496553  0.24324324  1
  O  O392  1  0.88474575  0.24378958  0.75123539  1
  O  O393  1  0.88588448  0.74865435  0.24190805  1
  O  O394  1  0.88655543  0.76471136  0.75913199  1
  O  O395  1  0.38192446  0.49409425  0.48782962  1
  O  O396  1  0.38518563  0.50467593  0.99862182  1
  O  O397  1  0.38158330  0.98474659  0.50718997  1
  O  O398  1  0.38213380  0.98801180  1.00205233  1
  O  O399  1  0.88695827  0.49931982  0.49253804  1
  O  O400  1  0.88642957  0.48927296  1.00855699  1
  O  O401  1  0.88348392  0.98697220  0.50532821  1
  O  O402  1  0.88108070  1.00339999  0.98758033  1
  O  O403  1  0.11491686  0.01227759  -0.00628941  1
  O  O404  1  0.11808799  -0.00269407  0.50834176  1
  O  O405  1  0.12148992  0.50276267  0.01170537  1
  O  O406  1  0.11687242  0.50338236  0.50600226  1
  O  O407  1  0.61199797  -0.00887270  -0.00164786  1
  O  O408  1  0.61860908  0.00533151  0.50596765  1
  O  O409  1  0.61482942  0.49149064  0.00951311  1
  O  O410  1  0.60848185  0.49577362  0.49387723  1
  O  O411  1  0.36274017  0.36767143  0.13479163  1
  O  O412  1  0.37286187  0.37889120  0.62039657  1
  O  O413  1  0.36767189  0.86584518  0.11604129  1
  O  O414  1  0.36996497  0.86426936  0.61688387  1
  O  O415  1  0.86862430  0.36785141  0.12152294  1
  O  O416  1  0.86966709  0.37411723  0.62500485  1
  O  O417  1  0.86605619  0.85988663  0.12746986  1
  O  O418  1  0.86760899  0.87166794  0.61785998  1
  O  O419  1  0.13117903  0.13932815  0.37718649  1
  O  O420  1  0.13368046  0.13402913  0.88115541  1
  O  O421  1  0.13532689  0.62603278  0.37273191  1
  O  O422  1  0.13134577  0.63107480  0.87910848  1
  O  O423  1  0.63244965  0.12991211  0.38168996  1
  O  O424  1  0.64149440  0.12524399  0.87913214  1
  O  O425  1  0.64147932  0.62432667  0.37203215  1
  O  O426  1  0.63001303  0.63456422  0.87542067  1
