# generated using pymatgen
data_V85Zn86O256
_symmetry_space_group_name_H-M   'P 1'
_cell_length_a   16.94119963
_cell_length_b   16.93206040
_cell_length_c   16.94117355
_cell_angle_alpha   90.02392694
_cell_angle_beta   89.97838598
_cell_angle_gamma   90.06574629
_symmetry_Int_Tables_number   1
_chemical_formula_structural   V85Zn86O256
_chemical_formula_sum   'V85 Zn86 O256'
_cell_volume   4859.56176035
_cell_formula_units_Z   1
loop_
 _symmetry_equiv_pos_site_id
 _symmetry_equiv_pos_as_xyz
  1  'x, y, z'
loop_
 _atom_site_type_symbol
 _atom_site_label
 _atom_site_symmetry_multiplicity
 _atom_site_fract_x
 _atom_site_fract_y
 _atom_site_fract_z
 _atom_site_occupancy
  V  V0  1  0.36553477  0.49679583  0.87008549  1
  V  V1  1  0.87925183  0.87512047  0.00054214  1
  V  V2  1  0.01705151  0.87473973  0.37238730  1
  V  V3  1  -0.00229799  0.38659855  0.88570421  1
  V  V4  1  -0.00302305  0.62335922  0.12889919  1
  V  V5  1  0.37404860  0.75346764  0.62742097  1
  V  V6  1  0.24340282  0.00246298  0.75454476  1
  V  V7  1  0.80807188  0.44426226  0.69205229  1
  V  V8  1  0.87410516  0.38552934  0.00376148  1
  V  V9  1  0.00301600  0.25256231  0.75574935  1
  V  V10  1  -0.01956268  0.38154204  0.37905167  1
  V  V11  1  0.62901940  0.38201736  0.74876718  1
  V  V12  1  0.37443474  0.00469080  0.37878741  1
  V  V13  1  0.24132029  0.13117481  0.38187492  1
  V  V14  1  0.36933342  0.36975118  0.49669340  1
  V  V15  1  0.75069827  0.12352226  0.87514919  1
  V  V16  1  0.12790060  0.75854613  0.87361969  1
  V  V17  1  0.50265686  0.24804188  0.73930697  1
  V  V18  1  -0.01146944  0.50351132  0.49349515  1
  V  V19  1  0.50143942  0.49859656  0.49832954  1
  V  V20  1  0.75310872  0.61151807  0.87432447  1
  V  V21  1  0.87269842  0.75234970  0.62982274  1
  V  V22  1  0.74273397  0.86942147  0.62458770  1
  V  V23  1  0.12018964  0.62084647  -0.00139206  1
  V  V24  1  0.12257261  0.37538198  0.25936379  1
  V  V25  1  0.49633330  0.74880341  0.23213655  1
  V  V26  1  0.74709158  -0.00992729  0.25596813  1
  V  V27  1  0.62571804  0.12273992  0.00082999  1
  V  V28  1  0.87033071  0.25170630  0.12623878  1
  V  V29  1  0.75979039  0.51529308  0.25969852  1
  V  V30  1  0.62585891  0.49832048  0.62728637  1
  V  V31  1  0.25013827  0.86748444  0.12665924  1
  V  V32  1  0.02034242  0.75373698  0.25138888  1
  V  V33  1  0.37244264  0.13468044  0.24758869  1
  V  V34  1  0.00758478  0.63009327  0.62025956  1
  V  V35  1  0.75336697  0.74629242  -0.00139370  1
  V  V36  1  0.62460709  0.62913553  0.49580373  1
  V  V37  1  0.63391369  0.37475888  0.24418813  1
  V  V38  1  0.49930769  0.37481169  0.37215557  1
  V  V39  1  0.87843391  0.87724988  0.49853546  1
  V  V40  1  0.50477198  0.75442134  0.74919196  1
  V  V41  1  -0.00012369  0.12319280  0.12540954  1
  V  V42  1  0.87444508  0.12692539  0.74596164  1
  V  V43  1  0.87423065  0.62601581  0.75552326  1
  V  V44  1  0.62410600  -0.00739792  0.12932056  1
  V  V45  1  0.77804833  0.73346884  0.46274906  1
  V  V46  1  0.12351030  -0.00113359  0.62904623  1
  V  V47  1  0.49862748  0.50507563  0.00639109  1
  V  V48  1  0.37892739  0.12429225  0.74300473  1
  V  V49  1  0.62430616  0.12393373  0.50568340  1
  V  V50  1  0.37673523  0.62366552  0.22828369  1
  V  V51  1  0.61728871  0.74673243  0.36701800  1
  V  V52  1  0.49832698  -0.00219126  0.50334521  1
  V  V53  1  0.24700281  0.50314246  0.25626423  1
  V  V54  1  0.87606452  0.00038310  0.87588426  1
  V  V55  1  -0.00527028  0.25053894  0.25519218  1
  V  V56  1  0.32045120  0.82337621  0.45823410  1
  V  V57  1  0.00336974  0.00577363  0.50029128  1
  V  V58  1  0.75315634  0.26303660  0.50786821  1
  V  V59  1  0.87640567  0.74840911  0.13264308  1
  V  V60  1  0.37852702  0.86962561  0.00168020  1
  V  V61  1  0.25016375  0.37992016  0.63349251  1
  V  V62  1  0.24473467  -0.00324071  0.25233454  1
  V  V63  1  0.62977009  0.75391229  0.86958702  1
  V  V64  1  0.12988770  0.24959647  0.88752272  1
  V  V65  1  0.62948553  0.50483566  0.12651494  1
  V  V66  1  0.74957251  0.25316584  0.00577416  1
  V  V67  1  0.25544630  0.74477049  0.00076071  1
  V  V68  1  0.50366846  0.87586891  0.36916038  1
  V  V69  1  0.37173340  0.51013520  0.37576979  1
  V  V70  1  0.00848237  0.13416820  0.62066050  1
  V  V71  1  0.62191826  -0.00066203  0.62914170  1
  V  V72  1  0.13897336  0.63305357  0.48127517  1
  V  V73  1  0.74810641  -0.00493883  0.74798104  1
  V  V74  1  0.00616273  0.75896635  0.75107275  1
  V  V75  1  0.36904146  0.62080434  0.74819329  1
  V  V76  1  0.11997665  0.49712462  0.12404385  1
  V  V77  1  0.37799478  -0.00219090  0.87345234  1
  V  V78  1  0.24868650  0.87280291  0.63354099  1
  V  V79  1  0.49725769  0.12879289  0.12285641  1
  V  V80  1  0.37177515  0.36861852  0.00832142  1
  V  V81  1  0.62642367  0.25064961  0.87349232  1
  V  V82  1  0.62461897  0.24806808  0.37482619  1
  V  V83  1  0.49987708  0.37753977  0.87388586  1
  V  V84  1  0.12213236  -0.00825229  0.12693410  1
  Zn  Zn85  1  0.13266756  0.50482187  0.62252236  1
  Zn  Zn86  1  0.11257059  0.24755123  0.38752364  1
  Zn  Zn87  1  0.23301922  0.24674792  0.51064885  1
  Zn  Zn88  1  0.50661409  0.87482734  0.87240888  1
  Zn  Zn89  1  0.74731705  0.87019457  0.12906948  1
  Zn  Zn90  1  0.00539168  0.88131531  0.87105073  1
  Zn  Zn91  1  0.13843822  0.12613521  0.00844521  1
  Zn  Zn92  1  0.37557140  0.24641223  0.62118338  1
  Zn  Zn93  1  0.24536542  0.61979706  0.86921915  1
  Zn  Zn94  1  0.50338314  -0.00368309  -0.00075107  1
  Zn  Zn95  1  0.50033068  0.62525645  0.62609426  1
  Zn  Zn96  1  0.00306944  0.00163484  -0.00148513  1
  Zn  Zn97  1  0.87341973  0.26597143  0.62581565  1
  Zn  Zn98  1  0.75117615  0.12270599  0.37721817  1
  Zn  Zn99  1  0.25636329  0.13179205  0.88286403  1
  Zn  Zn100  1  0.13534042  0.38187525  0.75925646  1
  Zn  Zn101  1  0.87037914  0.12244214  0.25372695  1
  Zn  Zn102  1  0.61988326  0.62736906  0.00049747  1
  Zn  Zn103  1  0.30977168  0.20796848  0.06351632  1
  Zn  Zn104  1  0.24787722  0.36743065  0.12917855  1
  Zn  Zn105  1  0.87648761  0.00092790  0.37428044  1
  Zn  Zn106  1  0.49951716  0.25278589  0.24384772  1
  Zn  Zn107  1  0.17987648  0.18560006  0.19637267  1
  Zn  Zn108  1  0.18937428  0.19233008  0.69285938  1
  Zn  Zn109  1  0.19103796  0.68182522  0.18614897  1
  Zn  Zn110  1  0.18947155  0.69036257  0.68674253  1
  Zn  Zn111  1  0.68757502  0.18045610  0.19011430  1
  Zn  Zn112  1  0.68694578  0.18703980  0.68495783  1
  Zn  Zn113  1  0.68398531  0.68604412  0.18658971  1
  Zn  Zn114  1  0.68906817  0.68216726  0.68808518  1
  Zn  Zn115  1  0.30918179  0.31314123  0.31176638  1
  Zn  Zn116  1  0.31537429  0.31045984  0.81278773  1
  Zn  Zn117  1  0.31393706  0.80626934  0.29533942  1
  Zn  Zn118  1  0.31276308  0.81181686  0.81308039  1
  Zn  Zn119  1  0.80643486  0.31281976  0.31394038  1
  Zn  Zn120  1  0.81868680  0.30946123  0.82102913  1
  Zn  Zn121  1  0.81998500  0.80578963  0.31445130  1
  Zn  Zn122  1  0.81204238  0.81343683  0.81327372  1
  Zn  Zn123  1  0.18252852  0.44236697  0.44192189  1
  Zn  Zn124  1  0.18784655  0.43415045  0.94261438  1
  Zn  Zn125  1  0.18410204  0.94912018  0.44304146  1
  Zn  Zn126  1  0.18994995  0.93865142  0.94189593  1
  Zn  Zn127  1  0.68896187  0.44034654  0.43247909  1
  Zn  Zn128  1  0.68727873  0.43523100  0.94212673  1
  Zn  Zn129  1  0.68714219  0.92888533  0.43977965  1
  Zn  Zn130  1  0.69063921  0.93432964  0.94060196  1
  Zn  Zn131  1  0.31388126  0.04685643  0.06279972  1
  Zn  Zn132  1  0.31247638  0.06133752  0.56332715  1
  Zn  Zn133  1  0.30466267  0.55187980  0.05919320  1
  Zn  Zn134  1  0.31275631  0.56253717  0.56112824  1
  Zn  Zn135  1  0.81121487  0.06211774  0.06755152  1
  Zn  Zn136  1  0.81171845  0.06570637  0.56219542  1
  Zn  Zn137  1  0.80778797  0.56466868  0.07147323  1
  Zn  Zn138  1  0.81540082  0.57133292  0.55822452  1
  Zn  Zn139  1  0.44208028  0.43943852  0.18801933  1
  Zn  Zn140  1  0.43810951  0.43616420  0.68499348  1
  Zn  Zn141  1  0.43415745  0.94023730  0.18777870  1
  Zn  Zn142  1  0.43646368  0.93447620  0.68715282  1
  Zn  Zn143  1  0.93434368  0.43678955  0.18834958  1
  Zn  Zn144  1  0.98196468  0.45563152  0.70427898  1
  Zn  Zn145  1  0.93438426  0.93323912  0.19098918  1
  Zn  Zn146  1  0.93534976  0.93933659  0.68656566  1
  Zn  Zn147  1  0.06077046  0.06034346  0.31028762  1
  Zn  Zn148  1  0.06363929  0.06852065  0.81583942  1
  Zn  Zn149  1  0.06026766  0.56708263  0.31308563  1
  Zn  Zn150  1  0.06381548  0.56765154  0.81097422  1
  Zn  Zn151  1  0.56323872  0.06364770  0.31055455  1
  Zn  Zn152  1  0.56195289  0.06249816  0.81027571  1
  Zn  Zn153  1  0.56034549  0.56402794  0.30807060  1
  Zn  Zn154  1  0.56040163  0.56686554  0.81301278  1
  Zn  Zn155  1  0.43985380  0.18536520  0.43765050  1
  Zn  Zn156  1  0.44363110  0.18509315  0.93004431  1
  Zn  Zn157  1  0.44335068  0.68267814  0.43388331  1
  Zn  Zn158  1  0.43702265  0.68506099  0.93259725  1
  Zn  Zn159  1  0.92942431  0.18908849  0.43932672  1
  Zn  Zn160  1  0.93896614  0.18848113  0.94087640  1
  Zn  Zn161  1  0.94929512  0.69160035  0.43351588  1
  Zn  Zn162  1  0.93996211  0.68631895  0.93792323  1
  Zn  Zn163  1  0.06003438  0.31273924  0.06695598  1
  Zn  Zn164  1  0.06239567  0.31863075  0.56100005  1
  Zn  Zn165  1  0.06403509  0.81054378  0.06008544  1
  Zn  Zn166  1  0.06777221  0.81360557  0.56033653  1
  Zn  Zn167  1  0.56193529  0.31520524  0.06286123  1
  Zn  Zn168  1  0.56597605  0.31685295  0.56084377  1
  Zn  Zn169  1  0.56580424  0.81180464  0.05701242  1
  Zn  Zn170  1  0.55740662  0.81377841  0.55783554  1
  O  O171  1  0.11699053  0.11293581  0.12844777  1
  O  O172  1  0.11384736  0.11770415  0.63660748  1
  O  O173  1  0.11802839  0.61748774  0.11929863  1
  O  O174  1  0.11384131  0.62664080  0.62702674  1
  O  O175  1  0.61827758  0.11394463  0.12020506  1
  O  O176  1  0.62656809  0.11425304  0.61585686  1
  O  O177  1  0.62421200  0.60999228  0.11988135  1
  O  O178  1  0.62528661  0.61432911  0.61792272  1
  O  O179  1  0.37915811  0.38088160  0.37939417  1
  O  O180  1  0.38232479  0.37921887  0.88117542  1
  O  O181  1  0.37609909  0.88022215  0.38433959  1
  O  O182  1  0.37565671  0.88009829  0.88401329  1
  O  O183  1  0.88150214  0.37568210  0.37337942  1
  O  O184  1  0.88881587  0.37038712  0.88867219  1
  O  O185  1  0.88536988  0.87556021  0.38876619  1
  O  O186  1  0.87671809  0.88218198  0.88266660  1
  O  O187  1  0.25512521  0.00750265  0.37107556  1
  O  O188  1  0.26085090  -0.00060419  0.86938967  1
  O  O189  1  0.25711875  0.49336955  0.36404192  1
  O  O190  1  0.26149161  0.49718367  0.87722248  1
  O  O191  1  0.74811136  -0.00520865  0.36635516  1
  O  O192  1  0.75496531  0.00436008  0.86909322  1
  O  O193  1  0.74550832  0.50417728  0.35960791  1
  O  O194  1  0.74546983  0.51227406  0.88040650  1
  O  O195  1  0.23757954  0.49318420  0.13674180  1
  O  O196  1  0.25172001  0.48515566  0.62222983  1
  O  O197  1  0.24259884  0.99026770  0.13374041  1
  O  O198  1  0.24294875  0.99781909  0.63336702  1
  O  O199  1  0.73462355  0.49909817  0.13340621  1
  O  O200  1  0.74961868  0.50090215  0.62621801  1
  O  O201  1  0.74202057  0.99795191  0.13630473  1
  O  O202  1  0.74276393  0.99149160  0.62629254  1
  O  O203  1  0.00230165  0.37019166  0.25923528  1
  O  O204  1  -0.00581000  0.36143961  0.76917905  1
  O  O205  1  0.00103172  0.86500355  0.25795341  1
  O  O206  1  -0.00520486  0.86298450  0.75035638  1
  O  O207  1  0.50774649  0.37251009  0.25649092  1
  O  O208  1  0.50556325  0.36936192  0.75719596  1
  O  O209  1  0.48145694  0.86291238  0.25921950  1
  O  O210  1  0.49485188  0.85931880  0.75326201  1
  O  O211  1  0.48995030  0.12507778  0.24196292  1
  O  O212  1  0.49373423  0.13670349  0.75449802  1
  O  O213  1  0.48361602  0.63049406  0.24963726  1
  O  O214  1  0.48859099  0.63504634  0.74793542  1
  O  O215  1  0.99700136  0.13266269  0.24316835  1
  O  O216  1  0.99409940  0.13675983  0.74683775  1
  O  O217  1  1.00455706  0.64136432  0.24247800  1
  O  O218  1  0.99101565  0.63542017  0.74249476  1
  O  O219  1  0.38336406  0.26391448  -0.00632171  1
  O  O220  1  0.37639393  0.26126919  0.49919094  1
  O  O221  1  0.36370847  0.75293731  -0.00687769  1
  O  O222  1  0.38237836  0.75422384  0.50627813  1
  O  O223  1  0.86712111  0.25329115  0.00789110  1
  O  O224  1  0.85837634  0.25194508  0.50645626  1
  O  O225  1  0.87201911  0.75568745  0.00657816  1
  O  O226  1  0.88132083  0.75895235  0.51670089  1
  O  O227  1  0.12026321  0.24613255  0.49967676  1
  O  O228  1  0.12195414  0.24878036  0.99143859  1
  O  O229  1  0.11950789  0.73168966  0.50357765  1
  O  O230  1  0.13532936  0.74225668  0.99397774  1
  O  O231  1  0.62867777  0.24193916  0.49641066  1
  O  O232  1  0.63180721  0.24606697  0.99523962  1
  O  O233  1  0.61838054  0.73823464  0.49161732  1
  O  O234  1  0.63674625  0.74628680  0.99347264  1
  O  O235  1  0.50700708  0.23375266  0.12481690  1
  O  O236  1  0.49934904  0.25715759  0.63614668  1
  O  O237  1  0.50259886  0.75423940  0.13288882  1
  O  O238  1  0.49307079  0.74954159  0.63077060  1
  O  O239  1  0.99453168  0.24207553  0.13513795  1
  O  O240  1  0.99621468  0.24864020  0.63512738  1
  O  O241  1  0.99824187  0.74579109  0.13256632  1
  O  O242  1  0.99466107  0.74865934  0.63170341  1
  O  O243  1  -0.00647298  0.25886794  0.37022875  1
  O  O244  1  0.01072788  0.25282752  0.87320258  1
  O  O245  1  0.00677930  0.75836975  0.35901880  1
  O  O246  1  0.00889934  0.75157190  0.86729788  1
  O  O247  1  0.51163165  0.25423072  0.37397480  1
  O  O248  1  0.50798320  0.26114478  0.86714065  1
  O  O249  1  0.50242923  0.75723339  0.36657476  1
  O  O250  1  0.51108953  0.74818290  0.86759572  1
  O  O251  1  0.25616653  0.12640349  0.48526246  1
  O  O252  1  0.25702160  0.12590667  1.00119944  1
  O  O253  1  0.23769974  0.62273889  0.50161314  1
  O  O254  1  0.24073374  0.62973194  0.99948861  1
  O  O255  1  0.73899320  0.13159523  0.49897231  1
  O  O256  1  0.74620416  0.13305716  0.99591865  1
  O  O257  1  0.74213191  0.64008588  0.50298811  1
  O  O258  1  0.75310882  0.63440068  0.99337151  1
  O  O259  1  0.26728074  0.37644976  0.00530321  1
  O  O260  1  0.25574063  0.37207653  0.50589049  1
  O  O261  1  0.25713223  0.86560259  0.00621239  1
  O  O262  1  0.25597654  0.88561719  0.51251268  1
  O  O263  1  0.75739958  0.36013843  -0.00543974  1
  O  O264  1  0.73985705  0.36120640  0.49920891  1
  O  O265  1  0.76170352  0.86261217  0.00115501  1
  O  O266  1  0.76183288  0.85850520  0.50229804  1
  O  O267  1  0.13077399  0.49604846  0.24800029  1
  O  O268  1  0.09580369  0.48920058  0.73574566  1
  O  O269  1  0.13727692  1.00090121  0.24447075  1
  O  O270  1  0.13622785  1.00463776  0.74856086  1
  O  O271  1  0.62656191  0.49536252  0.24050102  1
  O  O272  1  0.61999489  0.49621810  0.74080151  1
  O  O273  1  0.63519992  1.00031740  0.24374736  1
  O  O274  1  0.62875933  1.00303065  0.73613622  1
  O  O275  1  0.36577883  0.00752978  0.26066939  1
  O  O276  1  0.36893721  0.00441608  0.75488171  1
  O  O277  1  0.36932324  0.50664964  0.25419760  1
  O  O278  1  0.38398428  0.50720621  0.75867006  1
  O  O279  1  0.86136782  -0.00053173  0.25139235  1
  O  O280  1  0.86994697  0.00799390  0.75504690  1
  O  O281  1  0.85813733  0.49870525  0.24321416  1
  O  O282  1  0.87623201  0.50629412  0.74208619  1
  O  O283  1  0.11538057  0.37702600  0.36715487  1
  O  O284  1  0.11614850  0.36723549  0.87970453  1
  O  O285  1  0.11615119  0.88075866  0.38252242  1
  O  O286  1  0.12461839  0.86295782  0.88227542  1
  O  O287  1  0.61795460  0.36826600  0.36838039  1
  O  O288  1  0.61881579  0.37196881  0.86936959  1
  O  O289  1  0.60720220  0.87189394  0.37577633  1
  O  O290  1  0.62808208  0.85951036  0.87793189  1
  O  O291  1  0.37988940  0.12167744  0.13035875  1
  O  O292  1  0.37333724  0.12516052  0.63799707  1
  O  O293  1  0.37396407  0.61410530  0.13026813  1
  O  O294  1  0.37522941  0.63621230  0.62856096  1
  O  O295  1  0.88136664  0.13445757  0.12889651  1
  O  O296  1  0.88404305  0.12423921  0.63718060  1
  O  O297  1  0.89002430  0.63268732  0.11674040  1
  O  O298  1  0.88398548  0.63639068  0.63078781  1
  O  O299  1  0.24615648  0.25471131  0.13965000  1
  O  O300  1  0.25553402  0.26048543  0.62584528  1
  O  O301  1  0.24569770  0.75897006  0.11691120  1
  O  O302  1  0.25668370  0.76207284  0.62758060  1
  O  O303  1  0.75709840  0.24310289  0.11799670  1
  O  O304  1  0.75036279  0.25051966  0.61325506  1
  O  O305  1  0.75794798  0.74792924  0.11745243  1
  O  O306  1  0.76031698  0.75537933  0.62895195  1
  O  O307  1  0.24666504  0.23671122  0.37461260  1
  O  O308  1  0.23421257  0.25321754  0.87235193  1
  O  O309  1  0.26530039  0.77094739  0.39550950  1
  O  O310  1  0.24388821  0.74611822  0.88158534  1
  O  O311  1  0.73822249  0.24938632  0.38554867  1
  O  O312  1  0.74496602  0.24220495  0.88198272  1
  O  O313  1  0.72168996  0.77346091  0.37294372  1
  O  O314  1  0.74744343  0.74284906  0.88058769  1
  O  O315  1  -0.00008133  0.12389472  0.01661628  1
  O  O316  1  -0.00981834  0.11941921  0.51307731  1
  O  O317  1  0.01367596  0.63122832  0.00936413  1
  O  O318  1  0.00570401  0.62178028  0.50264787  1
  O  O319  1  0.50642466  0.12054882  0.00469711  1
  O  O320  1  0.51071901  0.11065158  0.49375541  1
  O  O321  1  0.50040322  0.60870413  -0.00911230  1
  O  O322  1  0.50755375  0.61648611  0.50327361  1
  O  O323  1  0.49373375  0.38017937  0.49242469  1
  O  O324  1  0.49305630  0.38209937  0.99236900  1
  O  O325  1  0.50003838  0.88896665  0.48864494  1
  O  O326  1  0.49174071  0.87436574  0.99495517  1
  O  O327  1  1.00165260  0.39448855  0.49422042  1
  O  O328  1  0.99195654  0.37108692  0.99259027  1
  O  O329  1  0.99632478  0.88364653  0.49680685  1
  O  O330  1  0.98943823  0.87589067  0.99750050  1
  O  O331  1  0.49230619  0.49414197  0.37823744  1
  O  O332  1  0.49525530  0.48957265  0.88012860  1
  O  O333  1  0.49136415  0.99366877  0.37524278  1
  O  O334  1  0.49004052  0.99542584  0.87241165  1
  O  O335  1  1.00035936  0.49774332  0.38434125  1
  O  O336  1  1.00375291  0.48486994  0.87593087  1
  O  O337  1  0.99986056  0.99517918  0.38389930  1
  O  O338  1  0.99238891  1.00094077  0.87677892  1
  O  O339  1  0.00647937  0.00425066  0.12879325  1
  O  O340  1  0.00704283  0.00708625  0.62249042  1
  O  O341  1  0.01062034  0.50929401  0.13598738  1
  O  O342  1  -0.00164888  0.51550716  0.60806019  1
  O  O343  1  0.50643796  0.00854767  0.12519760  1
  O  O344  1  0.50852203  -0.00934116  0.61624621  1
  O  O345  1  0.51092723  0.49698242  0.11622730  1
  O  O346  1  0.50899386  0.50069407  0.61626156  1
  O  O347  1  0.23882549  0.38268196  0.25203930  1
  O  O348  1  0.25348265  0.37457123  0.73823247  1
  O  O349  1  0.25714238  0.88332342  0.23851621  1
  O  O350  1  0.25508289  0.88550254  0.74101551  1
  O  O351  1  0.73638728  0.38252577  0.25373271  1
  O  O352  1  0.75249845  0.38215386  0.75515197  1
  O  O353  1  0.75507318  0.88565828  0.24792958  1
  O  O354  1  0.75663434  0.88220404  0.73699093  1
  O  O355  1  0.25592654  0.11650465  0.25966654  1
  O  O356  1  0.25897198  0.11807695  0.75594307  1
  O  O357  1  0.26384551  0.61674726  0.24644667  1
  O  O358  1  0.26358177  0.62664238  0.74966175  1
  O  O359  1  0.74985202  0.10939669  0.25520014  1
  O  O360  1  0.75750918  0.11906892  0.75287012  1
  O  O361  1  0.74950378  0.61491222  0.24627360  1
  O  O362  1  0.76525237  0.62787447  0.75736669  1
  O  O363  1  0.36775946  0.11988842  0.36790062  1
  O  O364  1  0.37623741  0.11544822  0.86510569  1
  O  O365  1  0.37637689  0.61195801  0.37178318  1
  O  O366  1  0.37189900  0.61393625  0.86654403  1
  O  O367  1  0.86974991  0.11911775  0.37308075  1
  O  O368  1  0.87136458  0.12160619  0.86642156  1
  O  O369  1  0.84559187  0.70031280  0.38674173  1
  O  O370  1  0.86991461  0.62824893  0.86653365  1
  O  O371  1  0.11867080  0.38206782  0.13949615  1
  O  O372  1  0.14046231  0.37709645  0.62719531  1
  O  O373  1  0.13347600  0.88450671  0.11881325  1
  O  O374  1  0.13275878  0.88955547  0.62293406  1
  O  O375  1  0.61953779  0.38516822  0.13414587  1
  O  O376  1  0.62578207  0.38958240  0.62957327  1
  O  O377  1  0.62734114  0.88850784  0.11817395  1
  O  O378  1  0.63757189  0.87932893  0.61455489  1
  O  O379  1  0.10868321  0.25766347  0.25895998  1
  O  O380  1  0.11729024  0.25561405  0.76239108  1
  O  O381  1  0.11889438  0.75333699  0.24202720  1
  O  O382  1  0.11767475  0.74531643  0.76021217  1
  O  O383  1  0.62603561  0.25596487  0.25738290  1
  O  O384  1  0.62158097  0.25780900  0.75318081  1
  O  O385  1  0.60924459  0.74228579  0.25442787  1
  O  O386  1  0.61750346  0.74261550  0.75612657  1
  O  O387  1  0.37800378  0.23815975  0.25513449  1
  O  O388  1  0.38557741  0.24192860  0.75080042  1
  O  O389  1  0.37929769  0.73146774  0.24458125  1
  O  O390  1  0.38043461  0.74298556  0.74433921  1
  O  O391  1  0.87987074  0.25061909  0.24468151  1
  O  O392  1  0.88043424  0.24223644  0.74837194  1
  O  O393  1  0.88607098  0.75622869  0.23405100  1
  O  O394  1  0.88223548  0.74512979  0.74520161  1
  O  O395  1  0.37847366  0.49024709  0.49210596  1
  O  O396  1  0.38117506  0.48932098  0.99251384  1
  O  O397  1  0.38281148  1.00687965  0.48816030  1
  O  O398  1  0.37932462  0.98865740  0.98935500  1
  O  O399  1  0.88888614  0.51293003  0.49461904  1
  O  O400  1  0.86593066  0.48428652  1.01314625  1
  O  O401  1  0.88482645  0.99270487  0.50372139  1
  O  O402  1  0.87423850  0.99207998  0.99638778  1
  O  O403  1  0.12355107  0.00397725  0.01106730  1
  O  O404  1  0.11159103  0.00567506  0.51212010  1
  O  O405  1  0.13002787  0.50678698  0.01171088  1
  O  O406  1  0.11552679  0.51608214  0.50189454  1
  O  O407  1  0.62630405  0.00567320  0.00655679  1
  O  O408  1  0.62145886  0.00411301  0.50788987  1
  O  O409  1  0.61834233  0.49752365  0.01149635  1
  O  O410  1  0.62460689  0.51058462  0.50421026  1
  O  O411  1  0.37936205  0.37762000  0.11083736  1
  O  O412  1  0.36622122  0.37400181  0.61569721  1
  O  O413  1  0.36521309  0.88188569  0.11041749  1
  O  O414  1  0.36765529  0.86251106  0.62624351  1
  O  O415  1  0.88296378  0.35890576  0.11828663  1
  O  O416  1  0.87144526  0.38614890  0.64087672  1
  O  O417  1  0.87319087  0.86680790  0.11593587  1
  O  O418  1  0.86705874  0.87206147  0.61718637  1
  O  O419  1  0.13914294  0.12355193  0.36986344  1
  O  O420  1  0.12908592  0.13811903  0.88218379  1
  O  O421  1  0.12987616  0.62716353  0.38095908  1
  O  O422  1  0.12607891  0.63151372  0.88271223  1
  O  O423  1  0.62564566  0.13237041  0.38302496  1
  O  O424  1  0.63068131  0.12954246  0.87976827  1
  O  O425  1  0.61714979  0.63413803  0.38225906  1
  O  O426  1  0.63507382  0.63388605  0.87666712  1
