# generated using pymatgen
data_V85Zn86O256
_symmetry_space_group_name_H-M   'P 1'
_cell_length_a   16.95649066
_cell_length_b   16.97305562
_cell_length_c   16.96007495
_cell_angle_alpha   89.93198774
_cell_angle_beta   90.04229059
_cell_angle_gamma   90.00226525
_symmetry_Int_Tables_number   1
_chemical_formula_structural   V85Zn86O256
_chemical_formula_sum   'V85 Zn86 O256'
_cell_volume   4881.16346395
_cell_formula_units_Z   1
loop_
 _symmetry_equiv_pos_site_id
 _symmetry_equiv_pos_as_xyz
  1  'x, y, z'
loop_
 _atom_site_type_symbol
 _atom_site_label
 _atom_site_symmetry_multiplicity
 _atom_site_fract_x
 _atom_site_fract_y
 _atom_site_fract_z
 _atom_site_occupancy
  V  V0  1  0.26169109  0.62452800  0.37610927  1
  V  V1  1  0.25105533  0.75319911  0.50645489  1
  V  V2  1  0.12256011  0.12584055  0.50402612  1
  V  V3  1  0.24035197  0.62121529  0.88046008  1
  V  V4  1  0.74812935  0.74580661  0.48660752  1
  V  V5  1  0.87603650  0.00634810  0.37551514  1
  V  V6  1  0.37724797  0.25212931  0.61958023  1
  V  V7  1  -0.00029019  0.87246294  0.87955745  1
  V  V8  1  0.12315759  0.49598643  0.62896102  1
  V  V9  1  0.70079928  0.17024655  0.33451168  1
  V  V10  1  0.75397936  0.75506020  -0.00213266  1
  V  V11  1  0.12371997  0.26721121  0.87321725  1
  V  V12  1  0.37385306  0.12397854  0.74390411  1
  V  V13  1  0.75014203  -0.00639324  0.25639542  1
  V  V14  1  0.00120639  0.87572418  0.37744929  1
  V  V15  1  0.24223821  0.12313839  0.87184152  1
  V  V16  1  0.62508549  0.37222056  0.75428731  1
  V  V17  1  -0.00164185  0.00400345  0.50629886  1
  V  V18  1  0.49642178  0.75061542  0.24874447  1
  V  V19  1  0.74271723  0.50012826  0.74659466  1
  V  V20  1  0.12402199  0.24567323  0.37242439  1
  V  V21  1  0.37781267  0.49624593  0.87199419  1
  V  V22  1  0.49974993  0.50101023  -0.00149664  1
  V  V23  1  -0.00133275  0.24986670  0.24439522  1
  V  V24  1  0.12297412  0.50899004  0.12135903  1
  V  V25  1  0.62709520  0.49850472  0.12250192  1
  V  V26  1  -0.00124942  0.50043271  0.49696453  1
  V  V27  1  0.24934442  0.49423211  0.74886634  1
  V  V28  1  0.37862178  0.87629264  0.50292473  1
  V  V29  1  0.37581754  0.38289524  0.48796047  1
  V  V30  1  0.00060320  0.50064265  -0.00432501  1
  V  V31  1  0.00722202  0.26281760  0.74644538  1
  V  V32  1  0.00465612  0.74800830  0.75060110  1
  V  V33  1  0.12283440  0.37736335  0.24762431  1
  V  V34  1  0.24510376  0.25355127  0.50014947  1
  V  V35  1  0.88287517  0.24145636  0.62512341  1
  V  V36  1  0.50303928  0.24987900  0.75188901  1
  V  V37  1  0.26741225  0.88190650  0.12224538  1
  V  V38  1  0.37276071  0.75182428  0.63109806  1
  V  V39  1  -0.00494956  -0.00417157  0.00057905  1
  V  V40  1  0.12682529  0.62396030  0.49977767  1
  V  V41  1  0.75201471  0.62531230  0.87443955  1
  V  V42  1  0.74592253  0.24439515  0.50807302  1
  V  V43  1  0.87379427  0.62948976  0.25033701  1
  V  V44  1  0.50354162  0.11890513  0.61853674  1
  V  V45  1  0.49868037  0.87784299  0.87858565  1
  V  V46  1  0.50729261  0.86996408  0.38197708  1
  V  V47  1  0.62674319  0.86051614  0.25631290  1
  V  V48  1  0.74975716  0.87404159  0.11916371  1
  V  V49  1  0.12507162  0.00133340  0.12752490  1
  V  V50  1  0.37232001  0.63221234  0.23633056  1
  V  V51  1  0.62405758  0.63060452  -0.00170990  1
  V  V52  1  0.12470013  -0.00155237  0.62708452  1
  V  V53  1  0.24830349  0.00191653  0.26764527  1
  V  V54  1  0.88662966  0.11639617  0.75466719  1
  V  V55  1  0.87510870  0.74821399  0.62280209  1
  V  V56  1  0.37163855  -0.00056520  0.88348652  1
  V  V57  1  0.63219046  0.10968487  0.51213306  1
  V  V58  1  0.74301082  0.37646073  0.62613703  1
  V  V59  1  0.87635551  0.62089122  0.75084785  1
  V  V60  1  0.62513676  0.14249585  0.00005558  1
  V  V61  1  0.13473463  0.87013491  0.75034160  1
  V  V62  1  0.25610508  0.37449677  0.12023359  1
  V  V63  1  0.87636475  0.48589187  0.87424234  1
  V  V64  1  0.00124823  0.62337197  0.62437026  1
  V  V65  1  0.50649872  0.00511222  0.00337926  1
  V  V66  1  0.49651018  0.50088383  0.49961203  1
  V  V67  1  0.24727503  0.37419180  0.62666804  1
  V  V68  1  0.62779117  0.76100397  0.87096971  1
  V  V69  1  -0.00146381  0.13106021  0.12064589  1
  V  V70  1  0.00198143  0.75116918  0.24739038  1
  V  V71  1  0.51228557  0.62203453  0.63056892  1
  V  V72  1  0.50383859  0.75844354  0.74962563  1
  V  V73  1  0.74751179  0.50534820  0.24537223  1
  V  V74  1  0.62700363  0.62342994  0.48185926  1
  V  V75  1  0.25175651  -0.00450083  0.74030245  1
  V  V76  1  0.74389384  0.87215080  0.63243340  1
  V  V77  1  -0.00624159  0.37569591  0.37121452  1
  V  V78  1  0.87270913  0.37515544  0.50079454  1
  V  V79  1  0.87170516  0.36726125  0.00968661  1
  V  V80  1  0.86585224  0.50699930  0.37465051  1
  V  V81  1  0.87860437  0.75544405  0.11697392  1
  V  V82  1  0.12601806  0.74777488  0.37637149  1
  V  V83  1  0.87254853  0.13426820  0.24568227  1
  V  V84  1  0.25333401  0.50314504  0.25257425  1
  Zn  Zn85  1  0.00685585  0.63160514  0.11601889  1
  Zn  Zn86  1  0.62358554  0.00214098  0.12858826  1
  Zn  Zn87  1  0.74302791  0.36551386  0.12708980  1
  Zn  Zn88  1  0.43480437  0.18679580  0.19594533  1
  Zn  Zn89  1  0.12372849  0.74235040  0.88927852  1
  Zn  Zn90  1  0.12696657  0.87360298  0.24819706  1
  Zn  Zn91  1  0.79977837  0.21081042  0.07045433  1
  Zn  Zn92  1  0.37936456  0.36722244  -0.00010346  1
  Zn  Zn93  1  0.25741220  0.24648861  -0.00077658  1
  Zn  Zn94  1  0.60976011  -0.01696042  0.63409637  1
  Zn  Zn95  1  0.49462645  0.63360424  0.11996025  1
  Zn  Zn96  1  0.38920934  0.00264439  0.37991414  1
  Zn  Zn97  1  0.55308090  0.34333444  0.33303960  1
  Zn  Zn98  1  0.73956575  -0.00036630  0.75404199  1
  Zn  Zn99  1  0.87267973  -0.00857988  0.87796624  1
  Zn  Zn100  1  0.37605085  0.62362217  0.74942950  1
  Zn  Zn101  1  0.87289168  0.87576004  0.50137034  1
  Zn  Zn102  1  0.74986763  0.12926020  0.88436185  1
  Zn  Zn103  1  0.25682854  0.75134928  0.01348785  1
  Zn  Zn104  1  0.50489377  0.36797297  0.87747984  1
  Zn  Zn105  1  0.12307706  0.12808554  -0.00064579  1
  Zn  Zn106  1  0.30406862  0.15835011  0.34083937  1
  Zn  Zn107  1  0.22327943  0.20122477  0.20193579  1
  Zn  Zn108  1  0.18301645  0.18369923  0.68593922  1
  Zn  Zn109  1  0.19076727  0.69515467  0.18343533  1
  Zn  Zn110  1  0.19017018  0.68320496  0.69195026  1
  Zn  Zn111  1  0.62483852  0.21385281  0.16886640  1
  Zn  Zn112  1  0.70500606  0.19527887  0.71725148  1
  Zn  Zn113  1  0.68832432  0.68475855  0.18599775  1
  Zn  Zn114  1  0.68881422  0.69083153  0.68804668  1
  Zn  Zn115  1  0.31678853  0.32314608  0.31000058  1
  Zn  Zn116  1  0.31321193  0.31129811  0.81153290  1
  Zn  Zn117  1  0.31510633  0.81740150  0.31169349  1
  Zn  Zn118  1  0.32643982  0.79615908  0.84622208  1
  Zn  Zn119  1  0.76386188  0.34057339  0.33569995  1
  Zn  Zn120  1  0.81368171  0.30614091  0.81447690  1
  Zn  Zn121  1  0.81800607  0.81552212  0.31136059  1
  Zn  Zn122  1  0.81795146  0.81094871  0.81071476  1
  Zn  Zn123  1  0.18615861  0.43743202  0.43544464  1
  Zn  Zn124  1  0.18656756  0.44144939  0.93931944  1
  Zn  Zn125  1  0.18452326  0.93116209  0.44581083  1
  Zn  Zn126  1  0.18248279  0.93707047  0.94029997  1
  Zn  Zn127  1  0.67855469  0.44541672  0.44580901  1
  Zn  Zn128  1  0.69000575  0.43552495  0.93760382  1
  Zn  Zn129  1  0.68920127  0.93159481  0.44095254  1
  Zn  Zn130  1  0.68979497  0.94277555  0.93255498  1
  Zn  Zn131  1  0.30791920  0.07270312  0.06286710  1
  Zn  Zn132  1  0.33154793  0.08473432  0.52662274  1
  Zn  Zn133  1  0.31209087  0.55703935  0.05972405  1
  Zn  Zn134  1  0.31560076  0.56766883  0.56727710  1
  Zn  Zn135  1  0.80967241  0.05176635  0.06165884  1
  Zn  Zn136  1  0.81570547  0.06156476  0.57237421  1
  Zn  Zn137  1  0.81658706  0.56678884  0.06073184  1
  Zn  Zn138  1  0.80825603  0.56387688  0.56169721  1
  Zn  Zn139  1  0.43858013  0.43763852  0.18808784  1
  Zn  Zn140  1  0.43850747  0.43683070  0.68366011  1
  Zn  Zn141  1  0.41420736  1.00195875  0.17167046  1
  Zn  Zn142  1  0.43552400  0.93572433  0.68971639  1
  Zn  Zn143  1  0.93527424  0.44020902  0.18431247  1
  Zn  Zn144  1  0.93294922  0.43435166  0.68600693  1
  Zn  Zn145  1  0.93713614  0.93791593  0.18680137  1
  Zn  Zn146  1  0.94197074  0.93037331  0.68785523  1
  Zn  Zn147  1  0.06313790  0.06422704  0.31089101  1
  Zn  Zn148  1  0.05886510  0.06194788  0.81024419  1
  Zn  Zn149  1  0.06225398  0.56466020  0.31061671  1
  Zn  Zn150  1  0.06045100  0.55267821  0.81091708  1
  Zn  Zn151  1  0.56073353  0.04897323  0.30929646  1
  Zn  Zn152  1  0.56692545  0.06491018  0.81390514  1
  Zn  Zn153  1  0.54242297  0.53215149  0.29775871  1
  Zn  Zn154  1  0.56460723  0.56496632  0.81361592  1
  Zn  Zn155  1  0.47064555  0.17258263  0.38994407  1
  Zn  Zn156  1  0.43425951  0.18406658  0.93802819  1
  Zn  Zn157  1  0.44087841  0.69045796  0.43717988  1
  Zn  Zn158  1  0.43184159  0.68615328  0.93679920  1
  Zn  Zn159  1  0.93662355  0.18747956  0.43648576  1
  Zn  Zn160  1  0.94328859  0.19028134  0.93238950  1
  Zn  Zn161  1  0.93681728  0.68759767  0.43706006  1
  Zn  Zn162  1  0.93925909  0.68429929  0.93599070  1
  Zn  Zn163  1  0.06331652  0.31823481  0.05839684  1
  Zn  Zn164  1  0.06037017  0.31555944  0.56163855  1
  Zn  Zn165  1  0.07402505  0.81391840  0.05889116  1
  Zn  Zn166  1  0.06377943  0.81528215  0.56490868  1
  Zn  Zn167  1  0.54630429  0.31462959  0.06980158  1
  Zn  Zn168  1  0.53734518  0.28637427  0.51571848  1
  Zn  Zn169  1  0.55978356  0.81779458  0.06528600  1
  Zn  Zn170  1  0.56536788  0.80247797  0.55999873  1
  O  O171  1  0.11324437  0.11332299  0.12454042  1
  O  O172  1  0.12253819  0.10983336  0.61908176  1
  O  O173  1  0.12664079  0.61335849  0.13094092  1
  O  O174  1  0.12134745  0.61565122  0.61887725  1
  O  O175  1  0.62117173  0.11579363  0.10491216  1
  O  O176  1  0.61964523  0.12421326  0.61879354  1
  O  O177  1  0.62481059  0.62486110  0.10732555  1
  O  O178  1  0.61344197  0.63055387  0.62306280  1
  O  O179  1  0.36475172  0.38665610  0.38879536  1
  O  O180  1  0.37729783  0.38680593  0.87198874  1
  O  O181  1  0.38429951  0.87207106  0.38754987  1
  O  O182  1  0.38716590  0.89175140  0.86111901  1
  O  O183  1  0.87263978  0.38592668  0.38225150  1
  O  O184  1  0.86857230  0.38219622  0.88167015  1
  O  O185  1  0.88785097  0.88506553  0.37619649  1
  O  O186  1  0.89423062  0.87326156  0.86732099  1
  O  O187  1  0.24012701  -0.00701632  0.36882626  1
  O  O188  1  0.25427036  0.00517801  0.86845152  1
  O  O189  1  0.23917648  0.51252141  0.36438611  1
  O  O190  1  0.25491125  0.50250410  0.86697654  1
  O  O191  1  0.76271142  -0.01341645  0.36526230  1
  O  O192  1  0.75830111  0.00694923  0.87002351  1
  O  O193  1  0.76206400  0.50698904  0.36741713  1
  O  O194  1  0.75772652  0.50535577  0.86690648  1
  O  O195  1  0.24139667  0.49384439  0.12961053  1
  O  O196  1  0.24362021  0.49482345  0.62928259  1
  O  O197  1  0.24044317  0.99797976  0.13766834  1
  O  O198  1  0.24241375  1.00041646  0.63868497  1
  O  O199  1  0.74324677  0.50772805  0.12830247  1
  O  O200  1  0.76250784  0.48978469  0.63645714  1
  O  O201  1  0.75162434  0.98901748  0.13818677  1
  O  O202  1  0.75984990  0.97504490  0.62415828  1
  O  O203  1  0.00182218  0.37013954  0.25173879  1
  O  O204  1  -0.00316037  0.36168806  0.74967737  1
  O  O205  1  -0.00064585  0.86532685  0.25799367  1
  O  O206  1  0.01241446  0.86642715  0.75557126  1
  O  O207  1  0.51233328  0.42336842  0.26671904  1
  O  O208  1  0.50924058  0.36898253  0.74585760  1
  O  O209  1  0.51334259  0.86384029  0.26006501  1
  O  O210  1  0.50131477  0.86472989  0.75687180  1
  O  O211  1  0.48561390  0.12658536  0.28658099  1
  O  O212  1  0.49352123  0.13341424  0.73883868  1
  O  O213  1  0.48614818  0.62820053  0.24795571  1
  O  O214  1  0.50159044  0.63282819  0.74230186  1
  O  O215  1  0.99134581  0.12735403  0.23953800  1
  O  O216  1  0.99217290  0.13474640  0.74815447  1
  O  O217  1  0.99453673  0.63866921  0.24711144  1
  O  O218  1  0.99706224  0.62666166  0.74262940  1
  O  O219  1  0.37087182  0.25434374  -0.00578768  1
  O  O220  1  0.36356407  0.26470531  0.51230320  1
  O  O221  1  0.35399766  0.76128644  -0.04372524  1
  O  O222  1  0.36838525  0.75255246  0.50963967  1
  O  O223  1  0.87627702  0.26175495  -0.00393156  1
  O  O224  1  0.86933689  0.25264377  0.50675496  1
  O  O225  1  0.86947414  0.74634771  0.00715890  1
  O  O226  1  0.86922800  0.74631102  0.50915200  1
  O  O227  1  0.12327228  0.24476083  0.49456794  1
  O  O228  1  0.12468596  0.25128832  0.98191398  1
  O  O229  1  0.13214021  0.74419143  0.49913566  1
  O  O230  1  0.14212396  0.74919794  1.00074714  1
  O  O231  1  0.64335020  0.23825929  0.50579519  1
  O  O232  1  0.61117349  0.24074146  1.00103153  1
  O  O233  1  0.63388197  0.73356087  0.49811227  1
  O  O234  1  0.63092039  0.74698683  0.99247114  1
  O  O235  1  0.51779793  0.25623823  0.15874388  1
  O  O236  1  0.49037381  0.24182910  0.62118624  1
  O  O237  1  0.50445069  0.74984198  0.14027292  1
  O  O238  1  0.49709551  0.74132618  0.63386933  1
  O  O239  1  1.00810334  0.23885434  0.12801346  1
  O  O240  1  0.99797286  0.25581400  0.63623065  1
  O  O241  1  0.99615006  0.75338054  0.13076899  1
  O  O242  1  0.99374430  0.74346742  0.62794356  1
  O  O243  1  0.00359397  0.25761319  0.36713873  1
  O  O244  1  0.01593691  0.24903787  0.86312593  1
  O  O245  1  0.00347448  0.75725194  0.36940224  1
  O  O246  1  0.00568576  0.75207619  0.86910820  1
  O  O247  1  0.49955964  0.27803865  0.40757672  1
  O  O248  1  0.49172115  0.24966114  0.85484082  1
  O  O249  1  0.49839474  0.75613711  0.36283824  1
  O  O250  1  0.50829140  0.75787410  0.86836556  1
  O  O251  1  0.23048245  0.13672409  0.50578919  1
  O  O252  1  0.24279003  0.12688575  0.98769217  1
  O  O253  1  0.24746133  0.63119037  0.49358352  1
  O  O254  1  0.25399439  0.62051213  0.98238917  1
  O  O255  1  0.74351193  0.12922550  0.51212135  1
  O  O256  1  0.74240372  0.12996010  1.00376506  1
  O  O257  1  0.73540891  0.62873183  0.50197447  1
  O  O258  1  0.74443045  0.63323828  0.99217321  1
  O  O259  1  0.25310696  0.38168556  0.01239611  1
  O  O260  1  0.25510068  0.37495829  0.50704253  1
  O  O261  1  0.24949845  0.88794685  0.01989505  1
  O  O262  1  0.25547930  0.85775545  0.49935088  1
  O  O263  1  0.76569090  0.37942734  0.00353898  1
  O  O264  1  0.75516445  0.36741595  0.50982549  1
  O  O265  1  0.74633320  0.87258064  0.01132216  1
  O  O266  1  0.75425683  0.86148909  0.50919043  1
  O  O267  1  0.13059836  0.49676315  0.24332416  1
  O  O268  1  0.12998125  0.49808865  0.73539112  1
  O  O269  1  0.12746852  0.99530384  0.24559850  1
  O  O270  1  0.12898490  0.99319840  0.74414179  1
  O  O271  1  0.63955918  0.52543389  0.23345714  1
  O  O272  1  0.63750470  0.49689993  0.75218633  1
  O  O273  1  0.63586394  0.98700595  0.24911404  1
  O  O274  1  0.62683895  1.00532431  0.74263857  1
  O  O275  1  0.35366304  -0.00189100  0.26806631  1
  O  O276  1  0.36687663  0.00654831  0.75284268  1
  O  O277  1  0.35765282  0.51214536  0.24485226  1
  O  O278  1  0.36829880  0.49943880  0.75407788  1
  O  O279  1  0.86954729  0.00711103  0.25560983  1
  O  O280  1  0.89217302  0.00990478  0.75297587  1
  O  O281  1  0.87464736  0.51296799  0.25450241  1
  O  O282  1  0.86932344  0.50207835  0.75744290  1
  O  O283  1  0.11632174  0.36721297  0.36892941  1
  O  O284  1  0.13140873  0.36526264  0.87070850  1
  O  O285  1  0.11337148  0.86720050  0.37668319  1
  O  O286  1  0.11721407  0.87101219  0.86734375  1
  O  O287  1  0.65812750  0.37060085  0.37000765  1
  O  O288  1  0.62522999  0.37888026  0.85945906  1
  O  O289  1  0.62204047  0.87188174  0.36944173  1
  O  O290  1  0.62097507  0.86552380  0.87600761  1
  O  O291  1  0.38582635  0.10509948  0.13240295  1
  O  O292  1  0.38102431  0.13460028  0.62033857  1
  O  O293  1  0.37034861  0.62645002  0.13236587  1
  O  O294  1  0.38728364  0.63702207  0.62812484  1
  O  O295  1  0.87672668  0.12739562  0.12970779  1
  O  O296  1  0.88809924  0.13820407  0.62321909  1
  O  O297  1  0.88043104  0.63927238  0.13127063  1
  O  O298  1  0.87946870  0.63166338  0.62940698  1
  O  O299  1  0.23379991  0.27136539  0.11522445  1
  O  O300  1  0.25147513  0.25779024  0.62220727  1
  O  O301  1  0.25343393  0.77483356  0.13087475  1
  O  O302  1  0.26003778  0.74003019  0.61861099  1
  O  O303  1  0.72879042  0.25455333  0.14184832  1
  O  O304  1  0.76265806  0.25669318  0.62355448  1
  O  O305  1  0.75876534  0.75594553  0.11885200  1
  O  O306  1  0.75830563  0.75468162  0.61925505  1
  O  O307  1  0.23878249  0.25464811  0.38425673  1
  O  O308  1  0.23696525  0.24253530  0.86791537  1
  O  O309  1  0.24422332  0.74330467  0.38228874  1
  O  O310  1  0.23755257  0.72303761  0.85112553  1
  O  O311  1  0.76348288  0.23443259  0.38813092  1
  O  O312  1  0.73986668  0.22610406  0.82578844  1
  O  O313  1  0.76259308  0.75203798  0.38809810  1
  O  O314  1  0.74540712  0.74823747  0.87746473  1
  O  O315  1  0.00098881  0.12029430  0.00593290  1
  O  O316  1  0.01026661  0.11627905  0.49585895  1
  O  O317  1  -0.00701056  0.60763069  0.00140246  1
  O  O318  1  0.00543233  0.61920453  0.50584894  1
  O  O319  1  0.50814013  0.11073284  -0.00753290  1
  O  O320  1  0.52572936  0.13100548  0.50408612  1
  O  O321  1  0.50663916  0.62245515  -0.00351417  1
  O  O322  1  0.50816230  0.62430294  0.51192576  1
  O  O323  1  0.49019262  0.39497570  0.51781825  1
  O  O324  1  0.49899640  0.38652419  0.99491026  1
  O  O325  1  0.49238428  0.86018878  0.49445412  1
  O  O326  1  0.50360503  0.88236940  0.98452182  1
  O  O327  1  0.99227619  0.38188473  0.49247507  1
  O  O328  1  0.98403683  0.38639160  1.00376448  1
  O  O329  1  0.99739714  0.88154650  0.49292680  1
  O  O330  1  1.00610867  0.88220074  0.99123968  1
  O  O331  1  0.49433980  0.51180894  0.40180607  1
  O  O332  1  0.49427737  0.50094973  0.88162770  1
  O  O333  1  0.50299407  0.97582973  0.37895806  1
  O  O334  1  0.49422077  0.99491844  0.88004030  1
  O  O335  1  0.99225824  0.49442119  0.37688420  1
  O  O336  1  0.98789962  0.49950164  0.88074006  1
  O  O337  1  0.99767421  0.99329877  0.38346276  1
  O  O338  1  1.00264707  0.99052713  0.88414346  1
  O  O339  1  0.00201418  0.00832856  0.12042307  1
  O  O340  1  0.00533704  -0.00714272  0.61169298  1
  O  O341  1  0.00725849  0.50411428  0.11831195  1
  O  O342  1  0.00580141  0.50184310  0.62006490  1
  O  O343  1  0.50542240  -0.01711449  0.10483588  1
  O  O344  1  0.49381577  0.01482778  0.62538365  1
  O  O345  1  0.50584053  0.51002977  0.11023237  1
  O  O346  1  0.49623524  0.51879623  0.62362317  1
  O  O347  1  0.24327574  0.38659454  0.24118070  1
  O  O348  1  0.25290987  0.38479557  0.74103799  1
  O  O349  1  0.24592216  0.88635951  0.24517285  1
  O  O350  1  0.23818840  0.88089624  0.75945158  1
  O  O351  1  0.76450726  0.40220134  0.23952342  1
  O  O352  1  0.74781294  0.38288292  0.74565071  1
  O  O353  1  0.74710353  0.87721388  0.24357536  1
  O  O354  1  0.75491889  0.87081641  0.73571984  1
  O  O355  1  0.23289044  0.10608904  0.26204809  1
  O  O356  1  0.25399805  0.11644847  0.75282087  1
  O  O357  1  0.25406843  0.62401271  0.25633723  1
  O  O358  1  0.25241840  0.60601855  0.75199927  1
  O  O359  1  0.75464996  0.11403778  0.26121830  1
  O  O360  1  0.78240226  0.10886281  0.72234960  1
  O  O361  1  0.76714138  0.62311917  0.24492822  1
  O  O362  1  0.75536568  0.61812316  0.75293544  1
  O  O363  1  0.37194932  0.11228657  0.41713154  1
  O  O364  1  0.36273437  0.11779504  0.86434109  1
  O  O365  1  0.36361504  0.62957007  0.36994455  1
  O  O366  1  0.36545826  0.60918333  0.86850459  1
  O  O367  1  0.88368151  0.11114898  0.36647535  1
  O  O368  1  0.87700947  0.12450991  0.86152876  1
  O  O369  1  0.88456882  0.61788394  0.36356190  1
  O  O370  1  0.86893426  0.61670059  0.86784527  1
  O  O371  1  0.12990026  0.38752564  0.13049334  1
  O  O372  1  0.13787575  0.38260750  0.61660799  1
  O  O373  1  0.12312597  0.89179837  0.12952326  1
  O  O374  1  0.12321926  0.88725461  0.63333076  1
  O  O375  1  0.62570112  0.39671240  0.11488419  1
  O  O376  1  0.64232478  0.37749688  0.63596210  1
  O  O377  1  0.63661300  0.87405587  0.13537933  1
  O  O378  1  0.63962147  0.86787387  0.62158682  1
  O  O379  1  0.12226122  0.25608551  0.25741622  1
  O  O380  1  0.11467574  0.24747930  0.75530774  1
  O  O381  1  0.11716840  0.75191294  0.25608878  1
  O  O382  1  0.11841511  0.75571967  0.74481833  1
  O  O383  1  0.63728259  0.22903887  0.28642293  1
  O  O384  1  0.61108691  0.26084059  0.73452315  1
  O  O385  1  0.62389729  0.75581607  0.24929498  1
  O  O386  1  0.61787648  0.74463831  0.76076261  1
  O  O387  1  0.33500469  0.22958750  0.25250369  1
  O  O388  1  0.37856368  0.24553306  0.73557594  1
  O  O389  1  0.38227769  0.74244267  0.25332924  1
  O  O390  1  0.38529121  0.74705541  0.74793609  1
  O  O391  1  0.88183133  0.23492132  0.25576910  1
  O  O392  1  0.89086995  0.24232760  0.74336920  1
  O  O393  1  0.88363731  0.74643689  0.24363761  1
  O  O394  1  0.88374780  0.74036169  0.74233824  1
  O  O395  1  0.38519129  0.49624568  0.51117966  1
  O  O396  1  0.38451631  0.49739473  0.99104781  1
  O  O397  1  0.36517114  0.97708125  0.50744192  1
  O  O398  1  0.38543044  1.00780377  0.98629092  1
  O  O399  1  0.87910034  0.49988765  0.49206729  1
  O  O400  1  0.87857434  0.49261516  0.99202068  1
  O  O401  1  0.88249597  1.00055455  0.49375360  1
  O  O402  1  0.88982518  1.00125993  0.99853331  1
  O  O403  1  0.11346457  0.00422852  0.00899327  1
  O  O404  1  0.12004506  0.00556408  0.50727880  1
  O  O405  1  0.11327872  0.49409244  0.00845248  1
  O  O406  1  0.11911535  0.50409602  0.50808779  1
  O  O407  1  0.61320620  -0.00201299  -0.00023419  1
  O  O408  1  0.63583326  0.00651604  0.51420333  1
  O  O409  1  0.61969696  0.51129577  -0.00121147  1
  O  O410  1  0.61374348  0.51390640  0.50774119  1
  O  O411  1  0.35953124  0.38175140  0.12702239  1
  O  O412  1  0.36308204  0.37076999  0.62131215  1
  O  O413  1  0.36409328  0.89586786  0.13096655  1
  O  O414  1  0.38296129  0.85852875  0.62140814  1
  O  O415  1  0.87186545  0.37528561  0.11235324  1
  O  O416  1  0.87071261  0.36433266  0.61817458  1
  O  O417  1  0.86707309  0.86259527  0.13150235  1
  O  O418  1  0.87266675  0.85926687  0.62425363  1
  O  O419  1  0.11553779  0.13988396  0.38253058  1
  O  O420  1  0.13499791  0.12673612  0.87124461  1
  O  O421  1  0.13034689  0.63101189  0.38188714  1
  O  O422  1  0.13723344  0.61303152  0.87194436  1
  O  O423  1  0.63962632  0.10812919  0.38999692  1
  O  O424  1  0.62730815  0.11985399  0.89625243  1
  O  O425  1  0.61834345  0.61646707  0.38605058  1
  O  O426  1  0.63155755  0.63460097  0.88271979  1
