# generated using pymatgen
data_V85Zn86O256
_symmetry_space_group_name_H-M   'P 1'
_cell_length_a   16.97164013
_cell_length_b   16.96211015
_cell_length_c   16.97001654
_cell_angle_alpha   90.07245901
_cell_angle_beta   90.05474480
_cell_angle_gamma   90.06675793
_symmetry_Int_Tables_number   1
_chemical_formula_structural   V85Zn86O256
_chemical_formula_sum   'V85 Zn86 O256'
_cell_volume   4885.23115352
_cell_formula_units_Z   1
loop_
 _symmetry_equiv_pos_site_id
 _symmetry_equiv_pos_as_xyz
  1  'x, y, z'
loop_
 _atom_site_type_symbol
 _atom_site_label
 _atom_site_symmetry_multiplicity
 _atom_site_fract_x
 _atom_site_fract_y
 _atom_site_fract_z
 _atom_site_occupancy
  V  V0  1  0.00656369  0.87624109  0.87022282  1
  V  V1  1  0.37426059  0.37571794  -0.00018153  1
  V  V2  1  -0.00142538  0.74669748  0.23424750  1
  V  V3  1  0.12790828  0.36161978  0.26297892  1
  V  V4  1  0.51179139  0.37327083  0.37194872  1
  V  V5  1  0.86683325  0.62404173  0.74258462  1
  V  V6  1  -0.00059652  0.50515336  -0.00046815  1
  V  V7  1  0.62675477  0.25212921  0.87299650  1
  V  V8  1  -0.00335177  0.12014123  0.62180649  1
  V  V9  1  0.13059245  0.62295886  0.49356686  1
  V  V10  1  0.37444133  0.00916791  0.87330169  1
  V  V11  1  0.24940566  0.24735530  -0.00726061  1
  V  V12  1  -0.00211669  0.48628039  0.49064274  1
  V  V13  1  0.12625091  0.75146284  0.87147969  1
  V  V14  1  0.63793205  0.62581555  0.49984672  1
  V  V15  1  0.64617304  0.50267059  0.62656016  1
  V  V16  1  0.87869950  0.62674850  0.24206887  1
  V  V17  1  0.37336716  0.62395080  0.74651575  1
  V  V18  1  0.61341811  0.11958836  0.50449323  1
  V  V19  1  0.86696563  0.26078129  0.62028075  1
  V  V20  1  0.25070518  0.75157227  0.00016838  1
  V  V21  1  0.37153859  0.11671550  0.25219693  1
  V  V22  1  0.25082396  0.88481951  0.12918010  1
  V  V23  1  0.37661647  0.25235627  0.12865106  1
  V  V24  1  0.50063153  0.49901192  0.00166036  1
  V  V25  1  0.49815261  0.75173193  0.75298636  1
  V  V26  1  0.75067736  0.61948361  0.87322401  1
  V  V27  1  0.86441490  0.11981362  0.74462416  1
  V  V28  1  0.37508020  0.50061137  0.87385973  1
  V  V29  1  0.50184057  0.37588314  0.87224269  1
  V  V30  1  0.12663488  0.13511404  0.49721166  1
  V  V31  1  0.87201164  -0.00422372  0.87197371  1
  V  V32  1  0.37553635  0.24341111  0.62147516  1
  V  V33  1  0.12477595  0.12439200  -0.00474276  1
  V  V34  1  0.50052627  0.24655571  0.74366227  1
  V  V35  1  0.62605999  0.62165394  0.00112470  1
  V  V36  1  0.12490914  0.37536071  0.74954616  1
  V  V37  1  0.62634521  0.74869855  0.87579238  1
  V  V38  1  0.24753537  0.50926594  0.25382958  1
  V  V39  1  0.88292190  0.25272366  0.12366662  1
  V  V40  1  0.74870538  0.37390493  0.12914417  1
  V  V41  1  0.75478495  0.50583721  0.25768511  1
  V  V42  1  0.00589567  0.75105168  0.74525731  1
  V  V43  1  0.74237538  0.25914521  0.50017556  1
  V  V44  1  0.75113454  -0.00107449  0.24816767  1
  V  V45  1  0.50242034  0.12556386  0.12832432  1
  V  V46  1  -0.00017414  0.12357903  0.13215532  1
  V  V47  1  0.24744362  0.37736718  0.12571130  1
  V  V48  1  -0.00505117  0.87144696  0.38019715  1
  V  V49  1  0.12411407  0.62450722  0.00294410  1
  V  V50  1  0.50144479  0.50194111  0.50472314  1
  V  V51  1  0.75474137  0.75939995  0.48706206  1
  V  V52  1  0.12604791  0.88465121  0.25223244  1
  V  V53  1  0.25005141  0.37044794  0.62102425  1
  V  V54  1  0.87778493  0.75755706  0.61139835  1
  V  V55  1  0.25037165  0.62563970  0.87469085  1
  V  V56  1  -0.00223179  0.24823634  0.75111325  1
  V  V57  1  0.63735690  0.38021034  0.74331433  1
  V  V58  1  0.49344314  0.88304830  0.37104301  1
  V  V59  1  0.87793499  0.86775172  0.00437143  1
  V  V60  1  0.75097014  0.24841740  0.00074855  1
  V  V61  1  0.61462298  0.74317586  0.36821324  1
  V  V62  1  0.87541584  0.49868672  0.86625940  1
  V  V63  1  0.51243259  0.25426132  0.25348566  1
  V  V64  1  0.24277788  0.87604144  0.62818109  1
  V  V65  1  0.37156853  0.37018434  0.49670118  1
  V  V66  1  0.87090433  -0.00448675  0.38539698  1
  V  V67  1  0.62506826  0.49408777  0.13235589  1
  V  V68  1  0.11377106  0.50119142  0.12848045  1
  V  V69  1  0.23887940  0.13138149  0.36707205  1
  V  V70  1  0.75302001  0.86519324  0.12611763  1
  V  V71  1  0.50013927  0.62766522  0.13407963  1
  V  V72  1  -0.05095969  0.31292669  0.30368438  1
  V  V73  1  0.74198401  0.12556436  0.37795357  1
  V  V74  1  0.37147397  0.50516857  0.37606544  1
  V  V75  1  0.50064461  0.00026861  0.00316283  1
  V  V76  1  0.37412647  0.75458475  0.62119664  1
  V  V77  1  0.23704721  0.00323501  0.75354646  1
  V  V78  1  0.00295993  0.62225513  0.61934060  1
  V  V79  1  0.25293861  0.75691326  0.49381362  1
  V  V80  1  0.37525615  0.87553825  0.00036701  1
  V  V81  1  0.87560198  0.37640273  -0.00047757  1
  V  V82  1  0.12746550  0.74554087  0.37015699  1
  V  V83  1  0.74947278  0.11827704  0.87560665  1
  V  V84  1  0.37759632  0.74994315  0.13220478  1
  Zn  Zn85  1  0.36315161  -0.00153755  0.38059109  1
  Zn  Zn86  1  0.00156534  0.37351121  0.87513886  1
  Zn  Zn87  1  0.87630802  0.12878837  0.25474209  1
  Zn  Zn88  1  0.42844697  0.92960084  0.53841936  1
  Zn  Zn89  1  0.62314505  0.86858532  0.24794031  1
  Zn  Zn90  1  0.12651754  0.00336075  0.12617607  1
  Zn  Zn91  1  0.75514692  0.88634347  0.62520657  1
  Zn  Zn92  1  0.62067782  0.00385006  0.62478755  1
  Zn  Zn93  1  0.62709417  -0.00357191  0.12617023  1
  Zn  Zn94  1  -0.00119749  -0.00412763  0.49988100  1
  Zn  Zn95  1  0.37234517  0.12580499  0.74933435  1
  Zn  Zn96  1  0.50489444  0.62790889  0.62313456  1
  Zn  Zn97  1  0.37494391  0.62940581  0.25809523  1
  Zn  Zn98  1  0.75773692  0.74327294  0.00474507  1
  Zn  Zn99  1  0.24840299  0.49868436  0.74759647  1
  Zn  Zn100  1  0.12129211  -0.00350086  0.62168989  1
  Zn  Zn101  1  0.50497327  0.87477327  0.88064135  1
  Zn  Zn102  1  0.00111601  -0.00047104  0.00189437  1
  Zn  Zn103  1  0.62646237  0.12437806  0.00205877  1
  Zn  Zn104  1  0.13009608  0.24680772  0.87075673  1
  Zn  Zn105  1  0.65122329  0.89714305  0.75670822  1
  Zn  Zn106  1  0.12616768  0.49762221  0.62246076  1
  Zn  Zn107  1  0.18993246  0.18664853  0.18201350  1
  Zn  Zn108  1  0.18736433  0.18562824  0.68416229  1
  Zn  Zn109  1  0.18686125  0.69016716  0.18464254  1
  Zn  Zn110  1  0.18791076  0.68685973  0.68412670  1
  Zn  Zn111  1  0.68897938  0.18490347  0.18884544  1
  Zn  Zn112  1  0.68427221  0.18493932  0.68265108  1
  Zn  Zn113  1  0.69045397  0.68293327  0.18782324  1
  Zn  Zn114  1  0.69230007  0.74359921  0.68771805  1
  Zn  Zn115  1  0.31409541  0.31094014  0.31332164  1
  Zn  Zn116  1  0.31356038  0.31315908  0.80916160  1
  Zn  Zn117  1  0.31058362  0.81402806  0.31158048  1
  Zn  Zn118  1  0.31471886  0.81969105  0.81131635  1
  Zn  Zn119  1  0.78407038  0.31792438  0.31645896  1
  Zn  Zn120  1  0.81363346  0.30909239  0.81157269  1
  Zn  Zn121  1  0.81503310  0.81016185  0.30990324  1
  Zn  Zn122  1  0.82138211  0.80383609  0.81626549  1
  Zn  Zn123  1  0.18868489  0.43754382  0.43772857  1
  Zn  Zn124  1  0.18651235  0.43666459  0.93437390  1
  Zn  Zn125  1  0.18782340  0.94544798  0.43777217  1
  Zn  Zn126  1  0.18845562  0.94047430  0.93716979  1
  Zn  Zn127  1  0.68714755  0.43908557  0.44020984  1
  Zn  Zn128  1  0.68925765  0.43793356  0.93740921  1
  Zn  Zn129  1  0.68039820  0.93533095  0.43514592  1
  Zn  Zn130  1  0.68813461  0.93502327  0.94275586  1
  Zn  Zn131  1  0.31467491  0.06583124  0.06220902  1
  Zn  Zn132  1  0.30225828  0.06643600  0.56092032  1
  Zn  Zn133  1  0.31102033  0.56279356  0.06462096  1
  Zn  Zn134  1  0.31053989  0.56117972  0.56262624  1
  Zn  Zn135  1  0.81603742  0.05871313  0.06258806  1
  Zn  Zn136  1  0.80042536  0.05972866  0.56297426  1
  Zn  Zn137  1  0.81487246  0.56092791  0.06389703  1
  Zn  Zn138  1  0.81878691  0.56552605  0.55368639  1
  Zn  Zn139  1  0.43632131  0.43927238  0.19176168  1
  Zn  Zn140  1  0.43994446  0.43391952  0.68574998  1
  Zn  Zn141  1  0.44160654  0.93452046  0.19247512  1
  Zn  Zn142  1  0.47533563  0.95847148  0.71109045  1
  Zn  Zn143  1  0.88103088  0.49538863  0.37190635  1
  Zn  Zn144  1  0.93991561  0.43885117  0.68375655  1
  Zn  Zn145  1  0.93656933  0.93791028  0.19114161  1
  Zn  Zn146  1  0.93538356  0.93599474  0.68974116  1
  Zn  Zn147  1  0.05827316  0.06399228  0.31595026  1
  Zn  Zn148  1  0.05795927  0.06515589  0.81366591  1
  Zn  Zn149  1  0.05931167  0.56309260  0.31012055  1
  Zn  Zn150  1  0.06116645  0.56321728  0.81009881  1
  Zn  Zn151  1  0.56481737  0.06069873  0.31310253  1
  Zn  Zn152  1  0.56114029  0.06788639  0.81814575  1
  Zn  Zn153  1  0.56377976  0.55970788  0.31482270  1
  Zn  Zn154  1  0.56321621  0.56323010  0.80764680  1
  Zn  Zn155  1  0.43196731  0.18874266  0.43213466  1
  Zn  Zn156  1  0.43869542  0.18864472  0.93821344  1
  Zn  Zn157  1  0.44218370  0.68840387  0.44049119  1
  Zn  Zn158  1  0.43804339  0.68553962  0.94230395  1
  Zn  Zn159  1  0.92879709  0.18211593  0.44199157  1
  Zn  Zn160  1  0.93873136  0.18401913  0.93827653  1
  Zn  Zn161  1  0.93825373  0.67983470  0.42711903  1
  Zn  Zn162  1  0.93962310  0.68658108  0.93526365  1
  Zn  Zn163  1  0.06301217  0.31571183  0.06377957  1
  Zn  Zn164  1  0.05886559  0.30893070  0.56700412  1
  Zn  Zn165  1  0.06660075  0.81731911  0.05925265  1
  Zn  Zn166  1  0.06710273  0.81121808  0.55812967  1
  Zn  Zn167  1  0.56371083  0.31108505  0.06129852  1
  Zn  Zn168  1  0.56403445  0.31521554  0.56237463  1
  Zn  Zn169  1  0.56514184  0.81066432  0.06376923  1
  Zn  Zn170  1  0.55839785  0.83308483  0.57008376  1
  O  O171  1  0.11675506  0.12495886  0.11720518  1
  O  O172  1  0.11458962  0.12438318  0.61559865  1
  O  O173  1  0.13340650  0.61430730  0.11392075  1
  O  O174  1  0.11548891  0.62378046  0.61712079  1
  O  O175  1  0.61287055  0.12314336  0.12419802  1
  O  O176  1  0.61865210  0.12484032  0.61057357  1
  O  O177  1  0.61855392  0.61827672  0.11985856  1
  O  O178  1  0.62363707  0.61665609  0.61416031  1
  O  O179  1  0.37938221  0.38448392  0.38185091  1
  O  O180  1  0.38095450  0.38105652  0.87940413  1
  O  O181  1  0.38698985  0.87927180  0.36408876  1
  O  O182  1  0.37583459  0.88600858  0.88680394  1
  O  O183  1  0.88313947  0.37173990  0.35628205  1
  O  O184  1  0.87498929  0.38380981  0.87821516  1
  O  O185  1  0.88421858  0.88140762  0.36936189  1
  O  O186  1  0.88387474  0.87959938  0.87918997  1
  O  O187  1  0.24699858  0.02095759  0.37405881  1
  O  O188  1  0.25728209  -0.00570256  0.86024615  1
  O  O189  1  0.25835362  0.49744081  0.36583901  1
  O  O190  1  0.25761997  0.50627299  0.87241347  1
  O  O191  1  0.75372812  0.00243420  0.36955691  1
  O  O192  1  0.75444512  0.00944636  0.87826526  1
  O  O193  1  0.75043892  0.49012050  0.35945740  1
  O  O194  1  0.75960238  0.51084964  0.87723674  1
  O  O195  1  0.24403355  0.49015593  0.12983564  1
  O  O196  1  0.24795602  0.48652769  0.62701885  1
  O  O197  1  0.25198116  0.98783452  0.12214583  1
  O  O198  1  0.24623129  0.99274226  0.63578386  1
  O  O199  1  0.74324501  0.49185344  0.12916463  1
  O  O200  1  0.74535339  0.50456708  0.61882189  1
  O  O201  1  0.75036757  0.99199413  0.13197452  1
  O  O202  1  0.73771405  0.99789407  0.62979924  1
  O  O203  1  0.01676890  0.36971812  0.25054723  1
  O  O204  1  0.00737409  0.36564730  0.74746095  1
  O  O205  1  0.00663220  0.86431141  0.25596650  1
  O  O206  1  -0.00415446  0.86369338  0.75798441  1
  O  O207  1  0.49613836  0.37061521  0.26317839  1
  O  O208  1  0.50625599  0.36798009  0.75728721  1
  O  O209  1  0.50609616  0.87207510  0.26244882  1
  O  O210  1  0.48997564  0.85414343  0.76357738  1
  O  O211  1  0.49530143  0.13218110  0.24592338  1
  O  O212  1  0.49539306  0.14355623  0.75716066  1
  O  O213  1  0.49687602  0.61585533  0.23666778  1
  O  O214  1  0.48631631  0.63140247  0.74958652  1
  O  O215  1  0.99721080  0.12388970  0.23710735  1
  O  O216  1  0.98870534  0.13011956  0.74345148  1
  O  O217  1  0.99968306  0.63937945  0.24526310  1
  O  O218  1  0.99454532  0.62953535  0.73880395  1
  O  O219  1  0.36944305  0.25641719  0.00701890  1
  O  O220  1  0.38128956  0.26317595  0.50596746  1
  O  O221  1  0.36993220  0.75583566  0.00815624  1
  O  O222  1  0.36295929  0.73782269  0.50800093  1
  O  O223  1  0.87036496  0.25437132  0.00504672  1
  O  O224  1  0.86355461  0.24518798  0.51459459  1
  O  O225  1  0.87628321  0.76288799  -0.00730038  1
  O  O226  1  0.86622716  0.74137521  0.49774383  1
  O  O227  1  0.11399526  0.23385024  0.50226942  1
  O  O228  1  0.13320826  0.24611779  0.99907222  1
  O  O229  1  0.13231105  0.74276161  0.48909230  1
  O  O230  1  0.13025011  0.74382172  0.99321119  1
  O  O231  1  0.63777009  0.24371687  0.50726737  1
  O  O232  1  0.63285863  0.24854754  0.99150766  1
  O  O233  1  0.63881050  0.74217272  0.48848880  1
  O  O234  1  0.62584794  0.74024306  0.98957215  1
  O  O235  1  0.49595929  0.24491327  0.13032582  1
  O  O236  1  0.48947292  0.26133913  0.63379020  1
  O  O237  1  0.49125676  0.73904182  0.11877391  1
  O  O238  1  0.48959893  0.74823808  0.63484538  1
  O  O239  1  0.98799108  0.24569610  0.11916065  1
  O  O240  1  0.98725468  0.23934401  0.63269690  1
  O  O241  1  1.00583390  0.75594381  0.13631624  1
  O  O242  1  0.99794096  0.74319003  0.62561252  1
  O  O243  1  -0.01088628  0.24866412  0.36761223  1
  O  O244  1  -0.00526250  0.25074223  0.86008086  1
  O  O245  1  0.00926410  0.75580326  0.36684934  1
  O  O246  1  0.00508514  0.75509013  0.86437723  1
  O  O247  1  0.49423096  0.26579657  0.36733847  1
  O  O248  1  0.50628665  0.25789728  0.87088375  1
  O  O249  1  0.51165830  0.74843208  0.36946579  1
  O  O250  1  0.50798325  0.74635987  0.87348868  1
  O  O251  1  0.23153188  0.12966286  0.49189902  1
  O  O252  1  0.24017931  0.13673246  1.00944670  1
  O  O253  1  0.23549526  0.63202314  0.50682477  1
  O  O254  1  0.24574094  0.63097702  0.99349481  1
  O  O255  1  0.74070182  0.13376072  0.49344798  1
  O  O256  1  0.75048777  0.12899590  0.99296150  1
  O  O257  1  0.74117567  0.62671817  0.49277654  1
  O  O258  1  0.74576487  0.62338086  0.99269322  1
  O  O259  1  0.25372311  0.37156690  0.00742528  1
  O  O260  1  0.25999410  0.37851403  0.50729830  1
  O  O261  1  0.25500884  0.87066777  0.00724177  1
  O  O262  1  0.24275935  0.86249454  0.50538647  1
  O  O263  1  0.75537979  0.37006140  0.00691824  1
  O  O264  1  0.74717377  0.35861566  0.49453666  1
  O  O265  1  0.75938473  0.87165879  0.00815300  1
  O  O266  1  0.74786095  0.86083843  0.49967654  1
  O  O267  1  0.12988367  0.49352882  0.24360684  1
  O  O268  1  0.12433166  0.48944760  0.74621352  1
  O  O269  1  0.11792757  0.98719866  0.24862640  1
  O  O270  1  0.13488018  1.00411234  0.75046049  1
  O  O271  1  0.63602871  0.50761503  0.23861737  1
  O  O272  1  0.62125786  0.49338730  0.73763797  1
  O  O273  1  0.63937309  0.99729190  0.24894809  1
  O  O274  1  0.59040094  0.99141425  0.74218386  1
  O  O275  1  0.37968389  0.01481896  0.24924985  1
  O  O276  1  0.38117282  0.00472466  0.76029265  1
  O  O277  1  0.36466240  0.50076166  0.25835659  1
  O  O278  1  0.37567908  0.50731281  0.75438473  1
  O  O279  1  0.86320007  0.00109422  0.25848997  1
  O  O280  1  0.87626892  0.00630095  0.76250978  1
  O  O281  1  0.85847370  0.50254824  0.24822472  1
  O  O282  1  0.88294310  0.50793596  0.75835404  1
  O  O283  1  0.13359267  0.37195550  0.36164159  1
  O  O284  1  0.12291874  0.36991152  0.86250262  1
  O  O285  1  0.12057243  0.86701875  0.36686554  1
  O  O286  1  0.11330517  0.86958022  0.88023439  1
  O  O287  1  0.61015960  0.37826552  0.37695157  1
  O  O288  1  0.62038923  0.37196428  0.86873741  1
  O  O289  1  0.61626906  0.86049729  0.37271541  1
  O  O290  1  0.62698353  0.86300056  0.87287778  1
  O  O291  1  0.38515506  0.13141215  0.13106707  1
  O  O292  1  0.36872839  0.14088359  0.62283535  1
  O  O293  1  0.38310842  0.63239954  0.12385841  1
  O  O294  1  0.37416798  0.63243752  0.63278219  1
  O  O295  1  0.88017418  0.13485089  0.12722868  1
  O  O296  1  0.87784480  0.12769765  0.63176659  1
  O  O297  1  0.87427231  0.61910941  0.14020124  1
  O  O298  1  0.88745444  0.62962132  0.62681553  1
  O  O299  1  0.25551762  0.26264152  0.11694848  1
  O  O300  1  0.25853276  0.26248189  0.63039455  1
  O  O301  1  0.25723039  0.75774803  0.11726554  1
  O  O302  1  0.25348273  0.75597996  0.61897841  1
  O  O303  1  0.75609474  0.25510560  0.12138283  1
  O  O304  1  0.75942140  0.24624979  0.61615335  1
  O  O305  1  0.74778368  0.76041813  0.12347663  1
  O  O306  1  0.76757040  0.73666582  0.60236940  1
  O  O307  1  0.25746189  0.23176620  0.37388586  1
  O  O308  1  0.25207415  0.25528513  0.88899030  1
  O  O309  1  0.24156062  0.75318027  0.38154764  1
  O  O310  1  0.24577709  0.74784705  0.87878793  1
  O  O311  1  0.75404495  0.24034374  0.39053232  1
  O  O312  1  0.74848297  0.23886030  0.88073528  1
  O  O313  1  0.74508616  0.75200386  0.38291020  1
  O  O314  1  0.74497129  0.73471642  0.87971891  1
  O  O315  1  0.00627152  0.12424504  0.01092526  1
  O  O316  1  0.00282012  0.12129446  0.50799030  1
  O  O317  1  0.00625887  0.61300810  -0.00595028  1
  O  O318  1  0.01160313  0.62149638  0.50404539  1
  O  O319  1  0.50003377  0.11931316  0.01100295  1
  O  O320  1  0.51702792  0.13514009  0.48718360  1
  O  O321  1  0.50477480  0.61535359  0.00994577  1
  O  O322  1  0.51076557  0.61607194  0.50106399  1
  O  O323  1  0.49463714  0.38131673  0.48965604  1
  O  O324  1  0.49453871  0.37988979  0.99335055  1
  O  O325  1  0.49526606  0.85484129  0.47599596  1
  O  O326  1  0.49417430  0.88333528  1.00207169  1
  O  O327  1  1.00518171  0.38852299  0.50498152  1
  O  O328  1  0.99506445  0.38637444  0.99692480  1
  O  O329  1  1.00574347  0.87462736  0.48440285  1
  O  O330  1  0.99437323  0.87688050  0.99116578  1
  O  O331  1  0.49546949  0.49012450  0.38256661  1
  O  O332  1  0.49516011  0.49601589  0.88035280  1
  O  O333  1  0.50114259  0.98535585  0.37452642  1
  O  O334  1  0.49253435  0.99998694  0.88809153  1
  O  O335  1  1.00559101  0.49687821  0.38675464  1
  O  O336  1  0.99203616  0.49810740  0.88036258  1
  O  O337  1  0.98833521  0.99067730  0.37294815  1
  O  O338  1  0.99205804  0.99113358  0.87497675  1
  O  O339  1  -0.00030236  0.00873055  0.12215405  1
  O  O340  1  -0.00165685  0.00941783  0.62646928  1
  O  O341  1  0.01347763  0.49725143  0.11419652  1
  O  O342  1  0.00267457  0.50751449  0.61347904  1
  O  O343  1  0.50030916  0.00796283  0.12003117  1
  O  O344  1  0.51601023  -0.05387774  0.60738706  1
  O  O345  1  0.50762259  0.50228975  0.12188469  1
  O  O346  1  0.50016712  0.50033711  0.61125046  1
  O  O347  1  0.24340560  0.38198341  0.24316365  1
  O  O348  1  0.24110065  0.37578233  0.74351800  1
  O  O349  1  0.23818844  0.86897973  0.24056843  1
  O  O350  1  0.25572591  0.89016459  0.74075015  1
  O  O351  1  0.74657270  0.38622334  0.23533324  1
  O  O352  1  0.73596800  0.37089351  0.75520799  1
  O  O353  1  0.75079823  0.88015555  0.24147080  1
  O  O354  1  0.75085071  0.84402305  0.74133239  1
  O  O355  1  0.25627934  0.12855485  0.25588333  1
  O  O356  1  0.25327385  0.10836827  0.74493052  1
  O  O357  1  0.25127863  0.61209354  0.24302347  1
  O  O358  1  0.25930195  0.62342038  0.75417637  1
  O  O359  1  0.75264204  0.11841315  0.25769644  1
  O  O360  1  0.75892231  0.13119100  0.75815292  1
  O  O361  1  0.75764106  0.61254566  0.24792556  1
  O  O362  1  0.76531319  0.63392554  0.75525548  1
  O  O363  1  0.36568027  0.12324002  0.36553217  1
  O  O364  1  0.37458043  0.11285220  0.87921823  1
  O  O365  1  0.38405260  0.60957699  0.37519379  1
  O  O366  1  0.36960054  0.62099234  0.86871169  1
  O  O367  1  0.86229065  0.11484741  0.37345277  1
  O  O368  1  0.86868332  0.11608875  0.86910451  1
  O  O369  1  0.88640044  0.61289719  0.35227080  1
  O  O370  1  0.87079995  0.61832792  0.86619449  1
  O  O371  1  0.13275626  0.38238166  0.13107919  1
  O  O372  1  0.13177299  0.37183179  0.63327669  1
  O  O373  1  0.13459598  0.87753818  0.13158469  1
  O  O374  1  0.13702953  0.87483355  0.62383607  1
  O  O375  1  0.63292348  0.38514056  0.11681674  1
  O  O376  1  0.62233839  0.38882470  0.63211812  1
  O  O377  1  0.63552525  0.87585523  0.12696313  1
  O  O378  1  0.64223871  0.84315652  0.64177558  1
  O  O379  1  0.13315140  0.26388019  0.24524330  1
  O  O380  1  0.11523860  0.25303597  0.74968709  1
  O  O381  1  0.11722031  0.75460572  0.25381140  1
  O  O382  1  0.11350811  0.74215586  0.75432751  1
  O  O383  1  0.61189511  0.24919156  0.24550174  1
  O  O384  1  0.61877374  0.25709222  0.75211613  1
  O  O385  1  0.63393098  0.74590603  0.26611619  1
  O  O386  1  0.61146908  0.73077265  0.76805748  1
  O  O387  1  0.38342928  0.24382826  0.24284370  1
  O  O388  1  0.38208702  0.25039488  0.74110521  1
  O  O389  1  0.36833830  0.74595423  0.23595040  1
  O  O390  1  0.37674433  0.74187032  0.74431234  1
  O  O391  1  0.87713327  0.25695884  0.24396874  1
  O  O392  1  0.87757591  0.24098232  0.74025390  1
  O  O393  1  0.89053946  0.74363328  0.25041339  1
  O  O394  1  0.88984410  0.73911818  0.73928282  1
  O  O395  1  0.38192419  0.49336474  0.49510547  1
  O  O396  1  0.37979680  0.49423102  0.99563773  1
  O  O397  1  0.36292090  1.00274222  0.49451976  1
  O  O398  1  0.38344463  0.99645821  0.99761633  1
  O  O399  1  0.89284418  0.50355883  0.49220529  1
  O  O400  1  0.88267107  0.49766514  0.99020562  1
  O  O401  1  0.87432569  1.00299259  0.48850772  1
  O  O402  1  0.87667307  0.99028738  0.98665428  1
  O  O403  1  0.12439976  0.00995726  0.00314383  1
  O  O404  1  0.11785406  0.01241824  0.50277367  1
  O  O405  1  0.11874442  0.50371779  0.00351973  1
  O  O406  1  0.11819889  0.50697972  0.49967912  1
  O  O407  1  0.61217057  0.00168841  0.00191151  1
  O  O408  1  0.62663829  0.01605226  0.49727180  1
  O  O409  1  0.62081503  0.50413464  0.00872832  1
  O  O410  1  0.62038014  0.50577875  0.50606832  1
  O  O411  1  0.36751750  0.37357489  0.12054306  1
  O  O412  1  0.36838961  0.36975522  0.61670106  1
  O  O413  1  0.37054390  0.86857117  0.12191876  1
  O  O414  1  0.36167014  0.85929485  0.62043156  1
  O  O415  1  0.86397634  0.36505565  0.11464170  1
  O  O416  1  0.87644877  0.35849982  0.63050098  1
  O  O417  1  0.86844100  0.88029231  0.11468602  1
  O  O418  1  0.87733596  0.86035212  0.62297782  1
  O  O419  1  0.12867235  0.12717657  0.38182126  1
  O  O420  1  0.11692753  0.12975713  0.88981709  1
  O  O421  1  0.12134261  0.63650381  0.37904462  1
  O  O422  1  0.13134179  0.62976925  0.88064777  1
  O  O423  1  0.63666520  0.12271011  0.38030713  1
  O  O424  1  0.63487892  0.13224682  0.87714984  1
  O  O425  1  0.61940986  0.63453464  0.38305259  1
  O  O426  1  0.63376184  0.62312362  0.88092835  1
