# generated using pymatgen
data_V85Zn86O256
_symmetry_space_group_name_H-M   'P 1'
_cell_length_a   16.93444715
_cell_length_b   16.94560850
_cell_length_c   16.93374607
_cell_angle_alpha   90.00694266
_cell_angle_beta   90.07562237
_cell_angle_gamma   90.05136396
_symmetry_Int_Tables_number   1
_chemical_formula_structural   V85Zn86O256
_chemical_formula_sum   'V85 Zn86 O256'
_cell_volume   4859.37795080
_cell_formula_units_Z   1
loop_
 _symmetry_equiv_pos_site_id
 _symmetry_equiv_pos_as_xyz
  1  'x, y, z'
loop_
 _atom_site_type_symbol
 _atom_site_label
 _atom_site_symmetry_multiplicity
 _atom_site_fract_x
 _atom_site_fract_y
 _atom_site_fract_z
 _atom_site_occupancy
  V  V0  1  0.12608960  0.74397314  0.38375440  1
  V  V1  1  0.49961598  0.37651795  0.37522143  1
  V  V2  1  0.37731621  0.36429556  0.00377436  1
  V  V3  1  0.24989620  0.87872096  0.13064684  1
  V  V4  1  0.75033176  0.49856442  0.76017900  1
  V  V5  1  0.12668618  0.88566040  0.75351436  1
  V  V6  1  0.50273605  0.62474201  0.62524336  1
  V  V7  1  0.50525634  0.12193855  0.12574439  1
  V  V8  1  0.37665543  0.63838751  0.24798986  1
  V  V9  1  0.87651883  0.00141876  0.36433547  1
  V  V10  1  0.12749060  0.13009933  0.48933720  1
  V  V11  1  0.74574935  0.12107027  0.87489236  1
  V  V12  1  0.75348768  0.74917886  0.48886248  1
  V  V13  1  0.49513218  0.00033166  0.48967259  1
  V  V14  1  0.87477765  0.87604825  0.50097706  1
  V  V15  1  0.00275438  0.00214302  0.50181588  1
  V  V16  1  0.74898882  0.87038838  0.62487704  1
  V  V17  1  0.00166621  0.87526843  0.37472888  1
  V  V18  1  0.75179099  0.12444623  0.36629640  1
  V  V19  1  0.00143079  0.12515202  0.62848891  1
  V  V20  1  0.62582989  0.12561047  0.50028091  1
  V  V21  1  0.25409367  0.36902677  0.12454167  1
  V  V22  1  0.51647846  0.00262791  0.00467124  1
  V  V23  1  0.00120917  0.00762165  0.00210391  1
  V  V24  1  0.10756668  0.25423147  0.87108841  1
  V  V25  1  0.62596877  0.62617004  0.49547196  1
  V  V26  1  0.62487220  0.62496843  0.00093798  1
  V  V27  1  0.49509501  0.37875556  0.87510377  1
  V  V28  1  0.87409473  0.60876502  0.25174813  1
  V  V29  1  0.12376977  0.37263978  0.25939838  1
  V  V30  1  0.76087476  0.24871931  0.50289054  1
  V  V31  1  0.74432743  0.24533362  0.00138202  1
  V  V32  1  0.50258907  0.87586573  0.87319191  1
  V  V33  1  0.74495277  0.88022369  0.13435100  1
  V  V34  1  0.37180042  0.75100432  0.62675557  1
  V  V35  1  0.74548808  0.37150514  0.62674790  1
  V  V36  1  0.49168070  0.50229856  -0.00097485  1
  V  V37  1  0.87683546  0.37814880  -0.01134408  1
  V  V38  1  0.49997823  0.12447905  0.62474936  1
  V  V39  1  0.37215214  0.87446272  0.49469354  1
  V  V40  1  0.93451937  0.29815362  0.68502343  1
  V  V41  1  0.00393678  0.63043908  0.62463603  1
  V  V42  1  0.75170399  0.75058417  0.00160358  1
  V  V43  1  0.75369945  0.60654808  0.37059641  1
  V  V44  1  0.25461475  0.61893275  0.87877107  1
  V  V45  1  0.88314193  0.87231262  -0.00175985  1
  V  V46  1  0.74429258  -0.00498383  0.74706995  1
  V  V47  1  0.37114206  -0.00162375  0.87361139  1
  V  V48  1  0.62610350  0.50327395  0.12959235  1
  V  V49  1  0.24685742  0.25066500  0.48381348  1
  V  V50  1  0.62708068  0.38000379  0.25043026  1
  V  V51  1  0.12591592  0.00942024  0.13132175  1
  V  V52  1  0.62777855  0.75257116  0.87042721  1
  V  V53  1  0.62293589  -0.00953105  0.62166399  1
  V  V54  1  0.11927831  0.75556296  0.87573110  1
  V  V55  1  0.61960916  0.24214520  0.87719710  1
  V  V56  1  0.12295242  0.49700657  0.12268745  1
  V  V57  1  0.50340178  0.75613551  0.74753732  1
  V  V58  1  0.25007040  0.50181275  0.24971176  1
  V  V59  1  0.35536083  0.00833148  0.36764278  1
  V  V60  1  0.37711873  0.61733435  0.75547243  1
  V  V61  1  -0.00165480  0.62245759  0.12454891  1
  V  V62  1  -0.00131285  0.50831873  0.49324424  1
  V  V63  1  0.87415290  0.12121007  0.74361000  1
  V  V64  1  0.88077014  -0.00700248  0.87154317  1
  V  V65  1  0.87576494  0.62476399  0.75766329  1
  V  V66  1  0.75151384  0.37962014  0.12836735  1
  V  V67  1  0.25492782  0.75113597  0.00565400  1
  V  V68  1  0.37527910  0.50205829  0.37464687  1
  V  V69  1  -0.00269067  0.49626153  -0.01536002  1
  V  V70  1  0.48900438  0.25045608  0.24438103  1
  V  V71  1  0.56104491  0.80702497  0.31558359  1
  V  V72  1  0.13314233  0.50494764  0.62309252  1
  V  V73  1  0.00322722  0.24171396  0.24895725  1
  V  V74  1  -0.01029241  0.37426671  0.37294982  1
  V  V75  1  0.36928011  0.25112934  0.62382742  1
  V  V76  1  0.12592618  0.62493821  -0.00018901  1
  V  V77  1  0.49655486  0.63808029  0.12736073  1
  V  V78  1  0.24845032  0.12690121  0.87894934  1
  V  V79  1  0.36526104  0.11849017  0.74671173  1
  V  V80  1  0.37741907  0.87577249  0.00622872  1
  V  V81  1  0.00094566  0.74919709  0.24837075  1
  V  V82  1  0.88045472  0.24463215  0.12318787  1
  V  V83  1  0.49792376  0.24863094  0.75014357  1
  V  V84  1  0.62501491  0.25203749  0.37587491  1
  Zn  Zn85  1  0.12966349  0.87636761  0.25162968  1
  Zn  Zn86  1  0.50090025  0.50013448  0.50076947  1
  Zn  Zn87  1  0.24891856  0.24796421  0.00123562  1
  Zn  Zn88  1  0.87393275  0.12096021  0.24076640  1
  Zn  Zn89  1  0.12463337  0.37294156  0.75131047  1
  Zn  Zn90  1  0.12191631  0.12928873  0.00212668  1
  Zn  Zn91  1  0.13709362  0.00721556  0.63083960  1
  Zn  Zn92  1  0.36329722  0.11941282  0.24056965  1
  Zn  Zn93  1  0.62134294  0.37667334  0.75054413  1
  Zn  Zn94  1  0.24366245  0.74762143  0.50856655  1
  Zn  Zn95  1  0.87470772  0.74930340  0.12768913  1
  Zn  Zn96  1  0.24667720  0.62389760  0.38033769  1
  Zn  Zn97  1  0.87564680  0.37789350  0.49813703  1
  Zn  Zn98  1  0.37261568  0.37731012  0.50043886  1
  Zn  Zn99  1  0.25188121  0.49459254  0.75898224  1
  Zn  Zn100  1  0.25006407  0.37466601  0.62816233  1
  Zn  Zn101  1  -0.00164920  0.75534082  0.75549103  1
  Zn  Zn102  1  0.25541141  0.88875509  0.63417537  1
  Zn  Zn103  1  0.67841179  0.03016805  0.19633314  1
  Zn  Zn104  1  0.87560186  0.74815228  0.62586736  1
  Zn  Zn105  1  0.62601328  0.50001200  0.62605552  1
  Zn  Zn106  1  0.75368139  0.61986279  0.87882527  1
  Zn  Zn107  1  0.19177889  0.18809092  0.19461875  1
  Zn  Zn108  1  0.18514947  0.18819683  0.68922590  1
  Zn  Zn109  1  0.18876704  0.68911471  0.18895393  1
  Zn  Zn110  1  0.18808412  0.68763819  0.69385553  1
  Zn  Zn111  1  0.68102334  0.19819123  0.18671958  1
  Zn  Zn112  1  0.68623335  0.18681884  0.68774653  1
  Zn  Zn113  1  0.68878873  0.69053107  0.19085526  1
  Zn  Zn114  1  0.68863383  0.68733611  0.68593988  1
  Zn  Zn115  1  0.31325929  0.31565202  0.30926067  1
  Zn  Zn116  1  0.31134905  0.31192443  0.81303558  1
  Zn  Zn117  1  0.31367440  0.81640481  0.31563936  1
  Zn  Zn118  1  0.30962292  0.80916532  0.81516267  1
  Zn  Zn119  1  0.81469362  0.31176404  0.30955284  1
  Zn  Zn120  1  0.80425180  0.31242292  0.81612813  1
  Zn  Zn121  1  0.81707528  0.80763161  0.31216906  1
  Zn  Zn122  1  0.81269079  0.81110820  0.81025899  1
  Zn  Zn123  1  0.18690821  0.43891598  0.44092193  1
  Zn  Zn124  1  0.18570407  0.43268252  0.93698372  1
  Zn  Zn125  1  0.18633032  0.93194155  0.44397033  1
  Zn  Zn126  1  0.18810111  0.93919975  0.93818172  1
  Zn  Zn127  1  0.68681163  0.43807325  0.44261765  1
  Zn  Zn128  1  0.68164087  0.43331913  0.94091016  1
  Zn  Zn129  1  0.66734253  0.95518262  0.38731529  1
  Zn  Zn130  1  0.69344136  0.93074950  0.93610109  1
  Zn  Zn131  1  0.31540779  0.06192535  0.06355697  1
  Zn  Zn132  1  0.30783766  0.06437289  0.55782608  1
  Zn  Zn133  1  0.31426494  0.55965453  0.06487995  1
  Zn  Zn134  1  0.31333725  0.56893547  0.55850562  1
  Zn  Zn135  1  0.81270282  0.06136372  0.05787477  1
  Zn  Zn136  1  0.81319603  0.06017693  0.55873029  1
  Zn  Zn137  1  0.81363710  0.56127171  0.06341864  1
  Zn  Zn138  1  0.81574730  0.56110599  0.56604145  1
  Zn  Zn139  1  0.43854508  0.44268900  0.18743290  1
  Zn  Zn140  1  0.43620274  0.43762461  0.68735957  1
  Zn  Zn141  1  0.44344597  0.93450106  0.19060123  1
  Zn  Zn142  1  0.43827020  0.93673712  0.68477916  1
  Zn  Zn143  1  0.93951212  0.43154473  0.18070193  1
  Zn  Zn144  1  0.93772769  0.46008398  0.68581402  1
  Zn  Zn145  1  0.94053498  0.93366953  0.18215646  1
  Zn  Zn146  1  0.94280924  0.93500202  0.68808648  1
  Zn  Zn147  1  0.06693541  0.06302470  0.30995383  1
  Zn  Zn148  1  0.06042503  0.06657278  0.81546628  1
  Zn  Zn149  1  0.06214860  0.56228831  0.31149176  1
  Zn  Zn150  1  0.06853221  0.56593632  0.80833026  1
  Zn  Zn151  1  0.55309015  0.06707228  0.31185866  1
  Zn  Zn152  1  0.56009032  0.05937202  0.80885845  1
  Zn  Zn153  1  0.56223400  0.57008292  0.31218635  1
  Zn  Zn154  1  0.56588769  0.56341675  0.81299093  1
  Zn  Zn155  1  0.43295700  0.18660032  0.43510892  1
  Zn  Zn156  1  0.43859970  0.18139114  0.94174565  1
  Zn  Zn157  1  0.43389029  0.68754733  0.43916122  1
  Zn  Zn158  1  0.43794109  0.69056877  0.93847859  1
  Zn  Zn159  1  0.94141331  0.18839346  0.43346587  1
  Zn  Zn160  1  0.93051409  0.18490373  0.93584440  1
  Zn  Zn161  1  0.93536739  0.68599817  0.43518928  1
  Zn  Zn162  1  0.93844419  0.68488220  0.93858222  1
  Zn  Zn163  1  0.06276998  0.31129224  0.06025495  1
  Zn  Zn164  1  0.07115178  0.32167050  0.55535314  1
  Zn  Zn165  1  0.06459359  0.81527357  0.06287629  1
  Zn  Zn166  1  0.06525838  0.81881784  0.56842694  1
  Zn  Zn167  1  0.56292847  0.31155601  0.06330959  1
  Zn  Zn168  1  0.56282297  0.31156862  0.56086752  1
  Zn  Zn169  1  0.56678487  0.81665849  0.06310602  1
  Zn  Zn170  1  0.58265948  0.83165376  0.50739078  1
  O  O171  1  0.12697139  0.11212305  0.12125598  1
  O  O172  1  0.11514453  0.12646944  0.61911953  1
  O  O173  1  0.12225344  0.61409168  0.12000416  1
  O  O174  1  0.11935979  0.61550946  0.63150797  1
  O  O175  1  0.61396064  0.11374828  0.14485726  1
  O  O176  1  0.62107095  0.11634951  0.61811691  1
  O  O177  1  0.61993620  0.62007591  0.12179252  1
  O  O178  1  0.61779202  0.62314405  0.61860215  1
  O  O179  1  0.38343048  0.38381060  0.37468887  1
  O  O180  1  0.38815703  0.37062034  0.88430036  1
  O  O181  1  0.36964225  0.88397063  0.38871142  1
  O  O182  1  0.37993376  0.88129295  0.88118112  1
  O  O183  1  0.88575561  0.37758234  0.37331548  1
  O  O184  1  0.86970309  0.37059348  0.89012323  1
  O  O185  1  0.88069963  0.88247903  0.38086635  1
  O  O186  1  0.86871481  0.88327417  0.88227242  1
  O  O187  1  0.25687339  -0.00401280  0.37815224  1
  O  O188  1  0.26016925  0.01185039  0.87975862  1
  O  O189  1  0.25669778  0.49999262  0.36885934  1
  O  O190  1  0.24465229  0.51480202  0.88001743  1
  O  O191  1  0.76455657  0.01514612  0.38796345  1
  O  O192  1  0.75683047  0.00214933  0.86830366  1
  O  O193  1  0.75315410  0.50791896  0.37715559  1
  O  O194  1  0.74149822  0.49802391  0.86481652  1
  O  O195  1  0.24158989  0.49219664  0.12876177  1
  O  O196  1  0.23947496  0.50255934  0.62198871  1
  O  O197  1  0.23498552  0.99158628  0.11348943  1
  O  O198  1  0.25107603  1.00346726  0.62988159  1
  O  O199  1  0.73970823  0.49090342  0.11885543  1
  O  O200  1  0.75269985  0.48504580  0.63157416  1
  O  O201  1  0.75578265  0.98781822  0.12502207  1
  O  O202  1  0.74235492  0.99180412  0.62421994  1
  O  O203  1  0.00611075  0.37139355  0.25566026  1
  O  O204  1  -0.01013938  0.36500448  0.73710785  1
  O  O205  1  -0.00031411  0.86459430  0.25621566  1
  O  O206  1  0.01673773  0.87059524  0.74705938  1
  O  O207  1  0.50498852  0.37164294  0.25797073  1
  O  O208  1  0.49832843  0.36861330  0.75915220  1
  O  O209  1  0.50334123  0.86530541  0.25599558  1
  O  O210  1  0.49716066  0.86236783  0.75380838  1
  O  O211  1  0.48993526  0.13534579  0.24639779  1
  O  O212  1  0.49019379  0.12957585  0.74364396  1
  O  O213  1  0.48605740  0.62119532  0.24129141  1
  O  O214  1  0.49534529  0.63178790  0.74647293  1
  O  O215  1  0.99837050  0.13855379  0.25330807  1
  O  O216  1  0.99218958  0.12195818  0.73714443  1
  O  O217  1  0.99422067  0.62831043  0.24425664  1
  O  O218  1  0.99337399  0.62628314  0.74233877  1
  O  O219  1  0.37767001  0.26115513  0.00183094  1
  O  O220  1  0.36353039  0.25009063  0.50546126  1
  O  O221  1  0.36785562  0.76297959  -0.00439926  1
  O  O222  1  0.37856179  0.75989127  0.51005487  1
  O  O223  1  0.86653770  0.25838910  0.00365301  1
  O  O224  1  0.86372506  0.25230116  0.49600853  1
  O  O225  1  0.86895982  0.75544301  -0.00059388  1
  O  O226  1  0.87068417  0.75557261  0.50289181  1
  O  O227  1  0.13889726  0.24555426  0.50314175  1
  O  O228  1  0.12555172  0.24851163  0.98732963  1
  O  O229  1  0.12140422  0.75618988  0.48664005  1
  O  O230  1  0.13185226  0.74474958  0.99537740  1
  O  O231  1  0.63498981  0.24566662  0.49437547  1
  O  O232  1  0.63596987  0.25281118  0.99355948  1
  O  O233  1  0.63916764  0.73300150  0.50603779  1
  O  O234  1  0.63334905  0.74495476  0.99384741  1
  O  O235  1  0.51147194  0.23808349  0.13415687  1
  O  O236  1  0.49034787  0.24424886  0.62710248  1
  O  O237  1  0.50313483  0.73687715  0.11485242  1
  O  O238  1  0.49085087  0.73826584  0.63488527  1
  O  O239  1  0.99020383  0.25774158  0.13282299  1
  O  O240  1  0.99728479  0.24719614  0.62032433  1
  O  O241  1  1.00138765  0.74232296  0.13183806  1
  O  O242  1  1.00212328  0.73796927  0.62265495  1
  O  O243  1  -0.00269677  0.26177936  0.36394042  1
  O  O244  1  0.00890848  0.24379240  0.87538524  1
  O  O245  1  0.00772872  0.75365427  0.36954074  1
  O  O246  1  0.01585063  0.74585595  0.87921071  1
  O  O247  1  0.50218721  0.25774724  0.36849850  1
  O  O248  1  0.50421699  0.25220552  0.87300935  1
  O  O249  1  0.50266744  0.74395186  0.36931458  1
  O  O250  1  0.50738383  0.75558127  0.86846524  1
  O  O251  1  0.24166288  0.14092494  0.49985956  1
  O  O252  1  0.24990544  0.12794205  0.99324783  1
  O  O253  1  0.25665653  0.63675675  0.49222220  1
  O  O254  1  0.24841650  0.63158639  0.99881910  1
  O  O255  1  0.74661678  0.13325461  0.49516647  1
  O  O256  1  0.75520948  0.13483509  0.98948836  1
  O  O257  1  0.74933922  0.62637311  0.49109417  1
  O  O258  1  0.74611307  0.63253733  0.99917179  1
  O  O259  1  0.26116159  0.37592383  0.00612675  1
  O  O260  1  0.25007986  0.36297798  0.50482901  1
  O  O261  1  0.25840439  0.86921196  0.00488414  1
  O  O262  1  0.25766118  0.86741354  0.50946089  1
  O  O263  1  0.75713896  0.36879419  0.00727547  1
  O  O264  1  0.75452116  0.36883647  0.50829677  1
  O  O265  1  0.76140359  0.86746122  0.00651042  1
  O  O266  1  0.75782837  0.86457016  0.50843232  1
  O  O267  1  0.12897169  0.49442113  0.24162371  1
  O  O268  1  0.12771695  0.49697573  0.73775967  1
  O  O269  1  0.11940393  0.99536070  0.23508412  1
  O  O270  1  0.12133466  0.98900157  0.75524931  1
  O  O271  1  0.61862390  0.49657586  0.23712357  1
  O  O272  1  0.63412201  0.49822817  0.74608180  1
  O  O273  1  0.62816183  0.98998966  0.28471447  1
  O  O274  1  0.63044641  1.00217488  0.73456614  1
  O  O275  1  0.37932581  -0.00433904  0.26653149  1
  O  O276  1  0.38508155  0.00693409  0.76294560  1
  O  O277  1  0.36930116  0.50425347  0.25927903  1
  O  O278  1  0.37409575  0.51372694  0.74863701  1
  O  O279  1  0.88379750  0.00136995  0.26048558  1
  O  O280  1  0.86934117  0.00333268  0.75437489  1
  O  O281  1  0.88162786  0.50949973  0.24297850  1
  O  O282  1  0.86342643  0.51027342  0.75108533  1
  O  O283  1  0.11727533  0.38236045  0.36275323  1
  O  O284  1  0.12484438  0.35976636  0.87253970  1
  O  O285  1  0.11755470  0.86729880  0.37195922  1
  O  O286  1  0.13019399  0.86775470  0.86734899  1
  O  O287  1  0.61983460  0.37279771  0.37165333  1
  O  O288  1  0.61245488  0.36162993  0.87645306  1
  O  O289  1  0.61485830  0.85689582  0.39585869  1
  O  O290  1  0.62020665  0.86066854  0.87852207  1
  O  O291  1  0.39663576  0.11309662  0.12582521  1
  O  O292  1  0.38030340  0.13006602  0.63104849  1
  O  O293  1  0.38170406  0.62027676  0.13823548  1
  O  O294  1  0.38280030  0.63105621  0.63342384  1
  O  O295  1  0.86834698  0.13974575  0.12281861  1
  O  O296  1  0.87912335  0.12063347  0.63596325  1
  O  O297  1  0.87994877  0.62732727  0.13232087  1
  O  O298  1  0.88509540  0.62464929  0.63561596  1
  O  O299  1  0.24059528  0.26645568  0.12081082  1
  O  O300  1  0.26164066  0.24816093  0.62259064  1
  O  O301  1  0.24361277  0.75798352  0.11184406  1
  O  O302  1  0.26478504  0.74787409  0.63087876  1
  O  O303  1  0.75257221  0.25734264  0.11640473  1
  O  O304  1  0.74560996  0.26098474  0.61833105  1
  O  O305  1  0.75200939  0.75457801  0.11370821  1
  O  O306  1  0.75246960  0.75587306  0.61683748  1
  O  O307  1  0.25163903  0.25686117  0.38554595  1
  O  O308  1  0.25055503  0.23694996  0.87854887  1
  O  O309  1  0.23191621  0.75319234  0.37147913  1
  O  O310  1  0.24293286  0.74140018  0.88792268  1
  O  O311  1  0.74793715  0.24267516  0.38103358  1
  O  O312  1  0.73920087  0.24363399  0.88139386  1
  O  O313  1  0.75736468  0.74160264  0.38636086  1
  O  O314  1  0.74382436  0.74994656  0.88442676  1
  O  O315  1  -0.00433103  0.11156036  -0.00203970  1
  O  O316  1  0.00258280  0.12177382  0.50965793  1
  O  O317  1  0.00447617  0.61617268  0.00633762  1
  O  O318  1  -0.00282824  0.61516947  0.50494293  1
  O  O319  1  0.50492355  0.11111802  0.00685290  1
  O  O320  1  0.50297960  0.12163656  0.50705375  1
  O  O321  1  0.50293762  0.61820764  0.00478602  1
  O  O322  1  0.50870858  0.62598690  0.50767607  1
  O  O323  1  0.49950153  0.37596362  0.48632188  1
  O  O324  1  0.49497444  0.38113299  0.99719132  1
  O  O325  1  0.48591122  0.89036029  0.50923628  1
  O  O326  1  0.49496039  0.88282612  0.99606016  1
  O  O327  1  0.99896559  0.38326291  0.48956351  1
  O  O328  1  0.98482768  0.38103216  1.00360614  1
  O  O329  1  0.99641456  0.88481058  0.49714686  1
  O  O330  1  0.98826234  0.88195211  1.00263639  1
  O  O331  1  0.49386662  0.49333930  0.37367023  1
  O  O332  1  0.50885197  0.49019606  0.88546636  1
  O  O333  1  0.48854859  1.00611745  0.38835279  1
  O  O334  1  0.49624467  0.99415968  0.88301227  1
  O  O335  1  1.00651117  0.49633839  0.38825997  1
  O  O336  1  1.00762611  0.50434064  0.88591632  1
  O  O337  1  0.99509981  0.99622020  0.38124049  1
  O  O338  1  0.98643472  1.00373346  0.88057209  1
  O  O339  1  0.01403092  -0.00525933  0.11568622  1
  O  O340  1  0.00275629  0.00938213  0.61711282  1
  O  O341  1  0.00813721  0.50272141  0.11673380  1
  O  O342  1  0.01119324  0.51178705  0.61631273  1
  O  O343  1  0.50428897  -0.00177153  0.11064131  1
  O  O344  1  0.50657405  0.00622435  0.61855495  1
  O  O345  1  0.50717405  0.50810418  0.11695157  1
  O  O346  1  0.49930830  0.51300288  0.62405034  1
  O  O347  1  0.24224641  0.38122244  0.24330382  1
  O  O348  1  0.24965210  0.37928012  0.74711229  1
  O  O349  1  0.25149065  0.86908138  0.23380603  1
  O  O350  1  0.23390244  0.86788524  0.75182316  1
  O  O351  1  0.74423964  0.36921196  0.23647800  1
  O  O352  1  0.74671958  0.37998952  0.74436665  1
  O  O353  1  0.75967418  0.86670120  0.23313444  1
  O  O354  1  0.75218364  0.87791982  0.73333561  1
  O  O355  1  0.25442118  0.12388092  0.25223238  1
  O  O356  1  0.26189979  0.12803981  0.75682145  1
  O  O357  1  0.25973729  0.61906075  0.25098726  1
  O  O358  1  0.25952113  0.62383531  0.76218838  1
  O  O359  1  0.74943052  0.12670335  0.25844941  1
  O  O360  1  0.75577522  0.11709575  0.75263743  1
  O  O361  1  0.75784543  0.62660207  0.26288914  1
  O  O362  1  0.75698799  0.61681561  0.75118418  1
  O  O363  1  0.37183591  0.11057755  0.37519674  1
  O  O364  1  0.37062136  0.11760755  0.86875906  1
  O  O365  1  0.37581779  0.61807120  0.36322818  1
  O  O366  1  0.36786673  0.63147099  0.86804701  1
  O  O367  1  0.86886812  0.11916987  0.37071844  1
  O  O368  1  0.86769223  0.11723615  0.86173458  1
  O  O369  1  0.86377646  0.62304762  0.36766590  1
  O  O370  1  0.87304887  0.62881314  0.86281450  1
  O  O371  1  0.12924552  0.38555393  0.12832571  1
  O  O372  1  0.12607790  0.38981790  0.62966908  1
  O  O373  1  0.13390961  0.88373417  0.12534173  1
  O  O374  1  0.13063495  0.88008623  0.63932378  1
  O  O375  1  0.63137340  0.38333443  0.12818211  1
  O  O376  1  0.63184964  0.37719559  0.62725690  1
  O  O377  1  0.64509676  0.87523477  0.12042548  1
  O  O378  1  0.63199751  0.88560361  0.60883732  1
  O  O379  1  0.11473523  0.26346332  0.23935995  1
  O  O380  1  0.12602366  0.25093564  0.76546107  1
  O  O381  1  0.11367725  0.75060315  0.25631050  1
  O  O382  1  0.12247813  0.75546756  0.76149391  1
  O  O383  1  0.61556170  0.26111159  0.25885106  1
  O  O384  1  0.61639914  0.25109932  0.75806097  1
  O  O385  1  0.62414819  0.75221678  0.25829530  1
  O  O386  1  0.61644556  0.74308080  0.75839390  1
  O  O387  1  0.38706889  0.25599618  0.24654552  1
  O  O388  1  0.37969549  0.24111317  0.74222909  1
  O  O389  1  0.36904897  0.73645904  0.25266738  1
  O  O390  1  0.38350070  0.74218504  0.74692418  1
  O  O391  1  0.88318019  0.24928051  0.23916048  1
  O  O392  1  0.87345034  0.24298513  0.74937735  1
  O  O393  1  0.88921998  0.73923140  0.25069044  1
  O  O394  1  0.87891572  0.74244813  0.74648488  1
  O  O395  1  0.37823469  0.49978216  0.48653590  1
  O  O396  1  0.38790122  0.49219728  1.00306728  1
  O  O397  1  0.37725679  0.99557960  0.49231159  1
  O  O398  1  0.38484642  0.99384063  0.98819311  1
  O  O399  1  0.89469112  0.49533032  0.50965185  1
  O  O400  1  0.88088600  0.48675096  1.00294271  1
  O  O401  1  0.88790715  0.99815822  0.49224677  1
  O  O402  1  0.88043594  0.99223965  0.99172848  1
  O  O403  1  0.11504774  0.00169915  0.00436892  1
  O  O404  1  0.11489411  0.00731872  0.50172180  1
  O  O405  1  0.11841618  0.50275669  0.00586836  1
  O  O406  1  0.11374637  0.49727850  0.51244160  1
  O  O407  1  0.61423022  -0.00512595  -0.00863311  1
  O  O408  1  0.61418346  0.00768423  0.49983000  1
  O  O409  1  0.61649770  0.50491284  0.00964901  1
  O  O410  1  0.62338236  0.51187073  0.50478364  1
  O  O411  1  0.36627005  0.38218215  0.11781656  1
  O  O412  1  0.37570552  0.36527514  0.62066932  1
  O  O413  1  0.36797824  0.88639405  0.11292421  1
  O  O414  1  0.37402214  0.86644392  0.62043569  1
  O  O415  1  0.86604256  0.36581641  0.11693701  1
  O  O416  1  0.87371297  0.36528529  0.63068206  1
  O  O417  1  0.86872781  0.87058382  0.11456158  1
  O  O418  1  0.86813573  0.87566850  0.61806608  1
  O  O419  1  0.11438236  0.12676267  0.39069067  1
  O  O420  1  0.13205493  0.13376039  0.87693248  1
  O  O421  1  0.12419465  0.64046033  0.37016887  1
  O  O422  1  0.13391466  0.63296025  0.88182933  1
  O  O423  1  0.63227666  0.13394767  0.38109135  1
  O  O424  1  0.62752682  0.13502185  0.86871526  1
  O  O425  1  0.64080461  0.61909909  0.38153543  1
  O  O426  1  0.62670881  0.63600799  0.88333678  1
