# generated using pymatgen
data_V85Zn86O256
_symmetry_space_group_name_H-M   'P 1'
_cell_length_a   16.94963635
_cell_length_b   16.93974690
_cell_length_c   16.95553625
_cell_angle_alpha   90.07180401
_cell_angle_beta   89.95130235
_cell_angle_gamma   89.95154867
_symmetry_Int_Tables_number   1
_chemical_formula_structural   V85Zn86O256
_chemical_formula_sum   'V85 Zn86 O256'
_cell_volume   4868.30947387
_cell_formula_units_Z   1
loop_
 _symmetry_equiv_pos_site_id
 _symmetry_equiv_pos_as_xyz
  1  'x, y, z'
loop_
 _atom_site_type_symbol
 _atom_site_label
 _atom_site_symmetry_multiplicity
 _atom_site_fract_x
 _atom_site_fract_y
 _atom_site_fract_z
 _atom_site_occupancy
  V  V0  1  0.37485073  0.62553487  0.24709304  1
  V  V1  1  0.38251106  0.37000328  -0.00579631  1
  V  V2  1  0.49904397  0.50010139  0.49930073  1
  V  V3  1  0.25156362  0.00011629  0.75472817  1
  V  V4  1  0.87765358  -0.01079792  0.88073113  1
  V  V5  1  0.11865477  0.36768504  0.74883131  1
  V  V6  1  0.37510044  0.75829824  0.11903391  1
  V  V7  1  0.61218451  0.36654388  0.75240746  1
  V  V8  1  0.88322423  0.74897911  0.12477258  1
  V  V9  1  0.00056960  0.24778147  0.25253750  1
  V  V10  1  -0.00355143  0.62074170  0.62316078  1
  V  V11  1  0.12720566  0.86970234  0.24177175  1
  V  V12  1  0.50006187  0.75191522  0.24977409  1
  V  V13  1  0.37690004  0.13747304  0.74744536  1
  V  V14  1  0.62999913  0.62056639  -0.00064699  1
  V  V15  1  0.62483945  0.75240670  0.37236777  1
  V  V16  1  0.62411778  0.62571923  0.49783164  1
  V  V17  1  -0.00073338  0.75133989  0.75028122  1
  V  V18  1  0.49630542  0.24681996  0.24836403  1
  V  V19  1  0.75213530  0.62627188  0.37420507  1
  V  V20  1  0.87466114  0.25188764  0.62606511  1
  V  V21  1  0.49246130  0.87580800  0.37656700  1
  V  V22  1  0.01391039  0.50569561  -0.00279079  1
  V  V23  1  0.12786757  0.38023487  0.25012476  1
  V  V24  1  0.49856022  0.62933576  0.62218084  1
  V  V25  1  0.24923155  0.50074804  0.23665621  1
  V  V26  1  0.49965363  0.88029021  0.88596887  1
  V  V27  1  0.87300144  0.12324528  0.75447417  1
  V  V28  1  0.00142800  0.86808661  0.37079915  1
  V  V29  1  -0.00011948  0.12406845  0.62631447  1
  V  V30  1  0.12470384  -0.00109690  0.62646845  1
  V  V31  1  0.87418432  0.12509922  0.25328464  1
  V  V32  1  0.01056950  0.62019576  0.12403151  1
  V  V33  1  0.25152984  0.75413863  0.49811841  1
  V  V34  1  0.49772232  0.12338809  0.11768758  1
  V  V35  1  0.74430749  0.50541406  0.75747512  1
  V  V36  1  0.36998569  0.12691945  0.25347675  1
  V  V37  1  0.12127471  0.62325642  0.49912581  1
  V  V38  1  0.72744293  0.01709630  0.77847288  1
  V  V39  1  0.50246701  0.62321003  0.12242046  1
  V  V40  1  0.75839774  0.74648378  -0.00112864  1
  V  V41  1  0.37393273  0.75564724  0.62224509  1
  V  V42  1  0.49967781  0.75516194  0.75217682  1
  V  V43  1  0.12240480  0.49735300  0.61964002  1
  V  V44  1  0.25575536  0.35393711  0.11970353  1
  V  V45  1  0.37671566  0.00349927  0.88376164  1
  V  V46  1  0.00270944  0.37846898  0.38492193  1
  V  V47  1  0.88089194  0.62785504  0.24597055  1
  V  V48  1  0.62210217  0.00405555  0.11145559  1
  V  V49  1  0.63185643  0.74871455  0.87651783  1
  V  V50  1  0.74554230  0.00771595  0.25152089  1
  V  V51  1  0.37176047  0.62721073  0.75375866  1
  V  V52  1  0.25767191  0.36947366  0.62536686  1
  V  V53  1  0.00462554  -0.00588654  0.00314470  1
  V  V54  1  0.49227375  -0.00343582  0.50096085  1
  V  V55  1  0.05784750  0.31656250  0.92496036  1
  V  V56  1  0.24498785  0.75028860  0.00484777  1
  V  V57  1  0.25467005  0.87713830  0.62295838  1
  V  V58  1  0.13220582  0.24500761  0.37435175  1
  V  V59  1  0.87409968  0.75185843  0.62540509  1
  V  V60  1  0.36420877  -0.00043841  0.37800996  1
  V  V61  1  0.62275083  0.00091752  0.62162573  1
  V  V62  1  0.49408678  0.13809238  0.62557720  1
  V  V63  1  0.24517075  0.13928831  0.88164124  1
  V  V64  1  0.62844277  0.24736911  0.36947971  1
  V  V65  1  0.88410083  0.49705317  0.87355423  1
  V  V66  1  0.50028926  0.37368080  0.37324414  1
  V  V67  1  0.13000428  0.12282874  0.49664488  1
  V  V68  1  0.24881911  0.62304382  0.37494526  1
  V  V69  1  0.12514072  0.74302582  0.87682458  1
  V  V70  1  0.62565525  0.49447929  0.12521999  1
  V  V71  1  0.62686345  0.12675920  0.49584730  1
  V  V72  1  0.87128481  0.00073173  0.37366066  1
  V  V73  1  0.75037956  0.88280238  0.62579386  1
  V  V74  1  0.75457890  0.87362794  0.12467627  1
  V  V75  1  -0.00061348  -0.00139420  0.49917304  1
  V  V76  1  0.37404862  0.49845505  0.37422646  1
  V  V77  1  0.86184043  0.25871826  0.12505485  1
  V  V78  1  0.25059263  -0.00121756  0.23918725  1
  V  V79  1  0.87994208  0.50149795  0.38177321  1
  V  V80  1  0.75084217  0.49333465  0.24864545  1
  V  V81  1  0.24925978  0.50120324  0.75043549  1
  V  V82  1  0.25663553  0.24625851  0.50165371  1
  V  V83  1  0.75322128  0.24966513  0.49453188  1
  V  V84  1  0.74964723  0.75290994  0.50018036  1
  Zn  Zn85  1  0.00342143  0.12528115  0.12314192  1
  Zn  Zn86  1  -0.00182792  0.25162482  0.75616134  1
  Zn  Zn87  1  0.00178433  0.86780749  0.88183374  1
  Zn  Zn88  1  0.85471223  0.36527305  -0.01197919  1
  Zn  Zn89  1  0.86732857  0.62817408  0.75599400  1
  Zn  Zn90  1  0.62343608  0.26112106  0.89373101  1
  Zn  Zn91  1  0.87618089  0.87594077  0.49828915  1
  Zn  Zn92  1  0.13117182  0.00185402  0.11972039  1
  Zn  Zn93  1  0.87684994  0.37926934  0.50292554  1
  Zn  Zn94  1  0.74848937  0.37908805  0.62558717  1
  Zn  Zn95  1  0.37214059  0.87917263  0.00389148  1
  Zn  Zn96  1  0.12194949  0.74830363  0.37068960  1
  Zn  Zn97  1  0.62604681  0.50116542  0.62707679  1
  Zn  Zn98  1  0.37985019  0.36594102  0.50401580  1
  Zn  Zn99  1  0.24325186  0.61987325  0.88499472  1
  Zn  Zn100  1  0.74749242  0.14323769  0.90534294  1
  Zn  Zn101  1  0.62453890  0.87846619  0.24920437  1
  Zn  Zn102  1  0.12478605  0.13364127  -0.00173104  1
  Zn  Zn103  1  0.12514281  0.87446395  0.75189350  1
  Zn  Zn104  1  0.39772389  0.48819661  0.87790508  1
  Zn  Zn105  1  0.62962527  0.36985722  0.24673947  1
  Zn  Zn106  1  0.62399573  0.87478351  0.74937803  1
  Zn  Zn107  1  0.18583923  0.18041366  0.18862101  1
  Zn  Zn108  1  0.18880324  0.18713048  0.68913221  1
  Zn  Zn109  1  0.19067545  0.69044451  0.18549986  1
  Zn  Zn110  1  0.18449379  0.68839221  0.68673893  1
  Zn  Zn111  1  0.68654892  0.19141624  0.06953475  1
  Zn  Zn112  1  0.68760495  0.19034341  0.68612408  1
  Zn  Zn113  1  0.69206144  0.68450323  0.18731468  1
  Zn  Zn114  1  0.68620324  0.68735717  0.68679640  1
  Zn  Zn115  1  0.31316013  0.31305303  0.31347853  1
  Zn  Zn116  1  0.31311294  0.31596239  0.81348498  1
  Zn  Zn117  1  0.31031702  0.81328421  0.31050050  1
  Zn  Zn118  1  0.31142321  0.81363511  0.81688285  1
  Zn  Zn119  1  0.81393490  0.31303538  0.31408208  1
  Zn  Zn120  1  0.80306460  0.31616081  0.81132204  1
  Zn  Zn121  1  0.81412136  0.81420876  0.30749335  1
  Zn  Zn122  1  0.80996224  0.81969251  0.80912445  1
  Zn  Zn123  1  0.19037777  0.43563327  0.43781140  1
  Zn  Zn124  1  0.20496373  0.43973133  0.94348860  1
  Zn  Zn125  1  0.18605758  0.93445118  0.43576233  1
  Zn  Zn126  1  0.18747669  0.93071775  0.93617112  1
  Zn  Zn127  1  0.68812338  0.43493476  0.43578459  1
  Zn  Zn128  1  0.68328663  0.43132902  0.93418433  1
  Zn  Zn129  1  0.68615276  0.93685412  0.43648932  1
  Zn  Zn130  1  0.68713072  0.92978760  0.94379850  1
  Zn  Zn131  1  0.31480647  0.07146199  0.06216906  1
  Zn  Zn132  1  0.31241505  0.06330791  0.56444208  1
  Zn  Zn133  1  0.31537405  0.56313899  0.05782131  1
  Zn  Zn134  1  0.31182230  0.56332664  0.56434692  1
  Zn  Zn135  1  0.82247795  0.05806905  0.07048356  1
  Zn  Zn136  1  0.81223239  0.06639959  0.56037503  1
  Zn  Zn137  1  0.79578747  0.52773579  0.04118190  1
  Zn  Zn138  1  0.80964331  0.56254082  0.56545787  1
  Zn  Zn139  1  0.43672468  0.43544028  0.18299533  1
  Zn  Zn140  1  0.43668458  0.44182943  0.68595043  1
  Zn  Zn141  1  0.43934156  0.94011243  0.18930064  1
  Zn  Zn142  1  0.43584518  0.94212060  0.69158436  1
  Zn  Zn143  1  0.94009713  0.44078867  0.18809063  1
  Zn  Zn144  1  0.93517258  0.43857677  0.68874196  1
  Zn  Zn145  1  0.94000986  0.93410108  0.18734392  1
  Zn  Zn146  1  0.93392319  0.93869407  0.69235741  1
  Zn  Zn147  1  0.06335237  0.05847117  0.31245207  1
  Zn  Zn148  1  0.06308540  0.06404059  0.81595890  1
  Zn  Zn149  1  0.06220442  0.56182499  0.31152583  1
  Zn  Zn150  1  0.06147997  0.56200509  0.80837613  1
  Zn  Zn151  1  0.56092540  0.06271824  0.31203626  1
  Zn  Zn152  1  0.55222499  0.09027967  0.83589275  1
  Zn  Zn153  1  0.56310508  0.56308929  0.31041997  1
  Zn  Zn154  1  0.56335885  0.56472095  0.81493430  1
  Zn  Zn155  1  0.43935897  0.18191776  0.43440632  1
  Zn  Zn156  1  0.44184349  0.20042266  0.93344260  1
  Zn  Zn157  1  0.43364710  0.68832614  0.43588207  1
  Zn  Zn158  1  0.44732852  0.66656917  0.92863588  1
  Zn  Zn159  1  0.94012533  0.18598972  0.43655916  1
  Zn  Zn160  1  0.92745965  0.17833171  0.94511627  1
  Zn  Zn161  1  0.93714293  0.68802361  0.43929899  1
  Zn  Zn162  1  0.93591321  0.67869906  0.93701472  1
  Zn  Zn163  1  0.05886112  0.31996053  0.08385233  1
  Zn  Zn164  1  0.06485412  0.30872523  0.56506225  1
  Zn  Zn165  1  0.06298352  0.81175569  0.06223829  1
  Zn  Zn166  1  0.06471898  0.81247959  0.56212068  1
  Zn  Zn167  1  0.55029090  0.31647782  0.06531397  1
  Zn  Zn168  1  0.56697100  0.31652316  0.56405921  1
  Zn  Zn169  1  0.56659926  0.81197084  0.06359746  1
  Zn  Zn170  1  0.56238846  0.81507834  0.56002253  1
  O  O171  1  0.12179452  0.12099453  0.11775670  1
  O  O172  1  0.11888499  0.11842523  0.61929595  1
  O  O173  1  0.10922301  0.62885923  0.13636349  1
  O  O174  1  0.11848862  0.61787198  0.61776772  1
  O  O175  1  0.61247314  0.11209794  0.12671012  1
  O  O176  1  0.61685412  0.11964253  0.61547733  1
  O  O177  1  0.61959738  0.62069165  0.12199568  1
  O  O178  1  0.61632224  0.62635558  0.61469783  1
  O  O179  1  0.38162382  0.38202286  0.37976539  1
  O  O180  1  0.37725695  0.37565432  0.88427923  1
  O  O181  1  0.38560475  0.88026561  0.37207870  1
  O  O182  1  0.38321048  0.88498255  0.87446804  1
  O  O183  1  0.88584377  0.38296645  0.37654344  1
  O  O184  1  0.87111720  0.38955680  0.87182765  1
  O  O185  1  0.88374349  0.88225949  0.37298137  1
  O  O186  1  0.88614581  0.88574414  0.86755419  1
  O  O187  1  0.26142170  -0.00652276  0.37073327  1
  O  O188  1  0.25587459  0.00324247  0.86814846  1
  O  O189  1  0.25678861  0.50477389  0.36985878  1
  O  O190  1  0.24287169  0.50392774  0.85680765  1
  O  O191  1  0.76297438  -0.00840651  0.36789831  1
  O  O192  1  0.76780887  -0.02282844  0.87683450  1
  O  O193  1  0.75593364  0.50740684  0.36914880  1
  O  O194  1  0.75770703  0.50131182  0.86046219  1
  O  O195  1  0.25136360  0.50011435  0.13582730  1
  O  O196  1  0.24309310  0.49268992  0.63138476  1
  O  O197  1  0.25388697  1.00078388  0.13552078  1
  O  O198  1  0.24590072  0.99410366  0.63153859  1
  O  O199  1  0.73803585  0.51492841  0.14173806  1
  O  O200  1  0.74787342  0.49896896  0.63549112  1
  O  O201  1  0.74178843  0.99233642  0.13254591  1
  O  O202  1  0.74108578  0.99118269  0.61419858  1
  O  O203  1  0.01096267  0.37009532  0.25775482  1
  O  O204  1  0.01415369  0.37561555  0.74505000  1
  O  O205  1  0.01553173  0.88231475  0.25862809  1
  O  O206  1  0.00155356  0.86034688  0.74521628  1
  O  O207  1  0.49792731  0.36395772  0.25500105  1
  O  O208  1  0.51323318  0.38433868  0.74519509  1
  O  O209  1  0.50180706  0.86896729  0.25939538  1
  O  O210  1  0.50050672  0.86558983  0.75395614  1
  O  O211  1  0.49242127  0.13041477  0.24754896  1
  O  O212  1  0.48280588  0.11593568  0.73836159  1
  O  O213  1  0.49500486  0.63415308  0.24505334  1
  O  O214  1  0.49256894  0.63975293  0.74091056  1
  O  O215  1  0.99571182  0.13272679  0.25242430  1
  O  O216  1  0.98774316  0.12512795  0.74730539  1
  O  O217  1  0.98862964  0.61582858  0.24241256  1
  O  O218  1  0.99747600  0.63522476  0.73877956  1
  O  O219  1  0.37663857  0.26712307  -0.00332552  1
  O  O220  1  0.36007441  0.24512527  0.49116254  1
  O  O221  1  0.36997960  0.74918306  0.00771592  1
  O  O222  1  0.36034761  0.74361076  0.50672123  1
  O  O223  1  0.87649777  0.25341844  0.01785465  1
  O  O224  1  0.86846023  0.24822825  0.50431918  1
  O  O225  1  0.86492811  0.74166816  0.00638896  1
  O  O226  1  0.86765745  0.75287914  0.50756946  1
  O  O227  1  0.13205924  0.24179357  0.49377230  1
  O  O228  1  0.10678451  0.25775936  0.99210693  1
  O  O229  1  0.13581161  0.74135723  0.49916269  1
  O  O230  1  0.13574788  0.75231219  0.99430137  1
  O  O231  1  0.63094599  0.24466726  0.49205942  1
  O  O232  1  0.62645833  0.26201995  1.00873373  1
  O  O233  1  0.62975732  0.74641631  0.49241741  1
  O  O234  1  0.63751990  0.74583926  0.99558641  1
  O  O235  1  0.50333584  0.23573226  0.14017955  1
  O  O236  1  0.49947313  0.23654974  0.61243495  1
  O  O237  1  0.49619572  0.74651220  0.13415225  1
  O  O238  1  0.49441518  0.75022135  0.62900606  1
  O  O239  1  0.99399604  0.24849540  0.14322256  1
  O  O240  1  0.98881276  0.24255239  0.62391271  1
  O  O241  1  0.98901258  0.74087903  0.11571985  1
  O  O242  1  0.99594865  0.74216859  0.62875181  1
  O  O243  1  0.00843910  0.25703189  0.36850447  1
  O  O244  1  -0.00766203  0.25366061  0.87633146  1
  O  O245  1  0.00040624  0.76404589  0.37950970  1
  O  O246  1  0.00363954  0.74655332  0.86732759  1
  O  O247  1  0.50632198  0.25459675  0.37175846  1
  O  O248  1  0.53188754  0.19589320  0.87173724  1
  O  O249  1  0.50180227  0.75742384  0.37085006  1
  O  O250  1  0.50625394  0.75680233  0.86663719  1
  O  O251  1  0.23767298  0.13007954  0.50574659  1
  O  O252  1  0.24869639  0.12722310  0.98614835  1
  O  O253  1  0.23983063  0.62955563  0.49703188  1
  O  O254  1  0.25441426  0.64215811  0.99875634  1
  O  O255  1  0.73934680  0.13765208  0.50405036  1
  O  O256  1  0.75002033  0.11786494  1.01280429  1
  O  O257  1  0.74426458  0.63235398  0.49432128  1
  O  O258  1  0.74053699  0.63224297  1.00649395  1
  O  O259  1  0.24473011  0.36297114  0.01768605  1
  O  O260  1  0.25111421  0.36487256  0.50802861  1
  O  O261  1  0.25577816  0.85792273  -0.00402393  1
  O  O262  1  0.24523579  0.86509492  0.50799877  1
  O  O263  1  0.75876899  0.41934060  0.01272149  1
  O  O264  1  0.75182534  0.36275036  0.50165284  1
  O  O265  1  0.74878623  0.86384090  0.01690540  1
  O  O266  1  0.75131407  0.86920076  0.50642082  1
  O  O267  1  0.13635065  0.48934308  0.25969946  1
  O  O268  1  0.13026773  0.49514130  0.73684176  1
  O  O269  1  0.13538961  0.99323308  0.24920637  1
  O  O270  1  0.13572570  1.00071291  0.74539431  1
  O  O271  1  0.63414035  0.50030842  0.24549170  1
  O  O272  1  0.63236284  0.50206139  0.75105934  1
  O  O273  1  0.63369351  0.99968861  0.24825250  1
  O  O274  1  0.62598502  0.99724227  0.72991680  1
  O  O275  1  0.36737850  0.00177481  0.25832949  1
  O  O276  1  0.36300341  0.00643974  0.75677508  1
  O  O277  1  0.36852372  0.50553077  0.25433028  1
  O  O278  1  0.36802776  0.50979437  0.75328430  1
  O  O279  1  0.87223348  0.00536625  0.25519742  1
  O  O280  1  0.86885970  0.00665962  0.76373004  1
  O  O281  1  0.86872108  0.50587948  0.25860075  1
  O  O282  1  0.86662874  0.50195127  0.75607349  1
  O  O283  1  0.12141712  0.36781335  0.36933668  1
  O  O284  1  0.12694893  0.37044971  0.86855949  1
  O  O285  1  0.11688408  0.87364663  0.36669114  1
  O  O286  1  0.12011670  0.86099839  0.87020451  1
  O  O287  1  0.61701458  0.36606781  0.37271164  1
  O  O288  1  0.61971082  0.37739444  0.85954726  1
  O  O289  1  0.61245967  0.87005927  0.37428274  1
  O  O290  1  0.61710954  0.86700464  0.87354860  1
  O  O291  1  0.38824294  0.11447157  0.14093138  1
  O  O292  1  0.37901274  0.12204072  0.63748741  1
  O  O293  1  0.38465661  0.63140299  0.12809681  1
  O  O294  1  0.37910944  0.63336206  0.63238380  1
  O  O295  1  0.88214012  0.13379468  0.14004077  1
  O  O296  1  0.88274745  0.12944762  0.62990388  1
  O  O297  1  0.88369947  0.63146513  0.13384117  1
  O  O298  1  0.88346593  0.63223001  0.62357120  1
  O  O299  1  0.25544287  0.25655598  0.13613504  1
  O  O300  1  0.24399145  0.25816986  0.61473183  1
  O  O301  1  0.25971206  0.74834263  0.11481708  1
  O  O302  1  0.25245861  0.75848664  0.61904332  1
  O  O303  1  0.76456604  0.24907251  0.13921185  1
  O  O304  1  0.76208394  0.25101438  0.61682447  1
  O  O305  1  0.75866553  0.75485794  0.12053221  1
  O  O306  1  0.75231601  0.76272352  0.62269198  1
  O  O307  1  0.23735242  0.25508720  0.38227434  1
  O  O308  1  0.24959143  0.23693362  0.86931688  1
  O  O309  1  0.24939771  0.74261005  0.38276801  1
  O  O310  1  0.24052812  0.74927510  0.88305425  1
  O  O311  1  0.74134632  0.25241381  0.38144241  1
  O  O312  1  0.73704908  0.24710301  0.86745800  1
  O  O313  1  0.74635813  0.74680005  0.37888655  1
  O  O314  1  0.74398268  0.76091590  0.88440216  1
  O  O315  1  0.00311934  0.11036853  -0.00060775  1
  O  O316  1  0.01035625  0.11903632  0.50496138  1
  O  O317  1  0.00313271  0.61261938  0.00672572  1
  O  O318  1  0.01352635  0.63063511  0.50646506  1
  O  O319  1  0.48544963  0.12598143  0.02079105  1
  O  O320  1  0.50440804  0.11380280  0.50599146  1
  O  O321  1  0.51553473  0.64411396  0.01902003  1
  O  O322  1  0.50360165  0.62045193  0.50112970  1
  O  O323  1  0.49857338  0.38383807  0.49476416  1
  O  O324  1  0.47942720  0.38838826  1.01183405  1
  O  O325  1  0.50179774  0.88813500  0.49309060  1
  O  O326  1  0.49734964  0.86917744  0.98822998  1
  O  O327  1  1.00197302  0.36985348  0.48791484  1
  O  O328  1  1.00467522  0.37777011  0.99302824  1
  O  O329  1  1.00016085  0.88220656  0.49291871  1
  O  O330  1  1.00158764  0.88819911  0.99981634  1
  O  O331  1  0.49482147  0.49537701  0.37925612  1
  O  O332  1  0.48238278  0.55812761  0.88851752  1
  O  O333  1  0.49174968  0.99278951  0.38126511  1
  O  O334  1  0.48959357  0.99253965  0.86741604  1
  O  O335  1  0.99223733  0.49082406  0.37140944  1
  O  O336  1  0.99543965  0.50091254  0.88056615  1
  O  O337  1  0.99131648  0.99117398  0.37972634  1
  O  O338  1  0.99318123  0.99711113  0.88182895  1
  O  O339  1  -0.00225913  0.00102642  0.11194803  1
  O  O340  1  0.00390417  0.00353662  0.62063492  1
  O  O341  1  -0.00230943  0.50433424  0.10863114  1
  O  O342  1  0.00642271  0.51198671  0.62739890  1
  O  O343  1  0.51378748  0.00776027  0.13246558  1
  O  O344  1  0.50482613  0.00292232  0.61660805  1
  O  O345  1  0.50839407  0.51500059  0.13608878  1
  O  O346  1  0.49965908  0.51058133  0.61425925  1
  O  O347  1  0.24730152  0.38175371  0.24506882  1
  O  O348  1  0.24237262  0.38022069  0.74279331  1
  O  O349  1  0.23652312  0.88332607  0.25528904  1
  O  O350  1  0.24875582  0.88336360  0.74299780  1
  O  O351  1  0.74879648  0.38914434  0.25716161  1
  O  O352  1  0.73811305  0.39041945  0.74566057  1
  O  O353  1  0.74806166  0.88309100  0.24031879  1
  O  O354  1  0.74428063  0.89299150  0.74149042  1
  O  O355  1  0.25929488  0.11460472  0.25089013  1
  O  O356  1  0.25820544  0.11868381  0.75440303  1
  O  O357  1  0.25395809  0.61875742  0.25454112  1
  O  O358  1  0.25662606  0.61578623  0.73976964  1
  O  O359  1  0.76142634  0.10915270  0.25045508  1
  O  O360  1  0.76294593  0.11230492  0.73089678  1
  O  O361  1  0.76089797  0.61964645  0.25872884  1
  O  O362  1  0.74998460  0.61168040  0.74378676  1
  O  O363  1  0.38032676  0.11122790  0.36442415  1
  O  O364  1  0.36540098  0.11995925  0.86468309  1
  O  O365  1  0.36889853  0.61895474  0.36722588  1
  O  O366  1  0.35801595  0.64419045  0.85499299  1
  O  O367  1  0.88184629  0.11545627  0.36408189  1
  O  O368  1  0.86612243  0.11356551  0.86837858  1
  O  O369  1  0.87420611  0.61997950  0.36880631  1
  O  O370  1  0.87699625  0.60581392  0.87105805  1
  O  O371  1  0.14011733  0.37210647  0.14207013  1
  O  O372  1  0.13200221  0.38147839  0.62876793  1
  O  O373  1  0.12077312  0.87911671  0.13892297  1
  O  O374  1  0.13588766  0.88178525  0.62658865  1
  O  O375  1  0.61489852  0.39219096  0.13080823  1
  O  O376  1  0.62691933  0.38234181  0.63396786  1
  O  O377  1  0.63011221  0.88620801  0.12826677  1
  O  O378  1  0.63185038  0.88344881  0.62253298  1
  O  O379  1  0.12031696  0.25381320  0.25878089  1
  O  O380  1  0.11868037  0.25955960  0.74361204  1
  O  O381  1  0.13155252  0.76531140  0.25242395  1
  O  O382  1  0.11600376  0.75127439  0.75462205  1
  O  O383  1  0.61503794  0.24869179  0.26460544  1
  O  O384  1  0.62348627  0.26574613  0.74112957  1
  O  O385  1  0.61953726  0.75099479  0.25625450  1
  O  O386  1  0.61831569  0.75170402  0.75776743  1
  O  O387  1  0.38350530  0.23852057  0.26138870  1
  O  O388  1  0.37213851  0.23636382  0.75104395  1
  O  O389  1  0.37819463  0.74406881  0.24257854  1
  O  O390  1  0.38067903  0.74946240  0.74153347  1
  O  O391  1  0.88261901  0.24279531  0.25199169  1
  O  O392  1  0.87467668  0.24251737  0.74189539  1
  O  O393  1  0.87180094  0.73847958  0.24057536  1
  O  O394  1  0.87903456  0.74890666  0.74345291  1
  O  O395  1  0.38616477  0.50298160  0.49438359  1
  O  O396  1  0.34416566  0.47913498  0.98754713  1
  O  O397  1  0.38165265  1.00563167  0.49216489  1
  O  O398  1  0.36929548  0.99935348  0.98735708  1
  O  O399  1  0.86918707  0.50084261  0.48569911  1
  O  O400  1  0.89344357  0.49689029  0.98522720  1
  O  O401  1  0.87975891  1.00075010  0.49032814  1
  O  O402  1  0.88696917  1.00143784  0.98777428  1
  O  O403  1  0.11506141  -0.00136684  -0.00127908  1
  O  O404  1  0.12159122  0.00644350  0.50384717  1
  O  O405  1  0.11298570  0.49510429  -0.00961932  1
  O  O406  1  0.13133992  0.50636168  0.51171785  1
  O  O407  1  0.62348731  -0.00358952  0.01325452  1
  O  O408  1  0.61833046  0.00739348  0.50410226  1
  O  O409  1  0.62474476  0.51493409  0.00877180  1
  O  O410  1  0.61333984  0.50576876  0.49643315  1
  O  O411  1  0.35985222  0.37832963  0.11866197  1
  O  O412  1  0.36168286  0.38014531  0.62272568  1
  O  O413  1  0.38367019  0.86242778  0.12467860  1
  O  O414  1  0.36246174  0.87353733  0.62749617  1
  O  O415  1  0.87891501  0.35951501  0.13365217  1
  O  O416  1  0.87505034  0.36596814  0.62137507  1
  O  O417  1  0.86778390  0.86271036  0.13273985  1
  O  O418  1  0.86539665  0.87262269  0.62366967  1
  O  O419  1  0.11952078  0.13281246  0.38463364  1
  O  O420  1  0.14095688  0.12365026  0.87516349  1
  O  O421  1  0.12872094  0.62640066  0.38249512  1
  O  O422  1  0.12660230  0.63788190  0.86615664  1
  O  O423  1  0.61755077  0.13108121  0.38845425  1
  O  O424  1  0.66665695  0.07657902  0.84682313  1
  O  O425  1  0.63017853  0.63250371  0.37928728  1
  O  O426  1  0.62601184  0.64156259  0.88521873  1
