# generated using pymatgen
data_V85Zn86O256
_symmetry_space_group_name_H-M   'P 1'
_cell_length_a   16.94649371
_cell_length_b   16.94516661
_cell_length_c   16.93496846
_cell_angle_alpha   90.03421939
_cell_angle_beta   90.06379044
_cell_angle_gamma   90.02038840
_symmetry_Int_Tables_number   1
_chemical_formula_structural   V85Zn86O256
_chemical_formula_sum   'V85 Zn86 O256'
_cell_volume   4863.06098819
_cell_formula_units_Z   1
loop_
 _symmetry_equiv_pos_site_id
 _symmetry_equiv_pos_as_xyz
  1  'x, y, z'
loop_
 _atom_site_type_symbol
 _atom_site_label
 _atom_site_symmetry_multiplicity
 _atom_site_fract_x
 _atom_site_fract_y
 _atom_site_fract_z
 _atom_site_occupancy
  V  V0  1  0.75465276  0.49734175  0.25111953  1
  V  V1  1  -0.00303997  0.75421960  0.75683051  1
  V  V2  1  0.25271441  0.36840959  0.11725115  1
  V  V3  1  0.00272337  0.88343362  0.38863555  1
  V  V4  1  0.87521155  0.24934406  0.12655061  1
  V  V5  1  0.87545295  0.37886058  0.49329621  1
  V  V6  1  0.75089365  0.37621881  0.62379833  1
  V  V7  1  0.37855386  0.24734029  0.12925799  1
  V  V8  1  -0.00111369  0.13014684  0.61892165  1
  V  V9  1  0.74976349  0.74889735  0.00014790  1
  V  V10  1  0.62475250  0.62392519  0.49783259  1
  V  V11  1  0.37643418  0.00100072  0.38660810  1
  V  V12  1  -0.00129013  0.12480646  0.12670776  1
  V  V13  1  0.49838551  0.37080068  0.36904683  1
  V  V14  1  0.87176243  0.74981875  0.62157660  1
  V  V15  1  0.49601017  0.86851167  0.37796733  1
  V  V16  1  0.75146603  0.24180158  0.00023826  1
  V  V17  1  0.24952352  0.37219857  0.62112058  1
  V  V18  1  0.62135494  0.24337226  0.37146968  1
  V  V19  1  0.87475621  0.87919987  -0.00562003  1
  V  V20  1  0.24661073  0.63989325  0.37517977  1
  V  V21  1  0.38075373  0.36071485  -0.00782206  1
  V  V22  1  0.75525076  0.49657575  0.75471019  1
  V  V23  1  0.25172511  0.13575711  0.87749462  1
  V  V24  1  0.93404416  0.43704061  0.93751170  1
  V  V25  1  0.12257438  0.37836786  0.75664605  1
  V  V26  1  0.12556969  0.37598804  0.24680645  1
  V  V27  1  0.25032780  -0.00006015  0.25783477  1
  V  V28  1  0.62160336  0.00047280  0.13292900  1
  V  V29  1  0.11867467  0.88175172  0.75874757  1
  V  V30  1  0.87604956  0.11671703  0.26238124  1
  V  V31  1  0.87831898  0.74982640  0.12466067  1
  V  V32  1  0.75956556  -0.00190611  0.74920280  1
  V  V33  1  0.25443772  0.50468650  0.75051359  1
  V  V34  1  0.75267258  0.37155424  0.12102235  1
  V  V35  1  0.74942225  0.87611759  0.12841741  1
  V  V36  1  0.14287421  0.64138426  -0.01256896  1
  V  V37  1  0.76180116  0.11842572  0.87742470  1
  V  V38  1  -0.00218474  0.50438787  0.49721448  1
  V  V39  1  0.12699553  0.50081932  0.10974606  1
  V  V40  1  -0.00356840  0.87846755  0.87366528  1
  V  V41  1  0.24656026  0.86829979  0.62459686  1
  V  V42  1  0.37119791  0.12823444  0.25810999  1
  V  V43  1  -0.00112735  0.38224992  0.37049006  1
  V  V44  1  0.60887678  0.12355142  0.50497694  1
  V  V45  1  0.74644398  0.87723639  0.61880697  1
  V  V46  1  0.50587923  0.12637036  0.13958975  1
  V  V47  1  0.13020409  0.12295836  0.49441548  1
  V  V48  1  0.24866470  0.00523307  0.75518582  1
  V  V49  1  0.49854987  0.49947308  0.49711033  1
  V  V50  1  0.61620229  0.86479453  0.24966280  1
  V  V51  1  0.00367312  0.62302427  0.11348725  1
  V  V52  1  0.01174769  0.75004638  0.25599648  1
  V  V53  1  0.37326190  0.86486699  0.50477511  1
  V  V54  1  0.12584984  0.13347252  -0.00107421  1
  V  V55  1  0.57750935  0.07151902  -0.04602717  1
  V  V56  1  0.74954298  0.24883883  0.49782525  1
  V  V57  1  0.49124708  0.62226911  0.62867565  1
  V  V58  1  -0.00352757  0.00412782  -0.00693208  1
  V  V59  1  0.61870507  0.25512834  0.88038422  1
  V  V60  1  0.62294416  0.49679533  0.12513784  1
  V  V61  1  0.88022015  0.61960612  0.25193389  1
  V  V62  1  0.61026150  0.00147567  0.62327791  1
  V  V63  1  0.75466291  0.62115512  0.87685633  1
  V  V64  1  0.50392379  0.49155177  -0.00706690  1
  V  V65  1  0.62568121  0.50040653  0.62500875  1
  V  V66  1  0.75079742  0.75165407  0.49502501  1
  V  V67  1  0.62500798  0.75007956  0.87545129  1
  V  V68  1  0.87657992  0.62136379  0.75268258  1
  V  V69  1  0.37827403  0.49613472  0.87143513  1
  V  V70  1  0.12506788  -0.00257324  0.12770897  1
  V  V71  1  0.37814398  0.75902987  0.10428732  1
  V  V72  1  0.61956600  0.37324981  0.75230529  1
  V  V73  1  0.12765741  0.63793804  0.49490727  1
  V  V74  1  0.00743811  0.62739439  0.62655924  1
  V  V75  1  0.49650935  0.74462221  0.75063732  1
  V  V76  1  0.12088357  0.00204258  0.61917335  1
  V  V77  1  0.13042385  0.24978737  0.37392731  1
  V  V78  1  -0.00169074  0.25497932  0.75614299  1
  V  V79  1  0.62486799  0.36948169  0.25061612  1
  V  V80  1  0.75527257  0.61830843  0.37507827  1
  V  V81  1  0.37688102  0.12847727  0.73920936  1
  V  V82  1  0.25176924  0.50266930  0.24630485  1
  V  V83  1  0.37358422  0.50131723  0.37111279  1
  V  V84  1  0.38123430  0.63773667  0.24600839  1
  Zn  Zn85  1  0.25247174  0.24627827  0.49611809  1
  Zn  Zn86  1  0.32123336  0.66493540  0.82168088  1
  Zn  Zn87  1  0.36703287  0.74316404  0.62943114  1
  Zn  Zn88  1  0.87825780  0.12484720  0.74982985  1
  Zn  Zn89  1  0.49825984  0.25138942  0.74997583  1
  Zn  Zn90  1  0.12599894  0.50218669  0.62554400  1
  Zn  Zn91  1  0.62388506  0.87319652  0.74852884  1
  Zn  Zn92  1  0.87561708  0.25340265  0.62632487  1
  Zn  Zn93  1  0.50612945  0.63091033  0.12854388  1
  Zn  Zn94  1  0.13034740  0.87049386  0.25545434  1
  Zn  Zn95  1  0.37177727  0.37449792  0.49647927  1
  Zn  Zn96  1  0.49521976  0.87444554  0.87638756  1
  Zn  Zn97  1  0.38167209  0.92890032  -0.02388319  1
  Zn  Zn98  1  0.75525944  -0.01010584  0.26538011  1
  Zn  Zn99  1  0.62738445  0.62236255  0.00379504  1
  Zn  Zn100  1  0.84727952  0.94245530  0.44064237  1
  Zn  Zn101  1  0.61790123  0.74398744  0.36932428  1
  Zn  Zn102  1  0.75078022  0.11094399  0.38330649  1
  Zn  Zn103  1  0.12021173  0.25934265  0.88279698  1
  Zn  Zn104  1  0.25294106  0.87212850  0.11201161  1
  Zn  Zn105  1  -0.00075781  0.25004575  0.25204935  1
  Zn  Zn106  1  0.38817703  0.24838555  0.61519370  1
  Zn  Zn107  1  0.18984509  0.18628402  0.18932762  1
  Zn  Zn108  1  0.18372014  0.19198549  0.68738363  1
  Zn  Zn109  1  0.19479962  0.68750759  0.17724261  1
  Zn  Zn110  1  0.19727058  0.70794076  0.72846846  1
  Zn  Zn111  1  0.69403763  0.18153988  0.19529053  1
  Zn  Zn112  1  0.68713610  0.18630087  0.68776863  1
  Zn  Zn113  1  0.68993800  0.68659032  0.18754680  1
  Zn  Zn114  1  0.68385913  0.68481139  0.68758956  1
  Zn  Zn115  1  0.31178895  0.31357947  0.30830947  1
  Zn  Zn116  1  0.31006055  0.31150060  0.80961489  1
  Zn  Zn117  1  0.31182369  0.81784810  0.30793992  1
  Zn  Zn118  1  0.30420532  0.83154400  0.83610405  1
  Zn  Zn119  1  0.81278511  0.30815738  0.31320415  1
  Zn  Zn120  1  0.81359497  0.31135621  0.81607618  1
  Zn  Zn121  1  0.81654534  0.80582421  0.31079888  1
  Zn  Zn122  1  0.81148238  0.81321382  0.80970458  1
  Zn  Zn123  1  0.18345973  0.44499609  0.43658074  1
  Zn  Zn124  1  0.19486517  0.43949979  0.93577613  1
  Zn  Zn125  1  0.18467846  0.93186238  0.43797224  1
  Zn  Zn126  1  0.18822495  0.94438067  0.94000552  1
  Zn  Zn127  1  0.68629454  0.43719866  0.43504575  1
  Zn  Zn128  1  0.69675138  0.43307139  0.93907021  1
  Zn  Zn129  1  0.67366414  0.93719081  0.43947734  1
  Zn  Zn130  1  0.69196455  0.93179515  0.93374775  1
  Zn  Zn131  1  0.30628890  0.05802577  0.06814127  1
  Zn  Zn132  1  0.30614819  0.05897213  0.56389349  1
  Zn  Zn133  1  0.31743278  0.56138795  0.05817436  1
  Zn  Zn134  1  0.30881835  0.55949533  0.55947982  1
  Zn  Zn135  1  0.81043202  0.06146302  0.06693551  1
  Zn  Zn136  1  0.80595361  0.07095282  0.56609019  1
  Zn  Zn137  1  0.81496715  0.55941199  0.06215033  1
  Zn  Zn138  1  0.81590410  0.56230958  0.56302688  1
  Zn  Zn139  1  0.43785227  0.43612813  0.18623021  1
  Zn  Zn140  1  0.43744622  0.43190936  0.68537604  1
  Zn  Zn141  1  0.43764305  0.93785147  0.18884058  1
  Zn  Zn142  1  0.42910108  0.93111387  0.70429391  1
  Zn  Zn143  1  0.93935176  0.43927947  0.17815656  1
  Zn  Zn144  1  0.93854006  0.43722035  0.68603923  1
  Zn  Zn145  1  0.94046548  0.93557303  0.18793607  1
  Zn  Zn146  1  0.91750334  0.95627866  0.63216348  1
  Zn  Zn147  1  0.06005232  0.05940367  0.31550753  1
  Zn  Zn148  1  0.06099276  0.06828149  0.81137950  1
  Zn  Zn149  1  0.06677905  0.56279434  0.30943703  1
  Zn  Zn150  1  0.06201938  0.55787751  0.81897451  1
  Zn  Zn151  1  0.55964075  0.05453256  0.31604866  1
  Zn  Zn152  1  0.56780726  0.06777325  0.78930191  1
  Zn  Zn153  1  0.56381105  0.55997505  0.31051099  1
  Zn  Zn154  1  0.56598538  0.56108608  0.81508440  1
  Zn  Zn155  1  0.43441048  0.19050202  0.43610941  1
  Zn  Zn156  1  0.41167774  0.14632155  0.96266451  1
  Zn  Zn157  1  0.43334988  0.68790183  0.43822257  1
  Zn  Zn158  1  0.44925209  0.68204423  0.94635681  1
  Zn  Zn159  1  0.94327513  0.19296610  0.43872314  1
  Zn  Zn160  1  0.93614242  0.19356286  0.93885557  1
  Zn  Zn161  1  0.93705697  0.69055184  0.43503599  1
  Zn  Zn162  1  0.93852506  0.68585961  0.93728896  1
  Zn  Zn163  1  0.05632074  0.31648396  0.06192310  1
  Zn  Zn164  1  0.06577153  0.31310234  0.56356015  1
  Zn  Zn165  1  0.06431808  0.81190853  0.06119016  1
  Zn  Zn166  1  0.06291080  0.81320829  0.56682550  1
  Zn  Zn167  1  0.56121953  0.30537052  0.06340308  1
  Zn  Zn168  1  0.56132257  0.31227418  0.56014948  1
  Zn  Zn169  1  0.55232885  0.81845500  0.05560421  1
  Zn  Zn170  1  0.55897384  0.81081792  0.56004819  1
  O  O171  1  0.12004335  0.11819932  0.12035990  1
  O  O172  1  0.12020378  0.12134945  0.61741816  1
  O  O173  1  0.12288617  0.61835276  0.11483123  1
  O  O174  1  0.11202470  0.62666130  0.62013224  1
  O  O175  1  0.61888231  0.11529191  0.13894744  1
  O  O176  1  0.62584347  0.11115074  0.62102997  1
  O  O177  1  0.62740973  0.61135493  0.12688746  1
  O  O178  1  0.61863537  0.61737219  0.61604067  1
  O  O179  1  0.38272543  0.38189308  0.37095429  1
  O  O180  1  0.37180974  0.37664161  0.88616397  1
  O  O181  1  0.37720515  0.87865128  0.38427108  1
  O  O182  1  0.38265726  0.89976471  0.86072473  1
  O  O183  1  0.88227904  0.37210965  0.38457756  1
  O  O184  1  0.86362651  0.38157242  0.88754652  1
  O  O185  1  0.89251425  0.86515587  0.37163435  1
  O  O186  1  0.87452003  0.87364904  0.88860027  1
  O  O187  1  0.25737509  -0.00733274  0.36469001  1
  O  O188  1  0.23716245  0.01791955  0.85996904  1
  O  O189  1  0.25542750  0.50403767  0.36316043  1
  O  O190  1  0.26492279  0.49608819  0.86440778  1
  O  O191  1  0.75674727  -0.00709295  0.38325405  1
  O  O192  1  0.74464145  0.00676225  0.86382536  1
  O  O193  1  0.74768180  0.51033471  0.36816497  1
  O  O194  1  0.74579300  0.50892916  0.86688126  1
  O  O195  1  0.24707328  0.49353319  0.12880280  1
  O  O196  1  0.24895755  0.48940585  0.63074888  1
  O  O197  1  0.23933024  1.00397236  0.13872497  1
  O  O198  1  0.23654771  0.99597799  0.63460506  1
  O  O199  1  0.74285816  0.48940506  0.12886716  1
  O  O200  1  0.74437561  0.49664899  0.63058352  1
  O  O201  1  0.74090980  0.98806167  0.12799612  1
  O  O202  1  0.73960654  0.99008236  0.62849968  1
  O  O203  1  0.00512379  0.37697255  0.25536297  1
  O  O204  1  0.01012321  0.36887339  0.74260900  1
  O  O205  1  0.00301421  0.85908227  0.24905403  1
  O  O206  1  -0.00014540  0.87265857  0.75853399  1
  O  O207  1  0.50782736  0.38083079  0.26135728  1
  O  O208  1  0.51718202  0.37931231  0.75240893  1
  O  O209  1  0.50738523  0.87642548  0.25903170  1
  O  O210  1  0.50563166  0.86105299  0.75509730  1
  O  O211  1  0.49096295  0.11899898  0.24505539  1
  O  O212  1  0.47997927  0.12692576  0.75163492  1
  O  O213  1  0.48486183  0.61651135  0.24732149  1
  O  O214  1  0.51092537  0.62629764  0.73715265  1
  O  O215  1  0.99051140  0.12573233  0.24519719  1
  O  O216  1  1.00000702  0.13627306  0.73981323  1
  O  O217  1  0.99761862  0.63216276  0.24324515  1
  O  O218  1  0.99740520  0.63319853  0.74433879  1
  O  O219  1  0.38100216  0.25169643  0.01137630  1
  O  O220  1  0.36818930  0.25658452  0.49884225  1
  O  O221  1  0.37370275  0.74536125  0.00519176  1
  O  O222  1  0.37283413  0.76068088  0.50635934  1
  O  O223  1  0.86185795  0.24372852  0.01168340  1
  O  O224  1  0.86649750  0.25919234  0.49988917  1
  O  O225  1  0.87043507  0.75740203  0.00660808  1
  O  O226  1  0.86004515  0.74026067  0.50726698  1
  O  O227  1  0.12709532  0.24488240  0.49081936  1
  O  O228  1  0.11880428  0.23734771  1.00362838  1
  O  O229  1  0.12014179  0.73684218  0.50333492  1
  O  O230  1  0.13106588  0.74092434  1.00301358  1
  O  O231  1  0.63057456  0.24557888  0.49085111  1
  O  O232  1  0.63700867  0.25545668  0.98989158  1
  O  O233  1  0.63614341  0.74164261  0.49830872  1
  O  O234  1  0.63214353  0.74743926  0.99376824  1
  O  O235  1  0.49104009  0.24046202  0.12928970  1
  O  O236  1  0.49963427  0.26206882  0.63548896  1
  O  O237  1  0.48557248  0.74553655  0.11943512  1
  O  O238  1  0.50126673  0.73871674  0.63233104  1
  O  O239  1  0.99057078  0.24428810  0.12764647  1
  O  O240  1  1.00078536  0.24578936  0.63349066  1
  O  O241  1  0.99642345  0.74319119  0.13199392  1
  O  O242  1  0.98776423  0.74549982  0.62970319  1
  O  O243  1  0.00949405  0.26654162  0.37409505  1
  O  O244  1  0.00131483  0.24614955  0.86125352  1
  O  O245  1  -0.00032094  0.75052189  0.35871799  1
  O  O246  1  -0.00868788  0.75891578  0.86480240  1
  O  O247  1  0.50910170  0.25953721  0.37730409  1
  O  O248  1  0.52009231  0.24438605  0.87354541  1
  O  O249  1  0.49923454  0.76132212  0.37906496  1
  O  O250  1  0.51092878  0.74185526  0.86860207  1
  O  O251  1  0.23483538  0.12752803  0.50192790  1
  O  O252  1  0.24015629  0.12199077  0.98501528  1
  O  O253  1  0.23990798  0.61868854  0.48810696  1
  O  O254  1  0.24178158  0.62282888  0.99828623  1
  O  O255  1  0.73891173  0.13556327  0.49983677  1
  O  O256  1  0.75081713  0.12903091  0.99322749  1
  O  O257  1  0.74645164  0.62655758  0.49185861  1
  O  O258  1  0.75056823  0.62853240  0.99387551  1
  O  O259  1  0.26078844  0.37701423  0.01163765  1
  O  O260  1  0.24545399  0.37994664  0.51177708  1
  O  O261  1  0.26943789  0.90348781  0.00218062  1
  O  O262  1  0.25656358  0.88041733  0.51387161  1
  O  O263  1  0.74865618  0.36424031  0.01632196  1
  O  O264  1  0.75719977  0.37175205  0.50112923  1
  O  O265  1  0.75732674  0.87058007  0.00806376  1
  O  O266  1  0.74788850  0.86553052  0.50386106  1
  O  O267  1  0.13815359  0.49738796  0.23993937  1
  O  O268  1  0.13314001  0.49544526  0.74852218  1
  O  O269  1  0.13118501  1.00074485  0.24413388  1
  O  O270  1  0.12678845  0.99787412  0.74282337  1
  O  O271  1  0.63370623  0.49160955  0.24312571  1
  O  O272  1  0.63666478  0.49278270  0.74703225  1
  O  O273  1  0.63097549  0.98633891  0.24668647  1
  O  O274  1  0.63663322  0.99651811  0.73643506  1
  O  O275  1  0.36740314  0.00646985  0.25736035  1
  O  O276  1  0.36001509  0.01681893  0.74099354  1
  O  O277  1  0.36537858  0.50628998  0.24909479  1
  O  O278  1  0.37029632  0.48874515  0.76032646  1
  O  O279  1  0.87470258  0.01308070  0.24382545  1
  O  O280  1  0.86157189  0.00029632  0.73379062  1
  O  O281  1  0.87117829  0.51221673  0.24066174  1
  O  O282  1  0.86180103  0.50514382  0.74117378  1
  O  O283  1  0.11842410  0.37392291  0.36644505  1
  O  O284  1  0.13330506  0.37620492  0.86147804  1
  O  O285  1  0.11038492  0.87326145  0.37175786  1
  O  O286  1  0.11796976  0.88510944  0.86446858  1
  O  O287  1  0.61938023  0.36663337  0.36952054  1
  O  O288  1  0.63641164  0.36171437  0.86817766  1
  O  O289  1  0.61349525  0.87067820  0.36810008  1
  O  O290  1  0.62655498  0.85970805  0.87228379  1
  O  O291  1  0.38312295  0.13198061  0.13797188  1
  O  O292  1  0.36343164  0.13100208  0.63555669  1
  O  O293  1  0.37620577  0.63119086  0.13430607  1
  O  O294  1  0.38757383  0.62363048  0.61649202  1
  O  O295  1  0.87652884  0.13308766  0.13542690  1
  O  O296  1  0.88501821  0.13382725  0.62772695  1
  O  O297  1  0.88492880  0.62951269  0.12906219  1
  O  O298  1  0.88165679  0.63357600  0.63118023  1
  O  O299  1  0.26326726  0.25749669  0.13077948  1
  O  O300  1  0.24681233  0.26557087  0.62205860  1
  O  O301  1  0.27176579  0.75429333  0.12854043  1
  O  O302  1  0.24862016  0.76488846  0.63819865  1
  O  O303  1  0.75405673  0.25118261  0.12122564  1
  O  O304  1  0.74747826  0.25729340  0.61312326  1
  O  O305  1  0.75543556  0.75816964  0.11962601  1
  O  O306  1  0.75162477  0.75322741  0.61735567  1
  O  O307  1  0.23421254  0.25982288  0.37419687  1
  O  O308  1  0.24084531  0.23901554  0.87108410  1
  O  O309  1  0.25282506  0.73886695  0.36836241  1
  O  O310  1  0.24292363  0.74238192  0.83177619  1
  O  O311  1  0.74253509  0.24908144  0.38679564  1
  O  O312  1  0.74545322  0.23872276  0.88367714  1
  O  O313  1  0.74829088  0.73800023  0.38038608  1
  O  O314  1  0.74546559  0.74344620  0.87979785  1
  O  O315  1  0.00214709  0.12002101  0.00575899  1
  O  O316  1  0.01033675  0.13483009  0.51254574  1
  O  O317  1  0.00815475  0.63127620  0.01077450  1
  O  O318  1  0.00232681  0.62114692  0.50430035  1
  O  O319  1  0.52015360  0.13255347  0.01323568  1
  O  O320  1  0.50995664  0.13101390  0.50062251  1
  O  O321  1  0.50871293  0.60657674  0.00909632  1
  O  O322  1  0.50485854  0.61774332  0.50320763  1
  O  O323  1  0.50191917  0.38439538  0.48581758  1
  O  O324  1  0.49108174  0.37793886  1.00659673  1
  O  O325  1  0.48748954  0.87342730  0.49404637  1
  O  O326  1  0.48866113  0.87999868  0.98928744  1
  O  O327  1  0.99453895  0.38343836  0.49428781  1
  O  O328  1  1.00045417  0.37505119  0.98559155  1
  O  O329  1  1.00064971  0.86936872  0.48880761  1
  O  O330  1  0.99382314  0.88234041  0.99495097  1
  O  O331  1  0.49438777  0.49466814  0.37834792  1
  O  O332  1  0.50214942  0.49482853  0.88677701  1
  O  O333  1  0.48662019  0.98465565  0.37276668  1
  O  O334  1  0.52412511  1.01842798  0.88715935  1
  O  O335  1  1.00466906  0.49043273  0.37990538  1
  O  O336  1  0.98206790  0.49901110  0.87115516  1
  O  O337  1  0.99696026  0.98319389  0.37358562  1
  O  O338  1  1.00084291  0.99916131  0.88709253  1
  O  O339  1  0.00704192  0.00559185  0.11874112  1
  O  O340  1  0.01492407  0.01447744  0.63267903  1
  O  O341  1  0.01584288  0.51133777  0.13172294  1
  O  O342  1  -0.00087719  0.51186543  0.61733142  1
  O  O343  1  0.51420509  0.00730325  0.13176836  1
  O  O344  1  0.51322742  -0.00859764  0.63816664  1
  O  O345  1  0.51438899  0.49404295  0.12005736  1
  O  O346  1  0.50520117  0.50328895  0.61815542  1
  O  O347  1  0.24742654  0.38385397  0.23744564  1
  O  O348  1  0.24350160  0.38151886  0.73923080  1
  O  O349  1  0.24745103  0.88547886  0.24215412  1
  O  O350  1  0.23618662  0.89006946  0.74472585  1
  O  O351  1  0.74665678  0.37711423  0.24326791  1
  O  O352  1  0.74545735  0.38084135  0.74496233  1
  O  O353  1  0.74611786  0.87157133  0.24203452  1
  O  O354  1  0.74610550  0.87952144  0.73968140  1
  O  O355  1  0.26169027  0.11705945  0.25004607  1
  O  O356  1  0.25102682  0.12433979  0.75565933  1
  O  O357  1  0.25916769  0.61925165  0.25283049  1
  O  O358  1  0.25410273  0.60755331  0.73891863  1
  O  O359  1  0.76356992  0.11670877  0.26096010  1
  O  O360  1  0.75179314  0.11725215  0.75823836  1
  O  O361  1  0.76018524  0.62029502  0.25554199  1
  O  O362  1  0.75373708  0.61658084  0.75623921  1
  O  O363  1  0.38093132  0.11454199  0.36850881  1
  O  O364  1  0.35566601  0.13260587  0.86126575  1
  O  O365  1  0.36929840  0.62045850  0.36394645  1
  O  O366  1  0.38979352  0.60322062  0.88202692  1
  O  O367  1  0.87929769  0.12908451  0.36510709  1
  O  O368  1  0.86512262  0.12567360  0.87254920  1
  O  O369  1  0.86821238  0.62697841  0.36432111  1
  O  O370  1  0.86236444  0.63109402  0.86861438  1
  O  O371  1  0.13270440  0.38044240  0.12666048  1
  O  O372  1  0.13390443  0.37987251  0.63252274  1
  O  O373  1  0.12598961  0.88927261  0.12347278  1
  O  O374  1  0.12696044  0.88512389  0.63162665  1
  O  O375  1  0.63241721  0.37503271  0.13274025  1
  O  O376  1  0.63330131  0.38180953  0.63181182  1
  O  O377  1  0.62907170  0.87905012  0.13092671  1
  O  O378  1  0.63228830  0.88164949  0.62153190  1
  O  O379  1  0.12211647  0.25725672  0.25422058  1
  O  O380  1  0.11610056  0.26134729  0.75122348  1
  O  O381  1  0.11384904  0.74721421  0.24017232  1
  O  O382  1  0.10270921  0.76852629  0.73761668  1
  O  O383  1  0.63279092  0.25172097  0.26480255  1
  O  O384  1  0.62989127  0.25623080  0.76231356  1
  O  O385  1  0.62834523  0.76038845  0.24989735  1
  O  O386  1  0.61838201  0.74815833  0.75796709  1
  O  O387  1  0.37297148  0.23866951  0.24652165  1
  O  O388  1  0.37409927  0.24014240  0.74610153  1
  O  O389  1  0.37738659  0.73778879  0.24992560  1
  O  O390  1  0.39189357  0.73878021  0.74993560  1
  O  O391  1  0.87544420  0.23678366  0.24546737  1
  O  O392  1  0.88286628  0.25207010  0.74668949  1
  O  O393  1  0.88456888  0.73709393  0.24211965  1
  O  O394  1  0.87931215  0.74303101  0.74237400  1
  O  O395  1  0.38167836  0.49721783  0.48955321  1
  O  O396  1  0.38574500  0.48637139  0.99574874  1
  O  O397  1  0.36762256  0.99391512  0.49004562  1
  O  O398  1  0.39009546  1.04076481  1.00132957  1
  O  O399  1  0.88768879  0.49471719  0.50053534  1
  O  O400  1  0.88627904  0.49179461  1.01030538  1
  O  O401  1  0.87949113  0.99580132  0.53039619  1
  O  O402  1  0.88465448  0.99107027  1.01040679  1
  O  O403  1  0.11502078  0.01246892  0.00789884  1
  O  O404  1  0.12711865  0.00831299  0.50738458  1
  O  O405  1  0.13114058  0.50438193  0.00775258  1
  O  O406  1  0.11104140  0.50882333  0.50323787  1
  O  O407  1  0.63234503  0.00310210  0.00895488  1
  O  O408  1  0.62202558  0.00846650  0.51420244  1
  O  O409  1  0.62262241  0.49334263  0.00845792  1
  O  O410  1  0.61892816  0.50451655  0.50364031  1
  O  O411  1  0.37091311  0.36566120  0.12033097  1
  O  O412  1  0.36056313  0.37447834  0.62130694  1
  O  O413  1  0.37883488  0.86313937  0.12472311  1
  O  O414  1  0.36477881  0.87445373  0.62175444  1
  O  O415  1  0.86722149  0.35875025  0.13566904  1
  O  O416  1  0.86915278  0.37555553  0.61086660  1
  O  O417  1  0.86761285  0.87029746  0.11927143  1
  O  O418  1  0.85956836  0.85684190  0.62866841  1
  O  O419  1  0.11368303  0.13666557  0.38246338  1
  O  O420  1  0.12965119  0.13043684  0.88312146  1
  O  O421  1  0.13462522  0.62137020  0.38147183  1
  O  O422  1  0.12117136  0.62412408  0.88998862  1
  O  O423  1  0.62447069  0.12814775  0.38269809  1
  O  O424  1  0.63242730  0.12998976  0.88096548  1
  O  O425  1  0.63273496  0.62469872  0.37892393  1
  O  O426  1  0.63805785  0.63281034  0.87736877  1
