# generated using pymatgen
data_V85Zn86O256
_symmetry_space_group_name_H-M   'P 1'
_cell_length_a   16.94944131
_cell_length_b   16.93263709
_cell_length_c   16.93790499
_cell_angle_alpha   90.06584715
_cell_angle_beta   89.86280781
_cell_angle_gamma   89.98669166
_symmetry_Int_Tables_number   1
_chemical_formula_structural   V85Zn86O256
_chemical_formula_sum   'V85 Zn86 O256'
_cell_volume   4861.14008585
_cell_formula_units_Z   1
loop_
 _symmetry_equiv_pos_site_id
 _symmetry_equiv_pos_as_xyz
  1  'x, y, z'
loop_
 _atom_site_type_symbol
 _atom_site_label
 _atom_site_symmetry_multiplicity
 _atom_site_fract_x
 _atom_site_fract_y
 _atom_site_fract_z
 _atom_site_occupancy
  V  V0  1  0.37010504  0.14012840  0.24788657  1
  V  V1  1  0.75833515  0.87249684  0.62788112  1
  V  V2  1  0.62677593  -0.00811295  0.62887588  1
  V  V3  1  0.25466261  0.87785377  0.62545345  1
  V  V4  1  0.87115907  0.00252322  0.37706521  1
  V  V5  1  0.63021591  0.24188802  0.87277762  1
  V  V6  1  0.87317695  0.01437090  0.87057482  1
  V  V7  1  0.75340477  0.00481132  0.25429827  1
  V  V8  1  -0.00046179  0.75111540  0.24535008  1
  V  V9  1  0.49814725  0.00038249  -0.00445660  1
  V  V10  1  0.64009801  0.13798535  0.49280577  1
  V  V11  1  0.12577123  0.49036997  0.12773765  1
  V  V12  1  0.00212838  0.00307080  0.00016250  1
  V  V13  1  -0.00821867  0.12198851  0.62948649  1
  V  V14  1  0.25004016  0.12241946  0.87506061  1
  V  V15  1  0.74923360  0.87684294  0.12728648  1
  V  V16  1  -0.00062082  0.37391653  0.87509011  1
  V  V17  1  0.37076891  0.50775385  0.87887758  1
  V  V18  1  0.87187836  0.49962400  0.87531434  1
  V  V19  1  0.00017156  -0.00194899  0.50051279  1
  V  V20  1  0.61761111  0.76929162  0.87667780  1
  V  V21  1  0.61886765  0.00243541  0.12662237  1
  V  V22  1  0.61734216  0.50622732  0.62834432  1
  V  V23  1  0.87192582  0.26059441  0.61986329  1
  V  V24  1  0.00207414  0.63155436  0.62132024  1
  V  V25  1  0.86991343  0.37355861  0.00090086  1
  V  V26  1  -0.00050849  0.36879838  0.35618816  1
  V  V27  1  0.50615669  -0.00127771  0.49401297  1
  V  V28  1  0.49648222  0.62391029  0.13379834  1
  V  V29  1  0.25352822  0.36816604  0.13222706  1
  V  V30  1  0.87799354  0.24346931  0.12720187  1
  V  V31  1  0.25211930  0.37366227  0.62540095  1
  V  V32  1  0.00015605  0.87391362  0.87220093  1
  V  V33  1  0.12667763  0.00197365  0.12524067  1
  V  V34  1  0.25091582  0.74260327  -0.00810866  1
  V  V35  1  0.12707687  0.87705235  0.24947596  1
  V  V36  1  0.74689291  0.75354976  0.00006495  1
  V  V37  1  0.62453341  0.49627307  0.12820534  1
  V  V38  1  0.74722764  0.37297188  0.13413847  1
  V  V39  1  0.25480473  0.74781734  0.49055288  1
  V  V40  1  0.62137880  0.62643541  0.00053432  1
  V  V41  1  0.51719230  0.25524420  0.24627444  1
  V  V42  1  0.25190927  0.00200343  0.25772895  1
  V  V43  1  0.12587508  0.37435405  0.75058111  1
  V  V44  1  0.50335255  0.12430918  0.62361974  1
  V  V45  1  0.37934153  0.87413310  -0.00263454  1
  V  V46  1  -0.00009764  0.87571506  0.37425943  1
  V  V47  1  0.37621696  -0.00511117  0.86722861  1
  V  V48  1  0.74785542  0.49474012  0.74936243  1
  V  V49  1  0.75089306  0.01139735  0.75277114  1
  V  V50  1  -0.00528853  0.24528943  0.75099161  1
  V  V51  1  0.13073584  0.62313951  0.49139389  1
  V  V52  1  0.13115525  0.87705083  0.75028508  1
  V  V53  1  0.12828853  0.25098790  0.36313552  1
  V  V54  1  0.87424965  0.87732148  -0.00148012  1
  V  V55  1  0.38161452  0.74334964  0.62390535  1
  V  V56  1  0.12744296  -0.00035885  0.62571928  1
  V  V57  1  0.51146021  0.36993778  0.37385502  1
  V  V58  1  0.25125200  0.87742461  0.12514331  1
  V  V59  1  0.13021342  0.74756867  0.36947979  1
  V  V60  1  0.49738393  0.75394101  0.26049217  1
  V  V61  1  0.50494472  0.75676235  0.74968639  1
  V  V62  1  0.81411062  0.69015068  0.56647650  1
  V  V63  1  0.12631742  0.50065263  0.62409324  1
  V  V64  1  0.74630085  0.62698467  0.87707181  1
  V  V65  1  0.81813748  0.18418304  0.31002506  1
  V  V66  1  0.63830179  0.74192122  0.37949771  1
  V  V67  1  0.37582172  0.37554383  0.49497509  1
  V  V68  1  -0.00153107  0.12699925  0.13806296  1
  V  V69  1  0.13254740  0.12685139  0.49886172  1
  V  V70  1  0.87254700  0.63371404  0.75161596  1
  V  V71  1  0.49914954  0.51081748  0.50081275  1
  V  V72  1  0.00086406  0.62274432  0.11933526  1
  V  V73  1  0.38028724  0.00627886  0.37254415  1
  V  V74  1  0.24943045  0.51236383  0.75322647  1
  V  V75  1  0.62067494  0.87895385  0.26444390  1
  V  V76  1  0.50006683  0.37662500  0.87339846  1
  V  V77  1  0.36852697  0.12163310  0.74737113  1
  V  V78  1  0.37332939  0.74703013  0.13349855  1
  V  V79  1  0.87040805  0.62580444  0.25144244  1
  V  V80  1  0.37491808  0.24814172  0.62400646  1
  V  V81  1  0.37268964  0.36552343  0.00056698  1
  V  V82  1  0.74581272  0.50279559  0.25616849  1
  V  V83  1  0.00039248  0.48887376  0.49663772  1
  V  V84  1  0.37998017  0.87717990  0.48845561  1
  Zn  Zn85  1  0.50069677  0.24956724  0.74990635  1
  Zn  Zn86  1  0.62580115  0.12272883  -0.00418896  1
  Zn  Zn87  1  0.37119211  0.51265225  0.36696678  1
  Zn  Zn88  1  0.73787302  0.36517538  0.61342660  1
  Zn  Zn89  1  0.62279880  0.37493903  0.75022941  1
  Zn  Zn90  1  0.12949850  0.74228093  0.86799841  1
  Zn  Zn91  1  0.00062499  0.49892750  -0.00149024  1
  Zn  Zn92  1  0.63220549  0.62928975  0.50352476  1
  Zn  Zn93  1  0.12717226  0.24764279  0.87512231  1
  Zn  Zn94  1  0.87271728  0.86659679  0.50242144  1
  Zn  Zn95  1  0.87500307  0.75025146  0.12301753  1
  Zn  Zn96  1  0.25368550  0.51193239  0.25472761  1
  Zn  Zn97  1  0.25142778  0.24567496  0.49521272  1
  Zn  Zn98  1  0.87539760  0.49746509  0.37164450  1
  Zn  Zn99  1  0.49600047  0.50007480  0.00269404  1
  Zn  Zn100  1  0.12753134  0.12736553  0.00014452  1
  Zn  Zn101  1  0.13144833  0.61563804  -0.00895197  1
  Zn  Zn102  1  0.24821698  0.24789483  0.00133897  1
  Zn  Zn103  1  0.49419717  0.13547795  0.12089848  1
  Zn  Zn104  1  0.75136795  0.23733703  -0.00424328  1
  Zn  Zn105  1  -0.00206868  0.75384883  0.74380498  1
  Zn  Zn106  1  0.38038494  0.62585712  0.74980287  1
  Zn  Zn107  1  0.18876670  0.18574001  0.18692775  1
  Zn  Zn108  1  0.18584518  0.18678940  0.68862068  1
  Zn  Zn109  1  0.18093109  0.68858863  0.17495730  1
  Zn  Zn110  1  0.18758301  0.69316617  0.68242247  1
  Zn  Zn111  1  0.68634142  0.18756461  0.17966218  1
  Zn  Zn112  1  0.68575022  0.18645480  0.68574777  1
  Zn  Zn113  1  0.68449470  0.68884262  0.19016731  1
  Zn  Zn114  1  0.67803210  0.68444964  0.69517876  1
  Zn  Zn115  1  0.30807898  0.32121709  0.31658901  1
  Zn  Zn116  1  0.31505338  0.31185714  0.81221259  1
  Zn  Zn117  1  0.31578898  0.67123994  0.30971276  1
  Zn  Zn118  1  0.31720709  0.81342804  0.80972376  1
  Zn  Zn119  1  0.82122949  0.32233431  0.44414344  1
  Zn  Zn120  1  0.81320997  0.30836281  0.80936509  1
  Zn  Zn121  1  0.81383581  0.81565664  0.31213244  1
  Zn  Zn122  1  0.80788352  0.81867285  0.81213698  1
  Zn  Zn123  1  0.18709422  0.43283020  0.43136060  1
  Zn  Zn124  1  0.18790340  0.43604702  0.93938664  1
  Zn  Zn125  1  0.19055545  0.93622190  0.43687163  1
  Zn  Zn126  1  0.19155309  0.93780634  0.93549323  1
  Zn  Zn127  1  0.67954587  0.44024377  0.43505065  1
  Zn  Zn128  1  0.68500477  0.43545956  0.94026500  1
  Zn  Zn129  1  0.69102227  0.93786776  0.44381922  1
  Zn  Zn130  1  0.69027169  0.94716550  0.93876608  1
  Zn  Zn131  1  0.31494208  0.06504929  0.06390942  1
  Zn  Zn132  1  0.31345252  0.05990766  0.56172483  1
  Zn  Zn133  1  0.31380909  0.55874214  0.06928354  1
  Zn  Zn134  1  0.31347221  0.56144161  0.55647628  1
  Zn  Zn135  1  0.81088511  0.06378185  0.06056234  1
  Zn  Zn136  1  0.81376368  0.06245484  0.56520742  1
  Zn  Zn137  1  0.81184138  0.56248324  0.06464109  1
  Zn  Zn138  1  0.79867484  0.50746607  0.54074852  1
  Zn  Zn139  1  0.43216604  0.43750413  0.19285709  1
  Zn  Zn140  1  0.43554377  0.43952149  0.68821681  1
  Zn  Zn141  1  0.43707271  0.93666839  0.18827739  1
  Zn  Zn142  1  0.43984135  0.93356541  0.68502179  1
  Zn  Zn143  1  0.93353139  0.43765215  0.18602201  1
  Zn  Zn144  1  0.93792113  0.44105794  0.68819686  1
  Zn  Zn145  1  0.93570871  0.94053830  0.18762919  1
  Zn  Zn146  1  0.93377365  0.93642675  0.68858398  1
  Zn  Zn147  1  0.06378880  0.06564828  0.31632228  1
  Zn  Zn148  1  0.06500140  0.05926307  0.81065689  1
  Zn  Zn149  1  0.06462101  0.56112890  0.30789015  1
  Zn  Zn150  1  0.06090585  0.56324751  0.81233133  1
  Zn  Zn151  1  0.56227454  0.07214626  0.31404404  1
  Zn  Zn152  1  0.56002034  0.05769517  0.80815741  1
  Zn  Zn153  1  0.55858624  0.56220958  0.31460702  1
  Zn  Zn154  1  0.55669953  0.56810206  0.81223330  1
  Zn  Zn155  1  0.44102444  0.18775402  0.43539296  1
  Zn  Zn156  1  0.44117434  0.18630890  0.93372275  1
  Zn  Zn157  1  0.44692318  0.69290328  0.44048921  1
  Zn  Zn158  1  0.43993656  0.68851439  0.93803107  1
  Zn  Zn159  1  0.94934963  0.18761856  0.44284564  1
  Zn  Zn160  1  0.94014926  0.18888913  0.94297706  1
  Zn  Zn161  1  0.94657636  0.68065240  0.42986979  1
  Zn  Zn162  1  0.93766134  0.69021160  0.93651064  1
  Zn  Zn163  1  0.06282191  0.30962674  0.06087015  1
  Zn  Zn164  1  0.06477885  0.30846239  0.56418672  1
  Zn  Zn165  1  0.06490421  0.81330463  0.05965680  1
  Zn  Zn166  1  0.06517729  0.81247638  0.55931406  1
  Zn  Zn167  1  0.56232433  0.31360287  0.05829961  1
  Zn  Zn168  1  0.56149263  0.31510880  0.56316720  1
  Zn  Zn169  1  0.56018700  0.81535747  0.06800792  1
  Zn  Zn170  1  0.56436821  0.81397285  0.56199347  1
  O  O171  1  0.11783773  0.11831246  0.12350824  1
  O  O172  1  0.11870329  0.11809658  0.62036927  1
  O  O173  1  0.11567529  0.61417287  0.11302138  1
  O  O174  1  0.11830497  0.61953959  0.61827979  1
  O  O175  1  0.61766547  0.11104836  0.12845523  1
  O  O176  1  0.61806434  0.11527335  0.61983444  1
  O  O177  1  0.61852199  0.62269442  0.11622498  1
  O  O178  1  0.62680799  0.61166761  0.62404984  1
  O  O179  1  0.38203965  0.37323025  0.38848216  1
  O  O180  1  0.38035739  0.38226628  0.88103595  1
  O  O181  1  0.37484244  0.89025156  0.38783942  1
  O  O182  1  0.36974353  0.88535191  0.88345598  1
  O  O183  1  0.89624248  0.37964789  0.37716297  1
  O  O184  1  0.87875395  0.37715222  0.88116432  1
  O  O185  1  0.88089079  0.88390572  0.37894947  1
  O  O186  1  0.88241783  0.88281204  0.87994486  1
  O  O187  1  0.25805213  -0.00286271  0.36352519  1
  O  O188  1  0.26296792  0.01088108  0.87796397  1
  O  O189  1  0.25618589  0.48942942  0.36921270  1
  O  O190  1  0.25766366  0.49214981  0.86370419  1
  O  O191  1  0.76278747  -0.00290890  0.37088921  1
  O  O192  1  0.75798667  -0.00340867  0.86154102  1
  O  O193  1  0.74919804  0.49691526  0.35940399  1
  O  O194  1  0.75232974  0.50733870  0.87119531  1
  O  O195  1  0.23796007  0.48956650  0.12198036  1
  O  O196  1  0.24675254  0.49289710  0.63114458  1
  O  O197  1  0.24652052  0.99707979  0.13232796  1
  O  O198  1  0.24524438  0.98528386  0.61787005  1
  O  O199  1  0.74171298  0.49475840  0.12873987  1
  O  O200  1  0.73978767  0.49642042  0.63713471  1
  O  O201  1  0.74296172  0.99330374  0.13405607  1
  O  O202  1  0.74727899  0.99437062  0.63525713  1
  O  O203  1  0.00081876  0.37626996  0.25788145  1
  O  O204  1  0.00353829  0.36960113  0.75625654  1
  O  O205  1  0.00573698  0.87295538  0.25391166  1
  O  O206  1  0.00624828  0.87407618  0.75699978  1
  O  O207  1  0.49484469  0.36406192  0.26132590  1
  O  O208  1  0.49684996  0.37420008  0.76299034  1
  O  O209  1  0.51052194  0.86710109  0.24413968  1
  O  O210  1  0.49190527  0.85796362  0.75282997  1
  O  O211  1  0.49092158  0.14222875  0.25111716  1
  O  O212  1  0.49079086  0.12269687  0.73701422  1
  O  O213  1  0.50785792  0.63666905  0.23971749  1
  O  O214  1  0.49590947  0.64408742  0.75356314  1
  O  O215  1  0.99846650  0.11490897  0.23683312  1
  O  O216  1  1.00742366  0.13290506  0.74156541  1
  O  O217  1  0.99613681  0.62952988  0.23613864  1
  O  O218  1  0.98856787  0.62376214  0.73815932  1
  O  O219  1  0.37503937  0.26193008  -0.00622044  1
  O  O220  1  0.37298091  0.25512009  0.50528789  1
  O  O221  1  0.36854163  0.75664915  0.00615178  1
  O  O222  1  0.37370624  0.76072370  0.50462909  1
  O  O223  1  0.87166836  0.25643987  0.00802841  1
  O  O224  1  0.88182940  0.25071579  0.51524621  1
  O  O225  1  0.86472749  0.75847867  0.00091354  1
  O  O226  1  0.87239932  0.74113736  0.49909165  1
  O  O227  1  0.12700686  0.23987471  0.49744351  1
  O  O228  1  0.12723958  0.24528399  0.99264131  1
  O  O229  1  0.13503678  0.74330201  0.49283700  1
  O  O230  1  0.14396429  0.75378173  0.99953689  1
  O  O231  1  0.62640094  0.23719340  0.51018810  1
  O  O232  1  0.62557325  0.24887559  0.98531752  1
  O  O233  1  0.62080801  0.74907939  0.48472999  1
  O  O234  1  0.62677737  0.74661493  0.99694565  1
  O  O235  1  0.50387275  0.25471297  0.14065043  1
  O  O236  1  0.49349715  0.24064176  0.62616953  1
  O  O237  1  0.49301721  0.74491885  0.13405064  1
  O  O238  1  0.49445892  0.75578357  0.63483626  1
  O  O239  1  0.98971702  0.24083929  0.12133892  1
  O  O240  1  0.99290774  0.24377950  0.63187740  1
  O  O241  1  1.00046647  0.74286182  0.12758532  1
  O  O242  1  1.00495356  0.73642146  0.62296979  1
  O  O243  1  0.00800262  0.26243267  0.37769642  1
  O  O244  1  -0.00190135  0.25880285  0.86813326  1
  O  O245  1  0.00798308  0.75677780  0.36576969  1
  O  O246  1  0.00100298  0.76571537  0.87581885  1
  O  O247  1  0.49671188  0.26226022  0.36548624  1
  O  O248  1  0.50888449  0.25869056  0.87191586  1
  O  O249  1  0.51023296  0.75250149  0.36351267  1
  O  O250  1  0.50750997  0.75123403  0.86823984  1
  O  O251  1  0.23684070  0.12305219  0.50402078  1
  O  O252  1  0.25229233  0.12713955  0.99047720  1
  O  O253  1  0.23769557  0.63291288  0.50713589  1
  O  O254  1  0.25287575  0.64052260  1.00652929  1
  O  O255  1  0.73874389  0.12237488  0.50491278  1
  O  O256  1  0.73968582  0.12331699  1.00182281  1
  O  O257  1  0.75916545  0.62203635  0.51461686  1
  O  O258  1  0.74217263  0.63322648  0.99800639  1
  O  O259  1  0.25756182  0.37114287  0.00663714  1
  O  O260  1  0.25752411  0.37441578  0.51266571  1
  O  O261  1  0.26103871  0.87065627  0.00618532  1
  O  O262  1  0.25869854  0.86766229  0.50363895  1
  O  O263  1  0.76097756  0.37482777  0.00662946  1
  O  O264  1  0.76104073  0.39893461  0.50348901  1
  O  O265  1  0.75299623  0.87517199  0.00915835  1
  O  O266  1  0.75428956  0.88003307  0.51894102  1
  O  O267  1  0.12599713  0.50303181  0.23024377  1
  O  O268  1  0.13092078  0.49433822  0.74353086  1
  O  O269  1  0.13408347  0.99907480  0.24781837  1
  O  O270  1  0.12240861  0.98583932  0.74060822  1
  O  O271  1  0.63084467  0.50932645  0.23699311  1
  O  O272  1  0.62997140  0.50141430  0.74684717  1
  O  O273  1  0.63110275  0.99706767  0.24893597  1
  O  O274  1  0.63720774  1.00169820  0.74332427  1
  O  O275  1  0.37132687  0.00500730  0.25715102  1
  O  O276  1  0.38219189  0.00468574  0.75929406  1
  O  O277  1  0.37194776  0.50973136  0.25031960  1
  O  O278  1  0.36629089  0.50422933  0.75674387  1
  O  O279  1  0.86067481  -0.00257084  0.25637241  1
  O  O280  1  0.86363686  -0.00127327  0.75790406  1
  O  O281  1  0.86469292  0.50770780  0.24747061  1
  O  O282  1  0.86689483  0.51016145  0.75412895  1
  O  O283  1  0.11229804  0.35978983  0.38132164  1
  O  O284  1  0.11515375  0.37442601  0.86848554  1
  O  O285  1  0.12121612  0.86885951  0.36906191  1
  O  O286  1  0.11989640  0.87549603  0.86619898  1
  O  O287  1  0.61016811  0.37227772  0.37631046  1
  O  O288  1  0.61537131  0.36948377  0.87427154  1
  O  O289  1  0.63012101  0.87080032  0.36732575  1
  O  O290  1  0.62735978  0.86749316  0.88360429  1
  O  O291  1  0.37878005  0.12153119  0.14335415  1
  O  O292  1  0.38079173  0.12598148  0.62965145  1
  O  O293  1  0.38606745  0.63551309  0.11730608  1
  O  O294  1  0.37046861  0.64112976  0.62086906  1
  O  O295  1  0.88266551  0.13455540  0.11967225  1
  O  O296  1  0.88832436  0.13358699  0.62205780  1
  O  O297  1  0.88226966  0.62698802  0.13216099  1
  O  O298  1  0.87754556  0.63264780  0.62859774  1
  O  O299  1  0.24391968  0.26436888  0.12275811  1
  O  O300  1  0.25589449  0.25740428  0.62439818  1
  O  O301  1  0.25831998  0.75844231  0.11612473  1
  O  O302  1  0.25703951  0.75991297  0.61266507  1
  O  O303  1  0.75695031  0.25746934  0.12226115  1
  O  O304  1  0.76728759  0.25202393  0.63371465  1
  O  O305  1  0.74576908  0.76492353  0.12190580  1
  O  O306  1  0.75105812  0.74958053  0.62538434  1
  O  O307  1  0.23344184  0.25775741  0.37863049  1
  O  O308  1  0.25120355  0.23536828  0.87167135  1
  O  O309  1  0.24750479  0.75157982  0.38637887  1
  O  O310  1  0.25326002  0.75473986  0.88893177  1
  O  O311  1  0.77066961  0.24734712  0.36984310  1
  O  O312  1  0.73438909  0.25585652  0.87434039  1
  O  O313  1  0.73706951  0.75203334  0.37023184  1
  O  O314  1  0.73971249  0.74614985  0.87972758  1
  O  O315  1  0.00213139  0.11202792  0.00588880  1
  O  O316  1  0.01124000  0.11697817  0.51072539  1
  O  O317  1  -0.00651287  0.62317472  0.01133898  1
  O  O318  1  0.01406742  0.61954452  0.50386572  1
  O  O319  1  0.50164140  0.11612396  0.00395239  1
  O  O320  1  0.50221209  0.11637348  0.51024124  1
  O  O321  1  0.50732253  0.62525756  0.01105001  1
  O  O322  1  0.50533140  0.61295220  0.49992556  1
  O  O323  1  0.49431440  0.37864713  0.48995975  1
  O  O324  1  0.49178556  0.37804423  0.99029512  1
  O  O325  1  0.49396650  0.89001820  0.50562938  1
  O  O326  1  0.48613615  0.88071215  1.00613043  1
  O  O327  1  1.00483444  0.38803081  0.50570734  1
  O  O328  1  0.98760417  0.37370288  0.99149038  1
  O  O329  1  0.99813074  0.88011932  0.49302706  1
  O  O330  1  0.99701540  0.88516636  0.99425732  1
  O  O331  1  0.49875560  0.48824125  0.38225271  1
  O  O332  1  0.49143437  0.49352204  0.87755729  1
  O  O333  1  0.49430232  1.00453203  0.38244510  1
  O  O334  1  0.49238501  1.00293626  0.88658534  1
  O  O335  1  1.01056413  0.48542671  0.38099905  1
  O  O336  1  0.99063884  0.48681181  0.87228196  1
  O  O337  1  0.99046669  0.99601980  0.37782959  1
  O  O338  1  0.99550597  0.99177663  0.88030624  1
  O  O339  1  0.00431461  0.00411186  0.11690919  1
  O  O340  1  0.00420931  0.00586938  0.62189296  1
  O  O341  1  0.00802366  0.50378323  0.12287567  1
  O  O342  1  0.00407250  0.50963289  0.61578289  1
  O  O343  1  0.50498933  -0.00058975  0.11613197  1
  O  O344  1  0.50889976  0.00450013  0.62018565  1
  O  O345  1  0.50682659  0.50719313  0.12574231  1
  O  O346  1  0.50576174  0.49399681  0.61519779  1
  O  O347  1  0.25258556  0.37733424  0.23362949  1
  O  O348  1  0.24849268  0.38059466  0.73952348  1
  O  O349  1  0.24210503  0.88696311  0.23923148  1
  O  O350  1  0.24369016  0.86910039  0.73862715  1
  O  O351  1  0.75238403  0.38734091  0.23420340  1
  O  O352  1  0.74971034  0.38855971  0.75311836  1
  O  O353  1  0.74246514  0.88459242  0.24480229  1
  O  O354  1  0.75267471  0.88335525  0.73600071  1
  O  O355  1  0.26223680  0.11768724  0.24751215  1
  O  O356  1  0.26243163  0.12402787  0.75249089  1
  O  O357  1  0.24246288  0.62740635  0.24217168  1
  O  O358  1  0.25041554  0.61489190  0.74286867  1
  O  O359  1  0.74954778  0.12239428  0.25556285  1
  O  O360  1  0.75072215  0.11030482  0.74445911  1
  O  O361  1  0.75915171  0.61725205  0.23971371  1
  O  O362  1  0.75458463  0.61779159  0.75733951  1
  O  O363  1  0.37851747  0.11559384  0.36416209  1
  O  O364  1  0.37258734  0.11737463  0.86514400  1
  O  O365  1  0.37481826  0.62646987  0.39019894  1
  O  O366  1  0.37732484  0.61114642  0.87793989  1
  O  O367  1  0.88015473  0.12276593  0.37114897  1
  O  O368  1  0.88334590  0.11308765  0.87777572  1
  O  O369  1  0.88567462  0.61993118  0.35498845  1
  O  O370  1  0.86969168  0.61999932  0.86878599  1
  O  O371  1  0.13387129  0.38332850  0.11947936  1
  O  O372  1  0.13342870  0.37987982  0.62984983  1
  O  O373  1  0.13013010  0.88319708  0.12890323  1
  O  O374  1  0.13326321  0.87857418  0.62875393  1
  O  O375  1  0.63354770  0.38609257  0.11582678  1
  O  O376  1  0.62407039  0.38558454  0.63045238  1
  O  O377  1  0.63017975  0.88579428  0.13487092  1
  O  O378  1  0.63277100  0.88722727  0.62105464  1
  O  O379  1  0.12510172  0.24272636  0.26445336  1
  O  O380  1  0.11379118  0.25695509  0.75083359  1
  O  O381  1  0.11862420  0.75820754  0.24959197  1
  O  O382  1  0.12159094  0.76221179  0.74883346  1
  O  O383  1  0.61515363  0.24764764  0.25092235  1
  O  O384  1  0.62255693  0.25301013  0.75832914  1
  O  O385  1  0.61971514  0.75903314  0.25949388  1
  O  O386  1  0.61398252  0.75177598  0.76073773  1
  O  O387  1  0.37226611  0.24068361  0.25665332  1
  O  O388  1  0.37812574  0.23942347  0.74254453  1
  O  O389  1  0.38233614  0.75109887  0.24010415  1
  O  O390  1  0.38123119  0.74755403  0.74093695  1
  O  O391  1  0.86965331  0.23945738  0.24188861  1
  O  O392  1  0.88796980  0.25170046  0.74068108  1
  O  O393  1  0.88102583  0.74570037  0.24576221  1
  O  O394  1  0.87576832  0.73744836  0.75877378  1
  O  O395  1  0.38431390  0.49008889  0.50244618  1
  O  O396  1  0.37370281  0.49043196  0.99337918  1
  O  O397  1  0.38412893  0.99897486  0.49263798  1
  O  O398  1  0.38089373  0.99357983  0.99409771  1
  O  O399  1  0.89785017  0.51500129  0.48870221  1
  O  O400  1  0.87554411  0.49227768  0.99340232  1
  O  O401  1  0.88291360  1.00288746  0.49153919  1
  O  O402  1  0.88272750  0.99469120  0.99380786  1
  O  O403  1  0.11817397  -0.00033703  0.00581530  1
  O  O404  1  0.11936603  0.00380043  0.50390278  1
  O  O405  1  0.12009757  0.49806025  0.00958664  1
  O  O406  1  0.11995928  0.50619815  0.50391201  1
  O  O407  1  0.61416456  -0.00253197  0.00910099  1
  O  O408  1  0.61954599  0.00648006  0.50761370  1
  O  O409  1  0.62330985  0.51004559  0.00961169  1
  O  O410  1  0.61713652  0.50487090  0.50847179  1
  O  O411  1  0.36130866  0.38006966  0.11556329  1
  O  O412  1  0.37020383  0.36958377  0.61746619  1
  O  O413  1  0.36972403  0.86737933  0.11936468  1
  O  O414  1  0.36909568  0.87003187  0.61523634  1
  O  O415  1  0.86991666  0.36600807  0.11829804  1
  O  O416  1  0.87596063  0.36291993  0.62819798  1
  O  O417  1  0.86531195  0.87627103  0.11891673  1
  O  O418  1  0.86873874  0.87128695  0.62142298  1
  O  O419  1  0.11592298  0.13960183  0.38607900  1
  O  O420  1  0.13714353  0.12171533  0.87391628  1
  O  O421  1  0.11816594  0.63340207  0.38175473  1
  O  O422  1  0.11517947  0.63051981  0.88067739  1
  O  O423  1  0.62254951  0.12521135  0.39394334  1
  O  O424  1  0.61586663  0.13947392  0.87126644  1
  O  O425  1  0.62600690  0.63810576  0.37681685  1
  O  O426  1  0.62686130  0.62982181  0.88875562  1
