# generated using pymatgen
data_V85Zn86O256
_symmetry_space_group_name_H-M   'P 1'
_cell_length_a   16.91947527
_cell_length_b   16.92548780
_cell_length_c   16.91946398
_cell_angle_alpha   90.01862249
_cell_angle_beta   90.02323706
_cell_angle_gamma   90.02070029
_symmetry_Int_Tables_number   1
_chemical_formula_structural   V85Zn86O256
_chemical_formula_sum   'V85 Zn86 O256'
_cell_volume   4845.23222717
_cell_formula_units_Z   1
loop_
 _symmetry_equiv_pos_site_id
 _symmetry_equiv_pos_as_xyz
  1  'x, y, z'
loop_
 _atom_site_type_symbol
 _atom_site_label
 _atom_site_symmetry_multiplicity
 _atom_site_fract_x
 _atom_site_fract_y
 _atom_site_fract_z
 _atom_site_occupancy
  V  V0  1  0.00097491  0.74616915  0.23897394  1
  V  V1  1  0.88037600  0.74999997  0.63053141  1
  V  V2  1  0.00243958  0.85781718  0.87330714  1
  V  V3  1  0.37808709  0.37404100  0.50327732  1
  V  V4  1  0.75221456  0.62803695  0.37376119  1
  V  V5  1  0.50353351  0.49858026  0.50016799  1
  V  V6  1  0.61865461  0.11610388  0.49805062  1
  V  V7  1  0.87493745  0.00341076  0.36809152  1
  V  V8  1  -0.00123149  0.50304863  0.00232299  1
  V  V9  1  0.12606256  0.00093442  0.12006094  1
  V  V10  1  0.12799887  0.62207846  0.50433658  1
  V  V11  1  0.62678265  0.87877272  0.23364933  1
  V  V12  1  0.12522478  0.74999340  0.37455715  1
  V  V13  1  0.74934648  -0.00139434  0.23705075  1
  V  V14  1  0.62499492  0.60959763  0.00312304  1
  V  V15  1  0.37713436  0.63827042  0.75102595  1
  V  V16  1  0.87038013  0.76360288  0.12060987  1
  V  V17  1  0.88078123  0.49205498  0.87293507  1
  V  V18  1  0.24966645  0.50001384  0.25149071  1
  V  V19  1  0.38163896  0.49663111  0.37543970  1
  V  V20  1  0.75559407  0.88468718  0.63456219  1
  V  V21  1  0.38309609  0.38199230  0.00241493  1
  V  V22  1  0.75092526  0.12423766  0.36833431  1
  V  V23  1  0.12655258  0.25057048  0.37495892  1
  V  V24  1  0.24936816  0.49942325  0.73644899  1
  V  V25  1  0.38188389  0.12949179  0.23538620  1
  V  V26  1  0.00231234  0.50055089  0.50495548  1
  V  V27  1  0.74792616  0.12064684  0.86439082  1
  V  V28  1  0.12328829  0.26087978  0.87667554  1
  V  V29  1  0.61501943  0.36982837  0.75067559  1
  V  V30  1  0.00202910  0.12498823  0.62774562  1
  V  V31  1  0.12541522  0.37500154  0.24963162  1
  V  V32  1  0.87286228  0.24586893  0.12818415  1
  V  V33  1  0.61093218  0.24369832  0.87463695  1
  V  V34  1  0.24636661  0.00751275  0.74709223  1
  V  V35  1  0.25346421  0.12639919  0.37444362  1
  V  V36  1  0.74739999  0.25006535  0.49580998  1
  V  V37  1  0.37432039  0.25371175  0.64042912  1
  V  V38  1  0.43965318  -0.05711119  0.55137009  1
  V  V39  1  0.24425568  0.75086679  -0.00377329  1
  V  V40  1  0.87467342  0.50258178  0.37327128  1
  V  V41  1  0.62640065  0.11932581  0.01272035  1
  V  V42  1  0.60961873  0.25274798  0.36731186  1
  V  V43  1  0.12914304  0.85961351  0.75028498  1
  V  V44  1  0.00502695  0.62412353  0.63202717  1
  V  V45  1  0.74421963  0.37987694  0.12883668  1
  V  V46  1  0.25178028  0.25210959  0.00211123  1
  V  V47  1  0.25107405  0.00078611  0.24891881  1
  V  V48  1  0.37745276  0.01272375  0.87369131  1
  V  V49  1  0.87433583  -0.00486446  0.86628767  1
  V  V50  1  -0.00309431  0.12434389  0.12672235  1
  V  V51  1  0.87346103  0.25010257  0.62485063  1
  V  V52  1  -0.00024946  0.37524559  0.37520713  1
  V  V53  1  0.23887538  0.62525302  0.87465919  1
  V  V54  1  0.87722795  0.62442138  0.23743306  1
  V  V55  1  0.50222355  0.63232532  0.62886886  1
  V  V56  1  0.25100812  0.25777374  0.50652804  1
  V  V57  1  0.74825768  0.49763020  0.75102390  1
  V  V58  1  0.12546665  0.87568315  0.24837135  1
  V  V59  1  0.11981470  0.50884321  0.12535814  1
  V  V60  1  0.37854211  0.75171403  0.12391139  1
  V  V61  1  -0.00539707  -0.00352433  -0.00572847  1
  V  V62  1  0.87750630  0.87455127  0.50113247  1
  V  V63  1  0.12547392  0.12610173  0.50009968  1
  V  V64  1  0.74793342  0.76261877  0.00323675  1
  V  V65  1  0.87646194  0.62733475  0.75255908  1
  V  V66  1  0.38475677  -0.00222406  0.37352486  1
  V  V67  1  0.25787495  0.76291521  0.50499339  1
  V  V68  1  0.50335460  -0.00272648  0.01489201  1
  V  V69  1  0.62475695  0.87745848  0.75378753  1
  V  V70  1  0.61773979  0.74687790  0.87328340  1
  V  V71  1  0.49772500  0.13526817  0.63265242  1
  V  V72  1  0.74752130  0.37375511  0.62431253  1
  V  V73  1  0.00184262  0.00010661  0.49992841  1
  V  V74  1  0.37934948  0.50310894  0.87540020  1
  V  V75  1  0.75386274  0.75048081  0.50131408  1
  V  V76  1  0.87887448  0.37056368  -0.00276298  1
  V  V77  1  0.25372762  0.62615392  0.37594429  1
  V  V78  1  0.12636894  0.38030251  0.73496510  1
  V  V79  1  -0.00282507  0.24629282  0.25031422  1
  V  V80  1  0.25146958  0.37396244  0.12363157  1
  V  V81  1  0.50166598  0.61042651  0.12333920  1
  V  V82  1  0.62543181  0.75622603  0.37509216  1
  V  V83  1  -0.00029282  0.87402929  0.37412603  1
  V  V84  1  -0.00250664  0.25574750  0.75767445  1
  Zn  Zn85  1  0.12938941  -0.00931541  0.62417505  1
  Zn  Zn86  1  0.37885282  0.62696292  0.25017963  1
  Zn  Zn87  1  0.49870688  0.37576739  0.87589555  1
  Zn  Zn88  1  0.62679016  0.62521874  0.50133887  1
  Zn  Zn89  1  0.12457387  0.12717026  -0.00514716  1
  Zn  Zn90  1  0.74326949  0.50389168  0.24428721  1
  Zn  Zn91  1  0.11672123  0.63104798  -0.00030171  1
  Zn  Zn92  1  0.48954962  0.25051717  0.21083068  1
  Zn  Zn93  1  0.62508022  0.50174903  0.62487119  1
  Zn  Zn94  1  0.25255826  0.87502311  0.12162920  1
  Zn  Zn95  1  0.37792074  0.76219542  0.62452823  1
  Zn  Zn96  1  0.87223852  0.37706481  0.49883208  1
  Zn  Zn97  1  0.49965831  0.87618027  0.37781345  1
  Zn  Zn98  1  0.62885308  0.00182752  0.62777802  1
  Zn  Zn99  1  0.37312369  0.87548659  -0.00447999  1
  Zn  Zn100  1  0.74990228  0.62446913  0.87829633  1
  Zn  Zn101  1  0.50033689  0.75210597  0.24978360  1
  Zn  Zn102  1  0.60281584  0.38706799  0.25238359  1
  Zn  Zn103  1  0.49383549  0.86992685  0.87229004  1
  Zn  Zn104  1  0.25128397  0.13107578  0.87353099  1
  Zn  Zn105  1  0.87139349  0.12169540  0.74710558  1
  Zn  Zn106  1  0.75064503  0.24667280  -0.00269082  1
  Zn  Zn107  1  0.18896970  0.18640439  0.18608438  1
  Zn  Zn108  1  0.18649616  0.18990307  0.68937313  1
  Zn  Zn109  1  0.19122957  0.68818100  0.18559989  1
  Zn  Zn110  1  0.19380778  0.68617796  0.68463412  1
  Zn  Zn111  1  0.68883490  0.18968107  0.18933486  1
  Zn  Zn112  1  0.68256567  0.18790156  0.68790990  1
  Zn  Zn113  1  0.68618361  0.68795861  0.18559509  1
  Zn  Zn114  1  0.68985203  0.68892703  0.68932089  1
  Zn  Zn115  1  0.31924788  0.31264913  0.31370084  1
  Zn  Zn116  1  0.30747159  0.31945176  0.81713051  1
  Zn  Zn117  1  0.31474186  0.81395000  0.31179701  1
  Zn  Zn118  1  0.30787648  0.81675736  0.81712668  1
  Zn  Zn119  1  0.81272881  0.31181645  0.31105040  1
  Zn  Zn120  1  0.80645161  0.30808288  0.81361481  1
  Zn  Zn121  1  0.81159674  0.81530306  0.30805755  1
  Zn  Zn122  1  0.81155921  0.81137198  0.81826327  1
  Zn  Zn123  1  0.18978262  0.43819538  0.44078689  1
  Zn  Zn124  1  0.18760819  0.43987099  0.93344085  1
  Zn  Zn125  1  0.18924610  0.94068810  0.43457499  1
  Zn  Zn126  1  0.18631042  0.93602919  0.93281905  1
  Zn  Zn127  1  0.68468111  0.43729309  0.43056740  1
  Zn  Zn128  1  0.69277889  0.43122633  0.93503988  1
  Zn  Zn129  1  0.69074236  0.93664744  0.43766956  1
  Zn  Zn130  1  0.68749437  0.93981931  0.93565949  1
  Zn  Zn131  1  0.31100878  0.06159746  0.05568089  1
  Zn  Zn132  1  0.30886743  0.07266036  0.56993760  1
  Zn  Zn133  1  0.31098337  0.56411971  0.06184377  1
  Zn  Zn134  1  0.31765045  0.56722532  0.56282183  1
  Zn  Zn135  1  0.81436587  0.06197283  0.05429016  1
  Zn  Zn136  1  0.81432270  0.06410195  0.55722035  1
  Zn  Zn137  1  0.81079433  0.56349146  0.05947236  1
  Zn  Zn138  1  0.81354702  0.56226053  0.56323981  1
  Zn  Zn139  1  0.43493917  0.43418848  0.19084500  1
  Zn  Zn140  1  0.43519104  0.44288305  0.68546034  1
  Zn  Zn141  1  0.43762437  0.93375321  0.19055510  1
  Zn  Zn142  1  0.44140626  0.94111447  0.71325794  1
  Zn  Zn143  1  0.93532899  0.43487664  0.18596531  1
  Zn  Zn144  1  0.93803165  0.43561111  0.68624701  1
  Zn  Zn145  1  0.93764898  0.93839891  0.18721191  1
  Zn  Zn146  1  0.94658095  0.93546382  0.69267265  1
  Zn  Zn147  1  0.06302305  0.06370652  0.31016852  1
  Zn  Zn148  1  0.06564216  0.06638980  0.81323461  1
  Zn  Zn149  1  0.06182636  0.56480802  0.31324517  1
  Zn  Zn150  1  0.06091976  0.55606825  0.81295991  1
  Zn  Zn151  1  0.56282343  0.06391466  0.30559498  1
  Zn  Zn152  1  0.56317191  0.05912727  0.81389760  1
  Zn  Zn153  1  0.56399103  0.56806023  0.31088168  1
  Zn  Zn154  1  0.56129826  0.56349217  0.81263186  1
  Zn  Zn155  1  0.43526365  0.18069853  0.44307013  1
  Zn  Zn156  1  0.45335288  0.20251745  0.99828322  1
  Zn  Zn157  1  0.44016094  0.68782443  0.43961970  1
  Zn  Zn158  1  0.43574726  0.68420421  0.94202108  1
  Zn  Zn159  1  0.93487365  0.18661879  0.43724153  1
  Zn  Zn160  1  0.93625839  0.18288459  0.93726106  1
  Zn  Zn161  1  0.93958352  0.68673751  0.43620570  1
  Zn  Zn162  1  0.93181627  0.68371035  0.94114316  1
  Zn  Zn163  1  0.06204080  0.31741863  0.06252405  1
  Zn  Zn164  1  0.06038795  0.31199459  0.56317797  1
  Zn  Zn165  1  0.06065634  0.81531342  0.05930897  1
  Zn  Zn166  1  0.06583712  0.80872795  0.56591851  1
  Zn  Zn167  1  0.56753201  0.31469213  0.06042642  1
  Zn  Zn168  1  0.56250050  0.31185193  0.55942036  1
  Zn  Zn169  1  0.56077713  0.80890019  0.05716664  1
  Zn  Zn170  1  0.57104088  0.80869181  0.56807979  1
  O  O171  1  0.11772246  0.11402058  0.12379798  1
  O  O172  1  0.11367620  0.12709712  0.61924165  1
  O  O173  1  0.12763605  0.61202224  0.12504288  1
  O  O174  1  0.11617270  0.63008688  0.61787922  1
  O  O175  1  0.63339484  0.12389614  0.11103495  1
  O  O176  1  0.61621156  0.12309783  0.61726548  1
  O  O177  1  0.61477317  0.62590357  0.11458966  1
  O  O178  1  0.61866634  0.62409991  0.62457018  1
  O  O179  1  0.36966821  0.38488781  0.38900665  1
  O  O180  1  0.37552787  0.38531776  0.88275489  1
  O  O181  1  0.37816242  0.88929268  0.37066548  1
  O  O182  1  0.37638721  0.88592279  0.87669747  1
  O  O183  1  0.88139624  0.38411162  0.37551942  1
  O  O184  1  0.86739702  0.37998079  0.88371606  1
  O  O185  1  0.88134510  0.88062461  0.37972235  1
  O  O186  1  0.89093135  0.88066671  0.86766491  1
  O  O187  1  0.25700976  0.00749047  0.36869711  1
  O  O188  1  0.25768335  0.00516503  0.87036518  1
  O  O189  1  0.25826906  0.50765321  0.37354309  1
  O  O190  1  0.25730710  0.50834617  0.86601162  1
  O  O191  1  0.75776188  0.00606122  0.36944912  1
  O  O192  1  0.76215595  0.00554114  0.87832147  1
  O  O193  1  0.76506634  0.50561717  0.37837533  1
  O  O194  1  0.76068568  0.49950906  0.86597045  1
  O  O195  1  0.24139392  0.49612815  0.13258989  1
  O  O196  1  0.25229575  0.50796365  0.63667654  1
  O  O197  1  0.24087386  0.99913687  0.12764644  1
  O  O198  1  0.24945284  1.00387161  0.64102607  1
  O  O199  1  0.75995244  0.48373309  0.12603079  1
  O  O200  1  0.74999962  0.49358506  0.63358904  1
  O  O201  1  0.76278053  1.00563132  0.13862776  1
  O  O202  1  0.75547920  0.98775536  0.62208379  1
  O  O203  1  0.00567478  0.36894228  0.25619453  1
  O  O204  1  0.01158938  0.36824694  0.74410332  1
  O  O205  1  0.00526434  0.86704185  0.25490722  1
  O  O206  1  0.01289151  0.87356085  0.76349326  1
  O  O207  1  0.49388703  0.35902996  0.24506160  1
  O  O208  1  0.51241923  0.38289722  0.75088143  1
  O  O209  1  0.51501970  0.87476063  0.25414487  1
  O  O210  1  0.51885829  0.86730803  0.75126880  1
  O  O211  1  0.48559977  0.12808157  0.24811660  1
  O  O212  1  0.50698406  0.11730622  0.73060169  1
  O  O213  1  0.50159077  0.63081022  0.23502614  1
  O  O214  1  0.49004253  0.62168861  0.74186912  1
  O  O215  1  1.00250870  0.12877140  0.23533710  1
  O  O216  1  0.99972630  0.13540963  0.74114094  1
  O  O217  1  0.99143842  0.63609358  0.25531634  1
  O  O218  1  0.99311116  0.61607750  0.73960192  1
  O  O219  1  0.35792760  0.26564541  -0.00608245  1
  O  O220  1  0.36886364  0.25792900  0.50411556  1
  O  O221  1  0.36514525  0.75060471  0.00677362  1
  O  O222  1  0.36153785  0.75095980  0.49821831  1
  O  O223  1  0.87494627  0.25575775  0.00581863  1
  O  O224  1  0.86229598  0.25109752  0.50310420  1
  O  O225  1  0.85883577  0.74305255  0.00722873  1
  O  O226  1  0.87380046  0.75514833  0.50761156  1
  O  O227  1  0.13175198  0.24720953  0.49569261  1
  O  O228  1  0.13082285  0.25564111  0.99301444  1
  O  O229  1  0.13235070  0.73958816  0.49565482  1
  O  O230  1  0.13862408  0.74622306  1.01161829  1
  O  O231  1  0.63365893  0.24152552  0.49230254  1
  O  O232  1  0.62986579  0.23420895  0.99232632  1
  O  O233  1  0.63685748  0.74924880  0.49356567  1
  O  O234  1  0.63457445  0.74264487  0.99496235  1
  O  O235  1  0.49559705  0.23961428  0.09895315  1
  O  O236  1  0.49376255  0.24213674  0.62418604  1
  O  O237  1  0.48898657  0.74396781  0.12224371  1
  O  O238  1  0.49597199  0.73725776  0.61650242  1
  O  O239  1  0.99594953  0.24317798  0.12871857  1
  O  O240  1  0.99359420  0.24417225  0.63124012  1
  O  O241  1  0.99357204  0.75253454  0.13316209  1
  O  O242  1  0.98829689  0.73917080  0.62115798  1
  O  O243  1  0.00518787  0.25325231  0.37108605  1
  O  O244  1  0.00206965  0.24796134  0.86299989  1
  O  O245  1  0.00627230  0.75473368  0.36652357  1
  O  O246  1  -0.00320564  0.75932086  0.88180250  1
  O  O247  1  0.51181814  0.24498290  0.38328081  1
  O  O248  1  0.50994407  0.25018283  0.88863654  1
  O  O249  1  0.51049817  0.75224075  0.37398386  1
  O  O250  1  0.51341725  0.75068361  0.88514381  1
  O  O251  1  0.24476916  0.13514828  0.49437653  1
  O  O252  1  0.24508067  0.13797460  0.99951608  1
  O  O253  1  0.24462449  0.62929743  0.49182596  1
  O  O254  1  0.24596480  0.63041021  0.99092368  1
  O  O255  1  0.74358448  0.13148068  0.49017381  1
  O  O256  1  0.73831230  0.12055136  0.98885527  1
  O  O257  1  0.75297464  0.63322210  0.49358838  1
  O  O258  1  0.73631385  0.62908698  1.00083727  1
  O  O259  1  0.25167996  0.37276046  0.00736603  1
  O  O260  1  0.25589595  0.36423780  0.49995618  1
  O  O261  1  0.24982399  0.86628766  0.00081911  1
  O  O262  1  0.24221263  0.86077616  0.49712051  1
  O  O263  1  0.76060931  0.37167113  0.01069950  1
  O  O264  1  0.74840343  0.36633266  0.50418925  1
  O  O265  1  0.74536173  0.86156063  -0.00092420  1
  O  O266  1  0.75945564  0.86911246  0.50907931  1
  O  O267  1  0.12836187  0.49536463  0.24588657  1
  O  O268  1  0.13016037  0.48749587  0.75082887  1
  O  O269  1  0.13014205  0.99650355  0.24193878  1
  O  O270  1  0.13557683  0.99665101  0.75042508  1
  O  O271  1  0.63381565  0.49354124  0.26894310  1
  O  O272  1  0.63565232  0.49366941  0.75195057  1
  O  O273  1  0.63320506  0.98801053  0.25224984  1
  O  O274  1  0.62568909  0.98308231  0.74767328  1
  O  O275  1  0.37080453  0.00864370  0.25576916  1
  O  O276  1  0.36005879  0.00013292  0.76276380  1
  O  O277  1  0.36746847  0.50340180  0.25993279  1
  O  O278  1  0.36562541  0.50702802  0.75538009  1
  O  O279  1  0.86935050  -0.00651950  0.26236456  1
  O  O280  1  0.88293837  0.00342305  0.76153497  1
  O  O281  1  0.87639657  0.50858945  0.25651066  1
  O  O282  1  0.86973153  0.50347243  0.75483238  1
  O  O283  1  0.12041408  0.37089185  0.37031669  1
  O  O284  1  0.12554466  0.36605485  0.86471231  1
  O  O285  1  0.11925848  0.87013825  0.36846730  1
  O  O286  1  0.11229941  0.87588886  0.86499325  1
  O  O287  1  0.62971905  0.35456801  0.37294351  1
  O  O288  1  0.62353638  0.36444566  0.86951250  1
  O  O289  1  0.62604808  0.86544923  0.37374934  1
  O  O290  1  0.62681956  0.86801960  0.86547405  1
  O  O291  1  0.36840677  0.12026894  0.13725552  1
  O  O292  1  0.38882378  0.13789378  0.62073543  1
  O  O293  1  0.38649326  0.62957218  0.12389752  1
  O  O294  1  0.38312674  0.62889324  0.63462893  1
  O  O295  1  0.88154445  0.13748028  0.11773605  1
  O  O296  1  0.88515235  0.13035310  0.62371301  1
  O  O297  1  0.87150843  0.63161199  0.13480723  1
  O  O298  1  0.88213711  0.63030450  0.63255775  1
  O  O299  1  0.24014601  0.26308868  0.11705104  1
  O  O300  1  0.26030963  0.24157764  0.61614142  1
  O  O301  1  0.26270085  0.74803037  0.11885338  1
  O  O302  1  0.25558764  0.74820434  0.60908509  1
  O  O303  1  0.75832315  0.25605426  0.12306657  1
  O  O304  1  0.75262143  0.25180442  0.61578897  1
  O  O305  1  0.75524630  0.74784148  0.11285527  1
  O  O306  1  0.76357676  0.75517589  0.62049122  1
  O  O307  1  0.24547087  0.24585081  0.38260369  1
  O  O308  1  0.24066618  0.25192920  0.88302689  1
  O  O309  1  0.24557093  0.74360923  0.38160129  1
  O  O310  1  0.25356891  0.73879638  0.88481918  1
  O  O311  1  0.74690537  0.24138143  0.37875325  1
  O  O312  1  0.74169393  0.23728345  0.87775843  1
  O  O313  1  0.74831093  0.74821156  0.38114770  1
  O  O314  1  0.74400121  0.74555140  0.88835946  1
  O  O315  1  0.00334051  0.11868246  0.01061405  1
  O  O316  1  0.00536632  0.12134649  0.50589150  1
  O  O317  1  -0.00046847  0.60937116  -0.00292893  1
  O  O318  1  0.00781006  0.61971942  0.50697957  1
  O  O319  1  0.51593955  0.10709530  -0.00758527  1
  O  O320  1  0.50961041  0.12581347  0.51233498  1
  O  O321  1  0.51256835  0.62599130  0.01118311  1
  O  O322  1  0.50090373  0.61455867  0.50749588  1
  O  O323  1  0.49422409  0.38848613  0.50287124  1
  O  O324  1  0.48620255  0.37927985  1.00027360  1
  O  O325  1  0.50492721  0.88181218  0.50079494  1
  O  O326  1  0.50246481  0.88855483  0.99535911  1
  O  O327  1  0.99983198  0.38414920  0.49440360  1
  O  O328  1  0.98611265  0.38384364  1.00387782  1
  O  O329  1  0.99759286  0.87913946  0.49535290  1
  O  O330  1  1.00580415  0.88304213  0.98413277  1
  O  O331  1  0.48715866  0.50988374  0.38270383  1
  O  O332  1  0.48366257  0.50030497  0.87053315  1
  O  O333  1  0.48910918  1.00305473  0.37424162  1
  O  O334  1  0.48624571  0.99577166  0.87144460  1
  O  O335  1  0.99190179  0.49877338  0.38337279  1
  O  O336  1  0.98746508  0.49716528  0.88113552  1
  O  O337  1  0.99411129  0.99658185  0.37842804  1
  O  O338  1  0.99521658  1.00008202  0.88078188  1
  O  O339  1  0.00314845  0.00586218  0.11837914  1
  O  O340  1  0.00152890  0.00895180  0.61878892  1
  O  O341  1  0.00760937  0.49387996  0.11725003  1
  O  O342  1  -0.00562038  0.50804660  0.61226933  1
  O  O343  1  0.49652944  -0.00146522  0.11294501  1
  O  O344  1  0.49373922  0.00361015  0.61861639  1
  O  O345  1  0.49493813  0.51203579  0.12676033  1
  O  O346  1  0.50225407  0.51081934  0.61694220  1
  O  O347  1  0.24640801  0.37936362  0.24423533  1
  O  O348  1  0.23665542  0.38503559  0.75096952  1
  O  O349  1  0.24252628  0.88218744  0.24699267  1
  O  O350  1  0.23473001  0.88671877  0.75762319  1
  O  O351  1  0.75464241  0.37462315  0.23453428  1
  O  O352  1  0.74227639  0.38101377  0.74478159  1
  O  O353  1  0.73710672  0.88415793  0.25271947  1
  O  O354  1  0.74295438  0.86952850  0.74360431  1
  O  O355  1  0.25568899  0.11909123  0.25552787  1
  O  O356  1  0.24404196  0.11278918  0.75431191  1
  O  O357  1  0.24959406  0.62076137  0.26333037  1
  O  O358  1  0.25578993  0.61893446  0.75642340  1
  O  O359  1  0.74376467  0.11681672  0.26202566  1
  O  O360  1  0.74992727  0.12558851  0.75938316  1
  O  O361  1  0.75948621  0.62584688  0.25545896  1
  O  O362  1  0.75890312  0.61355456  0.75039551  1
  O  O363  1  0.36835309  0.11720242  0.37143746  1
  O  O364  1  0.37337617  0.11215686  0.88187344  1
  O  O365  1  0.36750373  0.61882859  0.37546131  1
  O  O366  1  0.36841437  0.62103365  0.86853259  1
  O  O367  1  0.86510434  0.11487075  0.37925761  1
  O  O368  1  0.86578087  0.11699008  0.87281013  1
  O  O369  1  0.87217519  0.62009860  0.36650499  1
  O  O370  1  0.87286067  0.61515154  0.86645603  1
  O  O371  1  0.13207458  0.38521480  0.13154568  1
  O  O372  1  0.12641389  0.37189781  0.63567525  1
  O  O373  1  0.12255769  0.88790247  0.12997734  1
  O  O374  1  0.11542769  0.87554266  0.64397925  1
  O  O375  1  0.64117403  0.37190504  0.12626544  1
  O  O376  1  0.63065110  0.37500654  0.63228838  1
  O  O377  1  0.62344818  0.87030571  0.13551787  1
  O  O378  1  0.63712558  0.87489948  0.63606124  1
  O  O379  1  0.11851828  0.25433107  0.25516549  1
  O  O380  1  0.11894709  0.26162280  0.75395420  1
  O  O381  1  0.11832475  0.75344779  0.25155334  1
  O  O382  1  0.13476894  0.76055171  0.75055651  1
  O  O383  1  0.61783794  0.24449508  0.26168949  1
  O  O384  1  0.62632835  0.25851530  0.75985285  1
  O  O385  1  0.62774435  0.76237122  0.25627098  1
  O  O386  1  0.63450110  0.75731780  0.76324288  1
  O  O387  1  0.37098277  0.23280174  0.25099285  1
  O  O388  1  0.36873811  0.26062544  0.73972100  1
  O  O389  1  0.37718194  0.74724609  0.24104413  1
  O  O390  1  0.36666891  0.74148689  0.74688530  1
  O  O391  1  0.88535902  0.25237689  0.24163673  1
  O  O392  1  0.88184011  0.24953389  0.74384672  1
  O  O393  1  0.88117220  0.74509886  0.24236237  1
  O  O394  1  0.87025532  0.73584280  0.74564269  1
  O  O395  1  0.38025641  0.49377087  0.49588981  1
  O  O396  1  0.36459495  0.49329748  0.98845930  1
  O  O397  1  0.37274326  1.00051500  0.49620696  1
  O  O398  1  0.38709565  0.99983693  0.99217223  1
  O  O399  1  0.88468126  0.50116687  0.49180886  1
  O  O400  1  0.87889816  0.49367114  0.99266266  1
  O  O401  1  0.88151385  0.99368735  0.48976424  1
  O  O402  1  0.88827321  1.00175395  0.98923057  1
  O  O403  1  0.11583097  0.00185302  0.00529704  1
  O  O404  1  0.12057109  0.00656140  0.50260611  1
  O  O405  1  0.11551714  0.49772813  0.00745836  1
  O  O406  1  0.11817231  0.51303815  0.49423428  1
  O  O407  1  0.61541597  0.00689604  -0.00297839  1
  O  O408  1  0.63326275  0.01230880  0.50384235  1
  O  O409  1  0.62983133  0.51093923  -0.00617087  1
  O  O410  1  0.61730501  0.50271813  0.49873441  1
  O  O411  1  0.35863105  0.38610347  0.11661741  1
  O  O412  1  0.38030144  0.36810796  0.61317772  1
  O  O413  1  0.37362080  0.86637880  0.12104352  1
  O  O414  1  0.38953722  0.88386047  0.61869988  1
  O  O415  1  0.87050043  0.36278926  0.11870395  1
  O  O416  1  0.86687956  0.36795517  0.62146559  1
  O  O417  1  0.87673870  0.86309284  0.12661854  1
  O  O418  1  0.87470158  0.86751806  0.62587637  1
  O  O419  1  0.13175326  0.13056690  0.37949442  1
  O  O420  1  0.12498577  0.14396662  0.87560883  1
  O  O421  1  0.13199102  0.63099236  0.38226579  1
  O  O422  1  0.13507112  0.61855233  0.87584879  1
  O  O423  1  0.63002457  0.13148368  0.38058198  1
  O  O424  1  0.63071909  0.12725572  0.87695342  1
  O  O425  1  0.63434293  0.64037324  0.37577216  1
  O  O426  1  0.62572078  0.62918410  0.88542717  1
