# generated using pymatgen
data_V85Zn86O256
_symmetry_space_group_name_H-M   'P 1'
_cell_length_a   16.93795963
_cell_length_b   16.95661494
_cell_length_c   16.97384440
_cell_angle_alpha   90.03550176
_cell_angle_beta   89.95551613
_cell_angle_gamma   90.02982674
_symmetry_Int_Tables_number   1
_chemical_formula_structural   V85Zn86O256
_chemical_formula_sum   'V85 Zn86 O256'
_cell_volume   4875.06258197
_cell_formula_units_Z   1
loop_
 _symmetry_equiv_pos_site_id
 _symmetry_equiv_pos_as_xyz
  1  'x, y, z'
loop_
 _atom_site_type_symbol
 _atom_site_label
 _atom_site_symmetry_multiplicity
 _atom_site_fract_x
 _atom_site_fract_y
 _atom_site_fract_z
 _atom_site_occupancy
  V  V0  1  0.87649060  0.00295985  0.86686228  1
  V  V1  1  0.62619815  0.75402679  0.86956191  1
  V  V2  1  0.75370276  0.63009700  0.37861049  1
  V  V3  1  0.63120311  0.38500264  0.74860467  1
  V  V4  1  0.12254761  0.50323807  0.62728774  1
  V  V5  1  0.50858429  0.75247510  0.25111197  1
  V  V6  1  0.25442065  0.87442116  0.62280467  1
  V  V7  1  0.12122474  0.37068034  0.75223897  1
  V  V8  1  0.37505236  0.12675149  0.24995840  1
  V  V9  1  0.37618459  0.74969890  0.12481489  1
  V  V10  1  -0.00386004  0.50134545  0.49866300  1
  V  V11  1  0.62756113  0.62396824  -0.00450069  1
  V  V12  1  0.88171204  0.37689636  0.01414475  1
  V  V13  1  0.76291094  0.38497067  0.62528196  1
  V  V14  1  0.50073140  0.00023009  -0.00247938  1
  V  V15  1  0.88162412  0.50414419  0.37310501  1
  V  V16  1  0.63840325  0.13693412  0.48284835  1
  V  V17  1  0.37169407  0.86990820  0.49409549  1
  V  V18  1  0.11795068  0.51412911  0.12955040  1
  V  V19  1  -0.01229427  0.23926926  0.75841616  1
  V  V20  1  0.50324585  0.74994654  0.74870879  1
  V  V21  1  0.62643720  0.61870197  0.49775971  1
  V  V22  1  -0.01988773  0.40960206  0.85809113  1
  V  V23  1  0.37720637  0.62589105  0.25216339  1
  V  V24  1  0.12891717  0.75519345  0.37829288  1
  V  V25  1  0.11856545  0.36323197  0.25511670  1
  V  V26  1  0.50035938  0.49931692  0.00059123  1
  V  V27  1  0.62722137  0.12770850  -0.00465574  1
  V  V28  1  0.50032273  0.37589038  0.87411669  1
  V  V29  1  0.00922427  0.35750049  0.38606525  1
  V  V30  1  0.75476361  0.87915562  0.12484200  1
  V  V31  1  0.50190758  0.61588546  0.61909813  1
  V  V32  1  -0.01143643  0.75024494  0.74512434  1
  V  V33  1  0.12374038  0.74776369  0.88033160  1
  V  V34  1  0.37111681  0.50050650  0.87624041  1
  V  V35  1  0.25226906  0.62937867  0.38290737  1
  V  V36  1  0.87689362  0.87620187  -0.00255610  1
  V  V37  1  0.12156603  0.12871771  -0.00113739  1
  V  V38  1  0.63334886  0.49557901  0.12396440  1
  V  V39  1  -0.00374526  0.13348793  0.13825337  1
  V  V40  1  0.85082972  0.86359169  0.52601937  1
  V  V41  1  0.87196865  0.23906198  0.61983930  1
  V  V42  1  0.75308202  0.12805249  0.86325453  1
  V  V43  1  0.76819468  0.02140177  0.26346131  1
  V  V44  1  0.49761586  0.12648706  0.12278495  1
  V  V45  1  0.50578355  0.12560165  0.61950479  1
  V  V46  1  0.37360582  0.74571142  0.61758212  1
  V  V47  1  0.24870555  0.00107132  0.24995181  1
  V  V48  1  0.63026510  0.87743028  0.25140271  1
  V  V49  1  0.50181418  0.37596006  0.37837021  1
  V  V50  1  0.37148541  0.25031414  0.62274569  1
  V  V51  1  0.24232978  0.62382342  0.88217941  1
  V  V52  1  0.37952585  0.50289263  0.37836708  1
  V  V53  1  0.24978476  0.87559871  0.12311660  1
  V  V54  1  0.75607389  0.50043036  0.25101609  1
  V  V55  1  0.12215403  0.87592415  0.25156848  1
  V  V56  1  0.12153888  0.00071522  0.12257046  1
  V  V57  1  0.74057451  -0.01683202  0.74717338  1
  V  V58  1  0.37498337  0.11799852  0.74882681  1
  V  V59  1  -0.00100248  0.52089242  0.01199584  1
  V  V60  1  0.50177145  0.25283679  0.25408067  1
  V  V61  1  0.37399298  0.00164322  0.37364088  1
  V  V62  1  0.50440540  0.62508307  0.12605662  1
  V  V63  1  0.37657381  0.87320536  -0.00353612  1
  V  V64  1  0.50169270  0.25120789  0.74946979  1
  V  V65  1  0.63082430  0.37396431  0.24656775  1
  V  V66  1  0.37797460  0.38065626  0.50198281  1
  V  V67  1  0.24062409  0.13170801  0.37849834  1
  V  V68  1  0.37206464  0.62366372  0.75021013  1
  V  V69  1  0.75203944  0.74860649  -0.00041630  1
  V  V70  1  0.37282546  0.25312224  0.12356694  1
  V  V71  1  0.50162403  0.00279111  0.49661765  1
  V  V72  1  0.24835034  0.12761138  0.87347819  1
  V  V73  1  -0.00616782  -0.00429338  0.50236204  1
  V  V74  1  0.24349125  0.37796542  0.12611152  1
  V  V75  1  0.12626099  0.63218553  0.50470690  1
  V  V76  1  0.12837597  0.87300478  0.74984560  1
  V  V77  1  0.62701535  0.00229936  0.12513161  1
  V  V78  1  -0.01687475  0.63109375  0.62551834  1
  V  V79  1  0.24772473  0.37608462  0.62675233  1
  V  V80  1  0.37103554  0.37650640  -0.00005279  1
  V  V81  1  0.75337436  0.25576597  0.00280233  1
  V  V82  1  -0.00414939  0.73789008  0.24816879  1
  V  V83  1  -0.01560883  0.87833719  0.37613352  1
  V  V84  1  0.76013754  0.61011085  0.86149369  1
  Zn  Zn85  1  0.63410395  0.75630533  0.38447796  1
  Zn  Zn86  1  0.50410390  0.87878224  0.86719796  1
  Zn  Zn87  1  -0.00006350  0.11869327  0.63042926  1
  Zn  Zn88  1  0.24556231  0.25413835  -0.00214799  1
  Zn  Zn89  1  0.12517859  -0.00111079  0.62354830  1
  Zn  Zn90  1  0.63921252  -0.00547822  0.61763826  1
  Zn  Zn91  1  -0.00247667  0.00188644  -0.00243208  1
  Zn  Zn92  1  0.62865787  0.49818466  0.61960277  1
  Zn  Zn93  1  0.24947726  0.00016601  0.74963120  1
  Zn  Zn94  1  0.23977175  0.25829442  0.49192410  1
  Zn  Zn95  1  0.62797832  0.25227737  0.87242891  1
  Zn  Zn96  1  0.24381237  0.74560602  0.00403730  1
  Zn  Zn97  1  0.24792985  0.50033631  0.25416790  1
  Zn  Zn98  1  0.89268496  0.73197206  0.11886728  1
  Zn  Zn99  1  0.11834030  0.25494566  0.87687986  1
  Zn  Zn100  1  0.11734328  0.12919556  0.50392138  1
  Zn  Zn101  1  0.24292397  0.50039082  0.75372614  1
  Zn  Zn102  1  0.83138016  0.32233498  0.45232882  1
  Zn  Zn103  1  0.37540205  0.00003266  0.87499279  1
  Zn  Zn104  1  0.50256784  0.87588335  0.37364296  1
  Zn  Zn105  1  0.86799737  0.23938432  0.13489216  1
  Zn  Zn106  1  0.00103446  0.87580607  0.87387731  1
  Zn  Zn107  1  0.18653310  0.18791992  0.18701162  1
  Zn  Zn108  1  0.18238071  0.18720955  0.68486354  1
  Zn  Zn109  1  0.19068151  0.69079756  0.19560044  1
  Zn  Zn110  1  0.18781318  0.69036918  0.69081141  1
  Zn  Zn111  1  0.68247087  0.19081273  0.18281753  1
  Zn  Zn112  1  0.68817656  0.19089194  0.68045866  1
  Zn  Zn113  1  0.71837839  0.67497407  0.17389475  1
  Zn  Zn114  1  0.69804289  0.68759860  0.68422871  1
  Zn  Zn115  1  0.31185164  0.31511737  0.31016480  1
  Zn  Zn116  1  0.31100078  0.30997534  0.81120337  1
  Zn  Zn117  1  0.31150773  0.81207574  0.31022078  1
  Zn  Zn118  1  0.31262516  0.80909100  0.81203484  1
  Zn  Zn119  1  0.79845626  0.21907190  0.32214585  1
  Zn  Zn120  1  0.81287272  0.31598504  0.81371567  1
  Zn  Zn121  1  0.81343774  0.81300050  0.30708892  1
  Zn  Zn122  1  0.80933486  0.81030190  0.81300402  1
  Zn  Zn123  1  0.18732277  0.44176066  0.44000874  1
  Zn  Zn124  1  0.17614185  0.44179515  0.93984075  1
  Zn  Zn125  1  0.18471704  0.94128377  0.44068056  1
  Zn  Zn126  1  0.18925604  0.93900273  0.93588293  1
  Zn  Zn127  1  0.70245077  0.40786865  0.42024433  1
  Zn  Zn128  1  0.69176630  0.43445844  0.93686278  1
  Zn  Zn129  1  0.68697627  0.94564761  0.43523188  1
  Zn  Zn130  1  0.68921860  0.93877053  0.93395137  1
  Zn  Zn131  1  0.30998174  0.06282959  0.05915060  1
  Zn  Zn132  1  0.31292043  0.06085272  0.56175747  1
  Zn  Zn133  1  0.30958325  0.56201953  0.06469496  1
  Zn  Zn134  1  0.30957170  0.55978855  0.56230511  1
  Zn  Zn135  1  0.81297492  0.06308718  0.05836439  1
  Zn  Zn136  1  0.81541775  0.05715261  0.55766123  1
  Zn  Zn137  1  0.81501465  0.56101899  0.05952710  1
  Zn  Zn138  1  0.80940235  0.56005037  0.55903578  1
  Zn  Zn139  1  0.43737567  0.44002140  0.18847744  1
  Zn  Zn140  1  0.43692149  0.43858882  0.69003164  1
  Zn  Zn141  1  0.43947701  0.93732915  0.18541391  1
  Zn  Zn142  1  0.48994661  0.89923732  0.64550373  1
  Zn  Zn143  1  0.89429354  0.37523490  0.24062534  1
  Zn  Zn144  1  0.93965814  0.43928900  0.68796629  1
  Zn  Zn145  1  0.93833371  0.93723895  0.18717101  1
  Zn  Zn146  1  0.93516969  0.93575624  0.68905359  1
  Zn  Zn147  1  0.05743320  0.05859802  0.31531641  1
  Zn  Zn148  1  0.06398107  0.05973438  0.81205842  1
  Zn  Zn149  1  0.06778107  0.56135575  0.31230284  1
  Zn  Zn150  1  0.04868509  0.56261711  0.80918170  1
  Zn  Zn151  1  0.56736668  0.06536127  0.31258640  1
  Zn  Zn152  1  0.56379137  0.06293660  0.81104910  1
  Zn  Zn153  1  0.56619060  0.56103608  0.31497024  1
  Zn  Zn154  1  0.56313670  0.56532442  0.81177508  1
  Zn  Zn155  1  0.43479246  0.19101790  0.43765969  1
  Zn  Zn156  1  0.43605650  0.18998177  0.93606909  1
  Zn  Zn157  1  0.44762957  0.68941138  0.43957258  1
  Zn  Zn158  1  0.43772862  0.68776729  0.93598487  1
  Zn  Zn159  1  0.92969736  0.16980963  0.43189982  1
  Zn  Zn160  1  0.93506984  0.18701239  0.94099364  1
  Zn  Zn161  1  0.93634902  0.69177362  0.43725281  1
  Zn  Zn162  1  0.93435862  0.68935433  0.93037907  1
  Zn  Zn163  1  0.05812723  0.31581894  0.06272463  1
  Zn  Zn164  1  0.05987295  0.30551602  0.56727049  1
  Zn  Zn165  1  0.06090790  0.81244833  0.06262381  1
  Zn  Zn166  1  0.06085146  0.81455545  0.56327409  1
  Zn  Zn167  1  0.56266100  0.31146237  0.06135497  1
  Zn  Zn168  1  0.56616152  0.31526879  0.56290489  1
  Zn  Zn169  1  0.56609522  0.81309478  0.06213689  1
  Zn  Zn170  1  0.66544018  0.81112866  0.57166152  1
  O  O171  1  0.12027606  0.11941910  0.11831672  1
  O  O172  1  0.12017792  0.11633438  0.62453681  1
  O  O173  1  0.13629447  0.61186974  0.13287981  1
  O  O174  1  0.12375663  0.62398995  0.61813810  1
  O  O175  1  0.61684948  0.12023497  0.11522137  1
  O  O176  1  0.61139712  0.12049266  0.62479314  1
  O  O177  1  0.62363123  0.61762589  0.11530917  1
  O  O178  1  0.61750217  0.62053634  0.61675527  1
  O  O179  1  0.37905212  0.38355258  0.38135326  1
  O  O180  1  0.37733015  0.38128986  0.87935982  1
  O  O181  1  0.37332228  0.88354277  0.37681232  1
  O  O182  1  0.37562979  0.87437300  0.88727797  1
  O  O183  1  0.90185196  0.38833665  0.38148602  1
  O  O184  1  0.88576806  0.37456746  0.88407876  1
  O  O185  1  0.88411970  0.87308484  0.37435832  1
  O  O186  1  0.87491617  0.88135711  0.88239522  1
  O  O187  1  0.25633808  0.00807985  0.36860145  1
  O  O188  1  0.25390244  0.01378381  0.87245876  1
  O  O189  1  0.26103974  0.50971857  0.37592390  1
  O  O190  1  0.25116855  0.50640840  0.87562476  1
  O  O191  1  0.74988169  0.00081154  0.35857577  1
  O  O192  1  0.75335745  0.00745129  0.86406594  1
  O  O193  1  0.76241359  0.50002638  0.36961835  1
  O  O194  1  0.74711169  0.51104249  0.87567617  1
  O  O195  1  0.24227137  0.49002607  0.12804947  1
  O  O196  1  0.24100457  0.49334766  0.62869429  1
  O  O197  1  0.23993397  0.99809424  0.12985626  1
  O  O198  1  0.25452268  0.98590949  0.62810905  1
  O  O199  1  0.73810229  0.49987061  0.13089544  1
  O  O200  1  0.75422266  0.48853597  0.63301535  1
  O  O201  1  0.74553316  0.99492532  0.12880528  1
  O  O202  1  0.75347789  1.00522187  0.64471711  1
  O  O203  1  0.01331785  0.37425371  0.27048349  1
  O  O204  1  0.00525462  0.35819308  0.75482481  1
  O  O205  1  0.00667600  0.87411614  0.25903058  1
  O  O206  1  0.00922821  0.86434882  0.74933284  1
  O  O207  1  0.50143865  0.36900051  0.25551039  1
  O  O208  1  0.50389382  0.36789565  0.75437557  1
  O  O209  1  0.50913475  0.86956882  0.24899791  1
  O  O210  1  0.48764559  0.85377432  0.75199290  1
  O  O211  1  0.49515692  0.13347794  0.24480789  1
  O  O212  1  0.49445086  0.13250434  0.74234723  1
  O  O213  1  0.49888290  0.63306208  0.24561323  1
  O  O214  1  0.48976486  0.62897396  0.74512945  1
  O  O215  1  1.00666523  0.12291898  0.23637669  1
  O  O216  1  1.00261251  0.13616273  0.75088126  1
  O  O217  1  1.00477282  0.63986467  0.25626570  1
  O  O218  1  1.00668302  0.64301181  0.73824002  1
  O  O219  1  0.37154141  0.25870677  0.00614888  1
  O  O220  1  0.36922200  0.26100189  0.50782718  1
  O  O221  1  0.37636814  0.75718991  0.00751258  1
  O  O222  1  0.37969854  0.75716393  0.50516538  1
  O  O223  1  0.87110588  0.26009592  0.00566460  1
  O  O224  1  0.89040304  0.25190085  0.51829015  1
  O  O225  1  0.86991271  0.75863165  0.00120934  1
  O  O226  1  0.87836104  0.77085427  0.49557865  1
  O  O227  1  0.13008563  0.24297815  0.50846006  1
  O  O228  1  0.12496887  0.24368776  0.99723780  1
  O  O229  1  0.12023590  0.74003607  0.49268021  1
  O  O230  1  0.12391785  0.75526973  0.98522224  1
  O  O231  1  0.61978330  0.23349976  0.50664798  1
  O  O232  1  0.63167916  0.24612938  0.99574681  1
  O  O233  1  0.62273552  0.73032217  0.49584550  1
  O  O234  1  0.62822613  0.74021172  0.99339787  1
  O  O235  1  0.49176774  0.24503209  0.12978499  1
  O  O236  1  0.48978129  0.24532040  0.62944795  1
  O  O237  1  0.49883391  0.74525081  0.13424837  1
  O  O238  1  0.48456647  0.73414207  0.63454130  1
  O  O239  1  1.00151586  0.23522156  0.12456469  1
  O  O240  1  0.98683623  0.24877864  0.63991628  1
  O  O241  1  1.00521902  0.75184481  0.14156764  1
  O  O242  1  1.00315689  0.74536034  0.63628872  1
  O  O243  1  0.00118164  0.26021323  0.39071672  1
  O  O244  1  -0.00276466  0.24901211  0.86427397  1
  O  O245  1  0.01010435  0.75729837  0.36695646  1
  O  O246  1  0.00733468  0.75078816  0.86347069  1
  O  O247  1  0.48938206  0.26138193  0.36315274  1
  O  O248  1  0.50027301  0.25713546  0.86495163  1
  O  O249  1  0.50368998  0.75221278  0.35971177  1
  O  O250  1  0.50741186  0.74793040  0.86631738  1
  O  O251  1  0.25307548  0.12411734  0.48417835  1
  O  O252  1  0.23939772  0.12803996  0.99358235  1
  O  O253  1  0.24350922  0.62420123  0.49053694  1
  O  O254  1  0.25580175  0.62707715  0.98674786  1
  O  O255  1  0.73540745  0.12059705  0.50645784  1
  O  O256  1  0.74330569  0.13080345  0.99053124  1
  O  O257  1  0.74220599  0.62014152  0.48884920  1
  O  O258  1  0.73722377  0.62631056  0.98882775  1
  O  O259  1  0.25065451  0.37644168  0.00834756  1
  O  O260  1  0.25701869  0.37640336  0.50791530  1
  O  O261  1  0.25908921  0.87415990  0.00625794  1
  O  O262  1  0.26278781  0.88050067  0.50615122  1
  O  O263  1  0.76821410  0.36932538  -0.00661713  1
  O  O264  1  0.75344516  0.38096814  0.52235857  1
  O  O265  1  0.75966367  0.87407930  0.00387106  1
  O  O266  1  0.74893463  0.87892772  0.50427782  1
  O  O267  1  0.12689679  0.49198021  0.24131924  1
  O  O268  1  0.12135855  0.49194818  0.74279579  1
  O  O269  1  0.12952141  0.99503085  0.24265969  1
  O  O270  1  0.12712641  0.98460351  0.74907677  1
  O  O271  1  0.62500575  0.49353368  0.24037925  1
  O  O272  1  0.61562878  0.48678677  0.74602877  1
  O  O273  1  0.62874651  0.99268154  0.24335787  1
  O  O274  1  0.63746264  1.00127050  0.74916453  1
  O  O275  1  0.37146247  0.00399014  0.25698484  1
  O  O276  1  0.37646066  0.01616158  0.75167523  1
  O  O277  1  0.37234378  0.50885119  0.25835418  1
  O  O278  1  0.37082424  0.50923389  0.75675832  1
  O  O279  1  0.86457620  0.00239839  0.24546356  1
  O  O280  1  0.86414769  -0.00626685  0.76202948  1
  O  O281  1  0.86619231  0.48681143  0.25867465  1
  O  O282  1  0.94905846  0.48900009  0.78855637  1
  O  O283  1  0.12088783  0.38063379  0.36595852  1
  O  O284  1  0.11214116  0.37841313  0.86287175  1
  O  O285  1  0.12375922  0.86833377  0.37102877  1
  O  O286  1  0.12584824  0.86825688  0.86746919  1
  O  O287  1  0.60575131  0.38641421  0.36210094  1
  O  O288  1  0.61949663  0.37298655  0.86671423  1
  O  O289  1  0.62410263  0.87458043  0.36569604  1
  O  O290  1  0.62249652  0.85855445  0.88290618  1
  O  O291  1  0.37715609  0.13054584  0.13020814  1
  O  O292  1  0.37987809  0.13373981  0.62954521  1
  O  O293  1  0.38176970  0.62982710  0.13084351  1
  O  O294  1  0.37578881  0.62720656  0.63004336  1
  O  O295  1  0.89274261  0.12288993  0.11753985  1
  O  O296  1  0.87579560  0.13637581  0.62355643  1
  O  O297  1  0.82338831  0.64613549  0.12881069  1
  O  O298  1  0.88457570  0.62023137  0.62297164  1
  O  O299  1  0.25381635  0.26271948  0.12453461  1
  O  O300  1  0.26244815  0.25643525  0.62991052  1
  O  O301  1  0.25624208  0.75663366  0.12447644  1
  O  O302  1  0.26439982  0.75948650  0.63031267  1
  O  O303  1  0.74832052  0.24455512  0.10617497  1
  O  O304  1  0.76748696  0.25917803  0.63127780  1
  O  O305  1  0.73363032  0.77369422  0.11332079  1
  O  O306  1  0.74887181  0.75867948  0.62190923  1
  O  O307  1  0.25760989  0.23505362  0.37343053  1
  O  O308  1  0.24561542  0.23941401  0.87595716  1
  O  O309  1  0.23791511  0.74499821  0.37140584  1
  O  O310  1  0.24207419  0.74166657  0.87709569  1
  O  O311  1  0.74707852  0.30131477  0.38326655  1
  O  O312  1  0.75146194  0.24403851  0.88367118  1
  O  O313  1  0.75127077  0.73310444  0.36152689  1
  O  O314  1  0.74171510  0.74272770  0.88121911  1
  O  O315  1  0.01213870  0.12273292  0.00451029  1
  O  O316  1  -0.00441362  0.10582036  0.50042492  1
  O  O317  1  -0.01023957  0.61968828  0.00801427  1
  O  O318  1  0.00672743  0.62329065  0.50723401  1
  O  O319  1  0.50501179  0.12101750  0.00228150  1
  O  O320  1  0.50109813  0.12227826  0.50379629  1
  O  O321  1  0.50995689  0.62042058  0.00361111  1
  O  O322  1  0.51019162  0.62284049  0.50750715  1
  O  O323  1  0.49142447  0.36938790  0.49051274  1
  O  O324  1  0.49296077  0.37960525  0.99334214  1
  O  O325  1  0.48219597  0.88975143  0.49073188  1
  O  O326  1  0.49235477  0.88178276  1.00071562  1
  O  O327  1  1.01690274  0.38768885  0.49101236  1
  O  O328  1  0.98991949  0.38039908  0.99318720  1
  O  O329  1  1.00173450  0.88073614  0.49091842  1
  O  O330  1  0.98785740  0.87744840  0.99899332  1
  O  O331  1  0.48571265  0.49440937  0.36966861  1
  O  O332  1  0.49322938  0.49560357  0.88151147  1
  O  O333  1  0.49112025  1.00329308  0.37947385  1
  O  O334  1  0.49821948  0.99782787  0.88265216  1
  O  O335  1  0.99776684  0.50525573  0.38325950  1
  O  O336  1  1.02426603  0.50338370  0.90832064  1
  O  O337  1  1.00236648  0.98821029  0.38566831  1
  O  O338  1  0.99064750  0.99712965  0.87559747  1
  O  O339  1  0.01121737  0.00641323  0.12302018  1
  O  O340  1  0.00026392  -0.00331516  0.61681051  1
  O  O341  1  0.01274359  0.50605788  0.12092084  1
  O  O342  1  0.00477780  0.50948939  0.61708806  1
  O  O343  1  0.50478579  0.00766162  0.11719751  1
  O  O344  1  0.48664620  0.01293811  0.60571140  1
  O  O345  1  0.50644820  0.50764974  0.11898905  1
  O  O346  1  0.49793201  0.51292665  0.62893224  1
  O  O347  1  0.23975535  0.37863534  0.24499759  1
  O  O348  1  0.23995990  0.37542817  0.74586769  1
  O  O349  1  0.24392315  0.88141785  0.24237502  1
  O  O350  1  0.24709298  0.87554523  0.74259073  1
  O  O351  1  0.73201854  0.38821490  0.24610414  1
  O  O352  1  0.74081165  0.37007099  0.74183543  1
  O  O353  1  0.74553596  0.88239156  0.24103026  1
  O  O354  1  0.74339033  0.88463102  0.75606299  1
  O  O355  1  0.25506891  0.12086639  0.25720874  1
  O  O356  1  0.25738645  0.12655333  0.75632747  1
  O  O357  1  0.25912729  0.62583541  0.26541302  1
  O  O358  1  0.25718789  0.62337751  0.75907820  1
  O  O359  1  0.74562330  0.12170606  0.24571868  1
  O  O360  1  0.74354723  0.12816559  0.76214474  1
  O  O361  1  0.73685317  0.60510077  0.26474455  1
  O  O362  1  0.74232727  0.62097265  0.76321561  1
  O  O363  1  0.36860478  0.11828731  0.36785968  1
  O  O364  1  0.36732102  0.12793435  0.86618326  1
  O  O365  1  0.37205800  0.62136782  0.37546312  1
  O  O366  1  0.36841815  0.61964040  0.86805581  1
  O  O367  1  0.85177056  0.13231071  0.36895125  1
  O  O368  1  0.86493931  0.11477874  0.88192951  1
  O  O369  1  0.86923280  0.61359791  0.38015354  1
  O  O370  1  0.85915112  0.62641101  0.87494679  1
  O  O371  1  0.12704635  0.37991138  0.13742703  1
  O  O372  1  0.12559295  0.38004167  0.63696523  1
  O  O373  1  0.12936284  0.88374243  0.12811749  1
  O  O374  1  0.13886981  0.87171393  0.63101748  1
  O  O375  1  0.61350053  0.38597467  0.13281419  1
  O  O376  1  0.63546500  0.37705708  0.63216203  1
  O  O377  1  0.62915142  0.88692235  0.12950694  1
  O  O378  1  0.59733707  0.88977181  0.61163184  1
  O  O379  1  0.12880483  0.26483595  0.24959231  1
  O  O380  1  0.11431723  0.25666241  0.75238395  1
  O  O381  1  0.11865203  0.75759478  0.25864306  1
  O  O382  1  0.12226339  0.76025541  0.75841751  1
  O  O383  1  0.61055159  0.25965807  0.24099534  1
  O  O384  1  0.61203592  0.25689261  0.74623881  1
  O  O385  1  0.62165891  0.76549530  0.24674699  1
  O  O386  1  0.61342728  0.73848252  0.75875892  1
  O  O387  1  0.38279269  0.24816729  0.24234337  1
  O  O388  1  0.38509714  0.24548003  0.74276691  1
  O  O389  1  0.38419795  0.74628821  0.24376614  1
  O  O390  1  0.37791360  0.73625712  0.74548979  1
  O  O391  1  0.86152589  0.27009579  0.24152749  1
  O  O392  1  0.88468192  0.25039019  0.74593715  1
  O  O393  1  0.89353222  0.75440791  0.24764372  1
  O  O394  1  0.89062601  0.75433850  0.75571667  1
  O  O395  1  0.37288939  0.48880180  0.49422300  1
  O  O396  1  0.37982578  0.49509712  0.99623998  1
  O  O397  1  0.37712043  0.99807479  0.48545039  1
  O  O398  1  0.38186552  0.99233385  0.99986144  1
  O  O399  1  0.88986173  0.50225461  0.49394127  1
  O  O400  1  0.89161592  0.49334093  1.00895061  1
  O  O401  1  0.88235839  0.97681948  0.50772616  1
  O  O402  1  0.87386463  0.99224594  0.98817928  1
  O  O403  1  0.12486698  0.00707271  0.00776412  1
  O  O404  1  0.11196012  0.00151135  0.50383218  1
  O  O405  1  0.11665467  0.49653330  0.02280583  1
  O  O406  1  0.11802793  0.51440455  0.50480541  1
  O  O407  1  0.62056912  0.00655222  0.00364951  1
  O  O408  1  0.61431937  0.01538927  0.49648334  1
  O  O409  1  0.62097069  0.50330355  0.00535897  1
  O  O410  1  0.62978233  0.51423978  0.50110113  1
  O  O411  1  0.36511875  0.37471391  0.12062995  1
  O  O412  1  0.37228997  0.37049917  0.61915806  1
  O  O413  1  0.37103820  0.87077772  0.11623457  1
  O  O414  1  0.37650804  0.86410524  0.61361222  1
  O  O415  1  0.88347899  0.37360707  0.11365388  1
  O  O416  1  0.86740604  0.36998995  0.63433508  1
  O  O417  1  0.86767549  0.87493418  0.11670078  1
  O  O418  1  0.87050575  0.86797919  0.62300798  1
  O  O419  1  0.13917069  0.11941070  0.37418551  1
  O  O420  1  0.13139010  0.12560014  0.88232772  1
  O  O421  1  0.13430367  0.63230310  0.38212575  1
  O  O422  1  0.13311985  0.63369259  0.86573975  1
  O  O423  1  0.62666931  0.13135306  0.38267450  1
  O  O424  1  0.63123954  0.12921169  0.88115947  1
  O  O425  1  0.63216175  0.62395695  0.38428524  1
  O  O426  1  0.62722778  0.63194518  0.88192602  1
