# generated using pymatgen
data_V85Zn86O256
_symmetry_space_group_name_H-M   'P 1'
_cell_length_a   16.93493938
_cell_length_b   16.93625101
_cell_length_c   16.93761661
_cell_angle_alpha   89.98534409
_cell_angle_beta   89.90424281
_cell_angle_gamma   90.06436988
_symmetry_Int_Tables_number   1
_chemical_formula_structural   V85Zn86O256
_chemical_formula_sum   'V85 Zn86 O256'
_cell_volume   4857.94206621
_cell_formula_units_Z   1
loop_
 _symmetry_equiv_pos_site_id
 _symmetry_equiv_pos_as_xyz
  1  'x, y, z'
loop_
 _atom_site_type_symbol
 _atom_site_label
 _atom_site_symmetry_multiplicity
 _atom_site_fract_x
 _atom_site_fract_y
 _atom_site_fract_z
 _atom_site_occupancy
  V  V0  1  0.38032816  -0.00020391  0.37027281  1
  V  V1  1  0.62533809  0.75115261  0.87687624  1
  V  V2  1  0.00703533  0.87609781  0.37273406  1
  V  V3  1  0.50266201  0.37581636  0.87469956  1
  V  V4  1  0.25019546  0.74435904  0.49669547  1
  V  V5  1  0.11629558  0.74587489  0.87364528  1
  V  V6  1  0.74744526  -0.00174444  0.25117909  1
  V  V7  1  0.86569499  0.00442222  0.87736621  1
  V  V8  1  0.75020823  0.37581830  0.12278542  1
  V  V9  1  0.50652721  0.75574770  0.74774475  1
  V  V10  1  0.50091004  0.61142368  0.62633084  1
  V  V11  1  0.12848995  0.62256539  0.00513986  1
  V  V12  1  0.12772838  0.87393622  0.23459828  1
  V  V13  1  0.00466323  0.25320737  0.74841121  1
  V  V14  1  0.62449899  0.37400829  0.24544650  1
  V  V15  1  0.48994136  0.13227263  0.12586316  1
  V  V16  1  0.88100361  0.74468108  0.63489953  1
  V  V17  1  0.24983353  0.87362856  0.62398753  1
  V  V18  1  0.00735192  0.37260561  0.36245717  1
  V  V19  1  0.25039885  0.24643085  -0.00138985  1
  V  V20  1  0.74760884  0.12545257  0.37867297  1
  V  V21  1  0.37458385  0.62375426  0.74902929  1
  V  V22  1  0.61999265  0.61713670  0.49666990  1
  V  V23  1  0.37594355  0.49836214  0.87656080  1
  V  V24  1  0.00425621  0.50126663  0.50013638  1
  V  V25  1  0.74850243  0.62046401  0.86127642  1
  V  V26  1  0.87249187  0.50360180  0.86190890  1
  V  V27  1  0.49137511  0.73664911  0.24183278  1
  V  V28  1  0.48746385  0.24986856  0.24695979  1
  V  V29  1  0.87395253  0.87517264  0.50054600  1
  V  V30  1  0.61595353  0.75328867  0.37603853  1
  V  V31  1  0.87682355  0.37627287  -0.00167429  1
  V  V32  1  0.62957049  0.12332045  -0.00246969  1
  V  V33  1  0.24903115  0.62288758  0.87486688  1
  V  V34  1  0.00001983  0.00255905  0.49733070  1
  V  V35  1  0.39039782  0.37365742  0.50917819  1
  V  V36  1  0.64648457  0.49696053  0.62763800  1
  V  V37  1  0.75114056  0.50373714  0.24730894  1
  V  V38  1  0.12171456  0.00019633  0.62489792  1
  V  V39  1  0.11980643  0.86821406  0.74901302  1
  V  V40  1  0.50510547  0.51308437  0.00037710  1
  V  V41  1  0.49703012  0.25105276  0.74773395  1
  V  V42  1  0.74581946  0.73951784  0.00237714  1
  V  V43  1  0.00956456  0.37669113  0.87136206  1
  V  V44  1  0.87320810  0.12838728  0.24832165  1
  V  V45  1  0.26263654  0.36867350  0.13302661  1
  V  V46  1  0.87093357  0.37298099  0.50230819  1
  V  V47  1  0.38173725  0.87588778  0.49535785  1
  V  V48  1  0.24364980  0.36327294  0.62479273  1
  V  V49  1  0.62288452  0.00145292  0.12548532  1
  V  V50  1  0.62085161  -0.00367215  0.63280769  1
  V  V51  1  0.49266549  -0.00399904  0.00124048  1
  V  V52  1  0.87347688  0.87306586  0.00220124  1
  V  V53  1  0.86538057  0.12543193  0.75195569  1
  V  V54  1  0.87477625  -0.00002252  0.37490080  1
  V  V55  1  0.75181065  0.24629321  -0.00167954  1
  V  V56  1  0.63161369  0.24502968  0.87240518  1
  V  V57  1  0.62180039  0.12462148  0.50190984  1
  V  V58  1  0.49573286  0.87351338  0.87736052  1
  V  V59  1  0.87946930  0.50372828  0.36742501  1
  V  V60  1  0.24442578  0.49133020  0.74788292  1
  V  V61  1  0.61281074  0.87638942  0.25531480  1
  V  V62  1  0.25196464  0.00049393  0.24425854  1
  V  V63  1  0.62391483  0.51481431  0.11881905  1
  V  V64  1  0.13030564  0.49004716  0.13489453  1
  V  V65  1  0.03596752  0.22129344  0.23214181  1
  V  V66  1  0.37232891  0.12675185  0.75556485  1
  V  V67  1  0.88031363  0.24972683  0.12889233  1
  V  V68  1  0.00638816  0.01317442  0.01102915  1
  V  V69  1  0.00044206  0.50502197  -0.00059294  1
  V  V70  1  0.24847144  -0.00018524  0.75232285  1
  V  V71  1  0.74534014  0.87526350  0.63277381  1
  V  V72  1  0.37111799  0.74449419  0.10987463  1
  V  V73  1  0.37640079  0.74992006  0.62611810  1
  V  V74  1  -0.00582257  0.12791193  0.62393234  1
  V  V75  1  -0.00453179  0.87545352  0.87121825  1
  V  V76  1  0.74976028  0.75086708  0.50009772  1
  V  V77  1  0.12662637  0.12952479  0.49597973  1
  V  V78  1  0.75340566  0.62731458  0.36924501  1
  V  V79  1  0.74738880  0.87437416  0.12550903  1
  V  V80  1  0.62351444  0.25144818  0.37270934  1
  V  V81  1  0.25687920  0.12786152  0.37045254  1
  V  V82  1  0.64060796  0.37832896  0.74763232  1
  V  V83  1  0.49260249  0.12539078  0.62451000  1
  V  V84  1  0.87834302  0.74269276  0.13017807  1
  Zn  Zn85  1  -0.00152963  0.61769711  0.13505048  1
  Zn  Zn86  1  0.38653373  0.50697888  0.38041227  1
  Zn  Zn87  1  0.50032623  -0.00278931  0.49662039  1
  Zn  Zn88  1  0.12129732  0.24277453  0.88074498  1
  Zn  Zn89  1  0.12861468  0.74770835  0.37360237  1
  Zn  Zn90  1  0.23844985  0.11994805  0.88301561  1
  Zn  Zn91  1  -0.00172649  0.74207846  0.25601178  1
  Zn  Zn92  1  0.25061464  0.76311682  -0.00724976  1
  Zn  Zn93  1  0.50451226  0.38668428  0.38291997  1
  Zn  Zn94  1  0.74178477  0.00096138  0.75752495  1
  Zn  Zn95  1  0.74624799  0.25712929  0.50519144  1
  Zn  Zn96  1  0.36820092  -0.00848218  0.88070577  1
  Zn  Zn97  1  -0.00067379  0.62213650  0.63888637  1
  Zn  Zn98  1  0.26093693  0.88334318  0.11121641  1
  Zn  Zn99  1  0.37941810  0.37026864  0.00251186  1
  Zn  Zn100  1  0.26757594  0.50349125  0.25261930  1
  Zn  Zn101  1  0.12348981  0.49887441  0.62836499  1
  Zn  Zn102  1  0.12230263  0.62742695  0.50338156  1
  Zn  Zn103  1  0.25301823  0.61959673  0.36493075  1
  Zn  Zn104  1  0.26107695  0.24669470  0.50369009  1
  Zn  Zn105  1  0.13416966  0.26028330  0.37536885  1
  Zn  Zn106  1  0.86473504  0.25726749  0.63091841  1
  Zn  Zn107  1  0.19670205  0.19101235  0.19189716  1
  Zn  Zn108  1  0.18226639  0.18448827  0.69207978  1
  Zn  Zn109  1  0.19304579  0.68940036  0.18657457  1
  Zn  Zn110  1  0.18472937  0.68325119  0.68464329  1
  Zn  Zn111  1  0.68775226  0.18753023  0.18476295  1
  Zn  Zn112  1  0.68656585  0.18778367  0.68446694  1
  Zn  Zn113  1  0.68568223  0.69049369  0.19041386  1
  Zn  Zn114  1  0.68639762  0.68868147  0.68621362  1
  Zn  Zn115  1  0.31603804  0.32339900  0.32106734  1
  Zn  Zn116  1  0.31191325  0.31080819  0.81481106  1
  Zn  Zn117  1  0.31412603  0.81358755  0.31063547  1
  Zn  Zn118  1  0.31014986  0.81059641  0.81365536  1
  Zn  Zn119  1  0.81249719  0.31587207  0.31525274  1
  Zn  Zn120  1  0.81754997  0.31136467  0.81509497  1
  Zn  Zn121  1  0.80972326  0.81443632  0.31217129  1
  Zn  Zn122  1  0.80555221  0.81660228  0.81365892  1
  Zn  Zn123  1  0.19377407  0.43984487  0.44013739  1
  Zn  Zn124  1  0.19111621  0.43285543  0.94328379  1
  Zn  Zn125  1  0.19170566  0.93800401  0.43496840  1
  Zn  Zn126  1  0.18065522  0.93914364  0.93970478  1
  Zn  Zn127  1  0.68534587  0.44083132  0.43529697  1
  Zn  Zn128  1  0.68805184  0.43724045  0.93651311  1
  Zn  Zn129  1  0.68437107  0.93754508  0.44228559  1
  Zn  Zn130  1  0.68179735  0.93208533  0.93808820  1
  Zn  Zn131  1  0.31179024  0.06581118  0.06287879  1
  Zn  Zn132  1  0.31260409  0.06180193  0.56284653  1
  Zn  Zn133  1  0.31556496  0.56393791  0.06594083  1
  Zn  Zn134  1  0.31500957  0.55753741  0.55920739  1
  Zn  Zn135  1  0.81538607  0.06256930  0.06403362  1
  Zn  Zn136  1  0.80889041  0.06361756  0.56409322  1
  Zn  Zn137  1  0.81212405  0.56321296  0.05678134  1
  Zn  Zn138  1  0.81681626  0.56532247  0.55392514  1
  Zn  Zn139  1  0.44182372  0.44340923  0.18816882  1
  Zn  Zn140  1  0.43280024  0.43260838  0.68803484  1
  Zn  Zn141  1  0.43461689  0.93371746  0.18551584  1
  Zn  Zn142  1  0.43600739  0.93728013  0.68918415  1
  Zn  Zn143  1  0.93820417  0.43974602  0.18624068  1
  Zn  Zn144  1  0.93563668  0.43764794  0.68582761  1
  Zn  Zn145  1  0.93802076  0.93581344  0.18829572  1
  Zn  Zn146  1  0.93306001  0.93855670  0.68811441  1
  Zn  Zn147  1  0.07183885  0.06562308  0.29855836  1
  Zn  Zn148  1  0.05510422  0.06113869  0.81575666  1
  Zn  Zn149  1  0.07083008  0.57069498  0.31312200  1
  Zn  Zn150  1  0.06400307  0.55837890  0.81253301  1
  Zn  Zn151  1  0.55806580  0.06580645  0.31039233  1
  Zn  Zn152  1  0.55956772  0.06222205  0.81439469  1
  Zn  Zn153  1  0.55864436  0.55899112  0.31011697  1
  Zn  Zn154  1  0.56729730  0.56431083  0.81040871  1
  Zn  Zn155  1  0.43588683  0.19351432  0.43834605  1
  Zn  Zn156  1  0.43496403  0.18707037  0.93734994  1
  Zn  Zn157  1  0.43855375  0.68617483  0.43731834  1
  Zn  Zn158  1  0.43846644  0.68550120  0.93579400  1
  Zn  Zn159  1  0.94095392  0.19261727  0.42983641  1
  Zn  Zn160  1  0.93784748  0.18721129  0.93470883  1
  Zn  Zn161  1  0.93749471  0.68823447  0.43855529  1
  Zn  Zn162  1  0.93274945  0.68627196  0.81471806  1
  Zn  Zn163  1  0.06622952  0.31419744  0.06041257  1
  Zn  Zn164  1  0.06027933  0.31559487  0.56180889  1
  Zn  Zn165  1  0.05923132  0.81289414  0.05635596  1
  Zn  Zn166  1  0.06101249  0.81260594  0.56022424  1
  Zn  Zn167  1  0.56258619  0.31421576  0.06039461  1
  Zn  Zn168  1  0.56987255  0.31034378  0.56879104  1
  Zn  Zn169  1  0.56018948  0.81073093  0.06367942  1
  Zn  Zn170  1  0.56216206  0.81034533  0.56288958  1
  O  O171  1  0.09234599  0.13885757  0.19218175  1
  O  O172  1  0.11456455  0.11907221  0.61844293  1
  O  O173  1  0.12723374  0.61408597  0.11379090  1
  O  O174  1  0.11702429  0.61902313  0.62157983  1
  O  O175  1  0.61990044  0.11884397  0.11727413  1
  O  O176  1  0.61309913  0.11724122  0.62192516  1
  O  O177  1  0.63288957  0.61377165  0.12383109  1
  O  O178  1  0.62254750  0.61389252  0.62056037  1
  O  O179  1  0.38596560  0.37353715  0.39500025  1
  O  O180  1  0.38638955  0.38283148  0.87288353  1
  O  O181  1  0.36968966  0.88556381  0.38521226  1
  O  O182  1  0.39020084  0.87274815  0.86955485  1
  O  O183  1  0.88568460  0.38271398  0.37885789  1
  O  O184  1  0.87988259  0.38309265  0.88339638  1
  O  O185  1  0.88006560  0.88209043  0.37900126  1
  O  O186  1  0.87856428  0.87760226  0.88205652  1
  O  O187  1  0.25888721  0.00667694  0.36756661  1
  O  O188  1  0.24877692  -0.00090749  0.86226969  1
  O  O189  1  0.25802171  0.49733072  0.37209159  1
  O  O190  1  0.25766877  0.50088410  0.87029091  1
  O  O191  1  0.75213458  0.00670284  0.37081634  1
  O  O192  1  0.76050501  -0.00944457  0.87578017  1
  O  O193  1  0.75636575  0.50844344  0.36850031  1
  O  O194  1  0.75485891  0.51408719  0.88090902  1
  O  O195  1  0.24347925  0.48816572  0.12243092  1
  O  O196  1  0.24920029  0.49052154  0.63413665  1
  O  O197  1  0.25712153  1.00122802  0.13907014  1
  O  O198  1  0.24305602  0.99414935  0.63412767  1
  O  O199  1  0.74628703  0.49527790  0.12703413  1
  O  O200  1  0.74455499  0.50591154  0.62476528  1
  O  O201  1  0.74310398  0.99561051  0.13149779  1
  O  O202  1  0.73986141  0.99205935  0.62540281  1
  O  O203  1  -0.00152512  0.37878393  0.26272348  1
  O  O204  1  -0.00929902  0.36650328  0.75927027  1
  O  O205  1  0.01137074  0.87459617  0.25586961  1
  O  O206  1  0.00523663  0.88188212  0.76150518  1
  O  O207  1  0.51502578  0.36571410  0.24580266  1
  O  O208  1  0.50703520  0.36801467  0.75735663  1
  O  O209  1  0.51093553  0.86780379  0.24912089  1
  O  O210  1  0.49780221  0.86191916  0.75453530  1
  O  O211  1  0.50746936  0.13505395  0.23410795  1
  O  O212  1  0.49228137  0.13077916  0.74652186  1
  O  O213  1  0.51054025  0.63957588  0.24557296  1
  O  O214  1  0.49595940  0.63335451  0.74411530  1
  O  O215  1  0.97567376  0.13189313  0.27787862  1
  O  O216  1  0.98833572  0.13012067  0.74136790  1
  O  O217  1  1.00145517  0.62909512  0.24704390  1
  O  O218  1  0.99519538  0.61939603  0.75226587  1
  O  O219  1  0.36080627  0.25346750  -0.00695136  1
  O  O220  1  0.37587004  0.26299976  0.50490086  1
  O  O221  1  0.37535673  0.74904591  0.00586110  1
  O  O222  1  0.36979832  0.75926027  0.50806455  1
  O  O223  1  0.87277054  0.25444633  0.00857640  1
  O  O224  1  0.87598478  0.26533694  0.49360881  1
  O  O225  1  0.86329081  0.76473427  0.01187726  1
  O  O226  1  0.86778245  0.75760002  0.50729814  1
  O  O227  1  0.12231581  0.23691073  0.49862359  1
  O  O228  1  0.14126540  0.25471319  0.99961629  1
  O  O229  1  0.13668427  0.75405553  0.49992925  1
  O  O230  1  0.12297177  0.73932012  0.99147061  1
  O  O231  1  0.62488844  0.24384389  0.49005833  1
  O  O232  1  0.62934727  0.24260482  0.99224489  1
  O  O233  1  0.63064840  0.74450866  0.49270483  1
  O  O234  1  0.63472533  0.75505932  0.99297597  1
  O  O235  1  0.50640209  0.23970827  0.12991513  1
  O  O236  1  0.50848078  0.24050973  0.64050390  1
  O  O237  1  0.49194248  0.75114786  0.13483722  1
  O  O238  1  0.49751737  0.74248712  0.63315246  1
  O  O239  1  0.99169591  0.26037389  0.13586906  1
  O  O240  1  0.99201487  0.24529238  0.63001656  1
  O  O241  1  0.98389051  0.75150496  0.12178148  1
  O  O242  1  0.98311122  0.75226173  0.62154140  1
  O  O243  1  0.00449448  0.26132746  0.36040224  1
  O  O244  1  -0.00181519  0.26025534  0.86840104  1
  O  O245  1  -0.00211705  0.76493519  0.37607345  1
  O  O246  1  0.00882177  0.75743128  0.87265194  1
  O  O247  1  0.51293891  0.24718225  0.36481363  1
  O  O248  1  0.50974111  0.25523322  0.86762211  1
  O  O249  1  0.51195682  0.74657684  0.36746300  1
  O  O250  1  0.50703180  0.75277744  0.86930719  1
  O  O251  1  0.24208474  0.12649585  0.49667783  1
  O  O252  1  0.25184932  0.13909846  1.00140878  1
  O  O253  1  0.24879948  0.64129223  0.51553354  1
  O  O254  1  0.24253134  0.62323175  0.99075098  1
  O  O255  1  0.74108904  0.12420824  0.49098488  1
  O  O256  1  0.73763696  0.12898266  1.00563628  1
  O  O257  1  0.74039182  0.63074234  0.49087713  1
  O  O258  1  0.75218247  0.63755326  0.99130925  1
  O  O259  1  0.25636787  0.36629665  0.00993077  1
  O  O260  1  0.25378790  0.36879824  0.51479075  1
  O  O261  1  0.24937059  0.87713453  -0.00176275  1
  O  O262  1  0.25753188  0.86924988  0.50770612  1
  O  O263  1  0.75680123  0.36765883  0.00323045  1
  O  O264  1  0.76723555  0.37630056  0.48660465  1
  O  O265  1  0.75383356  0.86920345  0.00717395  1
  O  O266  1  0.75508623  0.87043641  0.50845992  1
  O  O267  1  0.12409286  0.49772685  0.23417173  1
  O  O268  1  0.14149856  0.49752000  0.75363522  1
  O  O269  1  0.13683097  0.98245714  0.25517552  1
  O  O270  1  0.12856687  0.98871482  0.74484061  1
  O  O271  1  0.63052189  0.49239385  0.23920443  1
  O  O272  1  0.62639589  0.49319612  0.73732274  1
  O  O273  1  0.62708662  0.99381405  0.24780906  1
  O  O274  1  0.62399903  1.00451792  0.73777872  1
  O  O275  1  0.36724974  -0.00791878  0.25993982  1
  O  O276  1  0.36431990  0.00478859  0.75217056  1
  O  O277  1  0.38232756  0.49424131  0.26290126  1
  O  O278  1  0.36961313  0.50528039  0.75777277  1
  O  O279  1  0.86831586  0.00667372  0.25559959  1
  O  O280  1  0.87168453  0.00703105  0.75959860  1
  O  O281  1  0.86776645  0.49629175  0.25994986  1
  O  O282  1  0.87194401  0.49378599  0.76309055  1
  O  O283  1  0.10900715  0.37647711  0.38549513  1
  O  O284  1  0.11161082  0.37536971  0.87819732  1
  O  O285  1  0.11705158  0.87434976  0.37051647  1
  O  O286  1  0.11428210  0.86782043  0.86809588  1
  O  O287  1  0.62502922  0.36714301  0.36672110  1
  O  O288  1  0.62003654  0.36886539  0.86752832  1
  O  O289  1  0.63104365  0.86552696  0.36821633  1
  O  O290  1  0.61480863  0.86060504  0.87469721  1
  O  O291  1  0.39179084  0.12646066  0.12260622  1
  O  O292  1  0.38633303  0.11852894  0.63547882  1
  O  O293  1  0.37456859  0.64333706  0.12394197  1
  O  O294  1  0.38421375  0.62869172  0.62854742  1
  O  O295  1  0.87127782  0.13457225  0.13713393  1
  O  O296  1  0.88197971  0.12311799  0.63130060  1
  O  O297  1  0.87347538  0.64024241  0.11940292  1
  O  O298  1  0.87376710  0.64226300  0.61976709  1
  O  O299  1  0.24899041  0.26173637  0.11803361  1
  O  O300  1  0.24485381  0.25980729  0.62852386  1
  O  O301  1  0.26087978  0.75289642  0.11627914  1
  O  O302  1  0.25695897  0.75800486  0.62437160  1
  O  O303  1  0.75910311  0.25537077  0.11835331  1
  O  O304  1  0.75257654  0.24642941  0.61759186  1
  O  O305  1  0.75464796  0.75428061  0.12001881  1
  O  O306  1  0.75539309  0.75693433  0.62038868  1
  O  O307  1  0.25152712  0.24239329  0.37898952  1
  O  O308  1  0.24487622  0.25110262  0.88615966  1
  O  O309  1  0.25068924  0.75401313  0.38736590  1
  O  O310  1  0.23629814  0.74213654  0.87340387  1
  O  O311  1  0.73944814  0.24259103  0.37561526  1
  O  O312  1  0.73890674  0.25217259  0.88128851  1
  O  O313  1  0.74348320  0.74399154  0.37857604  1
  O  O314  1  0.74405954  0.74426996  0.88109060  1
  O  O315  1  -0.01070367  0.11235966  0.00148583  1
  O  O316  1  0.00411120  0.12123912  0.50149720  1
  O  O317  1  0.00913480  0.60939505  0.00678216  1
  O  O318  1  -0.00418726  0.61007284  0.49998091  1
  O  O319  1  0.50902316  0.12209194  0.00876331  1
  O  O320  1  0.50332271  0.12559550  0.50976688  1
  O  O321  1  0.50522484  0.61217539  -0.00824222  1
  O  O322  1  0.51563195  0.63529798  0.51272163  1
  O  O323  1  0.49423705  0.36967141  0.50815778  1
  O  O324  1  0.50107627  0.37698022  0.98500263  1
  O  O325  1  0.48597788  0.87507324  0.50474352  1
  O  O326  1  0.50557991  0.88458519  0.99199617  1
  O  O327  1  0.98971341  0.38263441  0.49081089  1
  O  O328  1  0.99550959  0.38300887  0.99333032  1
  O  O329  1  0.99481280  0.88367142  0.49287661  1
  O  O330  1  0.99004290  0.87937760  0.98885821  1
  O  O331  1  0.50697996  0.50016012  0.38578925  1
  O  O332  1  0.49902780  0.49295410  0.87726820  1
  O  O333  1  0.48583396  1.00749459  0.37662248  1
  O  O334  1  0.50094686  0.98962011  0.88292375  1
  O  O335  1  0.99493164  0.49353202  0.37959019  1
  O  O336  1  0.99200907  0.49398531  0.88193179  1
  O  O337  1  0.99589956  0.99211152  0.37681699  1
  O  O338  1  0.98478182  0.99181575  0.88206256  1
  O  O339  1  -0.00677525  -0.00457967  0.10985509  1
  O  O340  1  0.00255891  0.00601057  0.61819626  1
  O  O341  1  0.01282412  0.49526494  0.11716812  1
  O  O342  1  -0.00119285  0.49870330  0.61320289  1
  O  O343  1  0.50395863  0.00808962  0.12037783  1
  O  O344  1  0.50480831  0.00653437  0.62417845  1
  O  O345  1  0.51286809  0.49274099  0.11173520  1
  O  O346  1  0.50461376  0.51018176  0.63334975  1
  O  O347  1  0.25557456  0.37556274  0.23558638  1
  O  O348  1  0.25938834  0.38004895  0.73773450  1
  O  O349  1  0.23993428  0.87995072  0.24658097  1
  O  O350  1  0.24211058  0.88106433  0.74513161  1
  O  O351  1  0.74138306  0.38128194  0.24540555  1
  O  O352  1  0.73939251  0.37091996  0.75556735  1
  O  O353  1  0.73991671  0.88071636  0.24466032  1
  O  O354  1  0.74896873  0.87900456  0.73669092  1
  O  O355  1  0.25127698  0.11561395  0.25999594  1
  O  O356  1  0.25790152  0.11612942  0.74613471  1
  O  O357  1  0.24223389  0.61573020  0.25004982  1
  O  O358  1  0.25558059  0.61675459  0.75557319  1
  O  O359  1  0.75495427  0.11962734  0.25787385  1
  O  O360  1  0.76146419  0.12159668  0.74641293  1
  O  O361  1  0.74528618  0.62143083  0.26207152  1
  O  O362  1  0.74989195  0.62927654  0.76260512  1
  O  O363  1  0.36354629  0.11683433  0.38430887  1
  O  O364  1  0.37206922  0.11795475  0.86405410  1
  O  O365  1  0.36320594  0.61963410  0.39818737  1
  O  O366  1  0.36941214  0.61859972  0.86883998  1
  O  O367  1  0.86013283  0.12240109  0.37486822  1
  O  O368  1  0.87585563  0.11539355  0.86631890  1
  O  O369  1  0.86482504  0.61641527  0.38148279  1
  O  O370  1  0.85982153  0.61875028  0.87668966  1
  O  O371  1  0.13722340  0.38663467  0.11979978  1
  O  O372  1  0.13854654  0.37761813  0.62289908  1
  O  O373  1  0.12474012  0.87176140  0.13336146  1
  O  O374  1  0.12688512  0.87963944  0.63205640  1
  O  O375  1  0.63387127  0.37666989  0.13016413  1
  O  O376  1  0.62703126  0.38957445  0.63140390  1
  O  O377  1  0.62797214  0.88166727  0.13363125  1
  O  O378  1  0.63257900  0.88360994  0.61759740  1
  O  O379  1  0.12576782  0.26754401  0.25604194  1
  O  O380  1  0.10726662  0.24997471  0.74842688  1
  O  O381  1  0.12386952  0.76443879  0.25140540  1
  O  O382  1  0.12862109  0.76190218  0.75511452  1
  O  O383  1  0.62499209  0.25724420  0.25489967  1
  O  O384  1  0.61989787  0.25473213  0.75727059  1
  O  O385  1  0.61841717  0.75848039  0.25647243  1
  O  O386  1  0.61585474  0.74532408  0.75817646  1
  O  O387  1  0.38925014  0.25630544  0.25635739  1
  O  O388  1  0.38527513  0.24024889  0.75645150  1
  O  O389  1  0.39048448  0.74784850  0.25447497  1
  O  O390  1  0.38115449  0.74277428  0.74473680  1
  O  O391  1  0.86728359  0.24420887  0.24032351  1
  O  O392  1  0.88216680  0.24117850  0.75086906  1
  O  O393  1  0.87400479  0.75933423  0.23309172  1
  O  O394  1  0.87186323  0.75519979  0.73907460  1
  O  O395  1  0.37368717  0.47867170  0.50458757  1
  O  O396  1  0.38547237  0.49829503  0.99194686  1
  O  O397  1  0.37473812  0.99144522  0.49406481  1
  O  O398  1  0.38883751  1.00662458  0.99834236  1
  O  O399  1  0.88122551  0.49213873  0.48800558  1
  O  O400  1  0.88367744  0.49500848  0.99559124  1
  O  O401  1  0.87895590  0.99563226  0.49401796  1
  O  O402  1  0.87551667  0.98973073  0.99531044  1
  O  O403  1  0.10523499  0.00291816  -0.00536659  1
  O  O404  1  0.12094602  0.00939988  0.50418366  1
  O  O405  1  0.12012483  0.50491427  0.00421501  1
  O  O406  1  0.11152559  0.49767448  0.50169925  1
  O  O407  1  0.61660137  0.00714865  0.00344836  1
  O  O408  1  0.62002054  0.00728058  0.50901555  1
  O  O409  1  0.61865875  0.49383469  0.00818187  1
  O  O410  1  0.63138549  0.50688442  0.51377730  1
  O  O411  1  0.36517381  0.37871228  0.12172906  1
  O  O412  1  0.36442087  0.37363259  0.61823542  1
  O  O413  1  0.37441183  0.85317944  0.13419267  1
  O  O414  1  0.36873129  0.87034675  0.62008355  1
  O  O415  1  0.87018099  0.36965285  0.11928243  1
  O  O416  1  0.87636810  0.37640235  0.60583167  1
  O  O417  1  0.86688419  0.87096808  0.11931106  1
  O  O418  1  0.86702489  0.86816986  0.62031950  1
  O  O419  1  0.13721479  0.12492272  0.38158277  1
  O  O420  1  0.12736145  0.12985740  0.86142671  1
  O  O421  1  0.13295488  0.63064849  0.38646630  1
  O  O422  1  0.12751874  0.62998183  0.88311511  1
  O  O423  1  0.63193144  0.12982163  0.37766230  1
  O  O424  1  0.61960545  0.13341829  0.88400418  1
  O  O425  1  0.63198222  0.63173678  0.38225449  1
  O  O426  1  0.63725175  0.63478260  0.87291194  1
