# generated using pymatgen
data_V85Zn86O256
_symmetry_space_group_name_H-M   'P 1'
_cell_length_a   16.95130088
_cell_length_b   16.96924879
_cell_length_c   16.97347351
_cell_angle_alpha   89.97460579
_cell_angle_beta   89.95113255
_cell_angle_gamma   89.91677873
_symmetry_Int_Tables_number   1
_chemical_formula_structural   V85Zn86O256
_chemical_formula_sum   'V85 Zn86 O256'
_cell_volume   4882.42654331
_cell_formula_units_Z   1
loop_
 _symmetry_equiv_pos_site_id
 _symmetry_equiv_pos_as_xyz
  1  'x, y, z'
loop_
 _atom_site_type_symbol
 _atom_site_label
 _atom_site_symmetry_multiplicity
 _atom_site_fract_x
 _atom_site_fract_y
 _atom_site_fract_z
 _atom_site_occupancy
  V  V0  1  0.12135496  0.49684569  0.62533107  1
  V  V1  1  0.52554751  0.65385780  0.08472617  1
  V  V2  1  0.25048402  0.24810995  0.49765638  1
  V  V3  1  0.75475555  0.24980759  0.01464981  1
  V  V4  1  0.50102447  0.87297862  0.37589749  1
  V  V5  1  -0.01346188  -0.00329807  -0.00574711  1
  V  V6  1  0.50189480  0.49977815  0.51221743  1
  V  V7  1  0.38137460  0.25422770  0.11964701  1
  V  V8  1  0.24874728  0.26052311  0.00144273  1
  V  V9  1  0.86507190  0.50527520  0.37485479  1
  V  V10  1  0.00688321  0.87928034  0.87289558  1
  V  V11  1  0.13222932  0.86712224  0.75211602  1
  V  V12  1  -0.00731069  0.37973006  0.86974315  1
  V  V13  1  0.12808529  0.50007261  0.12732273  1
  V  V14  1  0.37111183  0.61872079  0.74672984  1
  V  V15  1  0.30551820  0.68994893  0.44410715  1
  V  V16  1  0.75911155  0.86686088  0.12630491  1
  V  V17  1  0.00008634  0.12599582  0.62743025  1
  V  V18  1  0.37360695  0.37214080  0.49538955  1
  V  V19  1  0.23988549  0.49177534  0.75327206  1
  V  V20  1  0.24129593  0.37048353  0.62868505  1
  V  V21  1  0.00058945  0.49828430  0.48974142  1
  V  V22  1  0.49427432  0.73763466  0.25307588  1
  V  V23  1  0.38136364  0.87200450  -0.00505216  1
  V  V24  1  0.75286648  0.00024279  0.25110649  1
  V  V25  1  0.75249538  0.75974073  0.49563590  1
  V  V26  1  0.37699476  0.24828291  0.62647937  1
  V  V27  1  0.62826836  -0.00748111  0.62659794  1
  V  V28  1  0.25264743  0.75078485  -0.00507938  1
  V  V29  1  0.12354525  -0.00231285  0.11821060  1
  V  V30  1  0.12492296  0.12006578  0.49861604  1
  V  V31  1  0.24725399  0.00339792  0.24490840  1
  V  V32  1  0.24544996  0.62577513  0.87553681  1
  V  V33  1  0.87229182  0.63736313  0.25155070  1
  V  V34  1  0.62322169  0.12382589  0.50330135  1
  V  V35  1  0.38400075  0.74210547  0.63016885  1
  V  V36  1  0.74834136  0.25156915  0.50232714  1
  V  V37  1  0.87431300  0.25120470  0.63009542  1
  V  V38  1  0.12405414  0.62924625  0.49579531  1
  V  V39  1  -0.00421523  0.63741958  0.12891705  1
  V  V40  1  0.12330502  0.12220462  -0.00490597  1
  V  V41  1  0.12297473  0.25714399  0.86810197  1
  V  V42  1  0.12878749  -0.00159619  0.62460753  1
  V  V43  1  0.87349232  0.37079022  0.01559121  1
  V  V44  1  0.75757920  -0.00370772  0.75153924  1
  V  V45  1  0.38034138  0.12558872  0.24214764  1
  V  V46  1  0.62262080  0.25114662  0.37524718  1
  V  V47  1  0.36900074  0.49354660  0.88469094  1
  V  V48  1  0.61374738  0.87859492  0.76410476  1
  V  V49  1  0.49780253  0.00730875  -0.00183449  1
  V  V50  1  0.49374719  0.36849616  0.87749635  1
  V  V51  1  0.62336692  0.49209717  0.12209971  1
  V  V52  1  0.61792862  0.00820123  0.12910495  1
  V  V53  1  0.87507832  0.76642443  0.61760578  1
  V  V54  1  0.75878275  0.12307423  0.87766348  1
  V  V55  1  0.00562799  0.74842735  0.75724772  1
  V  V56  1  0.12049398  0.63143493  -0.00166524  1
  V  V57  1  0.53128642  0.71451353  0.75858266  1
  V  V58  1  -0.00225704  0.87609926  0.38193872  1
  V  V59  1  0.50058671  0.49681961  0.00062736  1
  V  V60  1  0.50112726  -0.00217020  0.50078192  1
  V  V61  1  0.12188026  0.74535921  0.36956139  1
  V  V62  1  0.25073940  0.12516280  0.87616294  1
  V  V63  1  -0.00333657  0.62581450  0.62453868  1
  V  V64  1  0.75275520  0.12391094  0.37731828  1
  V  V65  1  0.24847249  0.12553726  0.37209963  1
  V  V66  1  0.11664885  0.87346192  0.24792455  1
  V  V67  1  0.87238513  0.62549985  0.75874450  1
  V  V68  1  0.74590389  0.37884273  0.62674664  1
  V  V69  1  0.11275135  0.25638562  0.37525001  1
  V  V70  1  0.25331486  -0.00345250  0.75025711  1
  V  V71  1  0.37167615  0.87241286  0.49851031  1
  V  V72  1  0.84810147  0.86263377  -0.03498987  1
  V  V73  1  0.37341195  0.00068220  0.37289589  1
  V  V74  1  0.37499686  0.74387049  0.12594726  1
  V  V75  1  0.74889827  0.49694139  0.24845869  1
  V  V76  1  0.62213909  0.87234147  0.25147604  1
  V  V77  1  0.37738214  0.12364869  0.75158511  1
  V  V78  1  0.75125412  0.50248984  0.75545844  1
  V  V79  1  0.62942325  0.24855539  0.87688913  1
  V  V80  1  0.25105072  0.86393332  0.61999133  1
  V  V81  1  0.25757645  0.51282201  0.25616896  1
  V  V82  1  0.87785214  0.37653884  0.49552275  1
  V  V83  1  -0.00354433  0.50345013  0.00065451  1
  V  V84  1  0.49784246  0.37666592  0.37037501  1
  Zn  Zn85  1  0.87937791  0.12415357  0.75576897  1
  Zn  Zn86  1  0.50258925  0.24615869  0.24407461  1
  Zn  Zn87  1  0.63023546  0.37184009  0.24782389  1
  Zn  Zn88  1  0.38211758  -0.00491600  0.87153717  1
  Zn  Zn89  1  0.37426957  0.50947187  0.37238470  1
  Zn  Zn90  1  0.62241960  0.12949452  0.00728739  1
  Zn  Zn91  1  -0.00779171  0.13116438  0.12337432  1
  Zn  Zn92  1  0.87492603  0.13267881  0.24100503  1
  Zn  Zn93  1  -0.01120705  -0.00642927  0.50652405  1
  Zn  Zn94  1  0.61988659  0.51409331  0.63212649  1
  Zn  Zn95  1  0.25268016  0.37985121  0.12800565  1
  Zn  Zn96  1  0.63932272  0.62752363  0.50848805  1
  Zn  Zn97  1  0.82839861  0.54524140  0.91529338  1
  Zn  Zn98  1  0.50358412  0.24773686  0.75182958  1
  Zn  Zn99  1  -0.01332450  0.26080153  0.23720064  1
  Zn  Zn100  1  0.12320252  0.38266126  0.26109554  1
  Zn  Zn101  1  0.25078273  0.87221240  0.12345795  1
  Zn  Zn102  1  0.62520330  0.37165468  0.74969506  1
  Zn  Zn103  1  0.87052238  -0.00561820  0.38460415  1
  Zn  Zn104  1  0.64003743  0.73896480  0.37020830  1
  Zn  Zn105  1  0.50150537  0.12479621  0.62640241  1
  Zn  Zn106  1  0.00589781  0.26045310  0.74585890  1
  Zn  Zn107  1  0.15565429  0.20392105  0.17069207  1
  Zn  Zn108  1  0.18902851  0.18629762  0.68914083  1
  Zn  Zn109  1  0.18659923  0.68654388  0.18610764  1
  Zn  Zn110  1  0.18959888  0.68415504  0.68357536  1
  Zn  Zn111  1  0.68855724  0.18664161  0.19256393  1
  Zn  Zn112  1  0.68847484  0.18369688  0.69046533  1
  Zn  Zn113  1  0.68897930  0.68647758  0.18656233  1
  Zn  Zn114  1  0.69468878  0.68829935  0.68048322  1
  Zn  Zn115  1  0.30588976  0.31446662  0.30558475  1
  Zn  Zn116  1  0.31077711  0.31094779  0.81235958  1
  Zn  Zn117  1  0.31188007  0.81763528  0.30503520  1
  Zn  Zn118  1  0.32072547  0.80769892  0.81558659  1
  Zn  Zn119  1  0.81624841  0.31471661  0.31152430  1
  Zn  Zn120  1  0.81417423  0.31511976  0.81700712  1
  Zn  Zn121  1  0.81386454  0.81488299  0.31261190  1
  Zn  Zn122  1  0.81858425  0.82018149  0.79583074  1
  Zn  Zn123  1  0.19156689  0.44060993  0.43623158  1
  Zn  Zn124  1  0.17905861  0.43786980  0.93973170  1
  Zn  Zn125  1  0.18611971  0.93518192  0.43504876  1
  Zn  Zn126  1  0.19073477  0.93579696  0.93496354  1
  Zn  Zn127  1  0.68655969  0.43883994  0.43780631  1
  Zn  Zn128  1  0.68515018  0.43103511  0.94171414  1
  Zn  Zn129  1  0.69045777  0.93195760  0.44152974  1
  Zn  Zn130  1  0.68197768  0.93916753  0.93684779  1
  Zn  Zn131  1  0.31172541  0.06590479  0.06232280  1
  Zn  Zn132  1  0.31287100  0.05945087  0.56275505  1
  Zn  Zn133  1  0.31809779  0.56806411  0.06556823  1
  Zn  Zn134  1  0.31477013  0.55237133  0.56657254  1
  Zn  Zn135  1  0.80949515  0.05526302  0.06067379  1
  Zn  Zn136  1  0.81226500  0.05997047  0.56539956  1
  Zn  Zn137  1  0.81014714  0.56369090  0.07648065  1
  Zn  Zn138  1  0.81106611  0.56761939  0.56503743  1
  Zn  Zn139  1  0.43565323  0.43862707  0.18547247  1
  Zn  Zn140  1  0.43083932  0.43012226  0.69379676  1
  Zn  Zn141  1  0.43594616  0.93369633  0.18365037  1
  Zn  Zn142  1  0.43789493  0.93719463  0.68201172  1
  Zn  Zn143  1  0.94441661  0.43976723  0.19366932  1
  Zn  Zn144  1  0.93329332  0.44102505  0.68677588  1
  Zn  Zn145  1  0.93537338  0.95236334  0.18814872  1
  Zn  Zn146  1  0.94320221  0.94101660  0.69125316  1
  Zn  Zn147  1  0.05624292  0.06422546  0.30950244  1
  Zn  Zn148  1  0.06561845  0.06228240  0.81015736  1
  Zn  Zn149  1  0.05984334  0.56324476  0.30944622  1
  Zn  Zn150  1  0.06079775  0.56172619  0.81507371  1
  Zn  Zn151  1  0.56335972  0.06206116  0.31422391  1
  Zn  Zn152  1  0.56549472  0.06400688  0.81604958  1
  Zn  Zn153  1  0.56752732  0.55835815  0.31785814  1
  Zn  Zn154  1  0.55791850  0.54767640  0.80730854  1
  Zn  Zn155  1  0.43808759  0.18574191  0.43430852  1
  Zn  Zn156  1  0.43694240  0.18460010  0.94101035  1
  Zn  Zn157  1  0.48424559  0.66517042  0.42317356  1
  Zn  Zn158  1  0.55342895  0.69568701  0.91870681  1
  Zn  Zn159  1  0.93586100  0.18413257  0.44200789  1
  Zn  Zn160  1  0.93857288  0.19163136  0.94002243  1
  Zn  Zn161  1  0.93734441  0.69092684  0.43416357  1
  Zn  Zn162  1  0.80452732  0.70794481  0.95338031  1
  Zn  Zn163  1  0.06237845  0.31681687  0.05883151  1
  Zn  Zn164  1  0.06074612  0.31066007  0.55717273  1
  Zn  Zn165  1  0.06085016  0.81227468  0.05888382  1
  Zn  Zn166  1  0.06541120  0.80779305  0.56198782  1
  Zn  Zn167  1  0.56193250  0.31465901  0.05892709  1
  Zn  Zn168  1  0.56049791  0.31401120  0.56197482  1
  Zn  Zn169  1  0.56089773  0.82787409  0.06687044  1
  Zn  Zn170  1  0.56444404  0.80568617  0.56981314  1
  O  O171  1  0.12961812  0.10602260  0.11353874  1
  O  O172  1  0.12146990  0.12190688  0.61847268  1
  O  O173  1  0.11630156  0.61876253  0.12031901  1
  O  O174  1  0.11594473  0.62006049  0.61621234  1
  O  O175  1  0.62626094  0.11182731  0.12864508  1
  O  O176  1  0.62175937  0.11793273  0.61950332  1
  O  O177  1  0.60924714  0.61534733  0.13356215  1
  O  O178  1  0.62099872  0.62764384  0.62230203  1
  O  O179  1  0.38022479  0.36951808  0.38263369  1
  O  O180  1  0.37980439  0.38170658  0.87038201  1
  O  O181  1  0.37937245  0.88232732  0.37870303  1
  O  O182  1  0.36885946  0.87888453  0.88952270  1
  O  O183  1  0.86865287  0.38591354  0.39036615  1
  O  O184  1  0.88806752  0.37120793  0.88738866  1
  O  O185  1  0.89543178  0.87255988  0.36958393  1
  O  O186  1  0.89925737  0.88108294  0.86318405  1
  O  O187  1  0.25322235  0.00496857  0.36623792  1
  O  O188  1  0.25325724  0.00776242  0.86696318  1
  O  O189  1  0.25441745  0.50194002  0.36302994  1
  O  O190  1  0.25012199  0.49888829  0.86966102  1
  O  O191  1  0.74352090  0.00768151  0.36942018  1
  O  O192  1  0.74345554  0.00930141  0.86341657  1
  O  O193  1  0.75953006  0.50590103  0.37484777  1
  O  O194  1  0.74653474  0.48816163  0.86017801  1
  O  O195  1  0.24670005  0.50408963  0.13214195  1
  O  O196  1  0.24160797  0.48880302  0.63187032  1
  O  O197  1  0.24468481  0.99598297  0.13017185  1
  O  O198  1  0.24847742  0.98864379  0.63100245  1
  O  O199  1  0.73641713  0.50141474  0.13607737  1
  O  O200  1  0.74961873  0.49250856  0.63326512  1
  O  O201  1  0.73834583  0.99386063  0.13830436  1
  O  O202  1  0.74044589  1.01043216  0.64162434  1
  O  O203  1  0.01167256  0.37237707  0.24943201  1
  O  O204  1  -0.00578799  0.37865957  0.76145447  1
  O  O205  1  0.01340267  0.88434243  0.25757687  1
  O  O206  1  0.01461379  0.87074601  0.75044297  1
  O  O207  1  0.49816557  0.37422336  0.26331402  1
  O  O208  1  0.50041375  0.36945386  0.76356415  1
  O  O209  1  0.50566214  0.87053806  0.25717172  1
  O  O210  1  0.51442195  0.88876175  0.75088554  1
  O  O211  1  0.48416447  0.12534417  0.25826103  1
  O  O212  1  0.48854206  0.12545983  0.75001554  1
  O  O213  1  0.49770353  0.63820481  0.26263319  1
  O  O214  1  0.47656468  0.61192634  0.74254708  1
  O  O215  1  0.99613878  0.13164855  0.24573350  1
  O  O216  1  1.00047544  0.12745080  0.73816356  1
  O  O217  1  0.98968761  0.62005788  0.23669242  1
  O  O218  1  0.99791591  0.63112576  0.74323452  1
  O  O219  1  0.36498662  0.24251137  0.01304219  1
  O  O220  1  0.37203226  0.25504726  0.50658105  1
  O  O221  1  0.36693332  0.75987288  0.00665587  1
  O  O222  1  0.36814092  0.74813426  0.50572133  1
  O  O223  1  0.87133808  0.26113577  0.00446413  1
  O  O224  1  0.87136331  0.25856774  0.50960220  1
  O  O225  1  0.88688031  0.78196920  0.00705059  1
  O  O226  1  0.87456989  0.74984181  0.51140595  1
  O  O227  1  0.12985188  0.23844934  0.49338664  1
  O  O228  1  0.13212452  0.24362696  0.98710930  1
  O  O229  1  0.12651747  0.73612258  0.49224208  1
  O  O230  1  0.13435828  0.73758441  1.00510722  1
  O  O231  1  0.62709655  0.24411150  0.49479228  1
  O  O232  1  0.63387723  0.24934892  0.99531438  1
  O  O233  1  0.64119868  0.75557220  0.50141858  1
  O  O234  1  0.58258680  0.72694082  1.02035175  1
  O  O235  1  0.48569704  0.25220573  0.12363263  1
  O  O236  1  0.48755361  0.24923036  0.62665231  1
  O  O237  1  0.49447630  0.75270516  0.13766436  1
  O  O238  1  0.48873450  0.75028213  0.64263951  1
  O  O239  1  1.04320347  0.23712434  0.13354797  1
  O  O240  1  0.99390947  0.24486282  0.62644227  1
  O  O241  1  1.00700488  0.73553816  0.12548292  1
  O  O242  1  0.99490306  0.74270820  0.62843142  1
  O  O243  1  0.01251636  0.24629053  0.38206356  1
  O  O244  1  0.00698263  0.25851768  0.87176678  1
  O  O245  1  0.01192992  0.76185567  0.37638752  1
  O  O246  1  0.00508378  0.76003374  0.85669292  1
  O  O247  1  0.50991569  0.25546923  0.37488095  1
  O  O248  1  0.50628824  0.25326477  0.87851133  1
  O  O249  1  0.49214977  0.76566238  0.36895092  1
  O  O250  1  0.48519308  0.75390214  0.83729829  1
  O  O251  1  0.24332037  0.12839881  0.49635161  1
  O  O252  1  0.24384167  0.13141901  0.99149560  1
  O  O253  1  0.24646609  0.62327270  0.49799789  1
  O  O254  1  0.24496726  0.63022412  0.99333820  1
  O  O255  1  0.74100859  0.13242808  0.49689398  1
  O  O256  1  0.74833382  0.12937278  0.99399226  1
  O  O257  1  0.75530586  0.64609512  0.50691369  1
  O  O258  1  0.76605363  0.61305206  0.98686623  1
  O  O259  1  0.24698084  0.36293095  -0.00218201  1
  O  O260  1  0.25718276  0.36935900  0.50636503  1
  O  O261  1  0.25363601  0.86499661  0.00132245  1
  O  O262  1  0.25842238  0.88088198  0.50829499  1
  O  O263  1  0.76593120  0.36645204  -0.00280891  1
  O  O264  1  0.75568707  0.37084660  0.50695866  1
  O  O265  1  0.75104747  0.89286739  0.01953890  1
  O  O266  1  0.75618063  0.86154234  0.50200072  1
  O  O267  1  0.13425022  0.50437992  0.24317227  1
  O  O268  1  0.13297785  0.50281009  0.74323234  1
  O  O269  1  0.13072102  0.99573631  0.24031851  1
  O  O270  1  0.13403318  0.99137998  0.74195660  1
  O  O271  1  0.63162040  0.49946154  0.24631214  1
  O  O272  1  0.63410455  0.49008625  0.74586978  1
  O  O273  1  0.62869312  0.99282009  0.24729579  1
  O  O274  1  0.63087594  0.99526755  0.74581793  1
  O  O275  1  0.36793428  0.00423551  0.25133565  1
  O  O276  1  0.37139999  0.00634608  0.74933146  1
  O  O277  1  0.36297650  0.49963691  0.25174424  1
  O  O278  1  0.35792666  0.50015597  0.75381776  1
  O  O279  1  0.86049577  -0.00087032  0.26453576  1
  O  O280  1  0.86168999  0.00332407  0.74440660  1
  O  O281  1  0.86888760  0.50552250  0.25855485  1
  O  O282  1  0.86730593  0.51263545  0.74847507  1
  O  O283  1  0.12758261  0.35898292  0.38633516  1
  O  O284  1  0.10923351  0.36707909  0.88213358  1
  O  O285  1  0.12153146  0.86618896  0.36770609  1
  O  O286  1  0.12529491  0.87637629  0.85832209  1
  O  O287  1  0.61603771  0.36728260  0.37642611  1
  O  O288  1  0.61681414  0.36130566  0.87565106  1
  O  O289  1  0.61749939  0.87329414  0.36556724  1
  O  O290  1  0.62217479  0.87421453  0.86330907  1
  O  O291  1  0.36769297  0.13796535  0.13343940  1
  O  O292  1  0.37466830  0.13243526  0.63147882  1
  O  O293  1  0.40011208  0.64212470  0.10807423  1
  O  O294  1  0.35996294  0.63210664  0.63299853  1
  O  O295  1  0.88320946  0.09770657  0.13028622  1
  O  O296  1  0.88407231  0.13566349  0.62593620  1
  O  O297  1  0.88796978  0.62298168  0.13649017  1
  O  O298  1  0.88877197  0.62939765  0.63163308  1
  O  O299  1  0.24914847  0.25329939  0.11506667  1
  O  O300  1  0.25663161  0.25308630  0.61941379  1
  O  O301  1  0.25853894  0.74589744  0.11518930  1
  O  O302  1  0.25609513  0.75999293  0.62368781  1
  O  O303  1  0.74412811  0.24564005  0.11340253  1
  O  O304  1  0.75735515  0.25439452  0.62100820  1
  O  O305  1  0.74284775  0.76748509  0.12501312  1
  O  O306  1  0.77049948  0.75506283  0.62057374  1
  O  O307  1  0.24880021  0.24261610  0.38331568  1
  O  O308  1  0.24429320  0.24500174  0.88026536  1
  O  O309  1  0.24988396  0.74848154  0.37970912  1
  O  O310  1  0.25485351  0.73890402  0.88586564  1
  O  O311  1  0.73835161  0.24575280  0.38252598  1
  O  O312  1  0.74487637  0.24444732  0.88301366  1
  O  O313  1  0.75390265  0.75365766  0.38849790  1
  O  O314  1  0.77643800  0.80196060  0.89987271  1
  O  O315  1  0.00495302  0.11387123  -0.00228395  1
  O  O316  1  0.00899043  0.12394034  0.51226854  1
  O  O317  1  0.00642670  0.61839469  0.01206574  1
  O  O318  1  0.00622602  0.61970210  0.50588712  1
  O  O319  1  0.50084139  0.11221074  0.00490302  1
  O  O320  1  0.50758474  0.11764093  0.49852326  1
  O  O321  1  0.50170755  0.60623269  -0.01356394  1
  O  O322  1  0.48248716  0.59805688  0.51610523  1
  O  O323  1  0.49155445  0.37656517  0.49018219  1
  O  O324  1  0.49871044  0.38297364  0.98712070  1
  O  O325  1  0.49370258  0.87532625  0.49400321  1
  O  O326  1  0.49050678  0.88888914  1.00145906  1
  O  O327  1  0.98977640  0.38661020  0.50752827  1
  O  O328  1  0.99085523  0.38237086  0.99670607  1
  O  O329  1  1.01314497  0.87687300  0.48592287  1
  O  O330  1  1.01409181  0.88302762  0.98362103  1
  O  O331  1  0.49296563  0.49172755  0.38678150  1
  O  O332  1  0.48856690  0.48867731  0.87774944  1
  O  O333  1  0.49565034  0.98932112  0.37963596  1
  O  O334  1  0.50034063  1.00516790  0.89261711  1
  O  O335  1  0.99106677  0.50425977  0.38622712  1
  O  O336  1  1.00429085  0.49481854  0.89063418  1
  O  O337  1  1.00523307  0.98649342  0.37996289  1
  O  O338  1  1.00991333  0.99299618  0.88239706  1
  O  O339  1  0.01045184  -0.00773346  0.11005010  1
  O  O340  1  0.01038390  0.00833652  0.62484310  1
  O  O341  1  0.00832621  0.50783299  0.11583972  1
  O  O342  1  0.00406105  0.50714850  0.61669667  1
  O  O343  1  0.50752266  -0.00562294  0.11691293  1
  O  O344  1  0.50625741  0.00383378  0.61570527  1
  O  O345  1  0.50218652  0.50091530  0.11297156  1
  O  O346  1  0.50097802  0.47726773  0.61402948  1
  O  O347  1  0.24108094  0.38906836  0.24754024  1
  O  O348  1  0.24991896  0.37914724  0.74037477  1
  O  O349  1  0.24004644  0.88825140  0.24853559  1
  O  O350  1  0.24877342  0.87490569  0.74276192  1
  O  O351  1  0.74751994  0.39257982  0.26130590  1
  O  O352  1  0.75413441  0.38119108  0.74114755  1
  O  O353  1  0.74079841  0.88017014  0.24755522  1
  O  O354  1  0.74009351  0.89251828  0.74992358  1
  O  O355  1  0.25697771  0.11269759  0.25305926  1
  O  O356  1  0.26084788  0.11967176  0.75399157  1
  O  O357  1  0.25019598  0.61210938  0.24723097  1
  O  O358  1  0.24890903  0.61400137  0.75620001  1
  O  O359  1  0.74844599  0.11575965  0.26125052  1
  O  O360  1  0.75260570  0.11642448  0.75995874  1
  O  O361  1  0.76467845  0.61720975  0.24386669  1
  O  O362  1  0.76068634  0.61684796  0.74553650  1
  O  O363  1  0.36733835  0.11908507  0.36843597  1
  O  O364  1  0.36916367  0.12372122  0.86667217  1
  O  O365  1  0.37199544  0.63336743  0.39177141  1
  O  O366  1  0.35607861  0.60776266  0.86359461  1
  O  O367  1  0.85812670  0.12729886  0.37988513  1
  O  O368  1  0.86343933  0.13152022  0.87449375  1
  O  O369  1  0.88407560  0.61892548  0.36008775  1
  O  O370  1  0.87845640  0.63599431  0.86014375  1
  O  O371  1  0.13007799  0.39481171  0.11636131  1
  O  O372  1  0.13546475  0.37618660  0.61689752  1
  O  O373  1  0.12753457  0.88105506  0.13053662  1
  O  O374  1  0.13422075  0.87721666  0.62951349  1
  O  O375  1  0.61570856  0.38704819  0.13127808  1
  O  O376  1  0.63922231  0.37037892  0.62494001  1
  O  O377  1  0.63046895  0.88465563  0.13885073  1
  O  O378  1  0.62130844  0.89093922  0.62613588  1
  O  O379  1  0.13496079  0.25102567  0.27377029  1
  O  O380  1  0.12650093  0.24737292  0.76344261  1
  O  O381  1  0.13471453  0.75967749  0.25950429  1
  O  O382  1  0.11929347  0.75714319  0.73899865  1
  O  O383  1  0.62140031  0.25185927  0.25991500  1
  O  O384  1  0.62415966  0.25079637  0.75997498  1
  O  O385  1  0.61716982  0.75585959  0.25356054  1
  O  O386  1  0.62509609  0.77402850  0.73246491  1
  O  O387  1  0.37355517  0.24189777  0.23861111  1
  O  O388  1  0.37462077  0.24108692  0.74191414  1
  O  O389  1  0.38119998  0.75603499  0.23824730  1
  O  O390  1  0.36122019  0.73330979  0.73972265  1
  O  O391  1  0.87412809  0.24635292  0.25135215  1
  O  O392  1  0.87610017  0.25023817  0.73790176  1
  O  O393  1  0.87165201  0.73577498  0.25225174  1
  O  O394  1  0.88462629  0.74541013  0.73617771  1
  O  O395  1  0.37872975  0.48296679  0.49952747  1
  O  O396  1  0.37735565  0.50125375  0.98879579  1
  O  O397  1  0.38146448  0.99447021  0.49342044  1
  O  O398  1  0.38447748  0.99563090  1.00258349  1
  O  O399  1  0.88044542  0.49725020  0.49532957  1
  O  O400  1  0.88254056  0.48989755  1.00297280  1
  O  O401  1  0.87647727  1.00340188  0.49671227  1
  O  O402  1  0.88468186  0.97877980  0.99624105  1
  O  O403  1  0.12281100  0.00235549  0.00357272  1
  O  O404  1  0.12791528  0.01071587  0.50516437  1
  O  O405  1  0.12044139  0.51340267  0.00687823  1
  O  O406  1  0.11912323  0.50917560  0.50199669  1
  O  O407  1  0.61312375  0.00113928  0.01027749  1
  O  O408  1  0.62254434  0.00427621  0.50665157  1
  O  O409  1  0.61563922  0.49406005  0.00891358  1
  O  O410  1  0.61027217  0.49786441  0.50398800  1
  O  O411  1  0.37043282  0.35838999  0.12922943  1
  O  O412  1  0.36355759  0.36422259  0.61976761  1
  O  O413  1  0.37207045  0.86451693  0.11492563  1
  O  O414  1  0.37096107  0.86340947  0.61867244  1
  O  O415  1  0.88106953  0.37962284  0.11350385  1
  O  O416  1  0.86585490  0.37059988  0.61663166  1
  O  O417  1  0.85761059  0.87979383  0.13920014  1
  O  O418  1  0.88726631  0.86390365  0.62698363  1
  O  O419  1  0.12930031  0.13001531  0.38360072  1
  O  O420  1  0.13137904  0.13173125  0.87764983  1
  O  O421  1  0.11831099  0.63502968  0.38010893  1
  O  O422  1  0.13556356  0.61939024  0.88378432  1
  O  O423  1  0.63176546  0.13167223  0.38153022  1
  O  O424  1  0.63329847  0.13620564  0.87911989  1
  O  O425  1  0.59656258  0.63550775  0.39773483  1
  O  O426  1  0.59910518  0.65231691  0.82429185  1
