# generated using pymatgen
data_V85Zn86O256
_symmetry_space_group_name_H-M   'P 1'
_cell_length_a   16.91774037
_cell_length_b   16.92219175
_cell_length_c   16.92128437
_cell_angle_alpha   89.92358265
_cell_angle_beta   89.98826924
_cell_angle_gamma   90.02602138
_symmetry_Int_Tables_number   1
_chemical_formula_structural   V85Zn86O256
_chemical_formula_sum   'V85 Zn86 O256'
_cell_volume   4844.30915688
_cell_formula_units_Z   1
loop_
 _symmetry_equiv_pos_site_id
 _symmetry_equiv_pos_as_xyz
  1  'x, y, z'
loop_
 _atom_site_type_symbol
 _atom_site_label
 _atom_site_symmetry_multiplicity
 _atom_site_fract_x
 _atom_site_fract_y
 _atom_site_fract_z
 _atom_site_occupancy
  V  V0  1  0.87713404  0.61463512  0.25769034  1
  V  V1  1  0.50273939  0.49991532  0.00436383  1
  V  V2  1  0.74315086  0.11889909  0.37751426  1
  V  V3  1  0.75264596  0.86973651  0.63124228  1
  V  V4  1  0.87441775  -0.00190170  0.87568416  1
  V  V5  1  0.75019284  0.75194796  0.00355347  1
  V  V6  1  0.63289600  0.00098412  0.12002666  1
  V  V7  1  0.86936487  0.37704813  0.49635966  1
  V  V8  1  0.87813849  0.25118346  0.62733380  1
  V  V9  1  0.74021368  0.49701524  0.25830550  1
  V  V10  1  0.49918638  0.62385410  0.12613755  1
  V  V11  1  0.62611469  0.00271971  0.61904907  1
  V  V12  1  0.37531827  0.12789216  0.74961794  1
  V  V13  1  0.12238303  0.62343416  -0.00497082  1
  V  V14  1  0.00360257  0.12647333  0.12333557  1
  V  V15  1  -0.00321038  0.37891878  0.37649098  1
  V  V16  1  0.37298965  0.62717395  0.25006396  1
  V  V17  1  0.74904607  0.38073075  0.11763662  1
  V  V18  1  0.25511111  0.50339919  0.75044518  1
  V  V19  1  0.37172267  0.87606660  0.00747881  1
  V  V20  1  0.61761656  0.51333845  0.62775062  1
  V  V21  1  0.13043442  0.87256117  0.24349284  1
  V  V22  1  0.12466364  0.37517377  0.25011964  1
  V  V23  1  0.00733888  0.86792158  0.87258627  1
  V  V24  1  0.12102761  0.50158033  0.62578970  1
  V  V25  1  0.12217338  0.62722527  0.50634172  1
  V  V26  1  0.24929516  0.87858195  0.62380087  1
  V  V27  1  0.25852410  0.75220689  0.50447908  1
  V  V28  1  0.37378982  0.00354300  0.37605579  1
  V  V29  1  0.37234436  0.12653540  0.25049646  1
  V  V30  1  0.88945563  0.74275286  0.63035908  1
  V  V31  1  0.74480353  -0.00330418  0.75058197  1
  V  V32  1  -0.01644599  0.49582933  -0.00243579  1
  V  V33  1  0.12571996  0.12061161  0.50287030  1
  V  V34  1  0.50570177  0.37651544  0.87134149  1
  V  V35  1  0.24320242  0.75473376  0.00436568  1
  V  V36  1  0.49935522  0.87156402  0.87547914  1
  V  V37  1  0.75154988  0.74118312  0.50106371  1
  V  V38  1  0.87807871  0.12184034  0.25909229  1
  V  V39  1  0.74054466  0.38057877  0.63767213  1
  V  V40  1  0.37482267  0.00067775  0.87538788  1
  V  V41  1  0.23864791  0.00355625  0.74451522  1
  V  V42  1  0.24887878  0.62445906  0.37613080  1
  V  V43  1  -0.00124563  0.88392247  0.37316753  1
  V  V44  1  0.87982458  0.60574002  0.75615657  1
  V  V45  1  0.63204876  0.87309203  0.24426462  1
  V  V46  1  0.24691224  0.63331993  0.87192632  1
  V  V47  1  0.87671594  0.12821853  0.75161805  1
  V  V48  1  0.24521380  0.24763612  -0.00064461  1
  V  V49  1  0.25383062  0.24801240  0.49695390  1
  V  V50  1  0.74419476  0.12124939  0.88485367  1
  V  V51  1  0.24895034  0.37507909  0.12295880  1
  V  V52  1  0.62721478  0.73982418  0.37476101  1
  V  V53  1  -0.01453513  0.37394109  0.87462897  1
  V  V54  1  0.12294092  0.37012947  0.75181439  1
  V  V55  1  0.87456695  0.74818338  0.12796166  1
  V  V56  1  0.87726132  0.87919658  0.49881156  1
  V  V57  1  -0.00077789  0.25119393  0.25016885  1
  V  V58  1  0.12100179  0.24962641  0.87602611  1
  V  V59  1  0.24649550  0.12698740  0.87706688  1
  V  V60  1  0.13223127  -0.00106715  0.11947853  1
  V  V61  1  0.37733645  0.25626078  0.62273266  1
  V  V62  1  0.37435358  0.37742736  -0.00135954  1
  V  V63  1  -0.00533255  0.50416553  0.50082008  1
  V  V64  1  0.24936121  0.49971618  0.24901793  1
  V  V65  1  0.56903914  0.81862256  0.70860050  1
  V  V66  1  0.74468048  0.24533777  0.49949673  1
  V  V67  1  0.12342513  0.75115696  0.37514519  1
  V  V68  1  0.87320722  0.87533129  0.00575356  1
  V  V69  1  0.62100152  0.24256857  0.88829031  1
  V  V70  1  0.49548969  0.37497262  0.38655442  1
  V  V71  1  0.62603141  0.75223407  0.87625204  1
  V  V72  1  0.51075235  0.25207365  0.74894721  1
  V  V73  1  0.50517436  0.12667260  0.61605559  1
  V  V74  1  0.50692741  0.12521532  0.11883145  1
  V  V75  1  0.75884266  -0.00581651  0.25053803  1
  V  V76  1  0.24926282  0.00249759  0.25169258  1
  V  V77  1  0.50110921  0.87635453  0.37017604  1
  V  V78  1  0.50328366  0.25240542  0.24813832  1
  V  V79  1  0.00157713  0.11975582  0.62778624  1
  V  V80  1  0.38494604  0.64584456  0.74603073  1
  V  V81  1  0.00463348  0.00439963  -0.00065316  1
  V  V82  1  0.25271235  0.37681989  0.61994839  1
  V  V83  1  0.62495391  0.62410530  0.00440018  1
  V  V84  1  0.12797894  0.24560522  0.37632292  1
  Zn  Zn85  1  0.01192881  0.73488504  0.75403508  1
  Zn  Zn86  1  0.12271814  0.87277320  0.74379209  1
  Zn  Zn87  1  0.49701177  0.51619350  0.50152584  1
  Zn  Zn88  1  -0.00084893  0.74787847  0.24819161  1
  Zn  Zn89  1  0.62111424  0.37816032  0.24877652  1
  Zn  Zn90  1  0.37642195  0.24852359  0.12259603  1
  Zn  Zn91  1  0.75298880  0.25053277  0.00343248  1
  Zn  Zn92  1  0.87505228  0.25499408  0.12102874  1
  Zn  Zn93  1  -0.00030683  0.62172546  0.12389444  1
  Zn  Zn94  1  0.62384917  0.24775370  0.37717999  1
  Zn  Zn95  1  0.00066877  0.00127872  0.49967615  1
  Zn  Zn96  1  0.76275477  0.61001635  0.87745303  1
  Zn  Zn97  1  0.38093145  0.50616268  0.87104607  1
  Zn  Zn98  1  0.12196770  0.49918022  0.12103571  1
  Zn  Zn99  1  0.49718722  0.64287335  0.62285530  1
  Zn  Zn100  1  0.37072264  0.75561047  0.12740249  1
  Zn  Zn101  1  0.75240109  0.61593870  0.38413980  1
  Zn  Zn102  1  0.49981490  0.75035894  0.24784666  1
  Zn  Zn103  1  0.37793768  0.87666181  0.50200614  1
  Zn  Zn104  1  0.50763303  0.00413522  -0.00297321  1
  Zn  Zn105  1  0.50956456  0.00681384  0.49146539  1
  Zn  Zn106  1  0.36974840  0.49219731  0.38558411  1
  Zn  Zn107  1  0.18658792  0.18606162  0.18569794  1
  Zn  Zn108  1  0.18633952  0.18886973  0.68704749  1
  Zn  Zn109  1  0.18510172  0.68585310  0.18151834  1
  Zn  Zn110  1  0.18740454  0.69207171  0.68698402  1
  Zn  Zn111  1  0.68983683  0.18804567  0.18782985  1
  Zn  Zn112  1  0.69035171  0.18699168  0.68891775  1
  Zn  Zn113  1  0.69047177  0.68417781  0.18756363  1
  Zn  Zn114  1  0.69909311  0.67953245  0.68959210  1
  Zn  Zn115  1  0.31466451  0.31074114  0.31215044  1
  Zn  Zn116  1  0.31519624  0.31513389  0.81111323  1
  Zn  Zn117  1  0.31096483  0.81425379  0.31272672  1
  Zn  Zn118  1  0.30632377  0.81631049  0.81505977  1
  Zn  Zn119  1  0.81201049  0.31067521  0.31156270  1
  Zn  Zn120  1  0.80744893  0.30619266  0.81396670  1
  Zn  Zn121  1  0.81382799  0.80960358  0.31379666  1
  Zn  Zn122  1  0.81625353  0.80688111  0.81490694  1
  Zn  Zn123  1  0.18639403  0.43624307  0.43849274  1
  Zn  Zn124  1  0.18502723  0.44182878  0.93472890  1
  Zn  Zn125  1  0.18896036  0.93827499  0.43487896  1
  Zn  Zn126  1  0.18836335  0.93923897  0.93654705  1
  Zn  Zn127  1  0.67916071  0.43571928  0.44053796  1
  Zn  Zn128  1  0.68659590  0.43688105  0.93800680  1
  Zn  Zn129  1  0.69245484  0.93188834  0.43518109  1
  Zn  Zn130  1  0.68790135  0.93213958  0.93808485  1
  Zn  Zn131  1  0.31363698  0.06480267  0.06290727  1
  Zn  Zn132  1  0.31344864  0.06662287  0.56244663  1
  Zn  Zn133  1  0.31222077  0.56358439  0.06131193  1
  Zn  Zn134  1  0.31945931  0.56638097  0.56393517  1
  Zn  Zn135  1  0.81818540  0.06514390  0.06777425  1
  Zn  Zn136  1  0.81361959  0.06107068  0.56226515  1
  Zn  Zn137  1  0.80821192  0.56289762  0.06991492  1
  Zn  Zn138  1  0.81332240  0.56000026  0.57172082  1
  Zn  Zn139  1  0.43498989  0.43847050  0.18882728  1
  Zn  Zn140  1  0.44204935  0.44058498  0.68654228  1
  Zn  Zn141  1  0.44176587  0.94149069  0.18729077  1
  Zn  Zn142  1  0.42904372  0.94343733  0.68322728  1
  Zn  Zn143  1  0.93311488  0.43840053  0.18465584  1
  Zn  Zn144  1  0.93991508  0.43126735  0.68596882  1
  Zn  Zn145  1  0.94102125  0.93653080  0.18677661  1
  Zn  Zn146  1  0.93523031  0.93910842  0.68782048  1
  Zn  Zn147  1  0.06622274  0.06326527  0.31269277  1
  Zn  Zn148  1  0.05948887  0.06546396  0.81476500  1
  Zn  Zn149  1  0.06191565  0.56172932  0.31454567  1
  Zn  Zn150  1  0.06069492  0.55846272  0.81439343  1
  Zn  Zn151  1  0.56499777  0.06256285  0.30448736  1
  Zn  Zn152  1  0.56231832  0.06092011  0.80708924  1
  Zn  Zn153  1  0.55919200  0.56048584  0.31491009  1
  Zn  Zn154  1  0.59770920  0.54409737  0.82453318  1
  Zn  Zn155  1  0.43545241  0.18983307  0.43535654  1
  Zn  Zn156  1  0.43435301  0.18846021  0.93921256  1
  Zn  Zn157  1  0.43925354  0.68507659  0.43589780  1
  Zn  Zn158  1  0.43442231  0.68989883  0.93414652  1
  Zn  Zn159  1  0.93599577  0.18904271  0.43921131  1
  Zn  Zn160  1  0.93542159  0.18954009  0.93907597  1
  Zn  Zn161  1  0.93828659  0.69112570  0.43838376  1
  Zn  Zn162  1  0.93696642  0.68483113  0.93656718  1
  Zn  Zn163  1  0.06032826  0.31524485  0.05959684  1
  Zn  Zn164  1  0.06100072  0.31026913  0.56323937  1
  Zn  Zn165  1  0.06083614  0.81122547  0.06042675  1
  Zn  Zn166  1  0.06882320  0.81866014  0.56353317  1
  Zn  Zn167  1  0.56782796  0.31585651  0.06674803  1
  Zn  Zn168  1  0.56661715  0.31272339  0.56022372  1
  Zn  Zn169  1  0.55865774  0.81368158  0.06414930  1
  Zn  Zn170  1  0.56228668  0.81210458  0.54386080  1
  O  O171  1  0.11199313  0.11549190  0.13098332  1
  O  O172  1  0.11305304  0.13517072  0.61714621  1
  O  O173  1  0.12046444  0.62122894  0.11123404  1
  O  O174  1  0.13027619  0.61672198  0.61372911  1
  O  O175  1  0.61867418  0.11472149  0.13147006  1
  O  O176  1  0.61837343  0.11579568  0.62952194  1
  O  O177  1  0.61557983  0.63178950  0.11336261  1
  O  O178  1  0.62553281  0.61691147  0.63005010  1
  O  O179  1  0.39052353  0.37496610  0.36794228  1
  O  O180  1  0.38494204  0.37623511  0.88522463  1
  O  O181  1  0.38391435  0.88540842  0.37091810  1
  O  O182  1  0.38060551  0.88349995  0.88057488  1
  O  O183  1  0.88219150  0.36953809  0.38771077  1
  O  O184  1  0.88680264  0.36845570  0.86894232  1
  O  O185  1  0.88766966  0.86351546  0.38513182  1
  O  O186  1  0.88200637  0.88008467  0.88518575  1
  O  O187  1  0.25765224  -0.00232060  0.36070679  1
  O  O188  1  0.25611814  0.00763279  0.86894963  1
  O  O189  1  0.24790988  0.50557333  0.36791405  1
  O  O190  1  0.25231587  0.51048551  0.86577443  1
  O  O191  1  0.74886843  0.00502111  0.36402111  1
  O  O192  1  0.75277996  0.00137294  0.86796654  1
  O  O193  1  0.74595770  0.49919050  0.36508260  1
  O  O194  1  0.70355015  0.51612341  0.86544948  1
  O  O195  1  0.24830565  0.49349786  0.13179552  1
  O  O196  1  0.24103181  0.49371387  0.62899171  1
  O  O197  1  0.23868097  1.00521915  0.13134468  1
  O  O198  1  0.25494197  1.00011806  0.63634204  1
  O  O199  1  0.75289056  0.48922481  0.13932877  1
  O  O200  1  0.73898840  0.48673761  0.62117804  1
  O  O201  1  0.74545410  1.00645444  0.13810303  1
  O  O202  1  0.74565602  0.99170970  0.63047656  1
  O  O203  1  0.00314313  0.37311339  0.25764051  1
  O  O204  1  0.00964825  0.38024478  0.76377933  1
  O  O205  1  0.01048281  0.87206822  0.25646240  1
  O  O206  1  -0.00088949  0.88340044  0.76616450  1
  O  O207  1  0.49989456  0.36682943  0.25163743  1
  O  O208  1  0.49170883  0.36435011  0.76069730  1
  O  O209  1  0.50827309  0.87435670  0.25689688  1
  O  O210  1  0.50018984  0.88349278  0.75645372  1
  O  O211  1  0.49401209  0.13170380  0.24009691  1
  O  O212  1  0.49463976  0.13212245  0.73956554  1
  O  O213  1  0.49068653  0.62467608  0.24428548  1
  O  O214  1  0.48426408  0.62784039  0.74764823  1
  O  O215  1  0.99652998  0.12947126  0.24649654  1
  O  O216  1  0.98643891  0.12081013  0.74425786  1
  O  O217  1  0.98967596  0.62372824  0.24898896  1
  O  O218  1  0.98867108  0.62115326  0.75180477  1
  O  O219  1  0.36416691  0.25977868  0.00019294  1
  O  O220  1  0.36579836  0.24626659  0.50898222  1
  O  O221  1  0.36643857  0.76014367  0.00011948  1
  O  O222  1  0.36048387  0.75553284  0.48644442  1
  O  O223  1  0.86635961  0.23947409  0.00827248  1
  O  O224  1  0.86708950  0.25772438  0.50685113  1
  O  O225  1  0.86945948  0.75376534  0.00539059  1
  O  O226  1  0.87258621  0.75637658  0.51182986  1
  O  O227  1  0.13044834  0.24448556  0.49419569  1
  O  O228  1  0.13703204  0.25776204  0.99145708  1
  O  O229  1  0.12925053  0.74340142  0.49351201  1
  O  O230  1  0.13051881  0.74066194  1.00107105  1
  O  O231  1  0.64044722  0.24765641  0.49922774  1
  O  O232  1  0.62657322  0.24688093  0.99129213  1
  O  O233  1  0.64042503  0.75643770  0.48722925  1
  O  O234  1  0.63276362  0.74871755  0.99830434  1
  O  O235  1  0.49939600  0.24425599  0.13037513  1
  O  O236  1  0.49649411  0.24718280  0.63037396  1
  O  O237  1  0.49377660  0.73802728  0.12603866  1
  O  O238  1  0.51439075  0.76441491  0.63645520  1
  O  O239  1  1.00280768  0.24268102  0.13066418  1
  O  O240  1  0.98513044  0.24204645  0.61997632  1
  O  O241  1  0.98742816  0.74540224  0.12461992  1
  O  O242  1  0.99045596  0.75395426  0.62207209  1
  O  O243  1  0.00664091  0.26084970  0.37284507  1
  O  O244  1  0.00836766  0.26299753  0.88303045  1
  O  O245  1  0.01256377  0.75659073  0.37391067  1
  O  O246  1  -0.00532630  0.76550334  0.87503829  1
  O  O247  1  0.50024847  0.25682537  0.36699535  1
  O  O248  1  0.50405499  0.25171231  0.86919707  1
  O  O249  1  0.50919951  0.75925117  0.37059456  1
  O  O250  1  0.50463665  0.76485774  0.87720018  1
  O  O251  1  0.24147425  0.14005856  0.50734820  1
  O  O252  1  0.25468685  0.13696553  0.99262293  1
  O  O253  1  0.24267206  0.63403927  0.49565018  1
  O  O254  1  0.24364672  0.62935621  0.99180452  1
  O  O255  1  0.76116169  0.13114297  0.48868568  1
  O  O256  1  0.75229369  0.11631025  0.98678316  1
  O  O257  1  0.75989408  0.63613091  0.50176901  1
  O  O258  1  0.74076169  0.62980506  0.99920061  1
  O  O259  1  0.25720280  0.37229852  0.00057767  1
  O  O260  1  0.24242250  0.36593262  0.51341096  1
  O  O261  1  0.25782391  0.86634889  -0.00868870  1
  O  O262  1  0.25017029  0.86904086  0.50342101  1
  O  O263  1  0.74611147  0.37724200  0.01333065  1
  O  O264  1  0.75655797  0.36699257  0.50466001  1
  O  O265  1  0.76175715  0.86546342  -0.00235536  1
  O  O266  1  0.75864892  0.86578759  0.51028594  1
  O  O267  1  0.13468868  0.49581850  0.24857744  1
  O  O268  1  0.13432380  0.49350178  0.74354109  1
  O  O269  1  0.13283844  0.99424348  0.24472759  1
  O  O270  1  0.13612598  1.00102749  0.75665593  1
  O  O271  1  0.63769738  0.50337626  0.24990706  1
  O  O272  1  0.61584977  0.48868788  0.72591846  1
  O  O273  1  0.63504031  0.99162246  0.24188326  1
  O  O274  1  0.63823581  1.00088114  0.74033922  1
  O  O275  1  0.36858059  0.00531546  0.25458005  1
  O  O276  1  0.36793315  0.00810156  0.76120899  1
  O  O277  1  0.36173530  0.50630683  0.25312245  1
  O  O278  1  0.36272907  0.50189389  0.74953148  1
  O  O279  1  0.86910538  0.00504102  0.24648389  1
  O  O280  1  0.86299720  0.00586312  0.75355152  1
  O  O281  1  0.86839322  0.51083295  0.25178463  1
  O  O282  1  0.87559038  0.50763453  0.74123849  1
  O  O283  1  0.11806195  0.36598746  0.37103438  1
  O  O284  1  0.12240432  0.36721368  0.86809630  1
  O  O285  1  0.12001058  0.86805103  0.36794164  1
  O  O286  1  0.10907876  0.88056429  0.87604164  1
  O  O287  1  0.61072186  0.36945494  0.37042417  1
  O  O288  1  0.61094710  0.36095612  0.88114132  1
  O  O289  1  0.62017792  0.86980982  0.36405244  1
  O  O290  1  0.61669124  0.86390562  0.87659138  1
  O  O291  1  0.38348448  0.12423188  0.13525725  1
  O  O292  1  0.38301179  0.13617779  0.62975857  1
  O  O293  1  0.37821357  0.62577952  0.13607951  1
  O  O294  1  0.37144063  0.63212528  0.64191605  1
  O  O295  1  0.89004053  0.12296180  0.13865560  1
  O  O296  1  0.87821736  0.13134397  0.63172375  1
  O  O297  1  0.87645289  0.63042906  0.13769216  1
  O  O298  1  0.87563479  0.63724626  0.63485223  1
  O  O299  1  0.25060510  0.25543901  0.11613137  1
  O  O300  1  0.25824458  0.25772770  0.62127364  1
  O  O301  1  0.25239308  0.74678142  0.10943993  1
  O  O302  1  0.24698513  0.76076456  0.61256722  1
  O  O303  1  0.75016820  0.26261287  0.12672562  1
  O  O304  1  0.75929980  0.25354776  0.61899203  1
  O  O305  1  0.76119948  0.74433324  0.11397851  1
  O  O306  1  0.75980175  0.75545565  0.62077123  1
  O  O307  1  0.24187211  0.25749511  0.38534521  1
  O  O308  1  0.24447233  0.24779923  0.88004241  1
  O  O309  1  0.23793059  0.74684879  0.37964813  1
  O  O310  1  0.25154378  0.73913471  0.88442197  1
  O  O311  1  0.74975907  0.24042895  0.38202992  1
  O  O312  1  0.73836083  0.23885358  0.87683775  1
  O  O313  1  0.74526942  0.74702641  0.38406126  1
  O  O314  1  0.74356837  0.74703264  0.88694910  1
  O  O315  1  -0.00344882  0.11225504  0.00759117  1
  O  O316  1  0.00587472  0.12415915  0.50719548  1
  O  O317  1  0.00522459  0.61246582  -0.00353584  1
  O  O318  1  0.00732426  0.61451084  0.49398743  1
  O  O319  1  0.49325584  0.12350681  0.01421232  1
  O  O320  1  0.49814328  0.12604550  0.51152572  1
  O  O321  1  0.49986733  0.61967076  0.00668017  1
  O  O322  1  0.50158392  0.63299704  0.50894683  1
  O  O323  1  0.49711725  0.36657175  0.48718774  1
  O  O324  1  0.49397088  0.38155984  0.99832994  1
  O  O325  1  0.49720926  0.88350066  0.48372670  1
  O  O326  1  0.49122915  0.87983361  0.99177538  1
  O  O327  1  0.99367190  0.38079352  0.49480490  1
  O  O328  1  0.99978535  0.38563604  0.98940786  1
  O  O329  1  0.99621248  0.87767004  0.49265113  1
  O  O330  1  0.99476081  0.88319468  0.99066971  1
  O  O331  1  0.49934667  0.48577677  0.37712138  1
  O  O332  1  0.50277808  0.49097971  0.88197892  1
  O  O333  1  0.49453342  0.99587443  0.37102757  1
  O  O334  1  0.49371737  0.99365833  0.87586956  1
  O  O335  1  1.00659822  0.48673968  0.38540252  1
  O  O336  1  1.00231502  0.48473501  0.88558351  1
  O  O337  1  1.00503838  0.98773716  0.37588914  1
  O  O338  1  0.99349136  0.99622124  0.88369754  1
  O  O339  1  0.00967488  0.00504259  0.11843417  1
  O  O340  1  -0.00564793  0.01484495  0.62202197  1
  O  O341  1  -0.00024605  0.49783789  0.11034137  1
  O  O342  1  0.01402039  0.49136035  0.61603974  1
  O  O343  1  0.51162212  0.00863179  0.12436430  1
  O  O344  1  0.50791034  0.00912933  0.62305907  1
  O  O345  1  0.49254572  0.51333405  0.11907601  1
  O  O346  1  0.50711501  0.50599274  0.62221739  1
  O  O347  1  0.24625607  0.38127076  0.24559982  1
  O  O348  1  0.24462918  0.38246171  0.74191389  1
  O  O349  1  0.23773464  0.88234221  0.25082111  1
  O  O350  1  0.24966453  0.88699149  0.74357947  1
  O  O351  1  0.74768133  0.38656118  0.25113127  1
  O  O352  1  0.75572634  0.37108634  0.73514757  1
  O  O353  1  0.74543138  0.88234326  0.25417369  1
  O  O354  1  0.75904841  0.87991646  0.73945313  1
  O  O355  1  0.25881686  0.11638015  0.24483478  1
  O  O356  1  0.25469109  0.12173675  0.75536648  1
  O  O357  1  0.25262182  0.61819958  0.25258952  1
  O  O358  1  0.25370445  0.62045302  0.75577189  1
  O  O359  1  0.75995530  0.11877582  0.25797020  1
  O  O360  1  0.75791867  0.11629342  0.75742201  1
  O  O361  1  0.75926716  0.61245021  0.25134846  1
  O  O362  1  0.77548798  0.63273204  0.75649127  1
  O  O363  1  0.38156599  0.11856022  0.35978613  1
  O  O364  1  0.37006472  0.11892741  0.87046435  1
  O  O365  1  0.36709180  0.62552537  0.36206987  1
  O  O366  1  0.36697268  0.62464822  0.86378495  1
  O  O367  1  0.87152323  0.12678114  0.36436520  1
  O  O368  1  0.86939150  0.11746472  0.86759096  1
  O  O369  1  0.87340048  0.63264891  0.36065875  1
  O  O370  1  0.87841591  0.62032422  0.86307220  1
  O  O371  1  0.13046955  0.37566279  0.13311707  1
  O  O372  1  0.13084790  0.37873614  0.63238765  1
  O  O373  1  0.11790428  0.88458160  0.13278443  1
  O  O374  1  0.14042370  0.88351395  0.62344955  1
  O  O375  1  0.64050309  0.37416225  0.13263322  1
  O  O376  1  0.64007220  0.36560213  0.62839075  1
  O  O377  1  0.62032735  0.88023869  0.13807229  1
  O  O378  1  0.63116435  0.87590775  0.63323947  1
  O  O379  1  0.12076214  0.25419793  0.25803332  1
  O  O380  1  0.12977217  0.26335352  0.75661211  1
  O  O381  1  0.12492014  0.75596225  0.25479072  1
  O  O382  1  0.12101654  0.75803552  0.74597820  1
  O  O383  1  0.61167150  0.24762187  0.25290743  1
  O  O384  1  0.61375759  0.24415672  0.75827854  1
  O  O385  1  0.62791659  0.75658156  0.25491263  1
  O  O386  1  0.63293345  0.74959787  0.75954259  1
  O  O387  1  0.38300014  0.24221135  0.24600896  1
  O  O388  1  0.38270451  0.24515693  0.74348290  1
  O  O389  1  0.37391839  0.74247545  0.24738398  1
  O  O390  1  0.37402028  0.74499771  0.75600512  1
  O  O391  1  0.88389128  0.24094798  0.24826907  1
  O  O392  1  0.86921965  0.23845431  0.74183763  1
  O  O393  1  0.87462844  0.74092914  0.24204207  1
  O  O394  1  0.88593289  0.75183160  0.73796991  1
  O  O395  1  0.37998550  0.50336730  0.49748487  1
  O  O396  1  0.38374492  0.49503632  0.99548358  1
  O  O397  1  0.37402018  1.00515665  0.48358606  1
  O  O398  1  0.37282031  0.99541889  0.98840825  1
  O  O399  1  0.88528837  0.49242689  0.50841691  1
  O  O400  1  0.88478768  0.50658148  1.00022420  1
  O  O401  1  0.87570731  0.98308422  0.50390079  1
  O  O402  1  0.88254143  0.99198638  0.99906360  1
  O  O403  1  0.11808195  -0.00294063  0.00794241  1
  O  O404  1  0.12730605  0.01759488  0.49199186  1
  O  O405  1  0.11719571  0.50719402  0.00050116  1
  O  O406  1  0.11919733  0.50675073  0.50652395  1
  O  O407  1  0.62731518  -0.00873115  0.01547844  1
  O  O408  1  0.62882596  -0.00893419  0.51470017  1
  O  O409  1  0.60985171  0.50926699  0.00388580  1
  O  O410  1  0.61676026  0.48763090  0.52019561  1
  O  O411  1  0.36937463  0.37440832  0.11278450  1
  O  O412  1  0.36766330  0.36439234  0.63148666  1
  O  O413  1  0.37961815  0.87921011  0.11133310  1
  O  O414  1  0.35939721  0.88389990  0.61741847  1
  O  O415  1  0.85606502  0.37202364  0.13461408  1
  O  O416  1  0.86841384  0.36807346  0.61668820  1
  O  O417  1  0.88245605  0.86661996  0.11359506  1
  O  O418  1  0.87062738  0.86549445  0.62031472  1
  O  O419  1  0.11956188  0.13958617  0.38237445  1
  O  O420  1  0.12733291  0.14198829  0.86934466  1
  O  O421  1  0.12908453  0.63151692  0.38341932  1
  O  O422  1  0.13247666  0.61962205  0.88461137  1
  O  O423  1  0.63883600  0.12451458  0.37062178  1
  O  O424  1  0.63186374  0.12875049  0.87087288  1
  O  O425  1  0.62822628  0.63670511  0.36881214  1
  O  O426  1  0.60916853  0.64397582  0.89138128  1
