# generated using pymatgen
data_V85Zn86O256
_symmetry_space_group_name_H-M   'P 1'
_cell_length_a   16.91156452
_cell_length_b   16.90965669
_cell_length_c   16.91315245
_cell_angle_alpha   89.96134110
_cell_angle_beta   90.00233037
_cell_angle_gamma   90.02499813
_symmetry_Int_Tables_number   1
_chemical_formula_structural   V85Zn86O256
_chemical_formula_sum   'V85 Zn86 O256'
_cell_volume   4836.63150178
_cell_formula_units_Z   1
loop_
 _symmetry_equiv_pos_site_id
 _symmetry_equiv_pos_as_xyz
  1  'x, y, z'
loop_
 _atom_site_type_symbol
 _atom_site_label
 _atom_site_symmetry_multiplicity
 _atom_site_fract_x
 _atom_site_fract_y
 _atom_site_fract_z
 _atom_site_occupancy
  V  V0  1  0.24639248  -0.00255258  0.24896221  1
  V  V1  1  0.12196056  0.74793909  0.87175006  1
  V  V2  1  0.74303047  0.00177004  0.24795965  1
  V  V3  1  0.25058902  0.87663295  0.62602093  1
  V  V4  1  0.49975010  0.74188508  0.24786338  1
  V  V5  1  0.62434891  0.51397457  0.12644201  1
  V  V6  1  0.00071399  0.37805462  0.37755398  1
  V  V7  1  0.23416835  0.49869567  0.74979334  1
  V  V8  1  -0.00162289  0.24960054  0.24848441  1
  V  V9  1  -0.01105121  0.13750057  0.62871348  1
  V  V10  1  0.50881617  0.50172516  0.49393549  1
  V  V11  1  0.87137900  -0.00358839  0.37445146  1
  V  V12  1  0.24978128  0.12579500  0.87299906  1
  V  V13  1  0.63003664  0.88278873  0.73013562  1
  V  V14  1  0.12707625  0.49955783  0.12750609  1
  V  V15  1  0.87206338  0.86740330  0.51246099  1
  V  V16  1  0.87531266  0.63849690  0.74319704  1
  V  V17  1  0.37653135  0.24959264  0.12558586  1
  V  V18  1  0.87156232  0.87798104  -0.00605041  1
  V  V19  1  0.75031226  0.36469684  0.63151594  1
  V  V20  1  0.75328297  0.49947570  0.25152316  1
  V  V21  1  0.00513170  0.75818916  0.24783884  1
  V  V22  1  0.38406126  0.37298254  0.49939800  1
  V  V23  1  0.74044263  0.74503139  -0.00085596  1
  V  V24  1  0.25079398  0.25450914  -0.00177029  1
  V  V25  1  0.00701685  0.63939806  0.62610581  1
  V  V26  1  -0.00033170  0.62499271  0.12509438  1
  V  V27  1  0.24489516  0.87122263  0.12745527  1
  V  V28  1  0.50724043  0.87314119  0.87354944  1
  V  V29  1  0.24947394  0.12375127  0.37660296  1
  V  V30  1  0.50956294  0.62606108  0.61884150  1
  V  V31  1  0.37641035  -0.00054113  0.87376142  1
  V  V32  1  0.74805789  0.25257874  -0.01304565  1
  V  V33  1  0.12438419  0.12675573  -0.00081285  1
  V  V34  1  0.74165591  0.62151566  0.87542409  1
  V  V35  1  0.12647023  0.75643860  0.37167518  1
  V  V36  1  0.38998786  0.37811815  -0.00064913  1
  V  V37  1  0.63201581  0.12186255  -0.00049538  1
  V  V38  1  0.62532061  0.24970999  0.37829015  1
  V  V39  1  0.37693097  0.74244400  0.12228283  1
  V  V40  1  0.87724501  0.13426752  0.76508871  1
  V  V41  1  -0.00053008  0.49319535  -0.00057727  1
  V  V42  1  0.37525691  0.12419756  0.25007384  1
  V  V43  1  0.13039598  0.38082057  0.25203765  1
  V  V44  1  0.38009441  0.25121730  0.63470087  1
  V  V45  1  0.60393511  0.25991448  0.86561441  1
  V  V46  1  0.12266104  0.87303978  0.74962107  1
  V  V47  1  0.25257743  0.38043992  0.12669744  1
  V  V48  1  -0.00586202  0.87267140  0.86835534  1
  V  V49  1  0.36877872  0.61874669  0.24860437  1
  V  V50  1  0.37513934  -0.00044515  0.37570615  1
  V  V51  1  0.24538920  0.74436924  0.50056554  1
  V  V52  1  0.74641611  0.74831389  0.51380699  1
  V  V53  1  0.74376566  0.62721512  0.38063436  1
  V  V54  1  0.62245783  0.87501686  0.24637894  1
  V  V55  1  0.62053412  0.37650325  0.25188925  1
  V  V56  1  0.87039404  0.25131826  0.12299794  1
  V  V57  1  0.49917727  0.25297339  0.25633648  1
  V  V58  1  0.49941559  0.87361686  0.37460677  1
  V  V59  1  0.74820646  0.49694484  0.74764108  1
  V  V60  1  0.76452168  -0.00017390  0.74990060  1
  V  V61  1  0.01357281  0.50500054  0.51103108  1
  V  V62  1  0.87650169  0.50233083  0.38229518  1
  V  V63  1  0.24351800  0.61829151  0.37648097  1
  V  V64  1  0.37452209  0.62479938  0.74460224  1
  V  V65  1  0.76043673  0.24649667  0.50187159  1
  V  V66  1  0.12226626  -0.00287137  0.12873362  1
  V  V67  1  0.24012791  0.37931812  0.62556911  1
  V  V68  1  0.50288291  0.00054249  0.00809837  1
  V  V69  1  0.37505940  0.49473420  0.37293623  1
  V  V70  1  0.40882400  0.48369524  0.84861072  1
  V  V71  1  0.51020758  0.12627978  0.63491298  1
  V  V72  1  0.50984348  0.00098788  0.50478284  1
  V  V73  1  0.50263217  0.52576226  0.01138077  1
  V  V74  1  0.12287328  0.25503460  0.86058750  1
  V  V75  1  0.37479021  0.87187535  -0.00083114  1
  V  V76  1  0.74603046  0.88007424  0.12297983  1
  V  V77  1  0.37427371  0.87519506  0.50076285  1
  V  V78  1  -0.00322891  -0.00160628  0.50291564  1
  V  V79  1  -0.00425857  0.00164414  -0.00541297  1
  V  V80  1  0.00241544  0.37478705  0.85515961  1
  V  V81  1  0.12560883  0.24920178  0.37479354  1
  V  V82  1  0.12514929  0.62376691  -0.00337567  1
  V  V83  1  0.87466267  0.75014227  0.12464029  1
  V  V84  1  0.12544478  0.12479647  0.50436578  1
  Zn  Zn85  1  0.87447674  0.50150587  0.87369314  1
  Zn  Zn86  1  0.87287048  0.37672517  -0.00292311  1
  Zn  Zn87  1  0.50282131  0.74935180  0.74751111  1
  Zn  Zn88  1  0.24917596  0.74736925  -0.00184103  1
  Zn  Zn89  1  0.87899756  0.37165701  0.50673356  1
  Zn  Zn90  1  0.62967928  0.12266218  0.50475824  1
  Zn  Zn91  1  0.62109987  0.74547957  0.87336431  1
  Zn  Zn92  1  0.50483673  0.12122622  0.12830641  1
  Zn  Zn93  1  0.25021957  0.00048741  0.75030907  1
  Zn  Zn94  1  0.62388917  0.74550950  0.37848697  1
  Zn  Zn95  1  0.37558642  0.74806054  0.62400519  1
  Zn  Zn96  1  0.62791714  0.49682071  0.62109374  1
  Zn  Zn97  1  0.12400322  0.00232302  0.62930413  1
  Zn  Zn98  1  0.74823043  0.37635977  0.12176527  1
  Zn  Zn99  1  0.87209365  0.12483893  0.24972887  1
  Zn  Zn100  1  -0.00131389  0.12509225  0.12440824  1
  Zn  Zn101  1  0.25387935  0.24943092  0.50250448  1
  Zn  Zn102  1  0.38093232  0.13075325  0.75460526  1
  Zn  Zn103  1  0.87726271  0.62714126  0.25270714  1
  Zn  Zn104  1  0.00220085  0.87554599  0.37216771  1
  Zn  Zn105  1  0.74954293  0.12349142  0.37672570  1
  Zn  Zn106  1  0.25541386  0.62039537  0.87348623  1
  Zn  Zn107  1  0.18723316  0.18829824  0.18627337  1
  Zn  Zn108  1  0.19061585  0.18868668  0.68497072  1
  Zn  Zn109  1  0.18797686  0.68608654  0.18913510  1
  Zn  Zn110  1  0.18555259  0.68884005  0.68816187  1
  Zn  Zn111  1  0.68676562  0.18658266  0.18343396  1
  Zn  Zn112  1  0.69311051  0.18497549  0.69613477  1
  Zn  Zn113  1  0.69167213  0.68951874  0.19257963  1
  Zn  Zn114  1  0.68470047  0.68834568  0.69301131  1
  Zn  Zn115  1  0.31180613  0.31281000  0.31476133  1
  Zn  Zn116  1  0.31254963  0.31717467  0.81149261  1
  Zn  Zn117  1  0.31161996  0.81063772  0.31056251  1
  Zn  Zn118  1  0.31055794  0.80988334  0.81304592  1
  Zn  Zn119  1  0.81231471  0.31478247  0.31530910  1
  Zn  Zn120  1  0.81665658  0.31302659  0.81167026  1
  Zn  Zn121  1  0.81404980  0.81230913  0.31425338  1
  Zn  Zn122  1  0.80499060  0.81344185  0.81060582  1
  Zn  Zn123  1  0.19132175  0.43721915  0.44195541  1
  Zn  Zn124  1  0.18856078  0.43675984  0.93413503  1
  Zn  Zn125  1  0.18546227  0.93676231  0.43891664  1
  Zn  Zn126  1  0.18579131  0.93716781  0.93977388  1
  Zn  Zn127  1  0.69101544  0.42955523  0.43798699  1
  Zn  Zn128  1  0.68039515  0.43734094  0.93766710  1
  Zn  Zn129  1  0.68880367  0.92987828  0.43669247  1
  Zn  Zn130  1  0.69015163  0.94380339  0.93214605  1
  Zn  Zn131  1  0.31284860  0.06232097  0.06061829  1
  Zn  Zn132  1  0.31742667  0.06260708  0.56543426  1
  Zn  Zn133  1  0.31260474  0.56006846  0.05956202  1
  Zn  Zn134  1  0.31372071  0.55966567  0.56140703  1
  Zn  Zn135  1  0.81233952  0.06475734  0.06178619  1
  Zn  Zn136  1  0.80703538  0.05747880  0.56947325  1
  Zn  Zn137  1  0.81238317  0.56240188  0.06167865  1
  Zn  Zn138  1  0.81422871  0.56278181  0.56533938  1
  Zn  Zn139  1  0.44031414  0.43807832  0.18810608  1
  Zn  Zn140  1  0.43525954  0.44281322  0.67866633  1
  Zn  Zn141  1  0.43354951  0.93238415  0.18736171  1
  Zn  Zn142  1  0.44039603  0.93923018  0.68871357  1
  Zn  Zn143  1  0.93708194  0.43509096  0.18836763  1
  Zn  Zn144  1  0.92811933  0.44249603  0.68457311  1
  Zn  Zn145  1  0.93377922  0.93691301  0.18518703  1
  Zn  Zn146  1  0.93753271  0.93934952  0.68696858  1
  Zn  Zn147  1  0.06022053  0.06223836  0.31358563  1
  Zn  Zn148  1  0.06019189  0.06157961  0.81158315  1
  Zn  Zn149  1  0.06158296  0.56660250  0.31389237  1
  Zn  Zn150  1  0.05601216  0.56432368  0.80866705  1
  Zn  Zn151  1  0.56336498  0.06371662  0.31459081  1
  Zn  Zn152  1  0.57062565  0.06268383  0.81807139  1
  Zn  Zn153  1  0.56024565  0.56219255  0.31306104  1
  Zn  Zn154  1  0.56001862  0.54937418  0.80489055  1
  Zn  Zn155  1  0.44031040  0.18692450  0.44175368  1
  Zn  Zn156  1  0.44118774  0.18678684  0.93894445  1
  Zn  Zn157  1  0.43348156  0.68533865  0.43649221  1
  Zn  Zn158  1  0.43578666  0.68291276  0.93109882  1
  Zn  Zn159  1  0.93813265  0.18267250  0.43506215  1
  Zn  Zn160  1  0.93955611  0.19366036  0.93674856  1
  Zn  Zn161  1  0.93776671  0.68570799  0.43991918  1
  Zn  Zn162  1  0.93314676  0.68775358  0.93347701  1
  Zn  Zn163  1  0.06439846  0.31089270  0.06170333  1
  Zn  Zn164  1  0.06088030  0.31205753  0.56193200  1
  Zn  Zn165  1  0.06151861  0.81321634  0.05841079  1
  Zn  Zn166  1  0.06431676  0.81251250  0.55974643  1
  Zn  Zn167  1  0.56814935  0.30966035  0.06775346  1
  Zn  Zn168  1  0.56702449  0.31100628  0.56595272  1
  Zn  Zn169  1  0.56028193  0.81036663  0.06397028  1
  Zn  Zn170  1  0.56198385  0.80876776  0.56065307  1
  O  O171  1  0.12414624  0.11753665  0.11713357  1
  O  O172  1  0.11794265  0.12320629  0.61923814  1
  O  O173  1  0.12131556  0.61888386  0.11773518  1
  O  O174  1  0.10680494  0.62817406  0.63167973  1
  O  O175  1  0.62056610  0.13107404  0.10682200  1
  O  O176  1  0.61304760  0.12984442  0.62586988  1
  O  O177  1  0.62851453  0.61350641  0.13503135  1
  O  O178  1  0.61309224  0.62319078  0.62665435  1
  O  O179  1  0.36893107  0.38344422  0.38425649  1
  O  O180  1  0.37029961  0.38798626  0.88511328  1
  O  O181  1  0.37904724  0.87983537  0.37880615  1
  O  O182  1  0.38165496  0.87973213  0.87976550  1
  O  O183  1  0.88442026  0.38422739  0.37738565  1
  O  O184  1  0.89153069  0.37710269  0.87662557  1
  O  O185  1  0.87796945  0.88515587  0.38077923  1
  O  O186  1  0.88158141  0.86856333  0.88197053  1
  O  O187  1  0.25268910  0.00363646  0.36878729  1
  O  O188  1  0.25716267  0.00803684  0.87817843  1
  O  O189  1  0.26038021  0.50770972  0.38067345  1
  O  O190  1  0.25042389  0.49863434  0.85757354  1
  O  O191  1  0.75487352  -0.00171845  0.36667613  1
  O  O192  1  0.73966222  0.00337599  0.85108420  1
  O  O193  1  0.75805169  0.50411534  0.37242129  1
  O  O194  1  0.75079562  0.50477278  0.87025903  1
  O  O195  1  0.24477534  0.48785535  0.12219652  1
  O  O196  1  0.25145096  0.48805524  0.63119539  1
  O  O197  1  0.24253207  0.99346123  0.12783849  1
  O  O198  1  0.24852348  0.98862498  0.62584046  1
  O  O199  1  0.74511226  0.49952911  0.13448757  1
  O  O200  1  0.74915353  0.49105757  0.62912643  1
  O  O201  1  0.75429143  0.98755614  0.13135655  1
  O  O202  1  0.74496742  1.00348055  0.64737191  1
  O  O203  1  0.00774417  0.36592951  0.25562346  1
  O  O204  1  -0.00023430  0.38262105  0.75693129  1
  O  O205  1  -0.00400150  0.86274684  0.25013222  1
  O  O206  1  0.00528193  0.87967605  0.76086479  1
  O  O207  1  0.50778685  0.36634772  0.25004284  1
  O  O208  1  0.48454288  0.44625743  0.78073924  1
  O  O209  1  0.50474855  0.86675165  0.25309067  1
  O  O210  1  0.50800603  0.87333189  0.75628001  1
  O  O211  1  0.49312554  0.13011053  0.24810871  1
  O  O212  1  0.49957277  0.11665281  0.73797959  1
  O  O213  1  0.48820190  0.63567139  0.25578564  1
  O  O214  1  0.49173399  0.62370728  0.73859410  1
  O  O215  1  0.99970743  0.13869764  0.24901706  1
  O  O216  1  0.99151274  0.11651117  0.73656480  1
  O  O217  1  0.99896652  0.63496422  0.24191220  1
  O  O218  1  0.98656498  0.62316984  0.73895566  1
  O  O219  1  0.37080632  0.25847817  0.00463747  1
  O  O220  1  0.37550283  0.25759035  0.50811561  1
  O  O221  1  0.37179440  0.75075347  0.00590995  1
  O  O222  1  0.36233316  0.75803573  0.49800770  1
  O  O223  1  0.86703105  0.25127984  0.00644962  1
  O  O224  1  0.86427694  0.24974767  0.49219519  1
  O  O225  1  0.86741815  0.76031878  0.00529438  1
  O  O226  1  0.86790914  0.76219897  0.49458532  1
  O  O227  1  0.12583818  0.23833370  0.49454528  1
  O  O228  1  0.13266687  0.24485530  0.99391370  1
  O  O229  1  0.13776594  0.75306905  0.49069140  1
  O  O230  1  0.12575641  0.73971366  0.99410279  1
  O  O231  1  0.63373134  0.24991805  0.49096981  1
  O  O232  1  0.63062648  0.24333744  0.99425626  1
  O  O233  1  0.64192960  0.75713968  0.49547751  1
  O  O234  1  0.63724629  0.75257745  1.00082271  1
  O  O235  1  0.49342046  0.24885758  0.13821936  1
  O  O236  1  0.49461148  0.23623009  0.62037505  1
  O  O237  1  0.48794550  0.75432619  0.13455545  1
  O  O238  1  0.49544802  0.74112858  0.62461106  1
  O  O239  1  0.99383265  0.25032424  0.13273945  1
  O  O240  1  0.99975476  0.23621880  0.62150023  1
  O  O241  1  0.99639075  0.74646208  0.12914984  1
  O  O242  1  0.99812968  0.73860762  0.61712760  1
  O  O243  1  0.00557395  0.25533181  0.36888484  1
  O  O244  1  0.00917485  0.26656438  0.87828031  1
  O  O245  1  0.00864704  0.74749775  0.36741374  1
  O  O246  1  0.01143387  0.75966878  0.88221200  1
  O  O247  1  0.50687339  0.24532875  0.36452415  1
  O  O248  1  0.50264547  0.25462285  0.87256158  1
  O  O249  1  0.49912894  0.75563593  0.36765798  1
  O  O250  1  0.50035413  0.75756605  0.87192072  1
  O  O251  1  0.24151842  0.12366236  0.49738555  1
  O  O252  1  0.24690297  0.13147085  0.98956449  1
  O  O253  1  0.25576420  0.63309590  0.49123542  1
  O  O254  1  0.23733441  0.62121745  0.99478798  1
  O  O255  1  0.74804088  0.13057931  0.50046059  1
  O  O256  1  0.73861829  0.13078054  1.00159686  1
  O  O257  1  0.75879420  0.63906365  0.49441121  1
  O  O258  1  0.75648339  0.63399644  0.98980129  1
  O  O259  1  0.25834001  0.37301920  0.00727831  1
  O  O260  1  0.26133952  0.37528772  0.51161976  1
  O  O261  1  0.25644741  0.87389112  0.01005667  1
  O  O262  1  0.25373545  0.87021445  0.50736123  1
  O  O263  1  0.75139961  0.36784074  0.00199190  1
  O  O264  1  0.75489025  0.36426191  0.50812870  1
  O  O265  1  0.75349246  0.87268177  0.00450082  1
  O  O266  1  0.76253525  0.86337500  0.49664621  1
  O  O267  1  0.11868017  0.48762600  0.24657401  1
  O  O268  1  0.13523716  0.50408404  0.74941710  1
  O  O269  1  0.12658067  1.00429810  0.23642334  1
  O  O270  1  0.12832503  0.98727198  0.75109444  1
  O  O271  1  0.63059961  0.49365707  0.24862334  1
  O  O272  1  0.64416932  0.50450000  0.74375802  1
  O  O273  1  0.63426199  0.99188709  0.25298066  1
  O  O274  1  0.62109692  0.98404126  0.75207456  1
  O  O275  1  0.36867424  0.00387118  0.25541581  1
  O  O276  1  0.37308790  -0.00031823  0.76480066  1
  O  O277  1  0.37912569  0.50809019  0.25691371  1
  O  O278  1  0.35881039  0.51060034  0.74648811  1
  O  O279  1  0.86402241  -0.00183973  0.25598103  1
  O  O280  1  0.87034945  0.00434501  0.75197830  1
  O  O281  1  0.86945525  0.49972933  0.26008909  1
  O  O282  1  0.86360891  0.51021014  0.75292355  1
  O  O283  1  0.12324358  0.37060514  0.36954879  1
  O  O284  1  0.11313605  0.36880748  0.87713353  1
  O  O285  1  0.12386060  0.86217180  0.37548423  1
  O  O286  1  0.11918088  0.86811287  0.87042596  1
  O  O287  1  0.63035882  0.36263014  0.36235661  1
  O  O288  1  0.62314171  0.35869171  0.87934232  1
  O  O289  1  0.61846509  0.87126713  0.36206398  1
  O  O290  1  0.61200196  0.87379474  0.87862938  1
  O  O291  1  0.37400678  0.13194755  0.13189076  1
  O  O292  1  0.38217763  0.13515465  0.62875769  1
  O  O293  1  0.36493604  0.63451779  0.13240050  1
  O  O294  1  0.38253219  0.62484450  0.62945131  1
  O  O295  1  0.87744467  0.13714762  0.12768542  1
  O  O296  1  0.88736966  0.12228379  0.62731037  1
  O  O297  1  0.88191695  0.63268162  0.12563540  1
  O  O298  1  0.88176211  0.62325279  0.63766148  1
  O  O299  1  0.25544779  0.25989224  0.11995786  1
  O  O300  1  0.25981995  0.26104231  0.62434877  1
  O  O301  1  0.25475065  0.75642185  0.12304402  1
  O  O302  1  0.24967630  0.75894757  0.61716435  1
  O  O303  1  0.75680089  0.25265208  0.11720197  1
  O  O304  1  0.74656756  0.25687132  0.61903613  1
  O  O305  1  0.75456136  0.75901858  0.12025409  1
  O  O306  1  0.74842276  0.74490627  0.61231472  1
  O  O307  1  0.24324494  0.24194394  0.37863777  1
  O  O308  1  0.24560075  0.24613394  0.87861725  1
  O  O309  1  0.24439775  0.74399504  0.37962621  1
  O  O310  1  0.23718202  0.74493242  0.87745162  1
  O  O311  1  0.74400837  0.24772148  0.38211986  1
  O  O312  1  0.75056414  0.25146260  0.88557320  1
  O  O313  1  0.75008501  0.74047119  0.37877012  1
  O  O314  1  0.74690371  0.74282779  0.88394970  1
  O  O315  1  0.00451456  0.11724673  0.00087083  1
  O  O316  1  0.00442932  0.11876665  0.50871248  1
  O  O317  1  0.00828810  0.61608182  0.00259969  1
  O  O318  1  -0.00560187  0.61498979  0.51320858  1
  O  O319  1  0.50513931  0.11570203  0.00533057  1
  O  O320  1  0.50407943  0.11629654  0.50879875  1
  O  O321  1  0.49548831  0.62413785  0.01388005  1
  O  O322  1  0.49383711  0.61562954  0.50586985  1
  O  O323  1  0.49029699  0.38162521  0.50468572  1
  O  O324  1  0.49054651  0.37574626  1.00933170  1
  O  O325  1  0.49388023  0.88063748  0.49585765  1
  O  O326  1  0.49446622  0.87968531  0.99417713  1
  O  O327  1  1.00009272  0.38647290  0.49641031  1
  O  O328  1  1.00146923  0.38678390  1.00090164  1
  O  O329  1  0.99033193  0.88097893  0.49698935  1
  O  O330  1  0.99050379  0.88026395  0.99210482  1
  O  O331  1  0.48540373  0.50547754  0.38013811  1
  O  O332  1  0.50370619  0.51523740  0.90310750  1
  O  O333  1  0.49403584  0.99408776  0.38086358  1
  O  O334  1  0.49324179  0.99370840  0.88484234  1
  O  O335  1  0.99432170  0.50028356  0.38356865  1
  O  O336  1  1.00218416  0.48928072  0.88132449  1
  O  O337  1  0.99319084  0.99919228  0.38542051  1
  O  O338  1  1.00782052  0.98934118  0.88873840  1
  O  O339  1  0.00566530  -0.00109156  0.11554564  1
  O  O340  1  0.00178367  0.00546166  0.61260699  1
  O  O341  1  0.00586689  0.50386917  0.11919539  1
  O  O342  1  -0.00191460  0.50388605  0.61353017  1
  O  O343  1  0.49328351  -0.00350832  0.11192203  1
  O  O344  1  0.49196638  0.01450103  0.61592997  1
  O  O345  1  0.50842691  0.50085942  0.11894679  1
  O  O346  1  0.50458155  0.50687926  0.61114430  1
  O  O347  1  0.24088894  0.36917315  0.24126711  1
  O  O348  1  0.25289059  0.38728247  0.73756478  1
  O  O349  1  0.25463057  0.88118884  0.23614282  1
  O  O350  1  0.24337213  0.87511409  0.74225256  1
  O  O351  1  0.74462579  0.38738575  0.25084719  1
  O  O352  1  0.75603744  0.37982545  0.73968440  1
  O  O353  1  0.74219590  0.87838672  0.24273683  1
  O  O354  1  0.73899242  0.88373641  0.74934370  1
  O  O355  1  0.25454367  0.11859431  0.25502548  1
  O  O356  1  0.25304578  0.12318930  0.76206034  1
  O  O357  1  0.26077098  0.62748366  0.25879063  1
  O  O358  1  0.25343717  0.61478890  0.74740167  1
  O  O359  1  0.74948657  0.11450132  0.24995897  1
  O  O360  1  0.77014813  0.11737317  0.74847131  1
  O  O361  1  0.75432094  0.61361642  0.25815450  1
  O  O362  1  0.75881320  0.62046100  0.75437272  1
  O  O363  1  0.36922596  0.11980970  0.37138065  1
  O  O364  1  0.36836623  0.11778961  0.87607898  1
  O  O365  1  0.36415243  0.61867815  0.36711963  1
  O  O366  1  0.37810816  0.60661150  0.86255715  1
  O  O367  1  0.87319292  0.10952758  0.37191759  1
  O  O368  1  0.88929390  0.12188099  0.86380471  1
  O  O369  1  0.86751036  0.61728137  0.37359514  1
  O  O370  1  0.86815668  0.62379574  0.86305395  1
  O  O371  1  0.13271419  0.37857184  0.13216477  1
  O  O372  1  0.14181996  0.36990049  0.61881413  1
  O  O373  1  0.13314605  0.88342912  0.11790530  1
  O  O374  1  0.13054542  0.87621729  0.63232031  1
  O  O375  1  0.62781282  0.38212567  0.13885870  1
  O  O376  1  0.64292715  0.37768294  0.62076466  1
  O  O377  1  0.63105341  0.87067617  0.13665843  1
  O  O378  1  0.62021981  0.87839060  0.63204148  1
  O  O379  1  0.11839807  0.25869555  0.25314586  1
  O  O380  1  0.12875027  0.24761708  0.76153451  1
  O  O381  1  0.11713726  0.74753877  0.25659719  1
  O  O382  1  0.12648462  0.76245835  0.75811092  1
  O  O383  1  0.61880314  0.25579208  0.25372345  1
  O  O384  1  0.62643446  0.24257323  0.76814149  1
  O  O385  1  0.61543404  0.75520478  0.25176008  1
  O  O386  1  0.62522342  0.76734542  0.75285282  1
  O  O387  1  0.38160194  0.24583266  0.24825490  1
  O  O388  1  0.37564934  0.25303008  0.73931317  1
  O  O389  1  0.37990075  0.74229261  0.24276211  1
  O  O390  1  0.37312861  0.73538796  0.74963160  1
  O  O391  1  0.88178076  0.25041714  0.24464158  1
  O  O392  1  0.87771249  0.23405866  0.75471698  1
  O  O393  1  0.88164515  0.74961117  0.24138504  1
  O  O394  1  0.86914986  0.73755844  0.75103916  1
  O  O395  1  0.38299738  0.49177922  0.49268906  1
  O  O396  1  0.39101592  0.49583689  1.00290261  1
  O  O397  1  0.38245181  0.99424596  0.49353618  1
  O  O398  1  0.38134398  0.99470878  0.99154078  1
  O  O399  1  0.88201437  0.49911718  0.49084965  1
  O  O400  1  0.88562399  0.49902625  0.99727846  1
  O  O401  1  0.87757993  0.99076023  0.49507675  1
  O  O402  1  0.88139415  0.98859201  1.00483621  1
  O  O403  1  0.11785750  0.00516361  0.00908967  1
  O  O404  1  0.11559679  0.00962471  0.49955148  1
  O  O405  1  0.11954735  0.50539063  0.00444740  1
  O  O406  1  0.11183189  0.50179215  0.49614402  1
  O  O407  1  0.61880545  0.01221016  -0.00383403  1
  O  O408  1  0.61310578  -0.00184866  0.49278161  1
  O  O409  1  0.61248730  0.49993850  0.01339021  1
  O  O410  1  0.61185320  0.49396826  0.49181785  1
  O  O411  1  0.36868225  0.37134717  0.12075584  1
  O  O412  1  0.37203762  0.36903613  0.61819157  1
  O  O413  1  0.36708169  0.86307560  0.11913213  1
  O  O414  1  0.36744532  0.87288465  0.62110632  1
  O  O415  1  0.87362778  0.36309585  0.12358546  1
  O  O416  1  0.85846721  0.37634062  0.62163510  1
  O  O417  1  0.86602318  0.86884407  0.11634738  1
  O  O418  1  0.87791943  0.87603174  0.61088439  1
  O  O419  1  0.12895310  0.12856754  0.38283536  1
  O  O420  1  0.13064543  0.13114894  0.87908064  1
  O  O421  1  0.13818925  0.63366668  0.36930566  1
  O  O422  1  0.12147983  0.63146577  0.88010378  1
  O  O423  1  0.62765845  0.13756037  0.37633705  1
  O  O424  1  0.61492691  0.13773109  0.89292273  1
  O  O425  1  0.63946416  0.62409307  0.37104277  1
  O  O426  1  0.63825022  0.62572440  0.86504365  1
