# generated using pymatgen
data_V85Zn86O256
_symmetry_space_group_name_H-M   'P 1'
_cell_length_a   16.91196165
_cell_length_b   16.90674113
_cell_length_c   16.90911089
_cell_angle_alpha   89.96799514
_cell_angle_beta   89.91410468
_cell_angle_gamma   89.98814101
_symmetry_Int_Tables_number   1
_chemical_formula_structural   V85Zn86O256
_chemical_formula_sum   'V85 Zn86 O256'
_cell_volume   4834.75081355
_cell_formula_units_Z   1
loop_
 _symmetry_equiv_pos_site_id
 _symmetry_equiv_pos_as_xyz
  1  'x, y, z'
loop_
 _atom_site_type_symbol
 _atom_site_label
 _atom_site_symmetry_multiplicity
 _atom_site_fract_x
 _atom_site_fract_y
 _atom_site_fract_z
 _atom_site_occupancy
  V  V0  1  0.00346358  0.36906915  0.87598782  1
  V  V1  1  0.12264551  0.74418490  0.88137178  1
  V  V2  1  0.87030053  0.87974859  -0.00166145  1
  V  V3  1  0.38134643  0.12547767  0.24611022  1
  V  V4  1  0.75304059  0.25038005  -0.00034784  1
  V  V5  1  -0.00686304  0.74736969  0.25511601  1
  V  V6  1  0.37201225  0.62306004  0.25662551  1
  V  V7  1  0.62195111  0.12596665  0.00754775  1
  V  V8  1  -0.00568940  0.87886809  0.87485291  1
  V  V9  1  0.87727399  0.88213781  0.49706081  1
  V  V10  1  0.74679284  0.73816962  -0.00347532  1
  V  V11  1  0.24437012  0.50270022  0.25413866  1
  V  V12  1  0.37404528  0.74486043  0.12184763  1
  V  V13  1  0.49810735  0.00416191  0.00497550  1
  V  V14  1  0.50103439  0.25760123  0.25051867  1
  V  V15  1  0.37327664  0.48833803  0.37174062  1
  V  V16  1  0.61626787  0.87610023  0.25831113  1
  V  V17  1  0.24802390  0.87461222  0.12382470  1
  V  V18  1  0.00636744  0.87460503  0.37730112  1
  V  V19  1  0.37286791  -0.00237100  0.87369396  1
  V  V20  1  0.62845871  0.50147200  0.12146434  1
  V  V21  1  0.38097256  0.24857276  0.11830696  1
  V  V22  1  0.50588038  0.00526398  0.50396444  1
  V  V23  1  0.12935644  0.86731802  0.25565103  1
  V  V24  1  0.87645181  0.37553449  0.00424479  1
  V  V25  1  0.49820253  0.49414184  0.00087006  1
  V  V26  1  0.62803861  0.88189230  0.75216152  1
  V  V27  1  0.12916326  0.50175185  0.62781067  1
  V  V28  1  0.12786509  0.62606987  0.48632728  1
  V  V29  1  0.24909185  0.12406904  0.37896389  1
  V  V30  1  0.87073206  0.51726873  0.37425929  1
  V  V31  1  0.37650321  0.24730126  0.62352895  1
  V  V32  1  0.37744248  0.74212285  0.62307938  1
  V  V33  1  0.38542634  0.86788779  0.49408806  1
  V  V34  1  0.37162802  0.49279521  0.87746861  1
  V  V35  1  0.50373401  0.62485121  0.12109768  1
  V  V36  1  0.75154427  0.88080115  0.62902354  1
  V  V37  1  0.00896530  0.50677716  0.00038192  1
  V  V38  1  0.75164126  0.74630573  0.48651116  1
  V  V39  1  -0.01193415  0.36901442  0.36844219  1
  V  V40  1  0.38204810  -0.00285797  0.37528336  1
  V  V41  1  0.00194404  0.62444621  0.62416482  1
  V  V42  1  0.74426747  0.87781742  0.12351473  1
  V  V43  1  0.62696677  0.73595295  0.87724477  1
  V  V44  1  0.87074586  0.50475707  0.87906908  1
  V  V45  1  0.50003099  0.87115439  0.87519976  1
  V  V46  1  0.87460410  0.11259934  0.75279776  1
  V  V47  1  0.61726570  0.25439181  0.38533911  1
  V  V48  1  0.00265039  0.01083029  0.49600673  1
  V  V49  1  0.25179556  0.37947619  0.62647408  1
  V  V50  1  0.62721788  0.37670499  0.75201998  1
  V  V51  1  0.74732440  0.12092633  0.36991329  1
  V  V52  1  0.25129944  0.87139988  0.62250818  1
  V  V53  1  0.50241625  0.74317344  0.74499957  1
  V  V54  1  0.24779190  0.74509821  0.48602883  1
  V  V55  1  0.87279953  0.62466035  0.75294407  1
  V  V56  1  0.74885994  0.50480459  0.75318128  1
  V  V57  1  0.37294688  0.87239445  -0.00136559  1
  V  V58  1  0.25004856  0.25471596  -0.00317103  1
  V  V59  1  0.50075975  0.24897357  0.75160242  1
  V  V60  1  0.87394377  0.75009128  0.62521107  1
  V  V61  1  0.25123214  0.37554110  0.12359123  1
  V  V62  1  0.24402862  0.24730170  0.50112282  1
  V  V63  1  0.62740133  0.25128344  0.87701605  1
  V  V64  1  0.12793903  0.00832551  0.61841184  1
  V  V65  1  0.75363785  0.10870943  0.87423398  1
  V  V66  1  0.61576328  0.50942655  0.62505912  1
  V  V67  1  -0.00032695  0.74883990  0.75034014  1
  V  V68  1  0.75029147  0.51357617  0.25356523  1
  V  V69  1  0.12278990  0.12958502  0.00233184  1
  V  V70  1  0.12277348  0.25078425  0.36868450  1
  V  V71  1  0.12471618  0.87443652  0.74942855  1
  V  V72  1  0.24455691  0.12806987  0.87400665  1
  V  V73  1  -0.00478103  0.49265469  0.49997562  1
  V  V74  1  0.37194490  0.61627498  0.74803851  1
  V  V75  1  0.24603341  0.61929629  0.87691093  1
  V  V76  1  0.88073873  0.24238854  0.13790140  1
  V  V77  1  0.50272398  0.50011091  0.48826428  1
  V  V78  1  0.12631086  0.36986399  0.75102216  1
  V  V79  1  0.25046120  -0.00149531  0.74925437  1
  V  V80  1  0.74798178  0.24110590  0.50435723  1
  V  V81  1  0.75313268  0.37916778  0.61630618  1
  V  V82  1  0.87723087  0.25495639  0.62699321  1
  V  V83  1  0.00099690  0.62719401  0.12738141  1
  V  V84  1  -0.00297106  0.00359159  0.00075022  1
  Zn  Zn85  1  0.62423975  0.37985704  0.25465162  1
  Zn  Zn86  1  0.49551269  0.75243372  0.25715012  1
  Zn  Zn87  1  0.25372858  -0.00150105  0.25007942  1
  Zn  Zn88  1  0.62532524  0.62620834  0.49553114  1
  Zn  Zn89  1  0.12327733  -0.00025693  0.12754500  1
  Zn  Zn90  1  0.61016755  0.74836926  0.37661139  1
  Zn  Zn91  1  0.63296117  0.00718818  0.62702011  1
  Zn  Zn92  1  0.00115758  0.24720032  0.75267010  1
  Zn  Zn93  1  0.00222098  0.12690753  0.14506860  1
  Zn  Zn94  1  0.12747484  0.50480958  0.12233609  1
  Zn  Zn95  1  0.49542285  0.37194953  0.88068782  1
  Zn  Zn96  1  0.74994526  0.00092267  0.24843691  1
  Zn  Zn97  1  0.37723225  0.12231661  0.74893690  1
  Zn  Zn98  1  0.11957585  0.37364761  0.24662524  1
  Zn  Zn99  1  0.00330459  0.12913835  0.62467248  1
  Zn  Zn100  1  0.75014381  0.37477381  0.13172846  1
  Zn  Zn101  1  0.61878678  0.00400573  0.13026029  1
  Zn  Zn102  1  0.51304696  0.13119867  0.62111538  1
  Zn  Zn103  1  0.37986987  0.37190038  0.49605085  1
  Zn  Zn104  1  0.24266737  0.74376153  0.00162001  1
  Zn  Zn105  1  0.90864891  0.06698607  0.30190016  1
  Zn  Zn106  1  0.87002842  0.74615626  0.12998744  1
  Zn  Zn107  1  0.19102236  0.18494073  0.18774416  1
  Zn  Zn108  1  0.18864404  0.18901141  0.68927586  1
  Zn  Zn109  1  0.18262229  0.68609978  0.18792657  1
  Zn  Zn110  1  0.19015330  0.68593696  0.68808109  1
  Zn  Zn111  1  0.68850568  0.19106060  0.18997576  1
  Zn  Zn112  1  0.69068483  0.18489608  0.69019621  1
  Zn  Zn113  1  0.68437479  0.69135671  0.18878250  1
  Zn  Zn114  1  0.68907103  0.68983484  0.68472496  1
  Zn  Zn115  1  0.30936826  0.31191680  0.30787093  1
  Zn  Zn116  1  0.31014148  0.31180817  0.80922881  1
  Zn  Zn117  1  0.31811556  0.81092077  0.31160864  1
  Zn  Zn118  1  0.31102841  0.80687019  0.81111644  1
  Zn  Zn119  1  0.80429672  0.31799045  0.31537664  1
  Zn  Zn120  1  0.81464585  0.31390189  0.81207042  1
  Zn  Zn121  1  0.81739228  0.83315232  0.30872573  1
  Zn  Zn122  1  0.81050358  0.81329445  0.81486203  1
  Zn  Zn123  1  0.18556781  0.43479210  0.43778746  1
  Zn  Zn124  1  0.18882238  0.43625301  0.93487865  1
  Zn  Zn125  1  0.19218665  0.93576678  0.43807638  1
  Zn  Zn126  1  0.18283255  0.93729828  0.93899238  1
  Zn  Zn127  1  0.68900953  0.43661244  0.43625456  1
  Zn  Zn128  1  0.68695076  0.43979260  0.94079372  1
  Zn  Zn129  1  0.68798027  0.93404245  0.43931543  1
  Zn  Zn130  1  0.68195410  0.93398327  0.93862609  1
  Zn  Zn131  1  0.31206479  0.06381345  0.06224318  1
  Zn  Zn132  1  0.31763692  0.06238670  0.56115279  1
  Zn  Zn133  1  0.31201457  0.56110774  0.05912988  1
  Zn  Zn134  1  0.31367082  0.56224288  0.55695875  1
  Zn  Zn135  1  0.81271943  0.06235917  0.06377406  1
  Zn  Zn136  1  0.81502143  0.06575071  0.56362180  1
  Zn  Zn137  1  0.81696413  0.56396812  0.06934406  1
  Zn  Zn138  1  0.81333723  0.56327823  0.56140829  1
  Zn  Zn139  1  0.43482084  0.43505035  0.18422833  1
  Zn  Zn140  1  0.43948977  0.43370477  0.68712699  1
  Zn  Zn141  1  0.43543219  0.93745285  0.18503509  1
  Zn  Zn142  1  0.43900472  0.93227839  0.68516931  1
  Zn  Zn143  1  0.93394142  0.44101691  0.18950519  1
  Zn  Zn144  1  0.93804019  0.43680319  0.68923805  1
  Zn  Zn145  1  0.93610821  0.93271747  0.18415214  1
  Zn  Zn146  1  0.94081453  0.93875194  0.68256074  1
  Zn  Zn147  1  0.07681580  0.05667354  0.31397061  1
  Zn  Zn148  1  0.06187426  0.06217493  0.81307839  1
  Zn  Zn149  1  0.05759956  0.55992751  0.31005627  1
  Zn  Zn150  1  0.06182807  0.55773782  0.81180932  1
  Zn  Zn151  1  0.56408615  0.06717916  0.31573088  1
  Zn  Zn152  1  0.56269501  0.06522386  0.81747924  1
  Zn  Zn153  1  0.56506283  0.56983650  0.31130829  1
  Zn  Zn154  1  0.55786503  0.56169699  0.81259966  1
  Zn  Zn155  1  0.43592081  0.18605464  0.43680028  1
  Zn  Zn156  1  0.43448417  0.18598107  0.93495021  1
  Zn  Zn157  1  0.44290843  0.67899809  0.43571604  1
  Zn  Zn158  1  0.43784401  0.68135787  0.93715499  1
  Zn  Zn159  1  0.93202478  0.19304787  0.44056496  1
  Zn  Zn160  1  0.93559434  0.18653767  0.93747162  1
  Zn  Zn161  1  0.94231171  0.69161625  0.43984073  1
  Zn  Zn162  1  0.93420800  0.68774518  0.94121169  1
  Zn  Zn163  1  0.06247843  0.31143173  0.06413076  1
  Zn  Zn164  1  0.06322908  0.31227809  0.55930890  1
  Zn  Zn165  1  0.05982399  0.81155913  0.06488195  1
  Zn  Zn166  1  0.06591401  0.81307366  0.56089003  1
  Zn  Zn167  1  0.56314217  0.31565386  0.06624401  1
  Zn  Zn168  1  0.56325696  0.32030818  0.56415353  1
  Zn  Zn169  1  0.56303884  0.81150932  0.06374174  1
  Zn  Zn170  1  0.56557394  0.81337166  0.56413224  1
  O  O171  1  0.12254738  0.12174374  0.11836317  1
  O  O172  1  0.12560906  0.11247032  0.62957362  1
  O  O173  1  0.11016875  0.62379214  0.12346807  1
  O  O174  1  0.12023248  0.61726749  0.62313018  1
  O  O175  1  0.63097496  0.12468596  0.11143359  1
  O  O176  1  0.62565497  0.11938808  0.63038716  1
  O  O177  1  0.61306818  0.61842310  0.12922436  1
  O  O178  1  0.63332928  0.61323040  0.61807371  1
  O  O179  1  0.37284818  0.38430985  0.37325981  1
  O  O180  1  0.37498814  0.38888489  0.86530211  1
  O  O181  1  0.37074553  0.88459826  0.38312526  1
  O  O182  1  0.37840751  0.87653545  0.87951406  1
  O  O183  1  0.88653289  0.37483581  0.37796263  1
  O  O184  1  0.88082452  0.38393519  0.88431708  1
  O  O185  1  0.88604018  0.87450987  0.39148687  1
  O  O186  1  0.88689879  0.87144033  0.87984098  1
  O  O187  1  0.26228480  0.00757008  0.37679275  1
  O  O188  1  0.25365676  0.00319836  0.87002172  1
  O  O189  1  0.25701728  0.49505237  0.36556558  1
  O  O190  1  0.25739555  0.50636318  0.87543987  1
  O  O191  1  0.74070971  0.01862506  0.38133420  1
  O  O192  1  0.74643097  0.00953346  0.87936287  1
  O  O193  1  0.76368839  0.49918472  0.37306557  1
  O  O194  1  0.75818286  0.49579430  0.86679781  1
  O  O195  1  0.24932804  0.49133291  0.12801170  1
  O  O196  1  0.24234124  0.49157271  0.61881448  1
  O  O197  1  0.25327611  0.98489514  0.12507424  1
  O  O198  1  0.24693884  0.99341992  0.62737831  1
  O  O199  1  0.74370713  0.49989332  0.13050092  1
  O  O200  1  0.74594466  0.49410921  0.62988174  1
  O  O201  1  0.74504167  0.98844381  0.12179819  1
  O  O202  1  0.75200669  0.98531385  0.61907518  1
  O  O203  1  -0.00004196  0.37829494  0.26489848  1
  O  O204  1  0.00660147  0.37509063  0.75928343  1
  O  O205  1  0.00972104  0.87108017  0.25876259  1
  O  O206  1  0.00328726  0.87133063  0.75694890  1
  O  O207  1  0.49881243  0.36169739  0.24830746  1
  O  O208  1  0.50833563  0.36411753  0.75228724  1
  O  O209  1  0.51268604  0.87545249  0.24236852  1
  O  O210  1  0.50486034  0.86233962  0.75515388  1
  O  O211  1  0.48819138  0.13551976  0.25530866  1
  O  O212  1  0.49880459  0.13812975  0.75211489  1
  O  O213  1  0.48770073  0.62365391  0.23688052  1
  O  O214  1  0.49070489  0.63666565  0.75300723  1
  O  O215  1  0.99906276  0.11428480  0.25805048  1
  O  O216  1  0.98957920  0.12768451  0.75118470  1
  O  O217  1  1.00345368  0.63678549  0.24465358  1
  O  O218  1  0.99366786  0.62829960  0.74419074  1
  O  O219  1  0.36567147  0.24280865  0.00865085  1
  O  O220  1  0.36832259  0.25269021  0.50652524  1
  O  O221  1  0.37341134  0.75183079  0.00909228  1
  O  O222  1  0.37009843  0.75090329  0.50604551  1
  O  O223  1  0.86878072  0.25741178  0.00435674  1
  O  O224  1  0.86371753  0.24784642  0.51724074  1
  O  O225  1  0.86191217  0.76070786  -0.00286701  1
  O  O226  1  0.86942594  0.75766936  0.50655703  1
  O  O227  1  0.13777643  0.25295047  0.49105769  1
  O  O228  1  0.13201048  0.23754183  1.00310848  1
  O  O229  1  0.13525838  0.73898311  0.50586918  1
  O  O230  1  0.12167387  0.75388221  0.98481699  1
  O  O231  1  0.62803204  0.25394554  0.49228636  1
  O  O232  1  0.63145978  0.24538961  0.99734900  1
  O  O233  1  0.64147375  0.75529148  0.49952037  1
  O  O234  1  0.63690533  0.75356163  0.99191345  1
  O  O235  1  0.48875060  0.25239899  0.13104643  1
  O  O236  1  0.49368385  0.25159980  0.63128025  1
  O  O237  1  0.49090722  0.74161239  0.12445359  1
  O  O238  1  0.49158919  0.75262712  0.63253694  1
  O  O239  1  0.98540815  0.24790585  0.12337248  1
  O  O240  1  0.99226888  0.24933069  0.62451929  1
  O  O241  1  0.99737138  0.74516173  0.13406561  1
  O  O242  1  0.99438389  0.74641276  0.63042226  1
  O  O243  1  0.00658950  0.26252157  0.38561531  1
  O  O244  1  -0.00471097  0.26543586  0.87640838  1
  O  O245  1  0.00018176  0.76363928  0.37101808  1
  O  O246  1  0.00404282  0.75461295  0.86943486  1
  O  O247  1  0.51070560  0.24636042  0.37089074  1
  O  O248  1  0.50510437  0.25209707  0.86917558  1
  O  O249  1  0.49293573  0.75398706  0.37201116  1
  O  O250  1  0.50534646  0.75241358  0.86998286  1
  O  O251  1  0.25884922  0.13482107  0.49204813  1
  O  O252  1  0.24231914  0.13132460  0.99446106  1
  O  O253  1  0.24030252  0.63311970  0.50365248  1
  O  O254  1  0.25249807  0.62673495  0.98356809  1
  O  O255  1  0.74898244  0.13656055  0.49675430  1
  O  O256  1  0.74610522  0.13172943  0.99264934  1
  O  O257  1  0.75423376  0.64391539  0.50295826  1
  O  O258  1  0.75537178  0.63995619  1.00406098  1
  O  O259  1  0.24487425  0.36129602  0.00380363  1
  O  O260  1  0.25286535  0.36757106  0.51054228  1
  O  O261  1  0.25492624  0.87067654  0.00542339  1
  O  O262  1  0.26059327  0.86605491  0.50535276  1
  O  O263  1  0.75948694  0.36819626  0.00229280  1
  O  O264  1  0.74522773  0.36646964  0.51232260  1
  O  O265  1  0.75461194  0.87040663  0.00304177  1
  O  O266  1  0.76013706  0.86970003  0.50604383  1
  O  O267  1  0.13201392  0.49728681  0.24704523  1
  O  O268  1  0.11860333  0.49003157  0.73437739  1
  O  O269  1  0.13476234  0.98354819  0.24609990  1
  O  O270  1  0.13075462  0.99320523  0.74314683  1
  O  O271  1  0.62998864  0.50081289  0.24117664  1
  O  O272  1  0.62987977  0.49886123  0.74371699  1
  O  O273  1  0.62508643  0.99188691  0.24931295  1
  O  O274  1  0.61615303  0.98476882  0.75296427  1
  O  O275  1  0.37688110  0.00616624  0.25747051  1
  O  O276  1  0.36951525  -0.00197806  0.75534474  1
  O  O277  1  0.36862801  0.50355829  0.25411607  1
  O  O278  1  0.38424669  0.51159248  0.75409794  1
  O  O279  1  0.86239061  -0.02352800  0.25732349  1
  O  O280  1  0.87871925  0.01343236  0.74605812  1
  O  O281  1  0.86841533  0.49912105  0.26573582  1
  O  O282  1  0.86816723  0.50315133  0.75874770  1
  O  O283  1  0.11447948  0.36751572  0.37324258  1
  O  O284  1  0.11666848  0.38217117  0.86320528  1
  O  O285  1  0.12051562  0.87656067  0.36854049  1
  O  O286  1  0.11484055  0.86749754  0.86948699  1
  O  O287  1  0.62823106  0.35920999  0.37376678  1
  O  O288  1  0.62432362  0.36935217  0.86985561  1
  O  O289  1  0.62865891  0.87249083  0.36106309  1
  O  O290  1  0.61845925  0.86480702  0.86863540  1
  O  O291  1  0.36906387  0.13439575  0.13411166  1
  O  O292  1  0.37695878  0.13791081  0.62817772  1
  O  O293  1  0.37796016  0.62992754  0.13010411  1
  O  O294  1  0.36808296  0.63433604  0.63188094  1
  O  O295  1  0.87663031  0.13785983  0.12372443  1
  O  O296  1  0.87554509  0.13303926  0.63855679  1
  O  O297  1  0.89138495  0.63095708  0.12212292  1
  O  O298  1  0.88199502  0.63009113  0.63097380  1
  O  O299  1  0.25712751  0.25463611  0.11743597  1
  O  O300  1  0.25598857  0.25454163  0.61857690  1
  O  O301  1  0.25497378  0.75665681  0.12194514  1
  O  O302  1  0.25820295  0.75549982  0.62070716  1
  O  O303  1  0.75828888  0.25106634  0.11429054  1
  O  O304  1  0.75414337  0.25893216  0.62182053  1
  O  O305  1  0.74699223  0.75966270  0.11299715  1
  O  O306  1  0.75780605  0.76091945  0.61921588  1
  O  O307  1  0.24576222  0.24571559  0.38196228  1
  O  O308  1  0.25590684  0.24071144  0.88316490  1
  O  O309  1  0.25500303  0.75022212  0.38677618  1
  O  O310  1  0.23918205  0.74241508  0.87549960  1
  O  O311  1  0.74087722  0.24619380  0.38547796  1
  O  O312  1  0.74801270  0.24825904  0.88667627  1
  O  O313  1  0.75716031  0.76015448  0.38723743  1
  O  O314  1  0.74202574  0.75193050  0.88714695  1
  O  O315  1  0.00647372  0.11823691  -0.00257878  1
  O  O316  1  -0.00372581  0.11427107  0.50017818  1
  O  O317  1  -0.00344721  0.61539294  0.00533388  1
  O  O318  1  0.00736928  0.61729022  0.50623427  1
  O  O319  1  0.51011532  0.11682886  -0.01007327  1
  O  O320  1  0.49345204  0.10949767  0.50288970  1
  O  O321  1  0.49381160  0.61316146  0.01251277  1
  O  O322  1  0.49906684  0.60518077  0.50530091  1
  O  O323  1  0.49564894  0.39315404  0.50633738  1
  O  O324  1  0.50134466  0.38808486  0.99991683  1
  O  O325  1  0.48862592  0.88109199  0.50584991  1
  O  O326  1  0.49326031  0.88031559  0.99400067  1
  O  O327  1  1.00550811  0.38825278  0.49072654  1
  O  O328  1  0.99407363  0.38160019  0.99510900  1
  O  O329  1  0.99653624  0.88054124  0.49564335  1
  O  O330  1  0.99147451  0.87958073  0.99406266  1
  O  O331  1  0.49342780  0.49998144  0.38229202  1
  O  O332  1  0.49257929  0.49923841  0.88384097  1
  O  O333  1  0.48999998  1.00534339  0.38636952  1
  O  O334  1  0.49222116  0.99309443  0.88215833  1
  O  O335  1  0.98884694  0.49106614  0.37948794  1
  O  O336  1  0.99212105  0.49242864  0.88246240  1
  O  O337  1  1.00529961  0.98940763  0.38402228  1
  O  O338  1  1.00620985  0.98980548  0.88737832  1
  O  O339  1  0.00021118  -0.00021519  0.11184616  1
  O  O340  1  0.01194110  0.00168565  0.61580015  1
  O  O341  1  -0.00048233  0.50610135  0.11750763  1
  O  O342  1  0.00452510  0.50258857  0.61653640  1
  O  O343  1  0.49689337  -0.00017722  0.10904941  1
  O  O344  1  0.49652933  0.00163102  0.61304002  1
  O  O345  1  0.50453495  0.50422311  0.11976908  1
  O  O346  1  0.51187718  0.49653078  0.62148663  1
  O  O347  1  0.24759426  0.38529440  0.24122078  1
  O  O348  1  0.24209347  0.37092870  0.73599397  1
  O  O349  1  0.24659145  0.87163485  0.24196369  1
  O  O350  1  0.24577496  0.87853808  0.74348249  1
  O  O351  1  0.74631603  0.39057246  0.24919731  1
  O  O352  1  0.74627454  0.38672920  0.74447629  1
  O  O353  1  0.73513633  0.87401605  0.23909098  1
  O  O354  1  0.74055207  0.86963567  0.74323774  1
  O  O355  1  0.26257674  0.12302001  0.25827378  1
  O  O356  1  0.25122267  0.11860977  0.75773345  1
  O  O357  1  0.25647436  0.61168111  0.24133638  1
  O  O358  1  0.26207241  0.63037174  0.76088851  1
  O  O359  1  0.74684378  0.12255132  0.26369389  1
  O  O360  1  0.76441825  0.12899582  0.76147564  1
  O  O361  1  0.74962737  0.61427458  0.24307479  1
  O  O362  1  0.75596417  0.61273138  0.74429617  1
  O  O363  1  0.36772252  0.11900554  0.36853292  1
  O  O364  1  0.36236525  0.11560068  0.87352760  1
  O  O365  1  0.37646072  0.61285789  0.36031654  1
  O  O366  1  0.36844101  0.61635500  0.86680377  1
  O  O367  1  0.85482843  0.13310585  0.37948343  1
  O  O368  1  0.86826186  0.12793080  0.86340587  1
  O  O369  1  0.88142066  0.61550212  0.37652752  1
  O  O370  1  0.87925603  0.61207182  0.87059619  1
  O  O371  1  0.13673649  0.37404125  0.12697158  1
  O  O372  1  0.13149909  0.38201481  0.62774305  1
  O  O373  1  0.13374249  0.87442137  0.13000443  1
  O  O374  1  0.13226555  0.88218376  0.63045880  1
  O  O375  1  0.62791222  0.38606950  0.12971624  1
  O  O376  1  0.63445677  0.38493666  0.63389101  1
  O  O377  1  0.62953401  0.87935516  0.13016898  1
  O  O378  1  0.63402793  0.87744589  0.63497015  1
  O  O379  1  0.13225317  0.25133289  0.26489390  1
  O  O380  1  0.12041114  0.26424810  0.74382993  1
  O  O381  1  0.11588346  0.76107057  0.24729173  1
  O  O382  1  0.11864948  0.75559755  0.75604378  1
  O  O383  1  0.61654374  0.25202163  0.25828831  1
  O  O384  1  0.62076751  0.25563407  0.75763350  1
  O  O385  1  0.61896906  0.76412760  0.24898297  1
  O  O386  1  0.61873827  0.75434928  0.75454420  1
  O  O387  1  0.38038755  0.24396770  0.24348240  1
  O  O388  1  0.38399803  0.24931993  0.74284061  1
  O  O389  1  0.37302386  0.74052539  0.23763161  1
  O  O390  1  0.38231505  0.74248443  0.74244970  1
  O  O391  1  0.86592569  0.25671722  0.23498309  1
  O  O392  1  0.87706148  0.24578003  0.74076539  1
  O  O393  1  0.88921523  0.76221963  0.24955875  1
  O  O394  1  0.87902952  0.74446570  0.74652803  1
  O  O395  1  0.38260715  0.49821409  0.48900600  1
  O  O396  1  0.38267604  0.50122928  0.98891694  1
  O  O397  1  0.38234714  0.98926477  0.49462870  1
  O  O398  1  0.37874825  0.99501267  0.99267073  1
  O  O399  1  0.88276416  0.50383372  0.48881830  1
  O  O400  1  0.87920338  0.49287616  0.99536414  1
  O  O401  1  0.88790695  0.99206617  0.50909110  1
  O  O402  1  0.88062381  0.98899404  1.00073908  1
  O  O403  1  0.11781507  0.01036807  0.00325077  1
  O  O404  1  0.11867630  -0.00650725  0.50862336  1
  O  O405  1  0.11204376  0.49534854  -0.00020472  1
  O  O406  1  0.11876318  0.50593778  0.50879165  1
  O  O407  1  0.61465208  0.00813455  -0.00086616  1
  O  O408  1  0.60768727  -0.01135526  0.50232559  1
  O  O409  1  0.61858212  0.50000299  0.01267837  1
  O  O410  1  0.61638376  0.49872184  0.50501737  1
  O  O411  1  0.36150990  0.36369352  0.12705075  1
  O  O412  1  0.36761281  0.36479597  0.62587733  1
  O  O413  1  0.36872081  0.86481032  0.12006708  1
  O  O414  1  0.37025520  0.86218342  0.61808844  1
  O  O415  1  0.87585166  0.36876053  0.11484729  1
  O  O416  1  0.86470510  0.36945516  0.63165607  1
  O  O417  1  0.86489023  0.86868557  0.11332014  1
  O  O418  1  0.87205050  0.86878537  0.61922534  1
  O  O419  1  0.14201971  0.13108496  0.37519546  1
  O  O420  1  0.13741950  0.12002862  0.88186921  1
  O  O421  1  0.12004281  0.61877957  0.38759604  1
  O  O422  1  0.13226562  0.63178239  0.86509715  1
  O  O423  1  0.63504330  0.14139779  0.37506282  1
  O  O424  1  0.63545733  0.13242893  0.88257819  1
  O  O425  1  0.62221076  0.63387832  0.38147382  1
  O  O426  1  0.62251721  0.63643003  0.87077386  1
