# generated using pymatgen
data_V85Zn86O256
_symmetry_space_group_name_H-M   'P 1'
_cell_length_a   16.97674257
_cell_length_b   17.02587578
_cell_length_c   16.99472865
_cell_angle_alpha   89.97914695
_cell_angle_beta   90.05479660
_cell_angle_gamma   90.07600146
_symmetry_Int_Tables_number   1
_chemical_formula_structural   V85Zn86O256
_chemical_formula_sum   'V85 Zn86 O256'
_cell_volume   4912.21592812
_cell_formula_units_Z   1
loop_
 _symmetry_equiv_pos_site_id
 _symmetry_equiv_pos_as_xyz
  1  'x, y, z'
loop_
 _atom_site_type_symbol
 _atom_site_label
 _atom_site_symmetry_multiplicity
 _atom_site_fract_x
 _atom_site_fract_y
 _atom_site_fract_z
 _atom_site_occupancy
  V  V0  1  0.37891861  0.12957992  0.23456723  1
  V  V1  1  0.25367853  0.24754157  0.00334255  1
  V  V2  1  -0.00831392  -0.00621045  0.00599411  1
  V  V3  1  0.74711691  0.00691303  0.24829910  1
  V  V4  1  0.27106644  0.74716329  0.50369567  1
  V  V5  1  0.25039058  0.12992632  0.37201198  1
  V  V6  1  0.78327311  0.87580034  0.60865536  1
  V  V7  1  0.49962817  0.37736726  0.37390264  1
  V  V8  1  0.00114886  0.63249533  0.61614051  1
  V  V9  1  0.62706348  0.37675973  0.75064166  1
  V  V10  1  0.37428244  0.75070668  0.12398346  1
  V  V11  1  0.55305508  0.07648688  0.55994662  1
  V  V12  1  0.24683898  0.75250743  -0.00097430  1
  V  V13  1  0.12024315  -0.00501574  0.12835342  1
  V  V14  1  0.48990189  0.88172585  0.38263224  1
  V  V15  1  0.37320368  0.62394879  0.24862721  1
  V  V16  1  -0.00352690  0.62301720  0.11960490  1
  V  V17  1  0.25743894  -0.00355980  0.75416263  1
  V  V18  1  0.87015697  0.13300171  0.24865330  1
  V  V19  1  0.62623571  0.62997632  0.00086411  1
  V  V20  1  0.49738397  0.50483355  -0.00082462  1
  V  V21  1  -0.03341475  0.84410475  0.39075074  1
  V  V22  1  0.87914432  0.25175380  0.12438031  1
  V  V23  1  0.12063146  0.37511714  0.74890631  1
  V  V24  1  -0.00211742  0.12488517  0.13080847  1
  V  V25  1  0.12612261  0.87398441  0.26738040  1
  V  V26  1  0.55364616  0.92290477  0.81073514  1
  V  V27  1  0.86915222  -0.00633539  0.88105749  1
  V  V28  1  0.74841684  0.24510692  0.50328447  1
  V  V29  1  0.00263344  0.24621682  0.75222673  1
  V  V30  1  0.12270574  0.50385511  0.61713751  1
  V  V31  1  0.61475953  0.75132141  0.86511676  1
  V  V32  1  0.74299493  0.12684120  0.37556910  1
  V  V33  1  0.37857076  -0.00227367  0.88008947  1
  V  V34  1  0.24935763  0.25291063  0.49753608  1
  V  V35  1  0.87249481  0.11904344  0.75202071  1
  V  V36  1  0.62467092  0.87915914  0.25777706  1
  V  V37  1  0.75289670  0.37532192  0.62651142  1
  V  V38  1  0.87281732  0.63008845  0.24938557  1
  V  V39  1  0.37642156  0.37660967  0.50309171  1
  V  V40  1  0.87569762  0.24780117  0.62776179  1
  V  V41  1  0.49584920  0.38145500  0.87411608  1
  V  V42  1  0.62740242  0.50706512  0.61922892  1
  V  V43  1  0.12123163  0.62290101  -0.00604323  1
  V  V44  1  0.87470943  0.76078683  0.12450434  1
  V  V45  1  0.37901727  0.75204916  0.64780500  1
  V  V46  1  0.25071862  0.37779305  0.62439057  1
  V  V47  1  0.74942105  0.37775325  0.12120740  1
  V  V48  1  0.11910211  0.49877702  0.12146039  1
  V  V49  1  0.38743881  0.87687032  -0.00009190  1
  V  V50  1  0.62523453  0.25324171  0.87296233  1
  V  V51  1  -0.00337430  0.87250376  0.87939827  1
  V  V52  1  0.37189586  0.37936590  -0.00058015  1
  V  V53  1  0.13275910  0.74564603  0.38641963  1
  V  V54  1  0.00327182  -0.00282053  0.49494531  1
  V  V55  1  0.48192688  0.25282042  0.74639183  1
  V  V56  1  0.88307462  0.49452405  0.37308020  1
  V  V57  1  0.49935795  0.75137504  0.25395773  1
  V  V58  1  0.60758289  0.00000861  0.12146056  1
  V  V59  1  0.25408470  0.37138402  0.12775546  1
  V  V60  1  0.00496810  0.12124470  0.62789262  1
  V  V61  1  0.25001055  0.62073075  0.38185453  1
  V  V62  1  0.61064133  0.12077010  0.00117426  1
  V  V63  1  0.50129959  0.62876709  0.63086152  1
  V  V64  1  0.74897164  0.24875407  -0.00019509  1
  V  V65  1  0.12219045  0.87490668  0.74999305  1
  V  V66  1  0.12670820  0.12552302  0.49899655  1
  V  V67  1  0.24806836  0.49887403  0.24825032  1
  V  V68  1  0.87476305  0.00733867  0.37906142  1
  V  V69  1  0.12779997  -0.00217260  0.62443016  1
  V  V70  1  0.25403464  0.12401187  0.87190106  1
  V  V71  1  0.88421692  0.37224938  0.49686114  1
  V  V72  1  0.74902983  0.12145499  0.87302125  1
  V  V73  1  0.62503264  0.25096056  0.37887688  1
  V  V74  1  0.75212665  0.76060969  -0.00187035  1
  V  V75  1  0.75595431  0.50183198  0.75409618  1
  V  V76  1  0.37345494  0.49934091  0.37471987  1
  V  V77  1  0.75092865  0.50318764  0.24973170  1
  V  V78  1  0.62421026  0.37725433  0.24962880  1
  V  V79  1  0.10872202  0.25448780  0.37022600  1
  V  V80  1  0.74322058  0.62396752  0.39199666  1
  V  V81  1  0.10940687  0.37205849  0.25073031  1
  V  V82  1  0.12409551  0.24498917  0.87357059  1
  V  V83  1  0.88060661  0.63233390  0.74860805  1
  V  V84  1  0.25026154  0.00225689  0.25004094  1
  Zn  Zn85  1  0.87969039  0.38803792  -0.00270350  1
  Zn  Zn86  1  0.48793124  0.25357415  0.23473475  1
  Zn  Zn87  1  0.50059952  0.62571390  0.12590898  1
  Zn  Zn88  1  0.25024172  0.50197876  0.75935656  1
  Zn  Zn89  1  0.12393716  0.75144138  0.87352343  1
  Zn  Zn90  1  0.37974312  0.00414806  0.38551462  1
  Zn  Zn91  1  0.62790849  0.75047138  0.37534172  1
  Zn  Zn92  1  0.00123301  0.37717029  0.88976344  1
  Zn  Zn93  1  0.89656189  0.50496269  0.88255621  1
  Zn  Zn94  1  0.25896368  0.87236337  0.62586251  1
  Zn  Zn95  1  -0.00159439  0.75449949  0.74225566  1
  Zn  Zn96  1  0.75544276  0.62799112  0.87665106  1
  Zn  Zn97  1  0.24672672  0.87436373  0.12659326  1
  Zn  Zn98  1  0.37707510  0.60680824  0.76217458  1
  Zn  Zn99  1  0.62564467  0.50517594  0.12317259  1
  Zn  Zn100  1  0.12434300  0.12272763  0.00306035  1
  Zn  Zn101  1  0.26049210  0.61520482  0.87896821  1
  Zn  Zn102  1  0.00401195  0.49877158  0.49521116  1
  Zn  Zn103  1  0.00989584  0.74713746  0.24854378  1
  Zn  Zn104  1  0.75208553  0.87803991  0.12697697  1
  Zn  Zn105  1  0.50828778  0.50659718  0.49741842  1
  Zn  Zn106  1  0.41448008  0.20390641  0.59224397  1
  Zn  Zn107  1  0.18438654  0.18948052  0.18777010  1
  Zn  Zn108  1  0.23785717  0.15952935  0.66078736  1
  Zn  Zn109  1  0.18739939  0.68663199  0.18667151  1
  Zn  Zn110  1  0.18833940  0.68435956  0.69079940  1
  Zn  Zn111  1  0.65672387  0.20065310  0.17433257  1
  Zn  Zn112  1  0.68306268  0.18557645  0.68882607  1
  Zn  Zn113  1  0.68734057  0.69157123  0.18704551  1
  Zn  Zn114  1  0.69342641  0.68957922  0.68803059  1
  Zn  Zn115  1  0.30993728  0.31137271  0.30972492  1
  Zn  Zn116  1  0.30799447  0.32448979  0.81649500  1
  Zn  Zn117  1  0.31114286  0.81172268  0.31209858  1
  Zn  Zn118  1  0.31104336  0.81395662  0.81910478  1
  Zn  Zn119  1  0.81178130  0.31355640  0.31226093  1
  Zn  Zn120  1  0.81716189  0.31361920  0.81593890  1
  Zn  Zn121  1  0.80824462  0.81116187  0.32871030  1
  Zn  Zn122  1  0.80250765  0.81184192  0.80682521  1
  Zn  Zn123  1  0.18335322  0.43512917  0.43491523  1
  Zn  Zn124  1  0.17902334  0.43477676  0.93951737  1
  Zn  Zn125  1  0.22452952  0.95155820  0.45850906  1
  Zn  Zn126  1  0.18604195  0.93536805  0.94175713  1
  Zn  Zn127  1  0.69468982  0.43666299  0.43890637  1
  Zn  Zn128  1  0.69079958  0.44190450  0.93842148  1
  Zn  Zn129  1  0.65125984  0.92880957  0.48788795  1
  Zn  Zn130  1  0.68626769  0.93777203  0.94159873  1
  Zn  Zn131  1  0.31130950  0.06023682  0.06028847  1
  Zn  Zn132  1  0.36446611  0.03418803  0.57831403  1
  Zn  Zn133  1  0.30987268  0.56314603  0.05906063  1
  Zn  Zn134  1  0.31935803  0.56400414  0.56715938  1
  Zn  Zn135  1  0.80626897  0.06342666  0.06289450  1
  Zn  Zn136  1  0.80962001  0.05958592  0.56301896  1
  Zn  Zn137  1  0.81071954  0.56886048  0.06102905  1
  Zn  Zn138  1  0.82037589  0.55990301  0.56611444  1
  Zn  Zn139  1  0.43694462  0.43891223  0.18325887  1
  Zn  Zn140  1  0.43880970  0.44092184  0.68600217  1
  Zn  Zn141  1  0.43226789  0.93605150  0.19350215  1
  Zn  Zn142  1  0.50457541  0.89731759  0.62565749  1
  Zn  Zn143  1  0.93459587  0.43993844  0.18163146  1
  Zn  Zn144  1  0.94029547  0.44084286  0.69093662  1
  Zn  Zn145  1  0.93958826  0.93570429  0.20669335  1
  Zn  Zn146  1  0.90893619  0.91897832  0.70307966  1
  Zn  Zn147  1  0.06169280  0.06702093  0.31136144  1
  Zn  Zn148  1  0.06217365  0.05883958  0.81533973  1
  Zn  Zn149  1  0.06362556  0.56480926  0.30823678  1
  Zn  Zn150  1  0.06734855  0.56046699  0.80673662  1
  Zn  Zn151  1  0.55970088  0.06268760  0.31677154  1
  Zn  Zn152  1  0.55865988  0.08104376  0.80534748  1
  Zn  Zn153  1  0.56108655  0.56222612  0.31079681  1
  Zn  Zn154  1  0.56535004  0.56371449  0.81246757  1
  Zn  Zn155  1  0.43567401  0.19210295  0.42196823  1
  Zn  Zn156  1  0.43250492  0.19302358  0.93247778  1
  Zn  Zn157  1  0.48787988  0.73374450  0.48958020  1
  Zn  Zn158  1  0.43727310  0.69002942  0.93403742  1
  Zn  Zn159  1  0.93585701  0.18345811  0.44110177  1
  Zn  Zn160  1  0.93785594  0.18712081  0.94242974  1
  Zn  Zn161  1  0.93566248  0.67884687  0.43344935  1
  Zn  Zn162  1  0.93373131  0.68833623  0.93887309  1
  Zn  Zn163  1  0.06597656  0.31065081  0.06373138  1
  Zn  Zn164  1  0.06414255  0.30952433  0.56421465  1
  Zn  Zn165  1  0.06131369  0.81232888  0.06595592  1
  Zn  Zn166  1  0.06728715  0.81303465  0.55854985  1
  Zn  Zn167  1  0.56089046  0.31277650  0.06165435  1
  Zn  Zn168  1  0.56529514  0.31831208  0.56338030  1
  Zn  Zn169  1  0.56525585  0.81260504  0.06679407  1
  Zn  Zn170  1  0.65777450  0.78478740  0.55259662  1
  O  O171  1  0.11342852  0.11619465  0.12823652  1
  O  O172  1  0.13026015  0.11638505  0.61843146  1
  O  O173  1  0.11598869  0.61811175  0.12040910  1
  O  O174  1  0.11212850  0.61640191  0.62837262  1
  O  O175  1  0.63362960  0.10550153  0.11393414  1
  O  O176  1  0.61345036  0.12016745  0.62818118  1
  O  O177  1  0.62261831  0.62727777  0.11387589  1
  O  O178  1  0.61481566  0.61868053  0.63292268  1
  O  O179  1  0.38220444  0.37850383  0.37784664  1
  O  O180  1  0.38384478  0.37511337  0.88721083  1
  O  O181  1  0.38749584  0.88295018  0.35473417  1
  O  O182  1  0.36981299  0.88418289  0.88842953  1
  O  O183  1  0.87056218  0.38255314  0.38298031  1
  O  O184  1  0.88103555  0.37995024  0.87677918  1
  O  O185  1  0.87779175  0.90291996  0.34936967  1
  O  O186  1  0.87968502  0.88872073  0.87299704  1
  O  O187  1  0.23727721  0.01471561  0.35753806  1
  O  O188  1  0.25215785  0.00655922  0.87530692  1
  O  O189  1  0.25064741  0.50418932  0.36898229  1
  O  O190  1  0.22936868  0.50469328  0.87273895  1
  O  O191  1  0.75700027  0.01329440  0.36224106  1
  O  O192  1  0.75778114  0.00889929  0.88358903  1
  O  O193  1  0.76082702  0.50494771  0.36783737  1
  O  O194  1  0.74199481  0.50621414  0.85833870  1
  O  O195  1  0.24189768  0.49270661  0.12928301  1
  O  O196  1  0.24233987  0.48732859  0.61895213  1
  O  O197  1  0.23782543  1.00149037  0.13496966  1
  O  O198  1  0.23946874  0.99186832  0.63920709  1
  O  O199  1  0.74951195  0.49367960  0.13315918  1
  O  O200  1  0.74749295  0.49694658  0.63477217  1
  O  O201  1  0.74895716  0.99665855  0.13840980  1
  O  O202  1  0.75733661  0.97666903  0.61376695  1
  O  O203  1  0.01048262  0.37760519  0.24109459  1
  O  O204  1  0.01193504  0.36464180  0.74325778  1
  O  O205  1  0.00782435  0.86757503  0.27566831  1
  O  O206  1  0.00238737  0.87494242  0.76048908  1
  O  O207  1  0.50827430  0.37610926  0.25402079  1
  O  O208  1  0.50726914  0.37401509  0.75957047  1
  O  O209  1  0.50978398  0.87005998  0.25039529  1
  O  O210  1  0.50237721  0.87338035  0.74285703  1
  O  O211  1  0.48006063  0.12557341  0.25741467  1
  O  O212  1  0.49340769  0.15354135  0.75318863  1
  O  O213  1  0.49320869  0.63245428  0.24861390  1
  O  O214  1  0.49626427  0.61131829  0.73628200  1
  O  O215  1  0.98817558  0.12108608  0.23761251  1
  O  O216  1  0.99555175  0.12794715  0.74625302  1
  O  O217  1  0.99018802  0.62664012  0.23988620  1
  O  O218  1  0.99500137  0.62897075  0.73985554  1
  O  O219  1  0.36155166  0.26127123  -0.00377022  1
  O  O220  1  0.36600232  0.26051014  0.49379568  1
  O  O221  1  0.36811176  0.75652075  0.00807716  1
  O  O222  1  0.37069022  0.74419171  0.50597218  1
  O  O223  1  0.86065332  0.24497436  0.00962367  1
  O  O224  1  0.86951906  0.25423488  0.50694728  1
  O  O225  1  0.86510373  0.74662295  0.01239117  1
  O  O226  1  0.88718161  0.78011920  0.42299514  1
  O  O227  1  0.12959638  0.24786105  0.48963732  1
  O  O228  1  0.13671728  0.24713967  0.99221864  1
  O  O229  1  0.13322545  0.74558322  0.48833784  1
  O  O230  1  0.13117469  0.74220580  1.00453441  1
  O  O231  1  0.63445241  0.26131200  0.48893030  1
  O  O232  1  0.63521992  0.24442680  0.99270474  1
  O  O233  1  0.59995219  0.72809516  0.48034395  1
  O  O234  1  0.63144531  0.74658679  0.99621367  1
  O  O235  1  0.54902331  0.24041788  0.14301459  1
  O  O236  1  0.49637907  0.26796450  0.64097053  1
  O  O237  1  0.49168051  0.74998721  0.13603068  1
  O  O238  1  0.48675507  0.73696002  0.62488914  1
  O  O239  1  0.98572114  0.23917324  0.12165151  1
  O  O240  1  0.99533720  0.24009388  0.63135168  1
  O  O241  1  0.99225377  0.74349737  0.12989345  1
  O  O242  1  1.00660290  0.73597459  0.62089321  1
  O  O243  1  0.01000178  0.24282722  0.37739652  1
  O  O244  1  0.00823442  0.24510179  0.87050053  1
  O  O245  1  0.01910440  0.74226721  0.37066377  1
  O  O246  1  -0.00133552  0.76606245  0.88022514  1
  O  O247  1  0.50855920  0.26363952  0.36644843  1
  O  O248  1  0.50295489  0.26467023  0.86753931  1
  O  O249  1  0.49226038  0.75966197  0.35796977  1
  O  O250  1  0.51626942  0.75322315  0.88088745  1
  O  O251  1  0.24056709  0.13905281  0.48637604  1
  O  O252  1  0.24707549  0.13194474  0.99282634  1
  O  O253  1  0.25529287  0.63365050  0.49310008  1
  O  O254  1  0.23771470  0.63306154  1.00169952  1
  O  O255  1  0.75623269  0.14007822  0.49629044  1
  O  O256  1  0.74202676  0.13152739  0.99105357  1
  O  O257  1  0.75804348  0.62049864  0.49032703  1
  O  O258  1  0.74049483  0.63969317  0.99845360  1
  O  O259  1  0.25430051  0.36933162  0.00659476  1
  O  O260  1  0.25651003  0.37040791  0.50117051  1
  O  O261  1  0.25276854  0.86674358  0.00736669  1
  O  O262  1  0.24459849  0.84825662  0.50915878  1
  O  O263  1  0.74735942  0.36636971  0.00811909  1
  O  O264  1  0.76150787  0.36452821  0.50673556  1
  O  O265  1  0.74638157  0.86435334  0.00628234  1
  O  O266  1  0.74468961  0.86545574  0.50644794  1
  O  O267  1  0.12878137  0.49388208  0.24031205  1
  O  O268  1  0.12706557  0.48818101  0.73355305  1
  O  O269  1  0.12541503  0.99316149  0.24435386  1
  O  O270  1  0.12705616  0.98958099  0.74582539  1
  O  O271  1  0.63209343  0.49172174  0.24771870  1
  O  O272  1  0.63374777  0.49436919  0.74100895  1
  O  O273  1  0.62890174  0.99791023  0.24326801  1
  O  O274  1  0.61129545  0.98873855  0.76305820  1
  O  O275  1  0.36327048  0.01224322  0.25051072  1
  O  O276  1  0.35792840  -0.00679787  0.76606578  1
  O  O277  1  0.36894803  0.50285520  0.25369708  1
  O  O278  1  0.36284498  0.49112377  0.74583538  1
  O  O279  1  0.86710245  0.01749081  0.25152131  1
  O  O280  1  0.88505018  0.01598556  0.76491298  1
  O  O281  1  0.86854617  0.50665936  0.25382903  1
  O  O282  1  0.86941551  0.50932131  0.75118310  1
  O  O283  1  0.12492759  0.36678663  0.36310724  1
  O  O284  1  0.12484466  0.35858779  0.86613392  1
  O  O285  1  0.14079606  0.86445225  0.36857032  1
  O  O286  1  0.11383074  0.87764573  0.86866634  1
  O  O287  1  0.61816449  0.37611009  0.37023837  1
  O  O288  1  0.61905781  0.37115750  0.87184267  1
  O  O289  1  0.60876009  0.87548194  0.37011540  1
  O  O290  1  0.62243752  0.86771054  0.87328276  1
  O  O291  1  0.37124224  0.12316029  0.13577147  1
  O  O292  1  0.34307586  0.12963640  0.63011985  1
  O  O293  1  0.37540494  0.63565859  0.12810159  1
  O  O294  1  0.38214004  0.63143336  0.63664063  1
  O  O295  1  0.87662563  0.13277351  0.13018696  1
  O  O296  1  0.87944484  0.12780807  0.63538674  1
  O  O297  1  0.87996450  0.63276886  0.13195897  1
  O  O298  1  0.89066168  0.62005923  0.63499087  1
  O  O299  1  0.24123655  0.25956573  0.11517746  1
  O  O300  1  0.24076624  0.26450452  0.60534016  1
  O  O301  1  0.25707368  0.74985422  0.11676888  1
  O  O302  1  0.26491406  0.74370347  0.61941673  1
  O  O303  1  0.75173158  0.25783521  0.11766495  1
  O  O304  1  0.75494258  0.25256221  0.62086020  1
  O  O305  1  0.75774925  0.75511634  0.11996976  1
  O  O306  1  0.74195549  0.77093621  0.62704922  1
  O  O307  1  0.24183421  0.24764858  0.38072385  1
  O  O308  1  0.24400696  0.24236162  0.87945996  1
  O  O309  1  0.25374653  0.74068904  0.38583292  1
  O  O310  1  0.24426152  0.75015149  0.89106659  1
  O  O311  1  0.74511545  0.24777117  0.38502806  1
  O  O312  1  0.74707241  0.24357249  0.88278585  1
  O  O313  1  0.74292742  0.72603574  0.36700901  1
  O  O314  1  0.74265610  0.75151904  0.88267774  1
  O  O315  1  -0.00014007  0.11286494  0.01382078  1
  O  O316  1  0.00854524  0.11952330  0.50857173  1
  O  O317  1  0.00473032  0.63141029  0.01308240  1
  O  O318  1  -0.00924276  0.61983370  0.51226457  1
  O  O319  1  0.51262571  0.13501347  -0.00821211  1
  O  O320  1  0.49057704  0.14820604  0.51377177  1
  O  O321  1  0.50641014  0.61819246  0.00221653  1
  O  O322  1  0.48774075  0.61644187  0.52598370  1
  O  O323  1  0.49189971  0.37703590  0.49095287  1
  O  O324  1  0.49225571  0.37926722  0.99639109  1
  O  O325  1  0.48352927  0.86104065  0.47848517  1
  O  O326  1  0.48627884  0.87152873  1.00786993  1
  O  O327  1  0.98693154  0.37333469  0.50509241  1
  O  O328  1  0.99050182  0.36199718  1.00393591  1
  O  O329  1  1.01125268  0.88009881  0.47928799  1
  O  O330  1  1.00297433  0.88712549  0.99730175  1
  O  O331  1  0.49593950  0.49104257  0.37682903  1
  O  O332  1  0.50900121  0.48914018  0.88772446  1
  O  O333  1  0.49540119  0.98832024  0.37396199  1
  O  O334  1  0.49130659  0.99417694  0.86240204  1
  O  O335  1  0.98710095  0.50895609  0.37467058  1
  O  O336  1  1.00882024  0.48876567  0.86649943  1
  O  O337  1  0.99192681  1.01061588  0.38254197  1
  O  O338  1  0.99321436  0.99348407  0.88792586  1
  O  O339  1  0.00107078  0.00168925  0.12497837  1
  O  O340  1  0.01578060  0.00506857  0.61646028  1
  O  O341  1  0.00706987  0.51074294  0.12850427  1
  O  O342  1  0.00754098  0.50834550  0.62169569  1
  O  O343  1  0.50988780  -0.00048347  0.13128179  1
  O  O344  1  0.48206831  0.01082500  0.60218198  1
  O  O345  1  0.50381784  0.50110034  0.11200184  1
  O  O346  1  0.51325410  0.50207466  0.62183866  1
  O  O347  1  0.24392495  0.38053871  0.24223598  1
  O  O348  1  0.23570425  0.36830689  0.73803898  1
  O  O349  1  0.24378312  0.88597919  0.24788928  1
  O  O350  1  0.23894593  0.87997888  0.75168917  1
  O  O351  1  0.74702571  0.38780319  0.24506620  1
  O  O352  1  0.74824868  0.38168932  0.74484710  1
  O  O353  1  0.73580147  0.88313658  0.25690023  1
  O  O354  1  0.79605285  0.88203875  0.72301429  1
  O  O355  1  0.25488363  0.12231954  0.25281188  1
  O  O356  1  0.23825354  0.11153942  0.76685019  1
  O  O357  1  0.25480502  0.61665734  0.25292748  1
  O  O358  1  0.24979413  0.62178800  0.75908138  1
  O  O359  1  0.75300387  0.12151526  0.25175607  1
  O  O360  1  0.75721310  0.13076594  0.76412543  1
  O  O361  1  0.75555334  0.61366896  0.24566866  1
  O  O362  1  0.76455541  0.61922125  0.74787153  1
  O  O363  1  0.35972417  0.12496331  0.36733935  1
  O  O364  1  0.36478373  0.11454523  0.88158892  1
  O  O365  1  0.36095722  0.61413720  0.36491186  1
  O  O366  1  0.37471303  0.62281996  0.87643501  1
  O  O367  1  0.86670993  0.12566152  0.36574674  1
  O  O368  1  0.86781762  0.11871477  0.87261824  1
  O  O369  1  0.86347168  0.61471080  0.36492946  1
  O  O370  1  0.87641596  0.62296098  0.86305537  1
  O  O371  1  0.13308415  0.38152662  0.13040917  1
  O  O372  1  0.13026962  0.37928740  0.62983714  1
  O  O373  1  0.12148016  0.88174897  0.14003924  1
  O  O374  1  0.12444569  0.88153289  0.63297765  1
  O  O375  1  0.63755989  0.38071798  0.13242422  1
  O  O376  1  0.63510066  0.38215967  0.63234602  1
  O  O377  1  0.62702474  0.88825668  0.13394885  1
  O  O378  1  0.60634442  0.88204939  0.58453427  1
  O  O379  1  0.12666790  0.26036940  0.25795338  1
  O  O380  1  0.11565527  0.25365982  0.75837035  1
  O  O381  1  0.13149282  0.75873845  0.25839275  1
  O  O382  1  0.12118615  0.76345947  0.75141521  1
  O  O383  1  0.64267941  0.27196526  0.26681294  1
  O  O384  1  0.62240694  0.26030760  0.75687750  1
  O  O385  1  0.61714090  0.75968509  0.25237501  1
  O  O386  1  0.62781069  0.74410062  0.76721322  1
  O  O387  1  0.37274584  0.23641720  0.24920672  1
  O  O388  1  0.38301304  0.26339771  0.75325371  1
  O  O389  1  0.37750185  0.74467476  0.24076639  1
  O  O390  1  0.37155234  0.74737818  0.74747690  1
  O  O391  1  0.86587579  0.24105302  0.24009221  1
  O  O392  1  0.88283968  0.23862085  0.74805750  1
  O  O393  1  0.87162615  0.73752279  0.24614394  1
  O  O394  1  0.87947700  0.73480365  0.75353794  1
  O  O395  1  0.37339390  0.49020187  0.49077601  1
  O  O396  1  0.38275680  0.48827240  1.00671560  1
  O  O397  1  0.32984783  0.98945652  0.48521959  1
  O  O398  1  0.36995609  0.99095157  0.99038597  1
  O  O399  1  0.87585162  0.48826206  0.49076879  1
  O  O400  1  0.85581416  0.49945425  0.98999422  1
  O  O401  1  0.88296972  1.01156154  0.48479321  1
  O  O402  1  0.88115711  1.00458297  0.99484194  1
  O  O403  1  0.11722309  -0.00044317  0.01605304  1
  O  O404  1  0.12862912  0.00483861  0.50745568  1
  O  O405  1  0.12638680  0.50811804  0.01539552  1
  O  O406  1  0.12102593  0.49183869  0.51156039  1
  O  O407  1  0.62330012  0.00492429  0.01227549  1
  O  O408  1  0.61014994  0.03370703  0.48901106  1
  O  O409  1  0.61954603  0.51205703  0.00085280  1
  O  O410  1  0.63026832  0.49274560  0.51556215  1
  O  O411  1  0.36139803  0.37625777  0.11991735  1
  O  O412  1  0.36599990  0.37800410  0.61050105  1
  O  O413  1  0.37045240  0.86499984  0.12303393  1
  O  O414  1  0.38090607  0.85332960  0.62937046  1
  O  O415  1  0.86252968  0.36701097  0.12686777  1
  O  O416  1  0.87123864  0.36751356  0.62097927  1
  O  O417  1  0.87673432  0.86245412  0.14059675  1
  O  O418  1  0.88415230  0.87515455  0.59796235  1
  O  O419  1  0.13296407  0.13544547  0.37433414  1
  O  O420  1  0.12877553  0.13238084  0.88018451  1
  O  O421  1  0.14158678  0.63104063  0.36586666  1
  O  O422  1  0.11424048  0.63184187  0.89013330  1
  O  O423  1  0.62841778  0.14315081  0.36338372  1
  O  O424  1  0.63234591  0.13174156  0.88050575  1
  O  O425  1  0.64360980  0.60912521  0.37340719  1
  O  O426  1  0.62630595  0.63610192  0.88478348  1
