# generated using pymatgen
data_V85Zn86O256
_symmetry_space_group_name_H-M   'P 1'
_cell_length_a   16.93868435
_cell_length_b   16.93129802
_cell_length_c   16.94725179
_cell_angle_alpha   89.99799162
_cell_angle_beta   90.06240041
_cell_angle_gamma   89.97416854
_symmetry_Int_Tables_number   1
_chemical_formula_structural   V85Zn86O256
_chemical_formula_sum   'V85 Zn86 O256'
_cell_volume   4860.36527523
_cell_formula_units_Z   1
loop_
 _symmetry_equiv_pos_site_id
 _symmetry_equiv_pos_as_xyz
  1  'x, y, z'
loop_
 _atom_site_type_symbol
 _atom_site_label
 _atom_site_symmetry_multiplicity
 _atom_site_fract_x
 _atom_site_fract_y
 _atom_site_fract_z
 _atom_site_occupancy
  V  V0  1  0.74600544  0.49581725  0.25250801  1
  V  V1  1  0.62045987  0.62770968  -0.00035493  1
  V  V2  1  0.37550423  0.36800114  0.50276931  1
  V  V3  1  0.24745224  0.88639222  0.11550709  1
  V  V4  1  0.50378765  0.00565227  -0.00378197  1
  V  V5  1  0.63195261  0.49661954  0.63023762  1
  V  V6  1  0.87668542  0.49337585  0.37459144  1
  V  V7  1  0.12190695  0.37364218  0.26205013  1
  V  V8  1  0.12798363  0.63277955  -0.00644307  1
  V  V9  1  0.50147587  0.50239453  0.00094510  1
  V  V10  1  0.50963088  0.01147925  0.51679427  1
  V  V11  1  0.24954863  0.50121788  0.25074257  1
  V  V12  1  0.50426792  0.49543266  0.50101438  1
  V  V13  1  0.00004498  0.75043676  0.25281485  1
  V  V14  1  0.00519962  0.25334438  0.26207244  1
  V  V15  1  0.51839803  0.23780493  0.71111662  1
  V  V16  1  0.38077394  0.00806127  0.37540086  1
  V  V17  1  0.51039742  0.37168325  0.87741891  1
  V  V18  1  0.73532635  0.14181018  0.38229868  1
  V  V19  1  0.24371381  0.12618355  0.36870779  1
  V  V20  1  0.87035495  0.61126704  0.75267290  1
  V  V21  1  0.36286414  0.74874363  0.61964145  1
  V  V22  1  0.11894798  0.37455092  0.75962849  1
  V  V23  1  0.88264846  0.24331290  0.61953959  1
  V  V24  1  0.88227185  0.37037558  0.49919356  1
  V  V25  1  0.25063575  0.36979091  0.62704350  1
  V  V26  1  0.74690332  0.62191290  0.37809122  1
  V  V27  1  0.63728439  0.37644357  0.75792724  1
  V  V28  1  0.62103171  0.75274689  0.87215924  1
  V  V29  1  0.73106277  0.35117328  0.59720661  1
  V  V30  1  0.87187584  -0.00265121  0.87569101  1
  V  V31  1  0.37679019  0.23989885  0.13486490  1
  V  V32  1  0.62180019  0.23715120  0.88632971  1
  V  V33  1  0.62353636  0.49917476  0.12530541  1
  V  V34  1  0.88291777  0.25283611  0.11994237  1
  V  V35  1  0.36817271  0.00492431  0.86672961  1
  V  V36  1  -0.00183660  0.62338376  0.62606642  1
  V  V37  1  0.00428899  0.74455023  0.75616144  1
  V  V38  1  0.00006134  0.00287572  0.51346544  1
  V  V39  1  0.62007370  0.87617572  0.25213892  1
  V  V40  1  0.00058383  0.87560855  0.37775012  1
  V  V41  1  0.74999607  0.61631290  0.87104763  1
  V  V42  1  0.87449721  0.74714071  0.12605595  1
  V  V43  1  0.25031800  0.37511526  0.12504714  1
  V  V44  1  0.37826248  0.49973846  0.37403706  1
  V  V45  1  0.87048844  0.75112821  0.62768006  1
  V  V46  1  0.49756880  0.63224742  0.12584429  1
  V  V47  1  0.74866070  0.87311122  0.12492890  1
  V  V48  1  0.37758437  0.37297460  0.00097568  1
  V  V49  1  0.00039336  0.62420920  0.12425324  1
  V  V50  1  0.74678792  -0.00423137  0.73143274  1
  V  V51  1  0.49995223  0.75193914  0.74238656  1
  V  V52  1  0.63003095  0.00872848  0.11365745  1
  V  V53  1  0.37767165  0.62088911  0.74740569  1
  V  V54  1  0.12957011  0.87775591  0.75167340  1
  V  V55  1  0.62844258  0.87681934  0.73318538  1
  V  V56  1  0.00295976  -0.00197916  0.00758783  1
  V  V57  1  0.37221271  0.13502005  0.73581655  1
  V  V58  1  0.36115586  0.75342089  0.12336276  1
  V  V59  1  0.25274015  0.49772447  0.75069025  1
  V  V60  1  0.24289883  0.24937787  0.49758244  1
  V  V61  1  0.75376211  0.37419720  0.11934975  1
  V  V62  1  0.74546339  0.75461370  0.50295391  1
  V  V63  1  0.37762870  0.49663357  0.87165130  1
  V  V64  1  0.24931323  0.25023615  -0.00656164  1
  V  V65  1  0.87428509  -0.00013527  0.37711936  1
  V  V66  1  0.74816177  0.00006880  0.25407873  1
  V  V67  1  0.12371018  0.49902836  0.12186951  1
  V  V68  1  0.87234662  0.87377990  0.50335463  1
  V  V69  1  0.12767231  0.62970883  0.50088999  1
  V  V70  1  0.12794992  0.88600053  0.24851768  1
  V  V71  1  0.13114613  0.75425254  0.38012421  1
  V  V72  1  0.12054228  0.12794989  0.50742629  1
  V  V73  1  0.12416012  0.50057538  0.62697319  1
  V  V74  1  0.50034254  0.35682191  0.36487966  1
  V  V75  1  0.25404664  0.63121794  0.38059067  1
  V  V76  1  0.74840491  0.74884965  -0.00189434  1
  V  V77  1  0.88532975  0.11873225  0.74367878  1
  V  V78  1  0.75314235  0.23631208  0.00215872  1
  V  V79  1  0.36770984  0.87641158  0.49996797  1
  V  V80  1  0.87858698  0.12569327  0.25174614  1
  V  V81  1  0.00298892  0.49882722  0.49351168  1
  V  V82  1  0.00309074  0.86793917  0.87786027  1
  V  V83  1  0.12613883  0.12104087  0.00379105  1
  V  V84  1  -0.01292954  0.49026484  -0.00520123  1
  Zn  Zn85  1  0.74707667  0.11684771  0.87427203  1
  Zn  Zn86  1  0.11359897  0.25150058  0.87820220  1
  Zn  Zn87  1  0.24587735  0.12458680  0.86869812  1
  Zn  Zn88  1  0.37553974  0.62965408  0.25163584  1
  Zn  Zn89  1  0.50027233  0.88047379  0.87139147  1
  Zn  Zn90  1  0.00063279  0.24658875  0.75138897  1
  Zn  Zn91  1  0.12938247  0.01019768  0.63660119  1
  Zn  Zn92  1  0.24184255  0.63771645  0.87393481  1
  Zn  Zn93  1  0.37324404  0.87573234  -0.00736779  1
  Zn  Zn94  1  0.62394443  0.62451267  0.50233761  1
  Zn  Zn95  1  0.24682552  0.87975698  0.62424998  1
  Zn  Zn96  1  0.62186010  0.75056164  0.37570911  1
  Zn  Zn97  1  0.51661450  0.14099950  0.12766207  1
  Zn  Zn98  1  0.87452013  0.62353209  0.25257858  1
  Zn  Zn99  1  0.00777622  0.12043354  0.13009691  1
  Zn  Zn100  1  0.49793421  0.75436029  0.25170235  1
  Zn  Zn101  1  0.50108546  0.87581336  0.38219059  1
  Zn  Zn102  1  -0.03915183  0.37346974  0.87616303  1
  Zn  Zn103  1  0.62402730  0.35466794  0.24830678  1
  Zn  Zn104  1  0.50066837  0.62113922  0.62259790  1
  Zn  Zn105  1  0.87646856  0.87147195  -0.00143153  1
  Zn  Zn106  1  0.25346598  0.00584177  0.24549061  1
  Zn  Zn107  1  0.18725275  0.19096559  0.18351824  1
  Zn  Zn108  1  0.18786007  0.19096486  0.68772918  1
  Zn  Zn109  1  0.18543136  0.68805946  0.19213883  1
  Zn  Zn110  1  0.18707068  0.68687820  0.69233019  1
  Zn  Zn111  1  0.69525425  0.18632946  0.19014929  1
  Zn  Zn112  1  0.68983690  0.18581897  0.68841840  1
  Zn  Zn113  1  0.68560005  0.68678770  0.19163385  1
  Zn  Zn114  1  0.68695389  0.68480992  0.68591622  1
  Zn  Zn115  1  0.30926315  0.31152733  0.31404836  1
  Zn  Zn116  1  0.31923638  0.30810665  0.80955338  1
  Zn  Zn117  1  0.31459549  0.81897089  0.30953482  1
  Zn  Zn118  1  0.31523449  0.81115538  0.81324093  1
  Zn  Zn119  1  0.81705494  0.31368960  0.30909775  1
  Zn  Zn120  1  0.80912889  0.29905764  0.80399070  1
  Zn  Zn121  1  0.81032013  0.81094952  0.31528067  1
  Zn  Zn122  1  0.81229158  0.81034438  0.81054496  1
  Zn  Zn123  1  0.19025288  0.44121066  0.43921202  1
  Zn  Zn124  1  0.18935748  0.44293761  0.93933735  1
  Zn  Zn125  1  0.18929669  0.94298196  0.44253884  1
  Zn  Zn126  1  0.18559014  0.93756192  0.93312753  1
  Zn  Zn127  1  0.67974065  0.41504747  0.44151934  1
  Zn  Zn128  1  0.74902751  0.41238491  0.91373380  1
  Zn  Zn129  1  0.68463283  0.94194102  0.43963411  1
  Zn  Zn130  1  0.68791291  0.93282354  0.93398172  1
  Zn  Zn131  1  0.31566549  0.06225585  0.05501668  1
  Zn  Zn132  1  0.30807942  0.05797352  0.56484962  1
  Zn  Zn133  1  0.31278923  0.56433260  0.06083645  1
  Zn  Zn134  1  0.31407943  0.55857920  0.56173982  1
  Zn  Zn135  1  0.81986871  0.06079356  0.06448790  1
  Zn  Zn136  1  0.80995364  0.06660841  0.55782604  1
  Zn  Zn137  1  0.80871240  0.56479667  0.06264843  1
  Zn  Zn138  1  0.80975498  0.55837181  0.56345308  1
  Zn  Zn139  1  0.43441389  0.43821777  0.18656014  1
  Zn  Zn140  1  0.44693608  0.41727930  0.68472027  1
  Zn  Zn141  1  0.47252013  0.99747506  0.22063762  1
  Zn  Zn142  1  0.43377839  0.93835223  0.68693788  1
  Zn  Zn143  1  0.93820328  0.43566970  0.18827384  1
  Zn  Zn144  1  0.93390615  0.43068809  0.68243931  1
  Zn  Zn145  1  0.93618061  0.93426160  0.18880259  1
  Zn  Zn146  1  0.93781145  0.93178077  0.69026437  1
  Zn  Zn147  1  0.06257528  0.06446006  0.32073681  1
  Zn  Zn148  1  0.06177710  0.05906933  0.82282549  1
  Zn  Zn149  1  0.06431826  0.56449430  0.31173436  1
  Zn  Zn150  1  0.05865088  0.55642138  0.81661337  1
  Zn  Zn151  1  0.55365149  0.17435236  0.30355581  1
  Zn  Zn152  1  0.55951928  0.06248070  0.80431359  1
  Zn  Zn153  1  0.56243433  0.56091814  0.31163413  1
  Zn  Zn154  1  0.56311084  0.56254741  0.81105935  1
  Zn  Zn155  1  0.43007501  0.18270809  0.44779863  1
  Zn  Zn156  1  0.43699444  0.18198784  0.94227640  1
  Zn  Zn157  1  0.44155352  0.68939048  0.43889591  1
  Zn  Zn158  1  0.41223603  0.70066442  0.92525883  1
  Zn  Zn159  1  0.93707830  0.18513760  0.43603806  1
  Zn  Zn160  1  0.93819814  0.18446393  0.93424644  1
  Zn  Zn161  1  0.93533067  0.68480136  0.43809656  1
  Zn  Zn162  1  0.93625097  0.68069288  0.93807127  1
  Zn  Zn163  1  0.06282373  0.31232156  0.06447317  1
  Zn  Zn164  1  0.06327047  0.31297432  0.56550261  1
  Zn  Zn165  1  0.06530452  0.81265554  0.06448856  1
  Zn  Zn166  1  0.06011100  0.81245172  0.56595291  1
  Zn  Zn167  1  0.56562769  0.31268891  0.06478238  1
  Zn  Zn168  1  0.56278381  0.29974622  0.56154500  1
  Zn  Zn169  1  0.55579558  0.81892040  0.06172020  1
  Zn  Zn170  1  0.55654435  0.81657613  0.55823999  1
  O  O171  1  0.12500092  0.12748640  0.10991782  1
  O  O172  1  0.12564634  0.12806852  0.61336470  1
  O  O173  1  0.12007376  0.61741228  0.12039851  1
  O  O174  1  0.11990068  0.62106419  0.62063282  1
  O  O175  1  0.63731777  0.11066986  0.11933415  1
  O  O176  1  0.58814675  0.20063609  0.63702833  1
  O  O177  1  0.61713535  0.62178074  0.12113239  1
  O  O178  1  0.62312511  0.61150564  0.62387073  1
  O  O179  1  0.38070661  0.38054756  0.38054741  1
  O  O180  1  0.38646068  0.38078866  0.87910041  1
  O  O181  1  0.37356683  0.88503275  0.38428596  1
  O  O182  1  0.37939708  0.89237837  0.86827319  1
  O  O183  1  0.87702516  0.38720473  0.37854308  1
  O  O184  1  0.84803290  0.37917298  0.86981823  1
  O  O185  1  0.88017569  0.87939283  0.38170530  1
  O  O186  1  0.88426707  0.87841849  0.87507090  1
  O  O187  1  0.25490819  0.01301621  0.37621923  1
  O  O188  1  0.26437618  0.00267048  0.87574563  1
  O  O189  1  0.26189541  0.50652598  0.37261712  1
  O  O190  1  0.26330024  0.50045777  0.86842525  1
  O  O191  1  0.75603297  0.00291049  0.36665159  1
  O  O192  1  0.76246412  -0.00340947  0.87234682  1
  O  O193  1  0.75432091  0.50072046  0.36875909  1
  O  O194  1  0.73291519  0.51878509  0.87951274  1
  O  O195  1  0.24312744  0.49671437  0.13000229  1
  O  O196  1  0.24159158  0.49428433  0.63051397  1
  O  O197  1  0.25334337  0.98971326  0.12563217  1
  O  O198  1  0.24113865  0.99367434  0.62558044  1
  O  O199  1  0.74721359  0.49257673  0.13135167  1
  O  O200  1  0.73481337  0.48473175  0.61633212  1
  O  O201  1  0.75177364  0.98923403  0.12849421  1
  O  O202  1  0.75300550  0.99765606  0.63310295  1
  O  O203  1  0.01009916  0.36698921  0.24622131  1
  O  O204  1  0.00771500  0.37862706  0.75415206  1
  O  O205  1  0.00686254  0.86964765  0.25577714  1
  O  O206  1  0.00502409  0.86387409  0.75862953  1
  O  O207  1  0.49268980  0.37648938  0.26439565  1
  O  O208  1  0.51539762  0.35905121  0.76269113  1
  O  O209  1  0.51555248  0.88715801  0.25004419  1
  O  O210  1  0.50952243  0.86862290  0.74864648  1
  O  O211  1  0.49983158  0.10611672  0.23405367  1
  O  O212  1  0.49447503  0.13844187  0.74642713  1
  O  O213  1  0.49825203  0.62392480  0.23674444  1
  O  O214  1  0.49515929  0.63217981  0.74440914  1
  O  O215  1  0.99621102  0.12957397  0.25001950  1
  O  O216  1  0.98814434  0.11828302  0.75294597  1
  O  O217  1  0.99805801  0.63157061  0.24284053  1
  O  O218  1  0.99357118  0.62802667  0.74808421  1
  O  O219  1  0.36678171  0.25645216  0.00401799  1
  O  O220  1  0.36173449  0.26213423  0.49803515  1
  O  O221  1  0.38631930  0.75938226  0.02209686  1
  O  O222  1  0.38252808  0.75862002  0.51142246  1
  O  O223  1  0.87067890  0.24257731  0.01223582  1
  O  O224  1  0.88328342  0.25881840  0.50453158  1
  O  O225  1  0.86921908  0.74837820  0.00962456  1
  O  O226  1  0.86916570  0.75274781  0.50781194  1
  O  O227  1  0.13411141  0.24680813  0.50190081  1
  O  O228  1  0.13250054  0.24575285  0.99856823  1
  O  O229  1  0.11925942  0.74733491  0.48761469  1
  O  O230  1  0.11867622  0.73131304  1.00361669  1
  O  O231  1  0.66332303  0.31740039  0.51578042  1
  O  O232  1  0.63590600  0.25011606  0.99386719  1
  O  O233  1  0.63209190  0.74779325  0.49880368  1
  O  O234  1  0.62561637  0.74752124  0.99143702  1
  O  O235  1  0.48140838  0.25262852  0.11522071  1
  O  O236  1  0.47383004  0.29198803  0.63381045  1
  O  O237  1  0.49441069  0.74554509  0.13104563  1
  O  O238  1  0.49563834  0.74715244  0.63310515  1
  O  O239  1  0.99385667  0.24641362  0.13160670  1
  O  O240  1  0.98690285  0.25515558  0.63050276  1
  O  O241  1  0.99197015  0.74630472  0.13050780  1
  O  O242  1  0.99234099  0.74062098  0.63281756  1
  O  O243  1  -0.00262506  0.24891914  0.36122461  1
  O  O244  1  -0.00442474  0.25997605  0.87136461  1
  O  O245  1  0.00511402  0.75505604  0.37169062  1
  O  O246  1  -0.00822723  0.75546382  0.86824411  1
  O  O247  1  0.49192280  0.25337417  0.37495728  1
  O  O248  1  0.51504048  0.25541186  0.89354428  1
  O  O249  1  0.50262514  0.75605030  0.36943898  1
  O  O250  1  0.50397448  0.75143475  0.86032514  1
  O  O251  1  0.24327793  0.13398111  0.49494361  1
  O  O252  1  0.24352534  0.13319503  0.99569865  1
  O  O253  1  0.24439796  0.61935475  0.48800817  1
  O  O254  1  0.23134597  0.61507292  0.99860105  1
  O  O255  1  0.75238659  0.12413655  0.48084866  1
  O  O256  1  0.75623790  0.13267262  0.99926841  1
  O  O257  1  0.74877946  0.63132818  0.49365138  1
  O  O258  1  0.74106189  0.63201131  0.99507734  1
  O  O259  1  0.25501961  0.37072920  0.00553124  1
  O  O260  1  0.25341825  0.36993994  0.50471585  1
  O  O261  1  0.24780250  0.87780555  0.01176149  1
  O  O262  1  0.26224222  0.87516681  0.50095620  1
  O  O263  1  0.74852036  0.36053116  0.01597707  1
  O  O264  1  0.77833310  0.39393456  0.49957455  1
  O  O265  1  0.75275846  0.86659766  0.00854958  1
  O  O266  1  0.75699404  0.86235746  0.49263245  1
  O  O267  1  0.12792913  0.49644623  0.23942098  1
  O  O268  1  0.13112390  0.49526147  0.74657030  1
  O  O269  1  0.12398960  0.98837855  0.25508673  1
  O  O270  1  0.11483443  0.98228979  0.75297824  1
  O  O271  1  0.63641676  0.49903013  0.24473582  1
  O  O272  1  0.62043954  0.48790507  0.74411840  1
  O  O273  1  0.64302640  0.99177529  0.23538927  1
  O  O274  1  0.63880746  0.99295446  0.75196385  1
  O  O275  1  0.36878801  -0.00649819  0.27191535  1
  O  O276  1  0.38525090  0.01750228  0.76030698  1
  O  O277  1  0.36809227  0.50346004  0.25864043  1
  O  O278  1  0.37454850  0.49586727  0.75393685  1
  O  O279  1  0.86810024  0.00514585  0.25311634  1
  O  O280  1  0.86574706  -0.00013878  0.75336074  1
  O  O281  1  0.86566332  0.49982694  0.25690905  1
  O  O282  1  0.87672416  0.51283980  0.73932007  1
  O  O283  1  0.12891570  0.38572985  0.36097348  1
  O  O284  1  0.13222805  0.37756823  0.86276263  1
  O  O285  1  0.12271202  0.87011787  0.37101426  1
  O  O286  1  0.11250472  0.87420261  0.86712796  1
  O  O287  1  0.60361709  0.37554993  0.36528420  1
  O  O288  1  0.63256729  0.36550095  0.87271369  1
  O  O289  1  0.62643318  0.87517859  0.36451636  1
  O  O290  1  0.62532219  0.86189779  0.86496429  1
  O  O291  1  0.36777573  0.13907138  0.12311828  1
  O  O292  1  0.37081506  0.12694730  0.63729057  1
  O  O293  1  0.37846810  0.63592522  0.12581901  1
  O  O294  1  0.37609417  0.62995779  0.62907535  1
  O  O295  1  0.87823075  0.13040106  0.13866999  1
  O  O296  1  0.87278177  0.13040323  0.62993602  1
  O  O297  1  0.87820077  0.63501816  0.12763884  1
  O  O298  1  0.87830836  0.63172875  0.62973527  1
  O  O299  1  0.25743321  0.25660321  0.11408288  1
  O  O300  1  0.24692277  0.26390982  0.61672437  1
  O  O301  1  0.25743307  0.75173901  0.12685787  1
  O  O302  1  0.26000203  0.75105729  0.62895015  1
  O  O303  1  0.76095892  0.25335814  0.11983689  1
  O  O304  1  0.76197539  0.25265183  0.62298306  1
  O  O305  1  0.75580695  0.75302062  0.12135857  1
  O  O306  1  0.75862086  0.74339443  0.61499261  1
  O  O307  1  0.25362800  0.23699341  0.38277233  1
  O  O308  1  0.25084608  0.25373233  0.88712711  1
  O  O309  1  0.24325551  0.74301592  0.37011035  1
  O  O310  1  0.30405021  0.72972434  0.88664917  1
  O  O311  1  0.75332837  0.24063420  0.36776954  1
  O  O312  1  0.73986457  0.24110548  0.88475467  1
  O  O313  1  0.75013897  0.73829088  0.38374638  1
  O  O314  1  0.74101066  0.74460943  0.87998752  1
  O  O315  1  0.00619876  0.11444872  0.00108437  1
  O  O316  1  0.00808595  0.11509414  0.49399422  1
  O  O317  1  0.00812103  0.61398716  0.00530480  1
  O  O318  1  0.00678786  0.61864341  0.50532450  1
  O  O319  1  0.49768432  0.11064343  0.01078261  1
  O  O320  1  0.49569892  0.11176303  0.50356170  1
  O  O321  1  0.50058794  0.62329506  0.01137637  1
  O  O322  1  0.50192783  0.60921376  0.50117073  1
  O  O323  1  0.49164207  0.37715079  0.48649871  1
  O  O324  1  0.49760643  0.38353764  0.99656255  1
  O  O325  1  0.48649176  0.88590609  0.50042457  1
  O  O326  1  0.49636087  0.88771818  0.99266968  1
  O  O327  1  0.99485641  0.38716166  0.50464527  1
  O  O328  1  0.99986930  0.38721788  1.00168370  1
  O  O329  1  0.99360639  0.88084764  0.49612422  1
  O  O330  1  1.00037516  0.87810607  0.99426409  1
  O  O331  1  0.49017653  0.49610838  0.38000081  1
  O  O332  1  0.50093617  0.48959355  0.88130112  1
  O  O333  1  0.48262029  0.99979542  0.38414854  1
  O  O334  1  0.49493599  1.00313225  0.87999967  1
  O  O335  1  0.99259966  0.50893275  0.38432234  1
  O  O336  1  0.99768752  0.49324793  0.89080086  1
  O  O337  1  0.99293119  0.99262267  0.38343605  1
  O  O338  1  0.98847908  0.98890422  0.88345502  1
  O  O339  1  -0.00681240  -0.00223715  0.11168575  1
  O  O340  1  0.00229125  -0.00576361  0.61577888  1
  O  O341  1  0.00661424  0.50438645  0.12047197  1
  O  O342  1  0.00487329  0.50493712  0.61571314  1
  O  O343  1  0.51969067  -0.00857986  0.11338832  1
  O  O344  1  0.49812961  -0.00016440  0.61636089  1
  O  O345  1  0.50136315  0.50778234  0.12034695  1
  O  O346  1  0.50886447  0.49265872  0.61534335  1
  O  O347  1  0.24356884  0.38195043  0.24497343  1
  O  O348  1  0.24743951  0.37796794  0.74294429  1
  O  O349  1  0.24144533  0.87911523  0.24070182  1
  O  O350  1  0.23095820  0.86382321  0.75615178  1
  O  O351  1  0.74727644  0.38001363  0.24067399  1
  O  O352  1  0.73608356  0.36033939  0.73314139  1
  O  O353  1  0.74692219  0.88044227  0.24394938  1
  O  O354  1  0.74496324  0.88751990  0.75153355  1
  O  O355  1  0.23888796  0.12513274  0.26463731  1
  O  O356  1  0.26658618  0.13934709  0.75385743  1
  O  O357  1  0.24914866  0.61834676  0.26314064  1
  O  O358  1  0.25814181  0.61580437  0.75383382  1
  O  O359  1  0.76017730  0.11605659  0.25776368  1
  O  O360  1  0.75457822  0.10957658  0.74890821  1
  O  O361  1  0.75174487  0.61550751  0.25819348  1
  O  O362  1  0.75867429  0.63040352  0.75860218  1
  O  O363  1  0.36026264  0.11485867  0.38221168  1
  O  O364  1  0.37370064  0.11687117  0.87029731  1
  O  O365  1  0.36964755  0.61894735  0.37549837  1
  O  O366  1  0.39316336  0.60200993  0.86460674  1
  O  O367  1  0.87278312  0.11834362  0.36365423  1
  O  O368  1  0.87197662  0.11306239  0.86437119  1
  O  O369  1  0.86355454  0.61279015  0.37610453  1
  O  O370  1  0.86336347  0.62679106  0.86568622  1
  O  O371  1  0.13199864  0.38391276  0.13000750  1
  O  O372  1  0.13135091  0.38192043  0.63524654  1
  O  O373  1  0.13890207  0.86722794  0.13417626  1
  O  O374  1  0.12280978  0.87040263  0.64258356  1
  O  O375  1  0.63243846  0.38351822  0.12848721  1
  O  O376  1  0.62463791  0.37972875  0.64066798  1
  O  O377  1  0.63813409  0.87601088  0.12937706  1
  O  O378  1  0.62794280  0.86617221  0.63493409  1
  O  O379  1  0.11802112  0.26179279  0.24437577  1
  O  O380  1  0.12093169  0.25996234  0.75310929  1
  O  O381  1  0.11935460  0.75697839  0.26247187  1
  O  O382  1  0.11040042  0.75287701  0.75059499  1
  O  O383  1  0.61222015  0.24393700  0.23370401  1
  O  O384  1  0.61982484  0.25354396  0.76979803  1
  O  O385  1  0.62437682  0.76244129  0.25184346  1
  O  O386  1  0.61942443  0.75433907  0.75355072  1
  O  O387  1  0.36756222  0.25515696  0.23274478  1
  O  O388  1  0.39261962  0.23898864  0.75434202  1
  O  O389  1  0.37681256  0.75056891  0.23701085  1
  O  O390  1  0.38451268  0.74513555  0.73749058  1
  O  O391  1  0.88389323  0.24237896  0.24285825  1
  O  O392  1  0.87561188  0.23367634  0.73926849  1
  O  O393  1  0.88004642  0.74792994  0.24385161  1
  O  O394  1  0.88274431  0.74297997  0.74283034  1
  O  O395  1  0.38166531  0.49034797  0.49171746  1
  O  O396  1  0.38155084  0.49449944  0.99249908  1
  O  O397  1  0.37662766  0.99373204  0.49384433  1
  O  O398  1  0.38281756  0.99839580  0.98615617  1
  O  O399  1  0.88737611  0.49892217  0.49376845  1
  O  O400  1  0.88872309  0.50410638  1.00817378  1
  O  O401  1  0.88072274  0.99366947  0.49752490  1
  O  O402  1  0.88198527  0.99522912  0.99160705  1
  O  O403  1  0.11472562  0.00701930  -0.00730051  1
  O  O404  1  0.11464538  0.00857305  0.50280190  1
  O  O405  1  0.11631811  0.50358018  0.01063523  1
  O  O406  1  0.11913002  0.50667780  0.50447029  1
  O  O407  1  0.62071540  -0.00630365  0.00306640  1
  O  O408  1  0.60891221  -0.00354214  0.50167024  1
  O  O409  1  0.61424472  0.51149114  0.00906671  1
  O  O410  1  0.61523995  0.49433877  0.50538681  1
  O  O411  1  0.36752167  0.37195010  0.11776746  1
  O  O412  1  0.35892890  0.39137396  0.61195848  1
  O  O413  1  0.35481146  0.86586658  0.12557756  1
  O  O414  1  0.37075036  0.86592885  0.62077362  1
  O  O415  1  0.86775104  0.36319931  0.13188627  1
  O  O416  1  0.86630147  0.36394610  0.61506375  1
  O  O417  1  0.86517885  0.86305848  0.12599613  1
  O  O418  1  0.88015513  0.85904987  0.62008851  1
  O  O419  1  0.13730935  0.12210906  0.38872746  1
  O  O420  1  0.12685488  0.12970037  0.88556790  1
  O  O421  1  0.13295590  0.63354918  0.37985490  1
  O  O422  1  0.12481079  0.62040417  0.88797260  1
  O  O423  1  0.63686530  0.12986624  0.37129790  1
  O  O424  1  0.62551338  0.13492910  0.87266375  1
  O  O425  1  0.63673055  0.62271086  0.37728266  1
  O  O426  1  0.62636525  0.63791077  0.87714982  1
