# generated using pymatgen
data_V85Zn86O256
_symmetry_space_group_name_H-M   'P 1'
_cell_length_a   16.92835675
_cell_length_b   16.91855065
_cell_length_c   16.92728176
_cell_angle_alpha   89.98161032
_cell_angle_beta   89.92980752
_cell_angle_gamma   90.00157129
_symmetry_Int_Tables_number   1
_chemical_formula_structural   V85Zn86O256
_chemical_formula_sum   'V85 Zn86 O256'
_cell_volume   4848.02480778
_cell_formula_units_Z   1
loop_
 _symmetry_equiv_pos_site_id
 _symmetry_equiv_pos_as_xyz
  1  'x, y, z'
loop_
 _atom_site_type_symbol
 _atom_site_label
 _atom_site_symmetry_multiplicity
 _atom_site_fract_x
 _atom_site_fract_y
 _atom_site_fract_z
 _atom_site_occupancy
  V  V0  1  0.24673740  0.38007067  0.12343941  1
  V  V1  1  0.49397025  -0.00205914  0.50413079  1
  V  V2  1  0.37600494  0.87657034  0.00226973  1
  V  V3  1  0.51881893  0.24349272  0.74953972  1
  V  V4  1  0.37476398  0.24918198  0.12420350  1
  V  V5  1  0.37258080  -0.00056291  0.87395438  1
  V  V6  1  0.87594299  0.24752906  0.11696741  1
  V  V7  1  0.62547857  0.12205249  0.49847014  1
  V  V8  1  0.00192009  -0.00061522  0.49659355  1
  V  V9  1  0.87469655  0.74882727  0.62228303  1
  V  V10  1  0.75108798  0.37413544  0.63366651  1
  V  V11  1  0.00188723  0.37893171  0.88012496  1
  V  V12  1  0.74837532  0.87908989  0.13095523  1
  V  V13  1  0.86330794  0.12378485  0.25659438  1
  V  V14  1  0.37683745  0.37515909  -0.00466219  1
  V  V15  1  0.25377391  0.74440901  -0.00081858  1
  V  V16  1  0.74269453  0.74852496  0.00238636  1
  V  V17  1  0.25969589  0.37738375  0.63166997  1
  V  V18  1  0.62335810  0.74497613  0.87897841  1
  V  V19  1  0.62453235  0.00539785  0.12902407  1
  V  V20  1  0.38381924  0.24538836  0.62525857  1
  V  V21  1  0.38149761  0.48589770  0.37715272  1
  V  V22  1  0.37302664  0.62107003  0.73765873  1
  V  V23  1  0.12778694  0.62502205  0.50021431  1
  V  V24  1  0.62333543  0.00479427  0.62497066  1
  V  V25  1  0.87572871  0.74219099  0.13090932  1
  V  V26  1  0.73117284  0.24482897  -0.00247722  1
  V  V27  1  -0.00050908  0.62164154  0.62269148  1
  V  V28  1  0.49942344  0.87295881  0.87460249  1
  V  V29  1  0.24803056  0.62277357  0.87061306  1
  V  V30  1  -0.00415395  0.87681749  0.87230754  1
  V  V31  1  0.51702104  0.37052669  0.86904509  1
  V  V32  1  0.49944854  0.75067754  0.25437728  1
  V  V33  1  0.00043852  0.24890108  0.74331307  1
  V  V34  1  0.25045504  0.12241279  0.87052519  1
  V  V35  1  0.62704828  0.50256790  0.12846326  1
  V  V36  1  0.24737848  0.87394040  0.12660601  1
  V  V37  1  0.50582215  0.50403855  -0.00297856  1
  V  V38  1  -0.00021590  0.75187592  0.74374383  1
  V  V39  1  0.11597684  0.51482702  0.10822062  1
  V  V40  1  0.75205475  0.37784002  0.12806006  1
  V  V41  1  0.00015857  0.12419524  0.12687744  1
  V  V42  1  0.75563221  -0.00453636  0.75784926  1
  V  V43  1  0.37691712  0.74885692  0.12725012  1
  V  V44  1  0.61872690  0.49625422  0.63378252  1
  V  V45  1  0.25588493  0.62718803  0.37596120  1
  V  V46  1  0.62514627  0.87197273  0.74655300  1
  V  V47  1  0.49756911  0.25214413  0.25479080  1
  V  V48  1  0.13196761  0.49907199  0.63173080  1
  V  V49  1  0.87091314  0.62239638  0.75092482  1
  V  V50  1  0.87361400  0.37720480  0.49634399  1
  V  V51  1  0.62326837  0.37641685  0.25310293  1
  V  V52  1  0.25032041  0.12760099  0.37366125  1
  V  V53  1  0.37383950  -0.00562074  0.37721167  1
  V  V54  1  0.12018991  0.38236826  0.25220699  1
  V  V55  1  0.11892308  0.13253453  0.50838213  1
  V  V56  1  0.86636408  -0.00209548  0.37416992  1
  V  V57  1  -0.00304812  0.25468782  0.25469896  1
  V  V58  1  -0.00104709  0.49414457  0.49431936  1
  V  V59  1  -0.00410565  -0.00290607  -0.00137177  1
  V  V60  1  0.87804334  0.50225799  0.88496680  1
  V  V61  1  0.62614137  0.87892802  0.25659163  1
  V  V62  1  0.62336216  0.24253555  0.37512784  1
  V  V63  1  0.50562202  0.62717976  0.12095996  1
  V  V64  1  0.12297737  -0.00419850  0.12563660  1
  V  V65  1  0.25115312  0.76320302  0.50334706  1
  V  V66  1  0.11422647  0.87495860  0.25693710  1
  V  V67  1  0.12425577  0.24861139  0.87256270  1
  V  V68  1  0.25003893  0.24903936  -0.00267574  1
  V  V69  1  -0.00567168  0.74190856  0.25991825  1
  V  V70  1  0.10169332  0.73308766  0.90616912  1
  V  V71  1  0.61540275  0.62411188  0.50987350  1
  V  V72  1  0.86993627  0.87772155  0.00063167  1
  V  V73  1  0.37162351  0.76776908  0.62119569  1
  V  V74  1  0.25956027  0.25921107  0.49855560  1
  V  V75  1  0.75341805  0.87615751  0.61818256  1
  V  V76  1  0.75188303  0.24486210  0.49739280  1
  V  V77  1  0.50242511  0.00938211  0.00228179  1
  V  V78  1  0.13038830  0.87280281  0.74453278  1
  V  V79  1  0.74854027  0.59792424  0.37465176  1
  V  V80  1  0.12306029  0.25563293  0.37428475  1
  V  V81  1  0.37262838  0.49830042  0.86689699  1
  V  V82  1  0.75121692  0.74620341  0.49404500  1
  V  V83  1  0.49865506  0.74477026  0.74280087  1
  V  V84  1  0.88277275  0.11626337  0.75124648  1
  Zn  Zn85  1  0.62404646  0.74680269  0.37699472  1
  Zn  Zn86  1  0.12363838  0.12193188  -0.00041840  1
  Zn  Zn87  1  0.88713413  0.86905989  0.49102881  1
  Zn  Zn88  1  0.49353874  0.48435700  0.50232224  1
  Zn  Zn89  1  0.74822208  0.49152887  0.75692768  1
  Zn  Zn90  1  0.24880787  -0.00036787  0.25128969  1
  Zn  Zn91  1  -0.06767920  0.44254956  0.32966072  1
  Zn  Zn92  1  0.24937746  0.50441183  0.24882627  1
  Zn  Zn93  1  0.12908887  0.37841716  0.75092905  1
  Zn  Zn94  1  0.74441401  0.62178496  0.87943197  1
  Zn  Zn95  1  0.50581204  0.13039101  0.12203401  1
  Zn  Zn96  1  0.25633814  -0.00748311  0.73646814  1
  Zn  Zn97  1  0.87896980  0.24632172  0.62403372  1
  Zn  Zn98  1  0.37536404  0.12365950  0.24919941  1
  Zn  Zn99  1  0.49438229  0.87225032  0.38150112  1
  Zn  Zn100  1  0.12081168  0.75562501  0.38008937  1
  Zn  Zn101  1  0.12441635  0.00262755  0.62436347  1
  Zn  Zn102  1  0.74684936  0.13103793  0.87704392  1
  Zn  Zn103  1  0.37575104  0.62227901  0.25129145  1
  Zn  Zn104  1  0.87649781  0.37596524  -0.00142054  1
  Zn  Zn105  1  0.86922634  0.60587217  0.25291105  1
  Zn  Zn106  1  0.38502162  0.12178520  0.74526205  1
  Zn  Zn107  1  0.18485430  0.18917986  0.18747952  1
  Zn  Zn108  1  0.19423994  0.18852925  0.68752938  1
  Zn  Zn109  1  0.18504503  0.68918250  0.19063295  1
  Zn  Zn110  1  0.18897822  0.69018277  0.68850847  1
  Zn  Zn111  1  0.68763711  0.18963818  0.18488466  1
  Zn  Zn112  1  0.69657902  0.18148081  0.68490311  1
  Zn  Zn113  1  0.68754928  0.68723685  0.19394937  1
  Zn  Zn114  1  0.68951938  0.68666219  0.68675477  1
  Zn  Zn115  1  0.30936161  0.31491983  0.30830218  1
  Zn  Zn116  1  0.31887531  0.30917030  0.80726993  1
  Zn  Zn117  1  0.30825058  0.81346054  0.31271111  1
  Zn  Zn118  1  0.31061089  0.80649448  0.81388810  1
  Zn  Zn119  1  0.80582736  0.30951406  0.31296885  1
  Zn  Zn120  1  0.81630765  0.30826945  0.81681906  1
  Zn  Zn121  1  0.81206635  0.81544724  0.31356214  1
  Zn  Zn122  1  0.81132156  0.81576714  0.81349064  1
  Zn  Zn123  1  0.19105240  0.44013461  0.43811775  1
  Zn  Zn124  1  0.18916271  0.43707703  0.93431836  1
  Zn  Zn125  1  0.18499231  0.94253469  0.43746484  1
  Zn  Zn126  1  0.18380706  0.93036028  0.93546790  1
  Zn  Zn127  1  0.65956144  0.42169818  0.45332123  1
  Zn  Zn128  1  0.69228566  0.43807322  0.94385671  1
  Zn  Zn129  1  0.68872835  0.93839732  0.43630525  1
  Zn  Zn130  1  0.67966044  0.95734515  0.92926354  1
  Zn  Zn131  1  0.30947974  0.06323461  0.06148780  1
  Zn  Zn132  1  0.30821070  0.06519006  0.56246470  1
  Zn  Zn133  1  0.31596568  0.56228176  0.05933360  1
  Zn  Zn134  1  0.31368737  0.56026640  0.55693785  1
  Zn  Zn135  1  0.81049113  0.06264895  0.06564973  1
  Zn  Zn136  1  0.81611627  0.06429967  0.56473121  1
  Zn  Zn137  1  0.80906980  0.56526959  0.06290431  1
  Zn  Zn138  1  0.80881453  0.55782274  0.56157934  1
  Zn  Zn139  1  0.43667542  0.43806489  0.19082121  1
  Zn  Zn140  1  0.44053303  0.43007927  0.68963560  1
  Zn  Zn141  1  0.43763451  0.93909918  0.19146069  1
  Zn  Zn142  1  0.44073112  0.93896593  0.68784659  1
  Zn  Zn143  1  0.94126589  0.44297789  0.16763911  1
  Zn  Zn144  1  0.93761279  0.43550057  0.68820256  1
  Zn  Zn145  1  0.93543978  0.93514579  0.19169789  1
  Zn  Zn146  1  0.94223651  0.94036017  0.67755023  1
  Zn  Zn147  1  0.05849777  0.06625225  0.31597848  1
  Zn  Zn148  1  0.06235154  0.06000742  0.81333689  1
  Zn  Zn149  1  0.06936227  0.56740203  0.30971440  1
  Zn  Zn150  1  0.05917852  0.56300818  0.81222026  1
  Zn  Zn151  1  0.55832709  0.06534095  0.31280506  1
  Zn  Zn152  1  0.57093033  0.06469746  0.81825515  1
  Zn  Zn153  1  0.56377945  0.56472104  0.31463163  1
  Zn  Zn154  1  0.55920466  0.56481701  0.81078509  1
  Zn  Zn155  1  0.43932411  0.18379417  0.43872892  1
  Zn  Zn156  1  0.44040490  0.18889875  0.93268454  1
  Zn  Zn157  1  0.43624778  0.68678224  0.44153271  1
  Zn  Zn158  1  0.43687882  0.68392064  0.93455719  1
  Zn  Zn159  1  0.93734835  0.18833619  0.43644815  1
  Zn  Zn160  1  0.93679460  0.18135825  0.93135264  1
  Zn  Zn161  1  0.93271277  0.67787374  0.43294351  1
  Zn  Zn162  1  0.93091013  0.69237232  0.93859177  1
  Zn  Zn163  1  0.06424689  0.31428435  0.06212660  1
  Zn  Zn164  1  0.06569194  0.31713226  0.56284656  1
  Zn  Zn165  1  0.05465397  0.79848594  0.06434451  1
  Zn  Zn166  1  0.06266463  0.81466232  0.55951897  1
  Zn  Zn167  1  0.55979882  0.31730624  0.06388297  1
  Zn  Zn168  1  0.56279635  0.31423559  0.56543710  1
  Zn  Zn169  1  0.56367681  0.81866129  0.06485767  1
  Zn  Zn170  1  0.56088453  0.81397990  0.56232079  1
  O  O171  1  0.11918084  0.11533516  0.12304340  1
  O  O172  1  0.12804583  0.13335356  0.61077236  1
  O  O173  1  0.13402771  0.61316895  0.12354845  1
  O  O174  1  0.12328030  0.61969086  0.61791407  1
  O  O175  1  0.62657932  0.10965016  0.12899901  1
  O  O176  1  0.63067132  0.11058160  0.61880405  1
  O  O177  1  0.61456972  0.61838407  0.13001099  1
  O  O178  1  0.62843493  0.61817224  0.61741430  1
  O  O179  1  0.37141149  0.38693969  0.37228831  1
  O  O180  1  0.38144293  0.38258673  0.87608551  1
  O  O181  1  0.37181813  0.88993969  0.37302395  1
  O  O182  1  0.37751252  0.87949545  0.88181194  1
  O  O183  1  0.87028173  0.36767192  0.38996488  1
  O  O184  1  0.88301585  0.38382513  0.87734637  1
  O  O185  1  0.87341717  0.89247814  0.37451801  1
  O  O186  1  0.88836941  0.86465113  0.88632716  1
  O  O187  1  0.25480498  0.01108157  0.37526800  1
  O  O188  1  0.25959272  0.00338480  0.87753387  1
  O  O189  1  0.25975128  0.50908267  0.37464879  1
  O  O190  1  0.26149731  0.50778700  0.87737876  1
  O  O191  1  0.76702388  0.00509705  0.38340021  1
  O  O192  1  0.76704985  -0.03853084  0.85183041  1
  O  O193  1  0.73606283  0.50101952  0.38452819  1
  O  O194  1  0.75800785  0.50256941  0.87466241  1
  O  O195  1  0.25120097  0.48903927  0.12350400  1
  O  O196  1  0.24485375  0.48979183  0.61789633  1
  O  O197  1  0.23983970  0.99442697  0.12632130  1
  O  O198  1  0.23875306  1.00677155  0.62583046  1
  O  O199  1  0.73827204  0.49159511  0.11669066  1
  O  O200  1  0.74389914  0.49120372  0.63147711  1
  O  O201  1  0.74077267  0.98743479  0.11997228  1
  O  O202  1  0.74664927  0.99027846  0.62947799  1
  O  O203  1  0.00473513  0.37142327  0.24827177  1
  O  O204  1  0.00245153  0.36616338  0.76057494  1
  O  O205  1  0.00529422  0.86392780  0.24881404  1
  O  O206  1  0.00321958  0.87267524  0.75557183  1
  O  O207  1  0.50926278  0.36220306  0.24190810  1
  O  O208  1  0.50358261  0.36355496  0.76277569  1
  O  O209  1  0.50546572  0.86417844  0.25178848  1
  O  O210  1  0.50326591  0.86397250  0.75448790  1
  O  O211  1  0.49632467  0.13850191  0.24426542  1
  O  O212  1  0.50350586  0.13847107  0.76303302  1
  O  O213  1  0.50041394  0.63698831  0.24341740  1
  O  O214  1  0.48894079  0.63829328  0.75412414  1
  O  O215  1  0.99382861  0.13510892  0.24349507  1
  O  O216  1  0.99070790  0.12962894  0.75532480  1
  O  O217  1  0.99423238  0.63742315  0.25565597  1
  O  O218  1  0.98997577  0.63113394  0.74271038  1
  O  O219  1  0.37118484  0.25526836  0.00406999  1
  O  O220  1  0.36986041  0.24723409  0.50673865  1
  O  O221  1  0.37065366  0.75709050  0.00337981  1
  O  O222  1  0.36901490  0.74862118  0.51421021  1
  O  O223  1  0.87988813  0.24710158  0.01192281  1
  O  O224  1  0.86839237  0.25325790  0.50336739  1
  O  O225  1  0.86674293  0.76004464  0.01216592  1
  O  O226  1  0.86900144  0.74933387  0.50311387  1
  O  O227  1  0.12994175  0.24913677  0.49220738  1
  O  O228  1  0.13069361  0.24826286  0.98864306  1
  O  O229  1  0.13057983  0.74058568  0.50119130  1
  O  O230  1  0.15149744  0.77535423  1.00121250  1
  O  O231  1  0.63001134  0.24004413  0.49370266  1
  O  O232  1  0.63234729  0.24736151  1.00638588  1
  O  O233  1  0.63093600  0.73883305  0.50325828  1
  O  O234  1  0.62999001  0.76013245  0.99087534  1
  O  O235  1  0.49012574  0.24953874  0.12818738  1
  O  O236  1  0.49952919  0.25567275  0.63982326  1
  O  O237  1  0.49755348  0.74431554  0.12978240  1
  O  O238  1  0.48575692  0.75441782  0.63085361  1
  O  O239  1  0.99411318  0.24768208  0.13343301  1
  O  O240  1  1.00317708  0.25613342  0.64002188  1
  O  O241  1  0.98489747  0.75238396  0.14207183  1
  O  O242  1  0.99464678  0.74314855  0.62579978  1
  O  O243  1  0.00424843  0.24905546  0.36128709  1
  O  O244  1  0.00863215  0.25329249  0.86782989  1
  O  O245  1  -0.00156774  0.74820900  0.36544547  1
  O  O246  1  -0.00170654  0.75653097  0.85796890  1
  O  O247  1  0.50819040  0.24631721  0.36635983  1
  O  O248  1  0.50172067  0.26195906  0.86675266  1
  O  O249  1  0.50043335  0.75191405  0.36909095  1
  O  O250  1  0.50334546  0.75501753  0.86833178  1
  O  O251  1  0.24220318  0.13907194  0.48864180  1
  O  O252  1  0.24770113  0.13046114  0.98837149  1
  O  O253  1  0.24262872  0.63219998  0.49566937  1
  O  O254  1  0.25986985  0.63468934  0.98749459  1
  O  O255  1  0.73928291  0.13157809  0.50663747  1
  O  O256  1  0.75648118  0.14288062  1.00394489  1
  O  O257  1  0.74327961  0.62968250  0.49298141  1
  O  O258  1  0.75188110  0.64370796  0.99833635  1
  O  O259  1  0.25672704  0.36835445  0.00388188  1
  O  O260  1  0.24512492  0.36355555  0.50824789  1
  O  O261  1  0.26394852  0.87362885  0.00428665  1
  O  O262  1  0.23891626  0.86200531  0.49792012  1
  O  O263  1  0.75180832  0.36200446  0.01025913  1
  O  O264  1  0.75471372  0.36737919  0.51120368  1
  O  O265  1  0.75543099  0.86864080  0.00660394  1
  O  O266  1  0.75028291  0.86696301  0.50754242  1
  O  O267  1  0.12663440  0.49522242  0.23850847  1
  O  O268  1  0.12176097  0.50214807  0.73544431  1
  O  O269  1  0.11988045  0.99426913  0.24074349  1
  O  O270  1  0.12343406  0.98319728  0.75426424  1
  O  O271  1  0.61494392  0.49089394  0.23825226  1
  O  O272  1  0.62989631  0.51188023  0.73741615  1
  O  O273  1  0.61512981  0.99064432  0.24338699  1
  O  O274  1  0.63426336  0.99103902  0.74051335  1
  O  O275  1  0.37071759  0.00438692  0.25872620  1
  O  O276  1  0.37462690  0.00143837  0.75959074  1
  O  O277  1  0.37100402  0.50220902  0.26002350  1
  O  O278  1  0.38419635  0.50645374  0.75883206  1
  O  O279  1  0.88057594  0.01255714  0.26152219  1
  O  O280  1  0.87306863  0.00850068  0.74213093  1
  O  O281  1  0.87958542  0.49308421  0.24607536  1
  O  O282  1  0.87476013  0.50852866  0.75934692  1
  O  O283  1  0.13246635  0.37293518  0.36008377  1
  O  O284  1  0.12163927  0.36748848  0.87058674  1
  O  O285  1  0.12948933  0.87516975  0.36043356  1
  O  O286  1  0.10988056  0.85969461  0.87283721  1
  O  O287  1  0.63786390  0.35998461  0.35550641  1
  O  O288  1  0.61468510  0.38102372  0.87745764  1
  O  O289  1  0.62297706  0.87448792  0.36610848  1
  O  O290  1  0.61755487  0.86722076  0.86560055  1
  O  O291  1  0.36976336  0.13987311  0.12513067  1
  O  O292  1  0.37361845  0.14018402  0.62660772  1
  O  O293  1  0.38731356  0.62980993  0.12678059  1
  O  O294  1  0.36961604  0.62562251  0.63571380  1
  O  O295  1  0.88043178  0.12909887  0.13553426  1
  O  O296  1  0.86854716  0.13020671  0.64435758  1
  O  O297  1  0.86217426  0.63851553  0.13360955  1
  O  O298  1  0.87795881  0.62754842  0.63131098  1
  O  O299  1  0.25265526  0.26054296  0.11932366  1
  O  O300  1  0.26042024  0.25693934  0.61776864  1
  O  O301  1  0.25811344  0.75345139  0.11992926  1
  O  O302  1  0.26309631  0.74754024  0.61906166  1
  O  O303  1  0.75695067  0.25539325  0.11595220  1
  O  O304  1  0.74897788  0.25716024  0.61493566  1
  O  O305  1  0.74967414  0.75996180  0.12145371  1
  O  O306  1  0.75474645  0.75414246  0.61348932  1
  O  O307  1  0.24638846  0.24800082  0.38053766  1
  O  O308  1  0.24525688  0.24287938  0.87611868  1
  O  O309  1  0.24903253  0.74363603  0.38499105  1
  O  O310  1  0.24360851  0.74082821  0.88394671  1
  O  O311  1  0.74203331  0.24953106  0.38924361  1
  O  O312  1  0.74974282  0.25148756  0.89298666  1
  O  O313  1  0.74750735  0.75256437  0.38810064  1
  O  O314  1  0.74000883  0.75308992  0.88322842  1
  O  O315  1  -0.00073873  0.11387826  0.00590394  1
  O  O316  1  0.00926938  0.12078098  0.49555383  1
  O  O317  1  0.03435850  0.69849288  -0.01518409  1
  O  O318  1  0.00819125  0.61900911  0.50429227  1
  O  O319  1  0.49777049  0.11345529  0.00005321  1
  O  O320  1  0.51613403  0.11458222  0.49698605  1
  O  O321  1  0.49709527  0.61618742  0.00677896  1
  O  O322  1  0.51428993  0.62127400  0.49925498  1
  O  O323  1  0.54958197  0.38781578  0.48473467  1
  O  O324  1  0.49539737  0.37999144  0.98812911  1
  O  O325  1  0.50531273  0.89134755  0.49774510  1
  O  O326  1  0.48797650  0.87901906  0.99668525  1
  O  O327  1  0.99095098  0.38323278  0.50441733  1
  O  O328  1  0.99921745  0.36809353  0.98452044  1
  O  O329  1  1.00420529  0.89132223  0.49665530  1
  O  O330  1  0.99150396  0.87840852  0.99592268  1
  O  O331  1  0.48392005  0.50488652  0.37283526  1
  O  O332  1  0.49697613  0.49190709  0.87893377  1
  O  O333  1  0.48986729  1.00017677  0.38258344  1
  O  O334  1  0.48905771  0.99321725  0.88236158  1
  O  O335  1  1.01024065  0.50295421  0.38907555  1
  O  O336  1  0.99297329  0.49156904  0.87170907  1
  O  O337  1  0.98883930  1.00846800  0.38710032  1
  O  O338  1  1.00444409  0.99148322  0.88980174  1
  O  O339  1  0.00418371  0.00078649  0.11727924  1
  O  O340  1  0.00540956  0.00364989  0.60566043  1
  O  O341  1  0.01541505  0.50430206  0.11078272  1
  O  O342  1  0.00841444  0.50415680  0.61698921  1
  O  O343  1  0.50360560  0.00371025  0.11920283  1
  O  O344  1  0.51064658  -0.00247362  0.61896575  1
  O  O345  1  0.50339707  0.50677764  0.11709689  1
  O  O346  1  0.51433617  0.49308301  0.62418801  1
  O  O347  1  0.23973117  0.37705160  0.23839196  1
  O  O348  1  0.24926709  0.36970947  0.73642745  1
  O  O349  1  0.23845061  0.87517783  0.24150032  1
  O  O350  1  0.23345461  0.87371870  0.76131191  1
  O  O351  1  0.74187283  0.36574251  0.23404926  1
  O  O352  1  0.75967234  0.37098225  0.73797447  1
  O  O353  1  0.74014602  0.87210405  0.24274758  1
  O  O354  1  0.74660859  0.87063938  0.73187606  1
  O  O355  1  0.24799051  0.12723793  0.26266095  1
  O  O356  1  0.25279186  0.12194553  0.76311052  1
  O  O357  1  0.25200380  0.62645224  0.26136048  1
  O  O358  1  0.25843775  0.63117640  0.76195280  1
  O  O359  1  0.76514921  0.12900130  0.24577902  1
  O  O360  1  0.75780751  0.11136780  0.75513064  1
  O  O361  1  0.74410350  0.62233493  0.27091334  1
  O  O362  1  0.76337522  0.62860716  0.75486223  1
  O  O363  1  0.36555998  0.11879485  0.37330605  1
  O  O364  1  0.36858920  0.11531786  0.87524336  1
  O  O365  1  0.36482649  0.62328913  0.37577276  1
  O  O366  1  0.36896236  0.61773480  0.86472578  1
  O  O367  1  0.87637550  0.12145118  0.36173577  1
  O  O368  1  0.86763275  0.12525882  0.85834571  1
  O  O369  1  0.85435152  0.61602449  0.37670832  1
  O  O370  1  0.87594177  0.62005862  0.86940560  1
  O  O371  1  0.13092743  0.38211090  0.13088284  1
  O  O372  1  0.13560521  0.38334061  0.62797869  1
  O  O373  1  0.12553446  0.87990843  0.13289635  1
  O  O374  1  0.11921840  0.87390636  0.64213792  1
  O  O375  1  0.63096341  0.38139438  0.13180942  1
  O  O376  1  0.63534589  0.38966417  0.62930437  1
  O  O377  1  0.62977205  0.88059924  0.13835313  1
  O  O378  1  0.63283934  0.88190109  0.62736506  1
  O  O379  1  0.11532860  0.26033621  0.25156973  1
  O  O380  1  0.12075667  0.24779621  0.76034960  1
  O  O381  1  0.11020697  0.75529853  0.25219773  1
  O  O382  1  0.11604486  0.75870183  0.75114723  1
  O  O383  1  0.61791605  0.25202969  0.25438465  1
  O  O384  1  0.61812748  0.24275311  0.74766050  1
  O  O385  1  0.61620398  0.75804947  0.25406322  1
  O  O386  1  0.61628315  0.75304371  0.75185281  1
  O  O387  1  0.38055404  0.25172540  0.24155094  1
  O  O388  1  0.38906161  0.24482477  0.74255382  1
  O  O389  1  0.38277752  0.75032462  0.24476462  1
  O  O390  1  0.37849802  0.74486925  0.73944157  1
  O  O391  1  0.87891856  0.24294856  0.24294598  1
  O  O392  1  0.88497066  0.24054443  0.74992105  1
  O  O393  1  0.88181636  0.74921452  0.24892373  1
  O  O394  1  0.88014336  0.74497697  0.74259655  1
  O  O395  1  0.37875492  0.50050795  0.48498492  1
  O  O396  1  0.38667198  0.49519220  0.98929579  1
  O  O397  1  0.38461674  1.01073532  0.49301649  1
  O  O398  1  0.38127722  0.99384643  0.99631806  1
  O  O399  1  0.88587961  0.49133407  0.50439296  1
  O  O400  1  0.87317131  0.50192910  0.98959604  1
  O  O401  1  0.88465433  1.00332306  0.49108366  1
  O  O402  1  0.88025264  0.98666026  1.00755829  1
  O  O403  1  0.11705615  -0.00509707  0.01081660  1
  O  O404  1  0.11526039  0.01375985  0.49482273  1
  O  O405  1  0.13426297  0.50041403  0.00985725  1
  O  O406  1  0.12151614  0.50724700  0.50880027  1
  O  O407  1  0.60800328  -0.02113425  0.01740691  1
  O  O408  1  0.62189757  0.00468757  0.50564428  1
  O  O409  1  0.61295226  0.49489381  0.01098305  1
  O  O410  1  0.63335070  0.51643967  0.51890211  1
  O  O411  1  0.36812354  0.36706928  0.11892752  1
  O  O412  1  0.37105598  0.36391428  0.62644957  1
  O  O413  1  0.37111517  0.87010690  0.11912637  1
  O  O414  1  0.37088648  0.86615998  0.62989995  1
  O  O415  1  0.86828064  0.36535681  0.11914836  1
  O  O416  1  0.86885528  0.37166247  0.61560312  1
  O  O417  1  0.86502512  0.86848216  0.12287073  1
  O  O418  1  0.86965778  0.86826726  0.61740645  1
  O  O419  1  0.13142423  0.13627467  0.37949738  1
  O  O420  1  0.13195044  0.13015714  0.87754991  1
  O  O421  1  0.13652674  0.62708491  0.38505852  1
  O  O422  1  0.13176280  0.63376933  0.86875524  1
  O  O423  1  0.62583746  0.13443163  0.37965207  1
  O  O424  1  0.65427902  0.06729080  0.88980851  1
  O  O425  1  0.63290233  0.62473181  0.38922803  1
  O  O426  1  0.62392475  0.64051235  0.87106466  1
