# generated using pymatgen
data_V85Zn86O256
_symmetry_space_group_name_H-M   'P 1'
_cell_length_a   16.94013239
_cell_length_b   16.94649785
_cell_length_c   16.94647330
_cell_angle_alpha   89.99865942
_cell_angle_beta   89.95692011
_cell_angle_gamma   90.00004408
_symmetry_Int_Tables_number   1
_chemical_formula_structural   V85Zn86O256
_chemical_formula_sum   'V85 Zn86 O256'
_cell_volume   4864.92298895
_cell_formula_units_Z   1
loop_
 _symmetry_equiv_pos_site_id
 _symmetry_equiv_pos_as_xyz
  1  'x, y, z'
loop_
 _atom_site_type_symbol
 _atom_site_label
 _atom_site_symmetry_multiplicity
 _atom_site_fract_x
 _atom_site_fract_y
 _atom_site_fract_z
 _atom_site_occupancy
  V  V0  1  0.74332207  0.12872786  0.37371465  1
  V  V1  1  0.24711176  0.87993849  0.12762444  1
  V  V2  1  0.73775588  0.63635065  0.88643863  1
  V  V3  1  0.50582890  0.36401418  0.37249499  1
  V  V4  1  0.12423939  0.74555466  0.38523831  1
  V  V5  1  0.62352794  -0.00067633  0.12780071  1
  V  V6  1  0.37320170  0.74414061  0.62430822  1
  V  V7  1  0.50099440  0.50125936  0.00040448  1
  V  V8  1  -0.00113023  0.25549534  0.24924380  1
  V  V9  1  0.11923907  0.62861387  0.00823152  1
  V  V10  1  0.26367301  0.63101602  0.87406516  1
  V  V11  1  0.74607802  0.74402631  0.50325127  1
  V  V12  1  0.37503102  0.24898150  0.62902211  1
  V  V13  1  0.12115958  0.00746976  0.62420074  1
  V  V14  1  0.25083974  0.00533743  0.25465680  1
  V  V15  1  0.87625069  0.12363473  0.24583625  1
  V  V16  1  -0.00127395  0.87448507  0.37533192  1
  V  V17  1  0.37499025  0.00311744  0.87832546  1
  V  V18  1  0.75102557  0.49723379  0.25018821  1
  V  V19  1  0.01091222  0.00233307  0.00477711  1
  V  V20  1  0.74188471  0.24991914  0.49966198  1
  V  V21  1  0.62313890  0.74499339  0.37487867  1
  V  V22  1  0.36189079  0.37714033  0.00317705  1
  V  V23  1  0.87117894  0.87242612  -0.00335125  1
  V  V24  1  0.87580509  0.24548112  0.12101327  1
  V  V25  1  0.87399514  0.49960901  0.87552799  1
  V  V26  1  0.75019531  -0.00310927  0.24909479  1
  V  V27  1  0.62307698  0.35946138  0.25214112  1
  V  V28  1  0.49869852  0.62116641  0.62580771  1
  V  V29  1  0.87554748  -0.00089098  0.37444163  1
  V  V30  1  0.87245098  0.87362126  0.50462137  1
  V  V31  1  0.12835746  0.51011458  0.61981242  1
  V  V32  1  0.50540086  0.24890237  0.75566959  1
  V  V33  1  0.36816925  0.25385001  0.12815310  1
  V  V34  1  0.89089262  0.24455047  0.62490726  1
  V  V35  1  0.12468193  0.38310715  0.75324808  1
  V  V36  1  0.24871921  0.61663893  0.38085151  1
  V  V37  1  0.87791764  0.37379762  0.49914953  1
  V  V38  1  0.37867827  0.37875604  0.49964295  1
  V  V39  1  0.71648056  0.10566825  0.83963940  1
  V  V40  1  0.74963148  0.49749378  0.75143092  1
  V  V41  1  0.49575845  0.87259975  0.37966874  1
  V  V42  1  0.62705117  0.50284780  0.61982493  1
  V  V43  1  0.12448349  0.87255388  0.74706534  1
  V  V44  1  0.73226444  0.88520628  0.63334377  1
  V  V45  1  0.74707121  0.62148928  0.37738601  1
  V  V46  1  0.62493632  0.13249616  0.00359708  1
  V  V47  1  0.25790452  0.87690297  0.61608749  1
  V  V48  1  0.25046485  -0.00113966  0.75577675  1
  V  V49  1  0.87690004  0.11965995  0.74267919  1
  V  V50  1  0.74887053  0.37031775  0.12257373  1
  V  V51  1  0.12445998  0.74838161  0.87289440  1
  V  V52  1  0.02402925  0.22597619  0.76038271  1
  V  V53  1  0.13989732  0.37537700  0.24694624  1
  V  V54  1  0.12802962  0.24527057  0.37702200  1
  V  V55  1  0.87494274  0.00460532  0.87238552  1
  V  V56  1  0.50859699  0.75532156  0.74615893  1
  V  V57  1  0.37632741  0.12833674  0.26051168  1
  V  V58  1  0.25016541  0.37663356  0.62657953  1
  V  V59  1  0.87564369  0.37153788  -0.00305437  1
  V  V60  1  0.37091195  0.12777665  0.75706571  1
  V  V61  1  0.37416979  0.87717444  0.00091609  1
  V  V62  1  0.62598688  0.37043458  0.75354821  1
  V  V63  1  0.49756709  0.13224028  0.13471940  1
  V  V64  1  0.50347171  0.62413695  0.12897281  1
  V  V65  1  0.12356517  0.87628288  0.24896865  1
  V  V66  1  0.74754700  0.24480249  -0.01378769  1
  V  V67  1  0.61989704  0.11393362  0.50116626  1
  V  V68  1  0.26124330  0.50852561  0.74965807  1
  V  V69  1  0.23890184  0.23273303  -0.01037654  1
  V  V70  1  0.75123765  0.37048723  0.62750928  1
  V  V71  1  -0.00106129  0.62863713  0.62213424  1
  V  V72  1  0.52128514  0.84822098  0.89148701  1
  V  V73  1  -0.00147886  0.74195738  0.24170398  1
  V  V74  1  0.74962598  0.86396139  0.12269103  1
  V  V75  1  0.37571214  0.74975752  0.12859719  1
  V  V76  1  0.49757433  0.00687571  0.00205651  1
  V  V77  1  0.62671441  0.50123886  0.12172462  1
  V  V78  1  0.87317839  0.62739796  0.75135331  1
  V  V79  1  -0.00216042  0.00976047  0.50009320  1
  V  V80  1  0.00304251  0.50523059  0.49794594  1
  V  V81  1  0.37320722  -0.00336631  0.38575587  1
  V  V82  1  0.00263189  0.37358178  0.87366636  1
  V  V83  1  0.25066041  0.24172039  0.50089727  1
  V  V84  1  0.50326615  0.37188688  0.87943377  1
  Zn  Zn85  1  -0.00565403  0.51055854  0.00684119  1
  Zn  Zn86  1  0.25363854  0.75121722  0.49676374  1
  Zn  Zn87  1  0.37999967  0.50581530  0.87442977  1
  Zn  Zn88  1  -0.00214684  0.75230209  0.74798131  1
  Zn  Zn89  1  -0.00182084  0.87559707  0.87329992  1
  Zn  Zn90  1  0.86962475  0.75170381  0.62797063  1
  Zn  Zn91  1  0.25076032  0.75112567  0.00082033  1
  Zn  Zn92  1  0.25570485  0.50177174  0.23743121  1
  Zn  Zn93  1  0.37348646  0.62271868  0.25154872  1
  Zn  Zn94  1  0.49738055  -0.01549818  0.51421783  1
  Zn  Zn95  1  0.50055502  0.74899643  0.25321502  1
  Zn  Zn96  1  0.87622399  0.74075683  0.11315279  1
  Zn  Zn97  1  0.50491430  0.11643654  0.63067648  1
  Zn  Zn98  1  0.00285238  0.37783676  0.37567048  1
  Zn  Zn99  1  0.38175280  0.50018654  0.36976857  1
  Zn  Zn100  1  0.87603619  0.50033951  0.37427117  1
  Zn  Zn101  1  0.50860845  0.50592413  0.49444362  1
  Zn  Zn102  1  0.12416576  0.49648786  0.12283395  1
  Zn  Zn103  1  0.87772738  0.61971795  0.24278632  1
  Zn  Zn104  1  0.62428930  0.87263615  0.25157298  1
  Zn  Zn105  1  0.12432008  0.12547744  0.49828389  1
  Zn  Zn106  1  0.02962016  0.13098433  0.10580061  1
  Zn  Zn107  1  0.19289381  0.19142061  0.18484798  1
  Zn  Zn108  1  0.18364490  0.18452835  0.70378778  1
  Zn  Zn109  1  0.19048297  0.69005811  0.19262605  1
  Zn  Zn110  1  0.19034657  0.68845388  0.68712469  1
  Zn  Zn111  1  0.69129941  0.18562176  0.18306749  1
  Zn  Zn112  1  0.68594294  0.18108064  0.68307441  1
  Zn  Zn113  1  0.68773552  0.68307431  0.18966856  1
  Zn  Zn114  1  0.68735134  0.68652401  0.68901980  1
  Zn  Zn115  1  0.31623562  0.30963592  0.31859630  1
  Zn  Zn116  1  0.31166733  0.31698801  0.81907272  1
  Zn  Zn117  1  0.31220706  0.81161018  0.31410538  1
  Zn  Zn118  1  0.31898919  0.81244183  0.81071424  1
  Zn  Zn119  1  0.81237386  0.31236615  0.31424802  1
  Zn  Zn120  1  0.81800520  0.30107331  0.80939201  1
  Zn  Zn121  1  0.81242312  0.80992519  0.31268059  1
  Zn  Zn122  1  0.80632800  0.81288660  0.81184444  1
  Zn  Zn123  1  0.18659120  0.43321424  0.43804793  1
  Zn  Zn124  1  0.18756329  0.44549521  0.93604056  1
  Zn  Zn125  1  0.18390923  0.93913647  0.43402151  1
  Zn  Zn126  1  0.18816099  0.93485624  0.93591928  1
  Zn  Zn127  1  0.68710166  0.43317197  0.43663955  1
  Zn  Zn128  1  0.68728466  0.43808550  0.93698106  1
  Zn  Zn129  1  0.68766026  0.93225161  0.43768142  1
  Zn  Zn130  1  0.68801353  0.94141982  0.94235688  1
  Zn  Zn131  1  0.30835847  0.06561090  0.06816785  1
  Zn  Zn132  1  0.31481195  0.06315371  0.56920651  1
  Zn  Zn133  1  0.30806066  0.56381622  0.06277935  1
  Zn  Zn134  1  0.31517276  0.56639988  0.55886084  1
  Zn  Zn135  1  0.81341612  0.05774515  0.06065687  1
  Zn  Zn136  1  0.80863448  0.06130777  0.56267531  1
  Zn  Zn137  1  0.81314553  0.56440287  0.06209846  1
  Zn  Zn138  1  0.81350870  0.56117872  0.56302794  1
  Zn  Zn139  1  0.43663470  0.43572089  0.18996465  1
  Zn  Zn140  1  0.44048678  0.43623914  0.68772401  1
  Zn  Zn141  1  0.43809793  0.93843326  0.19408450  1
  Zn  Zn142  1  0.44380798  0.93304292  0.69389543  1
  Zn  Zn143  1  0.93993458  0.43882230  0.18179846  1
  Zn  Zn144  1  0.93904357  0.43834114  0.68653995  1
  Zn  Zn145  1  0.93850289  0.93479156  0.18224765  1
  Zn  Zn146  1  0.93521432  0.93971937  0.68571812  1
  Zn  Zn147  1  0.08144901  0.08136138  0.28038230  1
  Zn  Zn148  1  0.05949033  0.05973295  0.81077787  1
  Zn  Zn149  1  0.06646399  0.56189040  0.31444394  1
  Zn  Zn150  1  0.06281696  0.56439779  0.81353954  1
  Zn  Zn151  1  0.56041969  0.05969229  0.31692605  1
  Zn  Zn152  1  0.55309278  0.05970632  0.81488549  1
  Zn  Zn153  1  0.56445530  0.55607620  0.31146311  1
  Zn  Zn154  1  0.56065927  0.56489903  0.80583853  1
  Zn  Zn155  1  0.43669076  0.18876422  0.43840058  1
  Zn  Zn156  1  0.43250597  0.19085855  0.94094049  1
  Zn  Zn157  1  0.43452646  0.68703038  0.44421884  1
  Zn  Zn158  1  0.45648580  0.69304406  0.94752211  1
  Zn  Zn159  1  0.93535143  0.18859415  0.43168118  1
  Zn  Zn160  1  0.93955914  0.18430259  0.93320549  1
  Zn  Zn161  1  0.93211497  0.68657530  0.43284129  1
  Zn  Zn162  1  0.93731839  0.69032436  0.93168807  1
  Zn  Zn163  1  0.06425951  0.31502101  0.06242974  1
  Zn  Zn164  1  0.06589959  0.31677466  0.56604820  1
  Zn  Zn165  1  0.06259703  0.81732733  0.06005664  1
  Zn  Zn166  1  0.06162042  0.81721578  0.56332552  1
  Zn  Zn167  1  0.55882922  0.31290999  0.06550023  1
  Zn  Zn168  1  0.56182874  0.31109562  0.56479304  1
  Zn  Zn169  1  0.56214537  0.81270658  0.06398543  1
  Zn  Zn170  1  0.56397495  0.80654789  0.55989983  1
  O  O171  1  0.11506032  0.11466134  0.17320697  1
  O  O172  1  0.13190885  0.10976323  0.62465549  1
  O  O173  1  0.12791240  0.63700658  0.10886258  1
  O  O174  1  0.11734616  0.61732275  0.62907074  1
  O  O175  1  0.61556792  0.12112537  0.12269119  1
  O  O176  1  0.62359940  0.12759101  0.60508532  1
  O  O177  1  0.61819688  0.61326423  0.12806065  1
  O  O178  1  0.61875696  0.61177130  0.63136907  1
  O  O179  1  0.38612696  0.37594992  0.38351375  1
  O  O180  1  0.38669216  0.38032017  0.88478955  1
  O  O181  1  0.38264354  0.88300255  0.37207576  1
  O  O182  1  0.38039533  0.88171423  0.88700628  1
  O  O183  1  0.87670922  0.37512282  0.38958739  1
  O  O184  1  0.88064115  0.37962364  0.87633522  1
  O  O185  1  0.87588432  0.87950644  0.38535298  1
  O  O186  1  0.87097622  0.88763293  0.87762983  1
  O  O187  1  0.25960902  -0.00727880  0.36641163  1
  O  O188  1  0.25656824  -0.00705256  0.86299537  1
  O  O189  1  0.25004080  0.51023064  0.37694443  1
  O  O190  1  0.25402924  0.51209722  0.86574192  1
  O  O191  1  0.75497732  0.00463558  0.36790335  1
  O  O192  1  0.75590292  0.01536386  0.88084354  1
  O  O193  1  0.74918355  0.50354633  0.36798379  1
  O  O194  1  0.76087721  0.50021185  0.86923247  1
  O  O195  1  0.23732913  0.50563818  0.12559767  1
  O  O196  1  0.24500018  0.50107807  0.63026864  1
  O  O197  1  0.25815246  0.98735884  0.13781626  1
  O  O198  1  0.24689250  0.99091216  0.63396871  1
  O  O199  1  0.74361665  0.49067222  0.12928130  1
  O  O200  1  0.74623184  0.49199142  0.63191501  1
  O  O201  1  0.74388436  0.99287653  0.13215405  1
  O  O202  1  0.74860482  0.98393137  0.61833704  1
  O  O203  1  -0.00135055  0.36273466  0.25282143  1
  O  O204  1  0.00714019  0.37915606  0.76033746  1
  O  O205  1  0.00666294  0.87104952  0.25521175  1
  O  O206  1  0.01324583  0.87616646  0.74792080  1
  O  O207  1  0.50880145  0.37663919  0.26322514  1
  O  O208  1  0.50311577  0.36754545  0.75943534  1
  O  O209  1  0.50379854  0.87180755  0.26251160  1
  O  O210  1  0.50068111  0.86151610  0.76386527  1
  O  O211  1  0.49187256  0.12044592  0.24420244  1
  O  O212  1  0.48661161  0.13354914  0.75188671  1
  O  O213  1  0.49861603  0.62314077  0.23915253  1
  O  O214  1  0.49876217  0.63384646  0.73652084  1
  O  O215  1  0.98124154  0.13826338  0.26212527  1
  O  O216  1  0.98427212  0.12084274  0.73765556  1
  O  O217  1  1.00168499  0.63909959  0.25474859  1
  O  O218  1  0.98878455  0.62346426  0.74262117  1
  O  O219  1  0.36564434  0.25744639  0.00818064  1
  O  O220  1  0.37013286  0.25738446  0.50910715  1
  O  O221  1  0.37698235  0.76113209  0.01237289  1
  O  O222  1  0.37227642  0.75315576  0.51661563  1
  O  O223  1  0.86839076  0.25096814  0.00039888  1
  O  O224  1  0.87271584  0.25493429  0.50744266  1
  O  O225  1  0.88209796  0.76768952  -0.00418480  1
  O  O226  1  0.86448440  0.75746147  0.49928006  1
  O  O227  1  0.13213551  0.25010022  0.49657007  1
  O  O228  1  0.14040905  0.25082246  1.00614156  1
  O  O229  1  0.12384301  0.75470505  0.48774515  1
  O  O230  1  0.12672091  0.74653914  0.99034536  1
  O  O231  1  0.63849087  0.24612393  0.50297326  1
  O  O232  1  0.63409824  0.24331295  1.00997556  1
  O  O233  1  0.63720501  0.74870200  0.48808718  1
  O  O234  1  0.55575329  0.76802752  0.96189622  1
  O  O235  1  0.48789456  0.23840648  0.12152310  1
  O  O236  1  0.49056489  0.24844092  0.63560337  1
  O  O237  1  0.49593159  0.74018595  0.12870469  1
  O  O238  1  0.49369867  0.74491826  0.63053112  1
  O  O239  1  0.99469842  0.24521613  0.13096200  1
  O  O240  1  0.99477386  0.25094173  0.63168355  1
  O  O241  1  1.00005537  0.75767157  0.13966866  1
  O  O242  1  0.99939610  0.73814083  0.62405995  1
  O  O243  1  0.00602480  0.25492436  0.36804171  1
  O  O244  1  -0.00358440  0.25866307  0.86218131  1
  O  O245  1  0.00577299  0.75465906  0.36866486  1
  O  O246  1  0.00979497  0.75546092  0.86779081  1
  O  O247  1  0.49764553  0.26484964  0.37717551  1
  O  O248  1  0.49336315  0.25915421  0.86787386  1
  O  O249  1  0.50687666  0.75097991  0.37592576  1
  O  O250  1  0.47661307  0.74811385  0.84816348  1
  O  O251  1  0.24947528  0.13869529  0.50784803  1
  O  O252  1  0.24800065  0.13216733  0.99929600  1
  O  O253  1  0.25067731  0.62924883  0.48623127  1
  O  O254  1  0.23851717  0.63119092  0.98904086  1
  O  O255  1  0.74095793  0.12955317  0.49272512  1
  O  O256  1  0.73875272  0.13195414  1.00835167  1
  O  O257  1  0.75650816  0.63197846  0.49183657  1
  O  O258  1  0.74867474  0.61922534  0.98500408  1
  O  O259  1  0.26047389  0.37633957  -0.00643533  1
  O  O260  1  0.25860785  0.36822724  0.50834520  1
  O  O261  1  0.25927827  0.87631888  0.00843270  1
  O  O262  1  0.24369775  0.87648316  0.51423780  1
  O  O263  1  0.75438720  0.36382305  0.00075820  1
  O  O264  1  0.75811593  0.36707723  0.50502747  1
  O  O265  1  0.75785571  0.88205347  0.01016760  1
  O  O266  1  0.75584315  0.86574755  0.50572501  1
  O  O267  1  0.12496527  0.48174867  0.25558272  1
  O  O268  1  0.13254127  0.49757365  0.74244518  1
  O  O269  1  0.13665930  0.98205835  0.26427024  1
  O  O270  1  0.13268560  0.99276421  0.74455415  1
  O  O271  1  0.63543619  0.48952833  0.24052771  1
  O  O272  1  0.63158420  0.48980764  0.74236985  1
  O  O273  1  0.63202660  0.99908136  0.24480491  1
  O  O274  1  0.65227871  1.06910922  0.76272694  1
  O  O275  1  0.36906245  0.00702495  0.26049731  1
  O  O276  1  0.36981303  0.00526392  0.75992668  1
  O  O277  1  0.37178439  0.50254984  0.25276572  1
  O  O278  1  0.36420079  0.49593383  0.75105047  1
  O  O279  1  0.87150633  0.00686085  0.25214225  1
  O  O280  1  0.87394177  0.00781642  0.75577400  1
  O  O281  1  0.86148734  0.49261259  0.25102575  1
  O  O282  1  0.86984941  0.50509479  0.75548418  1
  O  O283  1  0.12292814  0.36475478  0.36733636  1
  O  O284  1  0.11718238  0.38469347  0.86430577  1
  O  O285  1  0.11886575  0.86522926  0.36922328  1
  O  O286  1  0.12754335  0.86397241  0.86544811  1
  O  O287  1  0.61524910  0.37406483  0.36823080  1
  O  O288  1  0.61184801  0.37820778  0.87042400  1
  O  O289  1  0.61991481  0.86344947  0.37314154  1
  O  O290  1  0.61165881  0.88911652  0.87655533  1
  O  O291  1  0.38115482  0.13023347  0.13616002  1
  O  O292  1  0.37602621  0.13758760  0.63453329  1
  O  O293  1  0.38235481  0.63497246  0.12394499  1
  O  O294  1  0.38089071  0.63238977  0.62592288  1
  O  O295  1  0.87227295  0.12986637  0.13386914  1
  O  O296  1  0.86758266  0.13497549  0.62858737  1
  O  O297  1  0.87041427  0.62975852  0.12970209  1
  O  O298  1  0.88154557  0.62564944  0.63371381  1
  O  O299  1  0.26246658  0.24672159  0.11430404  1
  O  O300  1  0.25717377  0.25669407  0.62467416  1
  O  O301  1  0.25898318  0.76118107  0.12491901  1
  O  O302  1  0.25362632  0.76094233  0.62237832  1
  O  O303  1  0.75822377  0.25424047  0.11647217  1
  O  O304  1  0.75986167  0.25490669  0.61725801  1
  O  O305  1  0.74797453  0.76118723  0.12864835  1
  O  O306  1  0.74919275  0.75358631  0.61571364  1
  O  O307  1  0.24263688  0.25554982  0.38955512  1
  O  O308  1  0.25417462  0.24980763  0.89035613  1
  O  O309  1  0.24114342  0.74366973  0.37649411  1
  O  O310  1  0.24591622  0.74670125  0.87484366  1
  O  O311  1  0.75809324  0.23967649  0.38641454  1
  O  O312  1  0.75136219  0.23548634  0.88444719  1
  O  O313  1  0.74440219  0.74114864  0.37995337  1
  O  O314  1  0.74995562  0.73590770  0.87394066  1
  O  O315  1  0.00017328  0.11102278  -0.00318673  1
  O  O316  1  -0.00145876  0.11286505  0.49489118  1
  O  O317  1  0.01483074  0.62917635  -0.00840598  1
  O  O318  1  -0.01046551  0.61438693  0.50754473  1
  O  O319  1  0.50364276  0.12448084  0.01032300  1
  O  O320  1  0.51554292  0.12890144  0.49643714  1
  O  O321  1  0.49796767  0.60839002  0.01347120  1
  O  O322  1  0.49789340  0.62223754  0.51703695  1
  O  O323  1  0.49549126  0.37457161  0.49218548  1
  O  O324  1  0.49417318  0.38212553  0.99540165  1
  O  O325  1  0.50483334  0.87127800  0.48567834  1
  O  O326  1  0.48659586  0.89116117  1.00161024  1
  O  O327  1  0.99377974  0.38532395  0.50259588  1
  O  O328  1  0.99627129  0.37027843  0.98498598  1
  O  O329  1  0.99034594  0.88012152  0.49449779  1
  O  O330  1  0.99235179  0.88632605  0.99634141  1
  O  O331  1  0.50096833  0.48915482  0.37947217  1
  O  O332  1  0.50009666  0.49635513  0.88377798  1
  O  O333  1  0.49085760  0.98990676  0.37976627  1
  O  O334  1  0.48903797  0.99723605  0.88413564  1
  O  O335  1  0.99726682  0.49916606  0.38407362  1
  O  O336  1  0.98754887  0.49501904  0.87620231  1
  O  O337  1  0.99161050  0.99126697  0.38298359  1
  O  O338  1  0.99255550  0.99727769  0.88045116  1
  O  O339  1  -0.00512166  0.00300679  0.10766148  1
  O  O340  1  0.00984850  -0.00788774  0.61280298  1
  O  O341  1  0.01054316  0.49332897  0.11729524  1
  O  O342  1  0.00699675  0.51066893  0.62005309  1
  O  O343  1  0.50269708  0.01030518  0.12249429  1
  O  O344  1  0.49140580  0.00422265  0.62432518  1
  O  O345  1  0.50794416  0.50324299  0.12112951  1
  O  O346  1  0.50916533  0.50469954  0.62612875  1
  O  O347  1  0.24150686  0.37414086  0.25546989  1
  O  O348  1  0.24440628  0.38540738  0.74680138  1
  O  O349  1  0.24371401  0.87893416  0.24469661  1
  O  O350  1  0.24175474  0.88067496  0.74189802  1
  O  O351  1  0.74361633  0.37770444  0.24572002  1
  O  O352  1  0.74770099  0.37391654  0.74745114  1
  O  O353  1  0.75038013  0.88090809  0.24241547  1
  O  O354  1  0.75132014  0.87066553  0.73158531  1
  O  O355  1  0.26082101  0.11187193  0.24887941  1
  O  O356  1  0.26403176  0.11422790  0.74698690  1
  O  O357  1  0.25141115  0.62476755  0.26461307  1
  O  O358  1  0.24766239  0.61916108  0.75965238  1
  O  O359  1  0.75782145  0.12075791  0.25583212  1
  O  O360  1  0.77075455  0.15471682  0.75666403  1
  O  O361  1  0.74982806  0.61185568  0.25685443  1
  O  O362  1  0.76080254  0.61823258  0.75358757  1
  O  O363  1  0.38104271  0.11811259  0.36620679  1
  O  O364  1  0.37842764  0.11307442  0.87110699  1
  O  O365  1  0.36327981  0.62392966  0.37516103  1
  O  O366  1  0.36534386  0.62750569  0.88709138  1
  O  O367  1  0.86240411  0.11830393  0.36975060  1
  O  O368  1  0.87651473  0.11354381  0.86423375  1
  O  O369  1  0.86143852  0.62119664  0.36637786  1
  O  O370  1  0.86925457  0.61663261  0.86861756  1
  O  O371  1  0.12434258  0.36862327  0.14494970  1
  O  O372  1  0.13173568  0.39441750  0.62746259  1
  O  O373  1  0.13556852  0.87095485  0.13426105  1
  O  O374  1  0.13410956  0.88246565  0.63065780  1
  O  O375  1  0.62936982  0.37869748  0.13282987  1
  O  O376  1  0.63164009  0.37750295  0.63365515  1
  O  O377  1  0.63059010  0.87988533  0.12549061  1
  O  O378  1  0.63280458  0.87349929  0.62147576  1
  O  O379  1  0.11915321  0.26034190  0.25823463  1
  O  O380  1  0.11781831  0.27977989  0.72202202  1
  O  O381  1  0.11519655  0.75815446  0.25745010  1
  O  O382  1  0.12405613  0.75741998  0.75362476  1
  O  O383  1  0.63048429  0.26020378  0.24477291  1
  O  O384  1  0.61175380  0.25218043  0.74537152  1
  O  O385  1  0.62493977  0.74931200  0.26305937  1
  O  O386  1  0.60816232  0.74726196  0.74645303  1
  O  O387  1  0.36709651  0.23960422  0.24320795  1
  O  O388  1  0.37826573  0.24554102  0.74783703  1
  O  O389  1  0.37782780  0.74942883  0.23845161  1
  O  O390  1  0.37955390  0.75929781  0.72977582  1
  O  O391  1  0.87975704  0.24539116  0.24369011  1
  O  O392  1  0.89490691  0.24245478  0.74231744  1
  O  O393  1  0.89220112  0.75220394  0.25156130  1
  O  O394  1  0.87738405  0.74074458  0.74855744  1
  O  O395  1  0.37701227  0.48505972  0.50253968  1
  O  O396  1  0.38340618  0.49211472  1.00161134  1
  O  O397  1  0.37445624  1.00761593  0.48865763  1
  O  O398  1  0.37492205  0.99784425  0.99554078  1
  O  O399  1  0.88248130  0.48943612  0.50170038  1
  O  O400  1  0.87472489  0.49049249  0.99063515  1
  O  O401  1  0.87956598  0.99341352  0.49626942  1
  O  O402  1  0.88118164  0.99315677  0.99052441  1
  O  O403  1  0.11025093  -0.00542233  -0.00611108  1
  O  O404  1  0.11661380  0.00246510  0.50534435  1
  O  O405  1  0.12165557  0.52000617  -0.00581869  1
  O  O406  1  0.11533828  0.49779042  0.50733562  1
  O  O407  1  0.61852439  0.01087160  0.01064009  1
  O  O408  1  0.62183569  0.01189799  0.49247693  1
  O  O409  1  0.61754742  0.48893430  0.01435682  1
  O  O410  1  0.62766295  0.49071932  0.51602537  1
  O  O411  1  0.38382030  0.36375395  0.11600162  1
  O  O412  1  0.37243439  0.36617275  0.62097533  1
  O  O413  1  0.37152975  0.87089253  0.12085669  1
  O  O414  1  0.35997598  0.87391486  0.62808144  1
  O  O415  1  0.86917654  0.36595328  0.11515621  1
  O  O416  1  0.87310060  0.36656120  0.61756832  1
  O  O417  1  0.86586880  0.87179037  0.11556560  1
  O  O418  1  0.87308951  0.87207840  0.61305281  1
  O  O419  1  0.12246367  0.14076013  0.37457591  1
  O  O420  1  0.10556664  0.16253627  0.79972668  1
  O  O421  1  0.13689394  0.63271166  0.37260759  1
  O  O422  1  0.13195687  0.63751747  0.87650020  1
  O  O423  1  0.63630456  0.12352657  0.38148736  1
  O  O424  1  0.62061821  0.12668835  0.89598478  1
  O  O425  1  0.63716728  0.62846115  0.37113069  1
  O  O426  1  0.64037949  0.61622464  0.86859041  1
