# generated using pymatgen
data_V85Zn86O256
_symmetry_space_group_name_H-M   'P 1'
_cell_length_a   16.93351936
_cell_length_b   16.93424860
_cell_length_c   16.93176219
_cell_angle_alpha   90.00035803
_cell_angle_beta   90.05446454
_cell_angle_gamma   90.08606912
_symmetry_Int_Tables_number   1
_chemical_formula_structural   V85Zn86O256
_chemical_formula_sum   'V85 Zn86 O256'
_cell_volume   4855.28395018
_cell_formula_units_Z   1
loop_
 _symmetry_equiv_pos_site_id
 _symmetry_equiv_pos_as_xyz
  1  'x, y, z'
loop_
 _atom_site_type_symbol
 _atom_site_label
 _atom_site_symmetry_multiplicity
 _atom_site_fract_x
 _atom_site_fract_y
 _atom_site_fract_z
 _atom_site_occupancy
  V  V0  1  0.12258691  0.75313893  0.37691377  1
  V  V1  1  0.37603552  0.38181744  -0.00006205  1
  V  V2  1  0.12360181  0.37790798  0.25030036  1
  V  V3  1  0.24328959  -0.00333511  0.74981149  1
  V  V4  1  0.12273529  0.50157958  0.12152448  1
  V  V5  1  0.88394944  -0.01023415  0.37720051  1
  V  V6  1  -0.00129164  0.62130887  0.12028148  1
  V  V7  1  -0.00215221  0.76080036  0.75075931  1
  V  V8  1  0.50197969  0.86920423  0.37842442  1
  V  V9  1  0.00010933  0.12252933  0.62004135  1
  V  V10  1  -0.00061317  0.37621481  0.37504696  1
  V  V11  1  -0.00101774  0.24738132  0.25195270  1
  V  V12  1  0.62585191  0.24823133  0.37175540  1
  V  V13  1  0.37364150  -0.00911393  0.37676314  1
  V  V14  1  0.88055892  -0.00255499  0.86639533  1
  V  V15  1  0.12701569  0.25038809  0.38551249  1
  V  V16  1  0.24915247  0.12666153  0.38302238  1
  V  V17  1  0.62993678  0.88042371  0.25349634  1
  V  V18  1  0.26457691  0.62357156  0.37181771  1
  V  V19  1  0.76378427  0.61833541  0.87098243  1
  V  V20  1  0.37106021  0.24979929  0.12669794  1
  V  V21  1  0.24713630  0.37661770  0.12505879  1
  V  V22  1  0.62157490  0.62707201  -0.00300802  1
  V  V23  1  0.25725246  0.75809018  0.49681007  1
  V  V24  1  0.24664790  0.00036148  0.24309649  1
  V  V25  1  0.11969079  0.61982433  -0.01361940  1
  V  V26  1  0.24772003  0.74609866  -0.00220172  1
  V  V27  1  0.75839647  0.88081645  0.62753803  1
  V  V28  1  0.50288407  0.74817574  0.25090993  1
  V  V29  1  0.24932776  0.87456821  0.62838539  1
  V  V30  1  0.62830008  0.88217964  0.74842034  1
  V  V31  1  0.87444440  0.62382459  0.25108560  1
  V  V32  1  0.87589538  0.38675478  -0.00350039  1
  V  V33  1  0.25505311  0.12700687  0.86678984  1
  V  V34  1  0.37900465  0.75423045  0.62022285  1
  V  V35  1  -0.00263405  0.38242692  0.87951364  1
  V  V36  1  0.62087673  0.50186440  0.12076116  1
  V  V37  1  0.75013145  0.11697000  0.37244150  1
  V  V38  1  0.50846333  0.37605956  0.88088863  1
  V  V39  1  0.24877699  0.24904928  -0.00051695  1
  V  V40  1  0.13075510  0.62447334  0.49890447  1
  V  V41  1  0.74815408  0.50072472  0.25066581  1
  V  V42  1  0.49638946  -0.00408020  0.50218043  1
  V  V43  1  0.37390646  0.12427182  0.25260666  1
  V  V44  1  0.49815965  0.25012190  0.25304473  1
  V  V45  1  0.87542903  0.24860296  0.11653129  1
  V  V46  1  0.86885604  0.24931455  0.62567978  1
  V  V47  1  0.37485294  0.87319909  -0.00181611  1
  V  V48  1  0.36885322  0.37904738  0.49657596  1
  V  V49  1  0.50262257  0.87450220  0.87729263  1
  V  V50  1  0.62422588  0.37763784  0.25210011  1
  V  V51  1  0.63239074  0.00155321  0.11744426  1
  V  V52  1  0.87445735  0.37586524  0.49959225  1
  V  V53  1  0.12472395  0.76771345  0.86784125  1
  V  V54  1  0.50669637  0.24914953  0.75923838  1
  V  V55  1  0.12043340  0.87754341  0.24934485  1
  V  V56  1  0.87509600  0.50230788  0.37321615  1
  V  V57  1  0.00229244  0.62484405  0.62718577  1
  V  V58  1  0.62336368  0.12633350  0.50005510  1
  V  V59  1  0.37214710  0.49821126  0.87109412  1
  V  V60  1  0.26182532  0.50481621  0.25288080  1
  V  V61  1  0.12286061  0.24494118  0.87637221  1
  V  V62  1  0.50107179  0.74868515  0.75136480  1
  V  V63  1  0.73350192  0.12291603  0.87492391  1
  V  V64  1  0.74182524  0.63007639  0.37516329  1
  V  V65  1  0.74872536  0.75988660  0.49599974  1
  V  V66  1  0.13391553  0.49980350  0.62934810  1
  V  V67  1  0.49419706  0.62188556  0.12401526  1
  V  V68  1  0.24626402  0.87734374  0.12314989  1
  V  V69  1  0.13134373  0.37555750  0.75178484  1
  V  V70  1  0.74638643  0.39339725  0.63000046  1
  V  V71  1  0.37638063  0.00296135  0.86808592  1
  V  V72  1  0.49550149  0.12689047  0.62852129  1
  V  V73  1  0.36997110  0.61968252  0.74819988  1
  V  V74  1  0.50661402  0.49890137  0.49553727  1
  V  V75  1  0.00552961  0.11546185  0.12151280  1
  V  V76  1  -0.00272383  0.24624061  0.75161768  1
  V  V77  1  0.37510951  0.25161086  0.62828727  1
  V  V78  1  0.51095412  0.62216115  0.62505188  1
  V  V79  1  0.86429238  0.12036562  0.24838472  1
  V  V80  1  0.00469228  0.50300580  0.49880276  1
  V  V81  1  0.37290421  0.74592517  0.13052349  1
  V  V82  1  0.87362663  0.75326134  0.12025807  1
  V  V83  1  0.25401734  0.37044385  0.62669084  1
  V  V84  1  -0.00020931  0.75008639  0.25427108  1
  Zn  Zn85  1  0.00776580  -0.01782508  -0.00852077  1
  Zn  Zn86  1  0.00262611  -0.01664199  0.49967090  1
  Zn  Zn87  1  0.87759564  0.74989938  0.61950810  1
  Zn  Zn88  1  0.74822285  0.25191939  0.50047701  1
  Zn  Zn89  1  0.12710185  0.12180081  0.50294859  1
  Zn  Zn90  1  0.85845533  0.12050000  0.74752556  1
  Zn  Zn91  1  0.75248698  0.87858366  0.12352512  1
  Zn  Zn92  1  0.63712813  0.38551447  0.75835131  1
  Zn  Zn93  1  0.86571507  0.60567510  0.74331238  1
  Zn  Zn94  1  0.74845346  0.75179532  -0.00117032  1
  Zn  Zn95  1  0.74692882  0.37313173  0.12042118  1
  Zn  Zn96  1  0.50402141  0.12213347  0.12370761  1
  Zn  Zn97  1  0.13047175  0.11638661  0.00762809  1
  Zn  Zn98  1  0.62851486  0.75068173  0.87658317  1
  Zn  Zn99  1  0.49225764  0.38146087  0.37290519  1
  Zn  Zn100  1  0.24440617  0.61733499  0.86733365  1
  Zn  Zn101  1  0.62987969  0.00376763  0.62760530  1
  Zn  Zn102  1  0.50446873  0.00878492  -0.00212043  1
  Zn  Zn103  1  0.87535652  0.87749748  -0.00822120  1
  Zn  Zn104  1  0.62823699  0.62548590  0.50120494  1
  Zn  Zn105  1  0.72655402  0.25110527  -0.01835736  1
  Zn  Zn106  1  0.12248287  -0.00392711  0.62401078  1
  Zn  Zn107  1  0.18560184  0.18844356  0.19364105  1
  Zn  Zn108  1  0.18768860  0.18688958  0.68725950  1
  Zn  Zn109  1  0.18657857  0.68527180  0.18745259  1
  Zn  Zn110  1  0.18811179  0.68959160  0.68874026  1
  Zn  Zn111  1  0.67624674  0.19959290  0.15733556  1
  Zn  Zn112  1  0.68372896  0.19041867  0.69247963  1
  Zn  Zn113  1  0.68425558  0.68998719  0.18768366  1
  Zn  Zn114  1  0.69092067  0.69261243  0.68978309  1
  Zn  Zn115  1  0.30833341  0.31395536  0.31453362  1
  Zn  Zn116  1  0.31723175  0.31174447  0.80901301  1
  Zn  Zn117  1  0.31316731  0.81180559  0.31062256  1
  Zn  Zn118  1  0.31256177  0.81004760  0.81106409  1
  Zn  Zn119  1  0.81003131  0.30925146  0.31024742  1
  Zn  Zn120  1  0.81042368  0.31038720  0.81337024  1
  Zn  Zn121  1  0.80902250  0.80916199  0.30767784  1
  Zn  Zn122  1  0.81240920  0.80754806  0.81242619  1
  Zn  Zn123  1  0.19219818  0.43764836  0.43740110  1
  Zn  Zn124  1  0.18681917  0.43768962  0.93552303  1
  Zn  Zn125  1  0.18381656  0.93678965  0.43892685  1
  Zn  Zn126  1  0.18767811  0.94314856  0.94130862  1
  Zn  Zn127  1  0.68732338  0.43715603  0.43894781  1
  Zn  Zn128  1  0.69150539  0.44093408  0.94132182  1
  Zn  Zn129  1  0.68566786  0.93994586  0.43742982  1
  Zn  Zn130  1  0.69644040  0.93914813  0.93748198  1
  Zn  Zn131  1  0.32518390  0.06609604  0.05543568  1
  Zn  Zn132  1  0.31605067  0.06120725  0.56344731  1
  Zn  Zn133  1  0.30876831  0.56331904  0.06105084  1
  Zn  Zn134  1  0.31704677  0.56149096  0.56303967  1
  Zn  Zn135  1  0.81158171  0.06078607  0.05020471  1
  Zn  Zn136  1  0.81434520  0.06171521  0.55833793  1
  Zn  Zn137  1  0.80646217  0.56536575  0.06199139  1
  Zn  Zn138  1  0.81770807  0.56899504  0.55607439  1
  Zn  Zn139  1  0.43802286  0.43704003  0.18619135  1
  Zn  Zn140  1  0.47616749  0.45400711  0.70330707  1
  Zn  Zn141  1  0.44023481  0.93647628  0.18611628  1
  Zn  Zn142  1  0.43541105  0.93671264  0.68893397  1
  Zn  Zn143  1  0.93673116  0.43679965  0.18386207  1
  Zn  Zn144  1  0.93854582  0.43407616  0.68743173  1
  Zn  Zn145  1  0.93463677  0.93860077  0.19088244  1
  Zn  Zn146  1  0.93699579  0.93946100  0.68938685  1
  Zn  Zn147  1  0.06218100  0.06364228  0.31030377  1
  Zn  Zn148  1  0.06166250  0.06210902  0.81049196  1
  Zn  Zn149  1  0.06747265  0.56594346  0.31142227  1
  Zn  Zn150  1  0.03024698  0.54805129  0.80104746  1
  Zn  Zn151  1  0.56165014  0.05928291  0.30997287  1
  Zn  Zn152  1  0.56181984  0.06287958  0.81158158  1
  Zn  Zn153  1  0.55643418  0.56400066  0.31218172  1
  Zn  Zn154  1  0.56077570  0.55693137  0.81818961  1
  Zn  Zn155  1  0.43511706  0.19068726  0.44097243  1
  Zn  Zn156  1  0.43569401  0.18809937  0.93867736  1
  Zn  Zn157  1  0.44097890  0.68652807  0.43825584  1
  Zn  Zn158  1  0.43751527  0.68466691  0.93860274  1
  Zn  Zn159  1  0.93481281  0.18578778  0.43823152  1
  Zn  Zn160  1  0.93117463  0.17978717  0.93641060  1
  Zn  Zn161  1  0.93293382  0.80891303  0.43929583  1
  Zn  Zn162  1  0.94202581  0.69103191  0.93544461  1
  Zn  Zn163  1  0.05951422  0.30915361  0.06112356  1
  Zn  Zn164  1  0.05998330  0.31246913  0.56494313  1
  Zn  Zn165  1  0.06137230  0.81065140  0.06137623  1
  Zn  Zn166  1  0.06741608  0.81191327  0.56676239  1
  Zn  Zn167  1  0.55754984  0.31216328  0.06479668  1
  Zn  Zn168  1  0.56266247  0.31442763  0.56422531  1
  Zn  Zn169  1  0.56394020  0.81433214  0.06488305  1
  Zn  Zn170  1  0.56998705  0.81126888  0.56154424  1
  O  O171  1  0.10923046  0.13135227  0.12939181  1
  O  O172  1  0.11624147  0.12549882  0.62219614  1
  O  O173  1  0.11788070  0.61950727  0.11682305  1
  O  O174  1  0.12941495  0.61578147  0.61980094  1
  O  O175  1  0.61968998  0.10191934  0.14379548  1
  O  O176  1  0.61465435  0.12569410  0.61707774  1
  O  O177  1  0.61772668  0.62031838  0.11790496  1
  O  O178  1  0.61350101  0.62999091  0.62703342  1
  O  O179  1  0.37388650  0.36752553  0.39189181  1
  O  O180  1  0.37802806  0.37835232  0.88317326  1
  O  O181  1  0.38189073  0.88534628  0.37023335  1
  O  O182  1  0.38295416  0.87764077  0.87774984  1
  O  O183  1  0.87980149  0.38035509  0.37813298  1
  O  O184  1  0.88174015  0.37024974  0.88778204  1
  O  O185  1  0.87342873  0.88558529  0.36737494  1
  O  O186  1  0.86502940  0.89163688  0.87001987  1
  O  O187  1  0.25787656  0.00320353  0.36666139  1
  O  O188  1  0.25571708  0.00597717  0.86742698  1
  O  O189  1  0.24265841  0.51110304  0.36488042  1
  O  O190  1  0.26445949  0.49947614  0.87725866  1
  O  O191  1  0.75822283  0.01146777  0.37821044  1
  O  O192  1  0.76033536  0.01398538  0.87785870  1
  O  O193  1  0.75474352  0.50497271  0.36972705  1
  O  O194  1  0.74150388  0.51986572  0.87634836  1
  O  O195  1  0.24230258  0.49636812  0.13275469  1
  O  O196  1  0.24089962  0.48873272  0.62060809  1
  O  O197  1  0.25868854  0.99298571  0.13582321  1
  O  O198  1  0.25685268  0.99187432  0.63287541  1
  O  O199  1  0.73973744  0.49859053  0.13369534  1
  O  O200  1  0.75797675  0.49193901  0.62161296  1
  O  O201  1  0.73833174  0.99952129  0.12145234  1
  O  O202  1  0.74848277  0.98536967  0.61633171  1
  O  O203  1  0.00357745  0.36827604  0.25541636  1
  O  O204  1  0.00963264  0.36073605  0.75750450  1
  O  O205  1  0.01379395  0.86734322  0.24229118  1
  O  O206  1  0.00403464  0.85945710  0.74078683  1
  O  O207  1  0.50427504  0.36875406  0.25422442  1
  O  O208  1  0.48838927  0.35863917  0.76689278  1
  O  O209  1  0.50545564  0.86895415  0.25871856  1
  O  O210  1  0.50338281  0.86818707  0.75901921  1
  O  O211  1  0.48900891  0.13131171  0.25143291  1
  O  O212  1  0.50431805  0.13765831  0.74273898  1
  O  O213  1  0.50402739  0.63599967  0.23876534  1
  O  O214  1  0.49224467  0.63330589  0.74331320  1
  O  O215  1  0.99306318  0.13196494  0.24230444  1
  O  O216  1  1.00275300  0.13697685  0.73914963  1
  O  O217  1  0.99545267  0.63151853  0.24466050  1
  O  O218  1  1.01737599  0.63923353  0.73312934  1
  O  O219  1  0.36492777  0.26074325  0.00563385  1
  O  O220  1  0.38643712  0.26630828  0.51431759  1
  O  O221  1  0.36790720  0.75396447  0.00709449  1
  O  O222  1  0.36939323  0.74509746  0.50848051  1
  O  O223  1  0.87560475  0.25249411  0.01261272  1
  O  O224  1  0.87449478  0.25815935  0.50804312  1
  O  O225  1  0.87639447  0.74427477  0.01392492  1
  O  O226  1  0.85626800  0.74934273  0.50083210  1
  O  O227  1  0.12104368  0.25024818  0.48828909  1
  O  O228  1  0.13115375  0.24655064  0.99223865  1
  O  O229  1  0.13635583  0.74425365  0.49261121  1
  O  O230  1  0.12741428  0.74096473  0.98571096  1
  O  O231  1  0.62161425  0.24012718  0.49216783  1
  O  O232  1  0.64269966  0.24436545  1.05457634  1
  O  O233  1  0.64156759  0.74450621  0.50089119  1
  O  O234  1  0.62512697  0.74045967  1.00108886  1
  O  O235  1  0.48774986  0.24838197  0.14058568  1
  O  O236  1  0.49582232  0.24589073  0.63393890  1
  O  O237  1  0.49096421  0.74652047  0.13136448  1
  O  O238  1  0.49513893  0.74547688  0.62930961  1
  O  O239  1  0.99142388  0.24512117  0.13445059  1
  O  O240  1  0.98914324  0.24756970  0.63213572  1
  O  O241  1  0.99695895  0.73768023  0.13647476  1
  O  O242  1  1.00204868  0.74286499  0.63366826  1
  O  O243  1  0.00523031  0.25359446  0.36898514  1
  O  O244  1  0.00680227  0.25040293  0.86941772  1
  O  O245  1  0.00717493  0.74956359  0.36233924  1
  O  O246  1  0.01333211  0.74635705  0.86142322  1
  O  O247  1  0.50462210  0.25050636  0.36510607  1
  O  O248  1  0.49498806  0.25286159  0.86526896  1
  O  O249  1  0.49361967  0.76059890  0.36703728  1
  O  O250  1  0.49977788  0.75664627  0.86685168  1
  O  O251  1  0.25184981  0.12081814  0.48650775  1
  O  O252  1  0.25105857  0.13199372  0.98930033  1
  O  O253  1  0.24828162  0.63179139  0.49335870  1
  O  O254  1  0.23865118  0.63085769  0.99669913  1
  O  O255  1  0.73979862  0.12711254  0.49293341  1
  O  O256  1  0.75636098  0.13354978  0.98197959  1
  O  O257  1  0.74843534  0.63324622  0.49141418  1
  O  O258  1  0.73974886  0.62780260  0.99116565  1
  O  O259  1  0.25322330  0.36883846  0.00707466  1
  O  O260  1  0.26122494  0.37543800  0.50714871  1
  O  O261  1  0.25324789  0.86724455  0.00673778  1
  O  O262  1  0.25222306  0.86294182  0.50330614  1
  O  O263  1  0.76173968  0.36880481  0.00051038  1
  O  O264  1  0.75864418  0.37414753  0.50767013  1
  O  O265  1  0.75745090  0.86879104  0.00468797  1
  O  O266  1  0.74283786  0.86763703  0.50888368  1
  O  O267  1  0.13013205  0.49640478  0.23912195  1
  O  O268  1  0.11878152  0.48655253  0.74113398  1
  O  O269  1  0.13408735  0.98988121  0.25546559  1
  O  O270  1  0.13920866  1.00274231  0.74658231  1
  O  O271  1  0.62688729  0.49463191  0.24566296  1
  O  O272  1  0.58447541  0.48387790  0.73941477  1
  O  O273  1  0.61980555  0.98419842  0.24459943  1
  O  O274  1  0.61652265  0.98563411  0.74563690  1
  O  O275  1  0.36979460  0.00628781  0.25691915  1
  O  O276  1  0.36721589  -0.00369356  0.76212234  1
  O  O277  1  0.36101383  0.49406852  0.24825860  1
  O  O278  1  0.38363613  0.50868893  0.75710254  1
  O  O279  1  0.87672234  0.00980955  0.26241058  1
  O  O280  1  0.87619037  0.00412785  0.75969638  1
  O  O281  1  0.86868972  0.50325883  0.25241739  1
  O  O282  1  0.92303210  0.51112284  0.76392549  1
  O  O283  1  0.12040872  0.36926631  0.37069135  1
  O  O284  1  0.12421804  0.36174584  0.86945571  1
  O  O285  1  0.13559469  0.86042720  0.36378605  1
  O  O286  1  0.13059600  0.86522031  0.87436046  1
  O  O287  1  0.62258384  0.36985578  0.36515912  1
  O  O288  1  0.61296604  0.37948460  0.88036155  1
  O  O289  1  0.61624914  0.87996665  0.36369663  1
  O  O290  1  0.61885442  0.87432237  0.86857519  1
  O  O291  1  0.36499379  0.13179439  0.14297372  1
  O  O292  1  0.38782837  0.13488736  0.61730838  1
  O  O293  1  0.38050863  0.63398171  0.11994903  1
  O  O294  1  0.38180169  0.63457426  0.63062754  1
  O  O295  1  0.88177343  0.13211523  0.13080890  1
  O  O296  1  0.87930550  0.13229542  0.62682651  1
  O  O297  1  0.88172500  0.62768948  0.13094009  1
  O  O298  1  0.88843210  0.62655196  0.62693474  1
  O  O299  1  0.25157371  0.25638886  0.12328194  1
  O  O300  1  0.25777455  0.26054296  0.62881665  1
  O  O301  1  0.25630278  0.75416621  0.12118122  1
  O  O302  1  0.25854202  0.75448109  0.61774632  1
  O  O303  1  0.77508763  0.25732054  0.14444646  1
  O  O304  1  0.76114530  0.25145046  0.62408184  1
  O  O305  1  0.76161917  0.74778021  0.12551771  1
  O  O306  1  0.75274427  0.75939017  0.61502900  1
  O  O307  1  0.23836316  0.23940373  0.36777173  1
  O  O308  1  0.24519787  0.24371626  0.87661915  1
  O  O309  1  0.24683521  0.74485112  0.37994876  1
  O  O310  1  0.23791432  0.74439320  0.87681583  1
  O  O311  1  0.74321007  0.23864743  0.37668854  1
  O  O312  1  0.74847946  0.23546670  0.87155871  1
  O  O313  1  0.75252439  0.74375609  0.38414878  1
  O  O314  1  0.74618198  0.73626641  0.87744517  1
  O  O315  1  0.00111725  0.13095551  0.01741887  1
  O  O316  1  0.00029058  0.12813928  0.51308937  1
  O  O317  1  0.00746400  0.62808734  0.00949040  1
  O  O318  1  0.01587792  0.62108383  0.51431285  1
  O  O319  1  0.46962971  0.11701606  0.01552485  1
  O  O320  1  0.50542148  0.11913871  0.50473780  1
  O  O321  1  0.50560304  0.62959067  0.01479233  1
  O  O322  1  0.50428088  0.61776627  0.50520716  1
  O  O323  1  0.49378851  0.38631101  0.49997766  1
  O  O324  1  0.48815588  0.36539265  0.99332944  1
  O  O325  1  0.50837875  0.88268204  0.49057529  1
  O  O326  1  0.49520829  0.87269576  0.98783868  1
  O  O327  1  0.99487014  0.38139542  0.49436682  1
  O  O328  1  0.98536341  0.36551449  0.99331025  1
  O  O329  1  1.00558247  0.86957417  0.49623976  1
  O  O330  1  0.98860200  0.86990988  1.00630291  1
  O  O331  1  0.49635127  0.50176717  0.38963851  1
  O  O332  1  0.48411329  0.48700021  0.88205458  1
  O  O333  1  0.49246288  0.99194855  0.38058872  1
  O  O334  1  0.49271521  0.99238580  0.87599839  1
  O  O335  1  0.99784351  0.49713062  0.37841256  1
  O  O336  1  1.02200061  0.47793097  0.89102163  1
  O  O337  1  0.98691302  1.00423515  0.37460978  1
  O  O338  1  0.98739814  1.00425865  0.87274266  1
  O  O339  1  -0.00476561  0.01495822  0.12801074  1
  O  O340  1  0.00059345  0.00899553  0.62308901  1
  O  O341  1  0.00801350  0.51231162  0.13142796  1
  O  O342  1  0.01503702  0.50367468  0.61679369  1
  O  O343  1  0.51059290  -0.00308575  0.12143337  1
  O  O344  1  0.49717098  0.00772065  0.61829497  1
  O  O345  1  0.50677340  0.51080510  0.13225309  1
  O  O346  1  0.48748778  0.51336027  0.60567004  1
  O  O347  1  0.24168558  0.38173351  0.24521451  1
  O  O348  1  0.23969304  0.37059787  0.74332873  1
  O  O349  1  0.24375365  0.88115705  0.24308988  1
  O  O350  1  0.25716715  0.88326116  0.74113423  1
  O  O351  1  0.74016330  0.38176459  0.24967188  1
  O  O352  1  0.75288902  0.37727074  0.73623539  1
  O  O353  1  0.73227624  0.86913307  0.24859090  1
  O  O354  1  0.74115903  0.86530367  0.73596158  1
  O  O355  1  0.25289347  0.11666853  0.25956449  1
  O  O356  1  0.24917413  0.11871494  0.76024733  1
  O  O357  1  0.24599838  0.61676600  0.25814965  1
  O  O358  1  0.26553281  0.62883280  0.74905173  1
  O  O359  1  0.76155720  0.13167817  0.25552063  1
  O  O360  1  0.74307396  0.12572076  0.76246819  1
  O  O361  1  0.75300956  0.62098378  0.25461878  1
  O  O362  1  0.75243772  0.62857469  0.76334014  1
  O  O363  1  0.36906868  0.11962115  0.36816892  1
  O  O364  1  0.36607138  0.11561638  0.87538676  1
  O  O365  1  0.36387342  0.62919627  0.37469210  1
  O  O366  1  0.37563392  0.61631314  0.86728874  1
  O  O367  1  0.86828594  0.12053802  0.36740562  1
  O  O368  1  0.87143969  0.11515713  0.86639258  1
  O  O369  1  0.86238434  0.61524472  0.36340443  1
  O  O370  1  0.86582045  0.62477155  0.87724002  1
  O  O371  1  0.12543134  0.38234700  0.12849219  1
  O  O372  1  0.13201625  0.37770632  0.63137661  1
  O  O373  1  0.13992400  0.86419323  0.13337300  1
  O  O374  1  0.14516907  0.87439525  0.62417357  1
  O  O375  1  0.62130609  0.38685362  0.13817825  1
  O  O376  1  0.64583889  0.37307131  0.61945374  1
  O  O377  1  0.62558892  0.88428544  0.13578902  1
  O  O378  1  0.63339542  0.87784212  0.63207771  1
  O  O379  1  0.11389688  0.25643033  0.25819200  1
  O  O380  1  0.11916209  0.25588892  0.75646447  1
  O  O381  1  0.11902460  0.75378137  0.25613217  1
  O  O382  1  0.12285066  0.74983583  0.76282707  1
  O  O383  1  0.61618520  0.25804645  0.24971894  1
  O  O384  1  0.60834315  0.26372056  0.74490956  1
  O  O385  1  0.61036060  0.76302408  0.24281765  1
  O  O386  1  0.61216401  0.75864798  0.75027783  1
  O  O387  1  0.37859062  0.24397109  0.25076437  1
  O  O388  1  0.38480682  0.25074819  0.73595416  1
  O  O389  1  0.38384958  0.75631395  0.23746259  1
  O  O390  1  0.38553730  0.74409065  0.74401517  1
  O  O391  1  0.88754053  0.24391888  0.24879194  1
  O  O392  1  0.88292268  0.24868514  0.74235730  1
  O  O393  1  0.88315820  0.74297898  0.24458539  1
  O  O394  1  0.89182593  0.74354660  0.74963607  1
  O  O395  1  0.38008131  0.48471865  0.50114922  1
  O  O396  1  0.36915211  0.48655082  0.99801077  1
  O  O397  1  0.38739007  1.00328738  0.49051568  1
  O  O398  1  0.36986455  0.98663109  0.98496801  1
  O  O399  1  0.88469309  0.49637843  0.49210326  1
  O  O400  1  0.87231412  0.48506378  1.00778248  1
  O  O401  1  0.87920082  1.00423695  0.48113436  1
  O  O402  1  0.88419942  1.00032496  0.98576582  1
  O  O403  1  0.11900039  0.00481198  -0.00008337  1
  O  O404  1  0.12153027  0.00360187  0.50345297  1
  O  O405  1  0.13234372  0.50582309  0.01400870  1
  O  O406  1  0.12397018  0.50398138  0.50575873  1
  O  O407  1  0.62264658  -0.00563890  0.01379816  1
  O  O408  1  0.61341733  0.01125521  0.49991024  1
  O  O409  1  0.62740483  0.50632848  0.01507276  1
  O  O410  1  0.61087959  0.50134255  0.49910100  1
  O  O411  1  0.36886598  0.36956336  0.11935068  1
  O  O412  1  0.36661570  0.37118289  0.61883899  1
  O  O413  1  0.36509370  0.86812945  0.12039064  1
  O  O414  1  0.37014395  0.86093762  0.62802933  1
  O  O415  1  0.87845929  0.36609431  0.11367586  1
  O  O416  1  0.86899782  0.36944582  0.62030372  1
  O  O417  1  0.87112649  0.86272874  0.13501011  1
  O  O418  1  0.86149724  0.87239947  0.62894051  1
  O  O419  1  0.13161855  0.13299743  0.37527474  1
  O  O420  1  0.13183232  0.13546900  0.87349526  1
  O  O421  1  0.13200564  0.63778790  0.37924768  1
  O  O422  1  0.12107728  0.61711933  0.88331012  1
  O  O423  1  0.63065834  0.12652247  0.37818475  1
  O  O424  1  0.63293306  0.11752179  0.88045881  1
  O  O425  1  0.63853214  0.61999830  0.37287978  1
  O  O426  1  0.61618250  0.62580449  0.88942006  1
