# generated using pymatgen
data_V85Zn86O256
_symmetry_space_group_name_H-M   'P 1'
_cell_length_a   16.90678176
_cell_length_b   16.90763165
_cell_length_c   16.90793755
_cell_angle_alpha   90.01281774
_cell_angle_beta   89.99038417
_cell_angle_gamma   89.95265567
_symmetry_Int_Tables_number   1
_chemical_formula_structural   V85Zn86O256
_chemical_formula_sum   'V85 Zn86 O256'
_cell_volume   4833.19362770
_cell_formula_units_Z   1
loop_
 _symmetry_equiv_pos_site_id
 _symmetry_equiv_pos_as_xyz
  1  'x, y, z'
loop_
 _atom_site_type_symbol
 _atom_site_label
 _atom_site_symmetry_multiplicity
 _atom_site_fract_x
 _atom_site_fract_y
 _atom_site_fract_z
 _atom_site_occupancy
  V  V0  1  0.87857393  0.24636674  0.13577688  1
  V  V1  1  0.37444141  0.24218266  0.62842713  1
  V  V2  1  0.12598037  0.87472200  0.23466154  1
  V  V3  1  0.75809089  0.12679702  0.87325805  1
  V  V4  1  0.12155619  0.86944951  0.75318574  1
  V  V5  1  0.50234198  -0.00275466  0.50198332  1
  V  V6  1  0.12050419  0.37304649  0.24867210  1
  V  V7  1  0.12506674  0.24789830  0.87537596  1
  V  V8  1  0.50150913  0.00088461  -0.00200314  1
  V  V9  1  0.24809183  0.75423464  -0.01035160  1
  V  V10  1  0.63270690  0.62301965  -0.00177001  1
  V  V11  1  0.86532126  0.50828444  0.88008289  1
  V  V12  1  0.36904675  0.75567551  0.12271245  1
  V  V13  1  0.74670489  0.37944928  0.62737273  1
  V  V14  1  0.49757200  0.50268224  0.50836767  1
  V  V15  1  0.50863828  0.74617292  0.74531894  1
  V  V16  1  0.63350272  0.74778492  0.87365270  1
  V  V17  1  0.37789083  0.25319448  0.11996101  1
  V  V18  1  0.24609262  0.62454613  0.37377615  1
  V  V19  1  0.37688877  -0.00589311  0.37344444  1
  V  V20  1  0.12260901  0.24867654  0.36898877  1
  V  V21  1  0.74918175  0.87159112  0.12389298  1
  V  V22  1  0.12474810  0.50016637  0.12391418  1
  V  V23  1  0.12509940  0.12384725  0.49960020  1
  V  V24  1  0.61858066  0.75639577  0.37475297  1
  V  V25  1  0.25528006  0.25238314  -0.00371846  1
  V  V26  1  0.12055953  0.62290705  0.51210882  1
  V  V27  1  0.25693001  0.12414140  0.85921011  1
  V  V28  1  0.12390939  0.62970126  -0.00935714  1
  V  V29  1  0.50710012  0.87469319  0.86868329  1
  V  V30  1  0.37963534  0.73949163  0.62527911  1
  V  V31  1  0.62404018  0.12284549  0.50279921  1
  V  V32  1  0.49742543  0.75839410  0.25106832  1
  V  V33  1  -0.00364996  0.12190795  0.63134541  1
  V  V34  1  0.63334409  0.12863586  0.00203353  1
  V  V35  1  0.38182756  0.49652810  0.37299990  1
  V  V36  1  -0.00487567  0.24673829  0.75273028  1
  V  V37  1  0.24375285  0.38076214  0.62295131  1
  V  V38  1  -0.00312719  0.87908614  0.37040120  1
  V  V39  1  0.73738336  0.87670653  0.63101676  1
  V  V40  1  0.38213295  0.61610646  0.75689852  1
  V  V41  1  0.25451968  0.87777192  0.63121207  1
  V  V42  1  0.62185194  0.26140001  0.37409373  1
  V  V43  1  0.00700607  0.00107415  -0.00125000  1
  V  V44  1  0.62024205  0.62589612  0.50729523  1
  V  V45  1  0.24999789  -0.00381431  0.23376701  1
  V  V46  1  0.87191755  0.24722355  0.62995143  1
  V  V47  1  0.24408584  0.50011492  0.75509032  1
  V  V48  1  0.88634223  0.75051727  0.62823645  1
  V  V49  1  0.74620234  0.49467658  0.25221196  1
  V  V50  1  0.87522306  0.87606040  -0.00415087  1
  V  V51  1  0.00314311  0.50169584  0.51509118  1
  V  V52  1  0.74358116  0.36530904  0.12815335  1
  V  V53  1  0.48747697  0.49902398  -0.00222747  1
  V  V54  1  0.62241373  0.49708887  0.12987890  1
  V  V55  1  -0.00216388  0.37271376  0.87795142  1
  V  V56  1  0.37957638  0.87131007  0.49551433  1
  V  V57  1  0.24867249  0.49979200  0.24951923  1
  V  V58  1  0.50068803  0.26543011  0.25497613  1
  V  V59  1  0.37636982  0.00402260  0.85659036  1
  V  V60  1  0.75302966  0.75251224  0.50070445  1
  V  V61  1  0.86879317  0.36665546  0.00385855  1
  V  V62  1  0.63009098  0.25249300  0.88066602  1
  V  V63  1  0.88038808  0.62924917  0.24831242  1
  V  V64  1  0.37881016  0.12616056  0.25121102  1
  V  V65  1  0.62132691  0.37656972  0.75220397  1
  V  V66  1  0.00945347  0.12333183  0.13134964  1
  V  V67  1  0.76205541  0.00075220  0.25678019  1
  V  V68  1  0.00011145  0.50012490  0.00360267  1
  V  V69  1  0.38037516  0.37223127  0.49627487  1
  V  V70  1  0.87433990  0.37677190  0.50209894  1
  V  V71  1  0.25026400  0.24994090  0.49846882  1
  V  V72  1  0.74778023  0.62501999  0.37408306  1
  V  V73  1  0.48636809  0.37665204  0.87955503  1
  V  V74  1  0.74483816  0.00685680  0.74349226  1
  V  V75  1  0.24908071  0.74957103  0.49928567  1
  V  V76  1  0.13011477  0.00080617  0.63017379  1
  V  V77  1  0.37414301  0.62715695  0.24851540  1
  V  V78  1  0.11815486  0.75207285  0.37098120  1
  V  V79  1  0.62556455  0.00024355  0.12814833  1
  V  V80  1  0.49655912  0.24247749  0.75191601  1
  V  V81  1  -0.00193281  0.37315657  0.37232835  1
  V  V82  1  0.25081628  0.37386653  0.12054692  1
  V  V83  1  0.37183802  0.87993136  -0.00001402  1
  V  V84  1  -0.00748592  0.00165820  0.49583249  1
  Zn  Zn85  1  0.88503285  0.12566945  0.26203477  1
  Zn  Zn86  1  0.00358170  0.87187923  0.87540887  1
  Zn  Zn87  1  0.74278272  0.50693487  0.76056035  1
  Zn  Zn88  1  0.49995989  0.62752912  0.12344354  1
  Zn  Zn89  1  0.01034620  0.73260495  0.76156155  1
  Zn  Zn90  1  0.50369601  0.12829915  0.12560562  1
  Zn  Zn91  1  0.74835953  0.24903088  0.49881750  1
  Zn  Zn92  1  0.75454801  0.12297976  0.37928286  1
  Zn  Zn93  1  0.61923715  0.50567875  0.63091379  1
  Zn  Zn94  1  0.87502896  0.62344330  0.74562656  1
  Zn  Zn95  1  0.75428835  0.74545075  -0.00251383  1
  Zn  Zn96  1  0.87509315  0.50087203  0.37680382  1
  Zn  Zn97  1  0.50065255  0.11657037  0.63154715  1
  Zn  Zn98  1  0.00599028  0.63460404  0.13001682  1
  Zn  Zn99  1  0.24922622  0.12137092  0.37437909  1
  Zn  Zn100  1  0.87273841  0.87989394  0.49575429  1
  Zn  Zn101  1  0.25463174  0.62184693  0.87630896  1
  Zn  Zn102  1  0.11886238  0.37929255  0.74294006  1
  Zn  Zn103  1  0.62121319  0.87957722  0.25406174  1
  Zn  Zn104  1  0.88543326  0.75492886  0.12765361  1
  Zn  Zn105  1  0.87876484  0.00343220  0.86664775  1
  Zn  Zn106  1  0.13167529  0.11963866  0.00181022  1
  Zn  Zn107  1  0.19092728  0.18539221  0.18824924  1
  Zn  Zn108  1  0.18413261  0.19168202  0.68598430  1
  Zn  Zn109  1  0.18604728  0.69149066  0.18103411  1
  Zn  Zn110  1  0.19316985  0.68771361  0.68908044  1
  Zn  Zn111  1  0.68702080  0.18619433  0.19403397  1
  Zn  Zn112  1  0.68435219  0.18834568  0.68765735  1
  Zn  Zn113  1  0.68634047  0.68556311  0.18714239  1
  Zn  Zn114  1  0.69556080  0.68528742  0.69030006  1
  Zn  Zn115  1  0.31054749  0.31290542  0.31150273  1
  Zn  Zn116  1  0.31131120  0.31396645  0.80889216  1
  Zn  Zn117  1  0.30720983  0.81440021  0.31148213  1
  Zn  Zn118  1  0.31812709  0.81334891  0.81054732  1
  Zn  Zn119  1  0.80949777  0.30986141  0.31467730  1
  Zn  Zn120  1  0.81084659  0.31608095  0.81353805  1
  Zn  Zn121  1  0.81026249  0.81378933  0.31209909  1
  Zn  Zn122  1  0.81440103  0.81693833  0.80841810  1
  Zn  Zn123  1  0.18699150  0.43892551  0.43843509  1
  Zn  Zn124  1  0.18814723  0.43523188  0.93379971  1
  Zn  Zn125  1  0.18865096  0.93758213  0.43665350  1
  Zn  Zn126  1  0.19304636  0.94264341  0.93471219  1
  Zn  Zn127  1  0.68567512  0.43817613  0.44029269  1
  Zn  Zn128  1  0.68335845  0.43391158  0.94560328  1
  Zn  Zn129  1  0.68541299  0.93657956  0.43936857  1
  Zn  Zn130  1  0.68985810  0.94008397  0.93492718  1
  Zn  Zn131  1  0.31675168  0.06896622  0.05592953  1
  Zn  Zn132  1  0.31337693  0.06125229  0.56186675  1
  Zn  Zn133  1  0.30967369  0.56827260  0.06384660  1
  Zn  Zn134  1  0.30836088  0.56110680  0.56360154  1
  Zn  Zn135  1  0.81630712  0.06061716  0.06376854  1
  Zn  Zn136  1  0.81050082  0.06340588  0.56406811  1
  Zn  Zn137  1  0.81154688  0.55877904  0.06679211  1
  Zn  Zn138  1  0.81061462  0.56435584  0.56505160  1
  Zn  Zn139  1  0.43578908  0.43756604  0.18332288  1
  Zn  Zn140  1  0.43253205  0.43227497  0.68737095  1
  Zn  Zn141  1  0.43813116  0.93793609  0.18398039  1
  Zn  Zn142  1  0.44396952  0.92974517  0.68358195  1
  Zn  Zn143  1  0.93366804  0.43942824  0.18967994  1
  Zn  Zn144  1  0.93498840  0.43747186  0.69339978  1
  Zn  Zn145  1  0.94172153  0.93699530  0.18167711  1
  Zn  Zn146  1  0.93120612  0.93563261  0.68638831  1
  Zn  Zn147  1  0.06697465  0.05776738  0.31048439  1
  Zn  Zn148  1  0.06573688  0.05987028  0.81290533  1
  Zn  Zn149  1  0.06044154  0.55762191  0.31961767  1
  Zn  Zn150  1  0.05726116  0.56162496  0.81174768  1
  Zn  Zn151  1  0.56219096  0.06586228  0.31759638  1
  Zn  Zn152  1  0.57021091  0.06123273  0.81256181  1
  Zn  Zn153  1  0.56047509  0.56726181  0.31345557  1
  Zn  Zn154  1  0.56041342  0.56406941  0.81718199  1
  Zn  Zn155  1  0.43973694  0.18432054  0.43600535  1
  Zn  Zn156  1  0.44073071  0.18517427  0.93624311  1
  Zn  Zn157  1  0.43764325  0.68444325  0.43500201  1
  Zn  Zn158  1  0.44225556  0.68751968  0.93634189  1
  Zn  Zn159  1  0.93623359  0.18885121  0.43955963  1
  Zn  Zn160  1  0.93718691  0.18701422  0.94602687  1
  Zn  Zn161  1  0.93769652  0.68705066  0.43674134  1
  Zn  Zn162  1  0.94141473  0.69286441  0.93867138  1
  Zn  Zn163  1  0.06221156  0.30777571  0.06215824  1
  Zn  Zn164  1  0.06061498  0.31062593  0.56033756  1
  Zn  Zn165  1  0.05941412  0.80927749  0.06000380  1
  Zn  Zn166  1  0.06506766  0.81650156  0.55876117  1
  Zn  Zn167  1  0.56091618  0.31449963  0.06244137  1
  Zn  Zn168  1  0.56026506  0.31100316  0.56243194  1
  Zn  Zn169  1  0.56063203  0.81250528  0.06072998  1
  Zn  Zn170  1  0.56112160  0.81125422  0.56094552  1
  O  O171  1  0.11351327  0.13031557  0.12249488  1
  O  O172  1  0.11819221  0.11927112  0.62109208  1
  O  O173  1  0.12665838  0.61529752  0.11555712  1
  O  O174  1  0.13027476  0.63165855  0.61075051  1
  O  O175  1  0.62647962  0.11971345  0.11875705  1
  O  O176  1  0.61913782  0.13471290  0.60881759  1
  O  O177  1  0.62079891  0.61702718  0.11829199  1
  O  O178  1  0.63067507  0.62474197  0.61095762  1
  O  O179  1  0.36713234  0.38466168  0.38349083  1
  O  O180  1  0.38724242  0.36895537  0.87509016  1
  O  O181  1  0.37006982  0.87975203  0.38404255  1
  O  O182  1  0.38575921  0.88247715  0.87884500  1
  O  O183  1  0.88047263  0.37346973  0.38486136  1
  O  O184  1  0.87880756  0.37686622  0.88750243  1
  O  O185  1  0.89226796  0.86811600  0.37278846  1
  O  O186  1  0.87283081  0.87873957  0.88703530  1
  O  O187  1  0.26190223  0.00051173  0.36802661  1
  O  O188  1  0.26355880  0.01194096  0.87512633  1
  O  O189  1  0.25703749  0.50476758  0.36881784  1
  O  O190  1  0.25378876  0.49660726  0.85997157  1
  O  O191  1  0.74472254  -0.00293055  0.35926014  1
  O  O192  1  0.75136753  0.01017918  0.86499556  1
  O  O193  1  0.74824532  0.50546688  0.36897541  1
  O  O194  1  0.76228367  0.49192526  0.88247742  1
  O  O195  1  0.24555333  0.49376319  0.12863600  1
  O  O196  1  0.25301093  0.49043682  0.63542655  1
  O  O197  1  0.25867815  1.00435766  0.13524335  1
  O  O198  1  0.24319538  0.99050136  0.61896840  1
  O  O199  1  0.74157036  0.49035228  0.13315173  1
  O  O200  1  0.74616956  0.48776667  0.62541140  1
  O  O201  1  0.74411618  0.99195344  0.13298369  1
  O  O202  1  0.75232577  0.98995955  0.63201963  1
  O  O203  1  0.00625196  0.38072351  0.25991023  1
  O  O204  1  0.00070436  0.36642035  0.75913276  1
  O  O205  1  0.01829321  0.88879313  0.25514570  1
  O  O206  1  0.01571303  0.87728913  0.74644682  1
  O  O207  1  0.49308906  0.36475497  0.25157354  1
  O  O208  1  0.50440991  0.36860916  0.75817286  1
  O  O209  1  0.50023508  0.86318831  0.24751185  1
  O  O210  1  0.49920115  0.86197605  0.75796533  1
  O  O211  1  0.48836767  0.12886675  0.24872066  1
  O  O212  1  0.50852010  0.13812449  0.75039848  1
  O  O213  1  0.49019051  0.63604383  0.24845238  1
  O  O214  1  0.49348480  0.63092982  0.75021338  1
  O  O215  1  1.00172180  0.11684201  0.23593097  1
  O  O216  1  1.00313693  0.12971747  0.73916363  1
  O  O217  1  0.98321746  0.61464333  0.25294420  1
  O  O218  1  0.98908270  0.62176538  0.74975778  1
  O  O219  1  0.37006067  0.24555450  0.00819474  1
  O  O220  1  0.37112605  0.25618187  0.50233244  1
  O  O221  1  0.37284402  0.75789750  0.00413368  1
  O  O222  1  0.37222878  0.75351997  0.50458895  1
  O  O223  1  0.87710058  0.26085353  0.01311653  1
  O  O224  1  0.87482630  0.26286080  0.51180080  1
  O  O225  1  0.87095677  0.75975281  0.00544235  1
  O  O226  1  0.86357319  0.75231696  0.50221500  1
  O  O227  1  0.12981257  0.24473763  0.49083208  1
  O  O228  1  0.13294283  0.24632244  0.99046527  1
  O  O229  1  0.12993747  0.74501209  0.49082818  1
  O  O230  1  0.13611601  0.74241120  1.00361159  1
  O  O231  1  0.62152157  0.24338877  0.49010243  1
  O  O232  1  0.62116948  0.24253068  0.99214466  1
  O  O233  1  0.63122081  0.74449314  0.49401942  1
  O  O234  1  0.62442317  0.74049278  0.99302389  1
  O  O235  1  0.49382946  0.25018223  0.13278815  1
  O  O236  1  0.49106950  0.25182649  0.63515597  1
  O  O237  1  0.48905669  0.74931043  0.13087709  1
  O  O238  1  0.49261121  0.75366557  0.63316709  1
  O  O239  1  0.99303287  0.23455563  0.12081793  1
  O  O240  1  0.99379870  0.24396387  0.63308375  1
  O  O241  1  0.99955676  0.74772440  0.13086553  1
  O  O242  1  0.98737889  0.75681375  0.61969503  1
  O  O243  1  0.00949149  0.26350512  0.38361207  1
  O  O244  1  0.00530777  0.24899107  0.87084366  1
  O  O245  1  0.01260593  0.75665951  0.37697221  1
  O  O246  1  0.00124144  0.75848459  0.87286278  1
  O  O247  1  0.50963054  0.24681919  0.36788167  1
  O  O248  1  0.50868107  0.25624042  0.87050765  1
  O  O249  1  0.50677293  0.74499658  0.36561673  1
  O  O250  1  0.50820803  0.75673097  0.86704426  1
  O  O251  1  0.24275161  0.13107465  0.49838973  1
  O  O252  1  0.24987286  0.13721330  0.99035013  1
  O  O253  1  0.24305005  0.62855515  0.49225989  1
  O  O254  1  0.24371886  0.63357600  0.99615006  1
  O  O255  1  0.73874067  0.12714197  0.50104853  1
  O  O256  1  0.73991493  0.11845663  0.99285801  1
  O  O257  1  0.74320530  0.63215772  0.49305723  1
  O  O258  1  0.73753578  0.62514809  1.00730107  1
  O  O259  1  0.24610350  0.36150892  0.00376095  1
  O  O260  1  0.25832019  0.37202912  0.50504487  1
  O  O261  1  0.26308955  0.87109450  -0.00675248  1
  O  O262  1  0.25879907  0.86942228  0.50775426  1
  O  O263  1  0.75764387  0.37726184  0.01467812  1
  O  O264  1  0.75677141  0.37323059  0.50826403  1
  O  O265  1  0.75697108  0.87775143  0.00805121  1
  O  O266  1  0.75177368  0.86944471  0.50633341  1
  O  O267  1  0.12938075  0.49561121  0.24446315  1
  O  O268  1  0.13901309  0.49771419  0.75298893  1
  O  O269  1  0.14270159  0.99166899  0.25068102  1
  O  O270  1  0.12434237  0.99259880  0.73555276  1
  O  O271  1  0.62830522  0.50690952  0.23902431  1
  O  O272  1  0.62134941  0.48934922  0.75087090  1
  O  O273  1  0.62701486  1.00138385  0.23982014  1
  O  O274  1  0.64314236  0.99721728  0.75233556  1
  O  O275  1  0.36938271  0.00333020  0.25375139  1
  O  O276  1  0.38323485  -0.00408367  0.75742999  1
  O  O277  1  0.37044630  0.50446285  0.25568148  1
  O  O278  1  0.36592324  0.50841627  0.74294077  1
  O  O279  1  0.86386919  -0.00118067  0.24627641  1
  O  O280  1  0.85695506  -0.00595493  0.75183377  1
  O  O281  1  0.86347342  0.50850246  0.25370498  1
  O  O282  1  0.87295676  0.49295359  0.77269233  1
  O  O283  1  0.11879870  0.36873914  0.37076750  1
  O  O284  1  0.11756373  0.36212768  0.87376753  1
  O  O285  1  0.11940221  0.86871526  0.36931757  1
  O  O286  1  0.13164842  0.88402187  0.85428699  1
  O  O287  1  0.62313730  0.36085379  0.38152620  1
  O  O288  1  0.61883759  0.36858882  0.87133735  1
  O  O289  1  0.62640721  0.86065727  0.37403258  1
  O  O290  1  0.61292387  0.86787645  0.88371297  1
  O  O291  1  0.37774656  0.13699402  0.13163241  1
  O  O292  1  0.37779924  0.13833390  0.61864461  1
  O  O293  1  0.37664655  0.63460010  0.13211644  1
  O  O294  1  0.36959729  0.63557952  0.63057930  1
  O  O295  1  0.88363971  0.13232528  0.12781999  1
  O  O296  1  0.88134170  0.13868945  0.62095429  1
  O  O297  1  0.87427631  0.62347401  0.13922123  1
  O  O298  1  0.86884150  0.64710748  0.61885050  1
  O  O299  1  0.25703618  0.25198204  0.11645058  1
  O  O300  1  0.25605102  0.25550087  0.61829525  1
  O  O301  1  0.26329081  0.74792725  0.11260745  1
  O  O302  1  0.25937917  0.75644012  0.61788435  1
  O  O303  1  0.75536282  0.25980590  0.13452676  1
  O  O304  1  0.75650765  0.26036768  0.62692384  1
  O  O305  1  0.74742009  0.76421303  0.12540487  1
  O  O306  1  0.75306521  0.76177485  0.61796252  1
  O  O307  1  0.24201349  0.24847001  0.38163822  1
  O  O308  1  0.24464975  0.24784691  0.87862035  1
  O  O309  1  0.24124094  0.74543936  0.38046231  1
  O  O310  1  0.25723899  0.74836321  0.88586067  1
  O  O311  1  0.73461962  0.24852730  0.37653640  1
  O  O312  1  0.73763461  0.24450286  0.86829821  1
  O  O313  1  0.74298956  0.74605325  0.38253472  1
  O  O314  1  0.73668348  0.75940048  0.87495753  1
  O  O315  1  0.00423208  0.11641831  0.00763779  1
  O  O316  1  0.00615531  0.12150210  0.51145924  1
  O  O317  1  0.00714519  0.61617050  0.00406998  1
  O  O318  1  0.00786517  0.61408477  0.49347784  1
  O  O319  1  0.51403023  0.11825555  -0.00001499  1
  O  O320  1  0.50624134  0.11579730  0.50164222  1
  O  O321  1  0.50778200  0.61343042  0.00075165  1
  O  O322  1  0.50743243  0.61625279  0.49691771  1
  O  O323  1  0.48631544  0.38115583  0.50208091  1
  O  O324  1  0.50268361  0.38881557  0.99410265  1
  O  O325  1  0.48788196  0.87921394  0.50150371  1
  O  O326  1  0.49132499  0.88049015  0.99160348  1
  O  O327  1  0.99258391  0.38046979  0.49639858  1
  O  O328  1  0.99291528  0.38005346  0.99818640  1
  O  O329  1  1.00080375  0.88540449  0.49005992  1
  O  O330  1  0.99384856  0.88591563  1.00073920  1
  O  O331  1  0.48632086  0.50531291  0.38217494  1
  O  O332  1  0.50226351  0.49199825  0.88939277  1
  O  O333  1  0.48566419  1.00273631  0.38288529  1
  O  O334  1  0.49822118  0.99373228  0.87741839  1
  O  O335  1  0.99697342  0.48592182  0.38583068  1
  O  O336  1  0.99168015  0.49235993  0.88892383  1
  O  O337  1  1.00817254  0.99282735  0.38456368  1
  O  O338  1  0.99764209  0.99752775  0.88266962  1
  O  O339  1  -0.00262158  0.01420158  0.11412448  1
  O  O340  1  0.00508167  0.00671690  0.62025775  1
  O  O341  1  0.00368003  0.50010622  0.11520160  1
  O  O342  1  -0.00246704  0.49177086  0.61467434  1
  O  O343  1  0.50877976  0.00341838  0.11845865  1
  O  O344  1  0.49302200  0.00035581  0.60861237  1
  O  O345  1  0.50563175  0.49992128  0.11635404  1
  O  O346  1  0.49800537  0.49506804  0.61251991  1
  O  O347  1  0.24193006  0.38053898  0.24269389  1
  O  O348  1  0.24854969  0.38469076  0.74190640  1
  O  O349  1  0.24287580  0.88750361  0.24845079  1
  O  O350  1  0.24464258  0.86919840  0.73677717  1
  O  O351  1  0.75319797  0.38744996  0.24544141  1
  O  O352  1  0.73912500  0.37935033  0.74512280  1
  O  O353  1  0.74641636  0.88504244  0.24352717  1
  O  O354  1  0.74780968  0.88140704  0.73634903  1
  O  O355  1  0.26056738  0.11425208  0.25030574  1
  O  O356  1  0.25039172  0.13436895  0.75967670  1
  O  O357  1  0.25405211  0.62040604  0.25285060  1
  O  O358  1  0.25623243  0.61398140  0.75212523  1
  O  O359  1  0.75227483  0.10852340  0.24953825  1
  O  O360  1  0.74594082  0.11634854  0.75504858  1
  O  O361  1  0.75383016  0.61482999  0.25464578  1
  O  O362  1  0.76101967  0.61723413  0.74786902  1
  O  O363  1  0.37197361  0.11746712  0.36661226  1
  O  O364  1  0.37059054  0.11645944  0.87516875  1
  O  O365  1  0.36572394  0.61812280  0.36884601  1
  O  O366  1  0.37542182  0.62879187  0.86127190  1
  O  O367  1  0.86895899  0.13222730  0.37379693  1
  O  O368  1  0.86108379  0.12978560  0.88067175  1
  O  O369  1  0.86619675  0.62371193  0.36670250  1
  O  O370  1  0.87446973  0.60850293  0.88757027  1
  O  O371  1  0.12900202  0.37906571  0.12891058  1
  O  O372  1  0.13910170  0.36637609  0.62381728  1
  O  O373  1  0.12582929  0.87370620  0.13642463  1
  O  O374  1  0.13422118  0.88198850  0.62900557  1
  O  O375  1  0.63258568  0.38251224  0.12288676  1
  O  O376  1  0.62996132  0.37509096  0.63367907  1
  O  O377  1  0.63030836  0.88375119  0.12526337  1
  O  O378  1  0.63881278  0.87346708  0.61868071  1
  O  O379  1  0.13054708  0.25370051  0.26218789  1
  O  O380  1  0.11217848  0.25276188  0.75604753  1
  O  O381  1  0.13644700  0.76648591  0.25622334  1
  O  O382  1  0.12475681  0.76489585  0.74044061  1
  O  O383  1  0.61468299  0.24503436  0.26364810  1
  O  O384  1  0.61767589  0.26046488  0.75706138  1
  O  O385  1  0.61544198  0.74930894  0.25695210  1
  O  O386  1  0.61611065  0.74184469  0.75639520  1
  O  O387  1  0.37931987  0.24252768  0.24606269  1
  O  O388  1  0.38385088  0.25478855  0.74087340  1
  O  O389  1  0.37715763  0.74937995  0.24287219  1
  O  O390  1  0.38403628  0.74159780  0.74219465  1
  O  O391  1  0.87529258  0.25036945  0.23966605  1
  O  O392  1  0.88601154  0.25529842  0.74506196  1
  O  O393  1  0.86498173  0.73267012  0.24908032  1
  O  O394  1  0.87881171  0.75456403  0.73557932  1
  O  O395  1  0.37877945  0.49474493  0.49364852  1
  O  O396  1  0.38857939  0.50472482  1.00683222  1
  O  O397  1  0.37827667  0.99084817  0.49203417  1
  O  O398  1  0.38268937  0.99530614  0.99311085  1
  O  O399  1  0.87924222  0.49047987  0.50103362  1
  O  O400  1  0.88028251  0.48990518  0.99779196  1
  O  O401  1  0.88844703  1.00050006  0.50494934  1
  O  O402  1  0.88605205  0.99468553  0.99669394  1
  O  O403  1  0.11318496  0.00014594  -0.00489219  1
  O  O404  1  0.11836668  0.00461671  0.50932568  1
  O  O405  1  0.11819379  0.50277305  0.00413751  1
  O  O406  1  0.11656644  0.50985214  0.49631147  1
  O  O407  1  0.62279189  0.00604156  0.01026564  1
  O  O408  1  0.61477981  0.00936872  0.49333853  1
  O  O409  1  0.61809152  0.50576924  0.01075289  1
  O  O410  1  0.61405613  0.50766314  0.50006289  1
  O  O411  1  0.36672128  0.36132318  0.12963049  1
  O  O412  1  0.36479291  0.36457495  0.61626464  1
  O  O413  1  0.37931802  0.86913288  0.11225110  1
  O  O414  1  0.36963005  0.86456810  0.61779917  1
  O  O415  1  0.86872824  0.36838590  0.12211789  1
  O  O416  1  0.86764294  0.36823951  0.62264206  1
  O  O417  1  0.86688157  0.87658651  0.11613614  1
  O  O418  1  0.86567147  0.86420909  0.61803990  1
  O  O419  1  0.12537186  0.13254253  0.37921312  1
  O  O420  1  0.13357033  0.13442817  0.87414565  1
  O  O421  1  0.12945597  0.63339935  0.37615755  1
  O  O422  1  0.12891757  0.61619830  0.88811336  1
  O  O423  1  0.62739188  0.13271865  0.38706088  1
  O  O424  1  0.63357782  0.13334599  0.88242497  1
  O  O425  1  0.63011745  0.63395411  0.38318748  1
  O  O426  1  0.62154693  0.63419150  0.88551814  1
