# generated using pymatgen
data_V85Zn86O256
_symmetry_space_group_name_H-M   'P 1'
_cell_length_a   16.95991685
_cell_length_b   16.96231486
_cell_length_c   16.95099417
_cell_angle_alpha   90.07982329
_cell_angle_beta   90.00423167
_cell_angle_gamma   90.02312623
_symmetry_Int_Tables_number   1
_chemical_formula_structural   V85Zn86O256
_chemical_formula_sum   'V85 Zn86 O256'
_cell_volume   4876.44753084
_cell_formula_units_Z   1
loop_
 _symmetry_equiv_pos_site_id
 _symmetry_equiv_pos_as_xyz
  1  'x, y, z'
loop_
 _atom_site_type_symbol
 _atom_site_label
 _atom_site_symmetry_multiplicity
 _atom_site_fract_x
 _atom_site_fract_y
 _atom_site_fract_z
 _atom_site_occupancy
  V  V0  1  -0.00929609  0.50043504  0.49531881  1
  V  V1  1  0.61035351  0.61099958  0.00357675  1
  V  V2  1  0.36178797  0.00170794  0.86553706  1
  V  V3  1  0.49901449  -0.00049252  0.49713231  1
  V  V4  1  0.37836364  0.00414493  0.37031168  1
  V  V5  1  0.50127457  0.75073253  0.74478520  1
  V  V6  1  -0.00323536  0.74212436  0.25031686  1
  V  V7  1  0.12110580  0.37391779  0.75853606  1
  V  V8  1  0.12631998  0.25088298  0.37442495  1
  V  V9  1  0.75035745  0.60256336  0.87252969  1
  V  V10  1  0.49678321  0.74561111  0.23257201  1
  V  V11  1  0.25372383  0.50115543  0.24760836  1
  V  V12  1  0.12900861  0.50435893  0.11186918  1
  V  V13  1  0.00385112  0.24810150  0.23606853  1
  V  V14  1  0.81282588  0.30821472  0.55395675  1
  V  V15  1  0.50463918  0.24731788  0.75395426  1
  V  V16  1  0.75137344  0.00325925  0.74814506  1
  V  V17  1  0.25359006  0.25254196  0.49982147  1
  V  V18  1  0.62296942  0.00116403  0.62496212  1
  V  V19  1  0.24916634  0.75026883  0.49967778  1
  V  V20  1  0.48508610  0.12260102  0.62659098  1
  V  V21  1  0.38559949  0.37925794  0.50299943  1
  V  V22  1  0.62222115  0.24801044  0.38030758  1
  V  V23  1  0.74900180  -0.00289927  0.24832355  1
  V  V24  1  0.87906051  -0.00212818  0.87851468  1
  V  V25  1  -0.00327977  0.62661772  0.62487389  1
  V  V26  1  0.50371279  0.61236076  0.61732205  1
  V  V27  1  0.00013274  0.75346953  0.75384058  1
  V  V28  1  0.25406392  0.12510248  0.37746467  1
  V  V29  1  0.12342731  0.49865532  0.62150763  1
  V  V30  1  0.25186823  0.37162018  0.11728659  1
  V  V31  1  0.00400443  0.62644673  0.11893242  1
  V  V32  1  0.86507316  0.50627577  0.35845407  1
  V  V33  1  0.62688750  0.86551019  0.25280372  1
  V  V34  1  0.62254460  0.12503540  0.00436397  1
  V  V35  1  0.37268182  0.62792665  0.74824428  1
  V  V36  1  0.12854539  0.74813047  0.88623600  1
  V  V37  1  0.86994766  0.61214953  0.75299022  1
  V  V38  1  0.25248195  0.62476929  0.37415596  1
  V  V39  1  0.25224230  0.00774839  0.24756254  1
  V  V40  1  0.24319596  0.89033983  0.62433491  1
  V  V41  1  0.75063378  0.87461124  0.62248987  1
  V  V42  1  -0.00208833  0.13458500  0.62280546  1
  V  V43  1  0.50158552  0.87524072  0.87333685  1
  V  V44  1  0.62893972  0.12659500  0.50827491  1
  V  V45  1  -0.00021849  0.37733915  0.37674096  1
  V  V46  1  0.50220707  0.37941502  0.36731489  1
  V  V47  1  0.49601931  0.00062290  -0.00147194  1
  V  V48  1  0.74910601  0.74693083  -0.00903018  1
  V  V49  1  0.74872522  0.64088258  0.36569640  1
  V  V50  1  0.75041573  0.12425027  0.87705844  1
  V  V51  1  0.00367626  -0.00006408  0.50250312  1
  V  V52  1  0.12466146  0.87549852  0.24825786  1
  V  V53  1  0.87464904  -0.00104033  0.37498711  1
  V  V54  1  -0.00815578  0.50047146  -0.00789746  1
  V  V55  1  0.88068075  0.12024566  0.23729272  1
  V  V56  1  0.37403151  0.86808628  0.00374439  1
  V  V57  1  0.76369624  0.24938111  0.00545082  1
  V  V58  1  0.87704450  0.13365459  0.74717171  1
  V  V59  1  0.37528496  0.75057990  0.62149677  1
  V  V60  1  0.62241443  -0.00353424  0.12514150  1
  V  V61  1  0.86822102  0.75068453  0.62660346  1
  V  V62  1  0.81770917  0.30463898  0.18774896  1
  V  V63  1  0.50386230  0.86290781  0.37508194  1
  V  V64  1  0.12592822  0.12355020  0.50458197  1
  V  V65  1  0.37712607  0.25697604  0.62764585  1
  V  V66  1  0.63350233  0.63666144  0.49666316  1
  V  V67  1  0.62549833  0.87546666  0.74872110  1
  V  V68  1  0.87071389  0.74254782  0.12565436  1
  V  V69  1  0.74997366  0.12478478  0.37817277  1
  V  V70  1  0.37376643  0.24151300  0.12552016  1
  V  V71  1  0.12382093  0.13190723  -0.00468182  1
  V  V72  1  0.12436690  0.62503270  0.49843251  1
  V  V73  1  0.87112948  0.87032729  0.50183908  1
  V  V74  1  0.12760273  0.37504625  0.24768934  1
  V  V75  1  0.62520902  0.25126059  0.87865321  1
  V  V76  1  0.38548961  0.37947536  -0.00177137  1
  V  V77  1  0.64581211  0.49283213  0.61902450  1
  V  V78  1  0.37990630  0.50065267  0.37726703  1
  V  V79  1  0.49465228  0.24266012  0.25144381  1
  V  V80  1  0.63013954  0.48300094  0.13950639  1
  V  V81  1  0.25345702  0.86965254  0.12740364  1
  V  V82  1  0.24920327  0.50617632  0.74873180  1
  V  V83  1  0.37558556  0.87594695  0.49698687  1
  V  V84  1  0.00024926  0.87309161  0.37492385  1
  Zn  Zn85  1  0.49170682  0.11941259  0.13153864  1
  Zn  Zn86  1  0.00445103  0.87480953  0.88136999  1
  Zn  Zn87  1  0.25040203  0.74267637  0.01090307  1
  Zn  Zn88  1  0.74879064  0.86884513  0.12263659  1
  Zn  Zn89  1  0.32810490  0.15871742  0.79322268  1
  Zn  Zn90  1  0.25320491  0.37864441  0.62362548  1
  Zn  Zn91  1  0.12471037  0.74918690  0.37388858  1
  Zn  Zn92  1  0.37661313  0.63604738  0.24124987  1
  Zn  Zn93  1  0.38202487  0.50551498  0.87980746  1
  Zn  Zn94  1  0.62542596  0.74269584  0.87304330  1
  Zn  Zn95  1  0.24708641  0.62434130  0.88384671  1
  Zn  Zn96  1  0.11627945  0.01000933  0.12635250  1
  Zn  Zn97  1  0.87460401  0.87319675  0.00206724  1
  Zn  Zn98  1  -0.00084820  0.25276915  0.75002085  1
  Zn  Zn99  1  0.13794291  0.88447826  0.75570035  1
  Zn  Zn100  1  -0.00705792  0.36937971  0.87766621  1
  Zn  Zn101  1  0.64150385  0.38961779  0.75297033  1
  Zn  Zn102  1  0.50759769  0.38201512  0.87901541  1
  Zn  Zn103  1  0.25223358  0.24229509  -0.02615601  1
  Zn  Zn104  1  -0.00113999  0.00520649  0.01531795  1
  Zn  Zn105  1  0.86932845  0.37884838  0.00352042  1
  Zn  Zn106  1  0.64522424  0.37172444  0.25615507  1
  Zn  Zn107  1  0.18692764  0.18636759  0.18153641  1
  Zn  Zn108  1  0.17414006  0.19045881  0.80525318  1
  Zn  Zn109  1  0.18542103  0.68686008  0.18815584  1
  Zn  Zn110  1  0.18351914  0.69341991  0.68789666  1
  Zn  Zn111  1  0.67966931  0.18146370  0.19404275  1
  Zn  Zn112  1  0.71655032  0.22853562  0.70459939  1
  Zn  Zn113  1  0.68184561  0.68150909  0.18072657  1
  Zn  Zn114  1  0.68793960  0.68336268  0.68847128  1
  Zn  Zn115  1  0.31550138  0.31474775  0.31029817  1
  Zn  Zn116  1  0.31428506  0.32814394  0.80810486  1
  Zn  Zn117  1  0.31512527  0.81372206  0.31115331  1
  Zn  Zn118  1  0.31107967  0.81586171  0.81148494  1
  Zn  Zn119  1  0.80668292  0.32093968  0.38596546  1
  Zn  Zn120  1  0.81666527  0.32861805  0.81714119  1
  Zn  Zn121  1  0.81567396  0.81005408  0.30976281  1
  Zn  Zn122  1  0.81401936  0.81129158  0.80918624  1
  Zn  Zn123  1  0.19014707  0.43724977  0.43850915  1
  Zn  Zn124  1  0.19479642  0.44039725  0.93575641  1
  Zn  Zn125  1  0.18833751  0.93841919  0.43586823  1
  Zn  Zn126  1  0.18310845  0.93775510  0.94311623  1
  Zn  Zn127  1  0.68382374  0.44484404  0.44272367  1
  Zn  Zn128  1  0.69087522  0.43150937  0.94593893  1
  Zn  Zn129  1  0.68701273  0.93556393  0.43711352  1
  Zn  Zn130  1  0.68810644  0.93560155  0.93848039  1
  Zn  Zn131  1  0.30284398  0.05948541  0.05550153  1
  Zn  Zn132  1  0.25721441  0.10271472  0.62668383  1
  Zn  Zn133  1  0.31973638  0.57010218  0.06105469  1
  Zn  Zn134  1  0.31433527  0.56230942  0.56257589  1
  Zn  Zn135  1  0.80999399  0.06098762  0.06301125  1
  Zn  Zn136  1  0.81546978  0.06359036  0.56386964  1
  Zn  Zn137  1  0.80900626  0.56541383  0.06547099  1
  Zn  Zn138  1  0.81264790  0.56611401  0.55577075  1
  Zn  Zn139  1  0.42728625  0.47212915  0.16428681  1
  Zn  Zn140  1  0.45428085  0.44561145  0.71322359  1
  Zn  Zn141  1  0.43675933  0.93322825  0.18836248  1
  Zn  Zn142  1  0.43162682  0.93721656  0.68588639  1
  Zn  Zn143  1  0.94394600  0.44343188  0.18950921  1
  Zn  Zn144  1  0.93332771  0.43250896  0.67858124  1
  Zn  Zn145  1  0.93670842  0.92965815  0.18354405  1
  Zn  Zn146  1  0.96820915  0.95588084  0.70459543  1
  Zn  Zn147  1  0.06354467  0.06297330  0.31227093  1
  Zn  Zn148  1  0.06745933  0.05782283  0.81222939  1
  Zn  Zn149  1  0.06673551  0.56311044  0.30914139  1
  Zn  Zn150  1  0.06234048  0.56772446  0.81138736  1
  Zn  Zn151  1  0.56316031  0.06084313  0.31271528  1
  Zn  Zn152  1  0.56020782  0.06560799  0.81182620  1
  Zn  Zn153  1  0.56864888  0.56380420  0.31070796  1
  Zn  Zn154  1  0.56624305  0.56146264  0.80597201  1
  Zn  Zn155  1  0.43804873  0.18682918  0.44004380  1
  Zn  Zn156  1  0.43609472  0.18856975  0.94288147  1
  Zn  Zn157  1  0.44084300  0.68284466  0.43679302  1
  Zn  Zn158  1  0.43696045  0.69002508  0.93221624  1
  Zn  Zn159  1  0.93990067  0.18697030  0.42923426  1
  Zn  Zn160  1  0.94801330  0.18979706  0.93303664  1
  Zn  Zn161  1  0.93232554  0.68637077  0.43573058  1
  Zn  Zn162  1  0.93567919  0.68282185  0.93692530  1
  Zn  Zn163  1  0.06790880  0.31230692  0.05388926  1
  Zn  Zn164  1  0.06232915  0.31432413  0.56146813  1
  Zn  Zn165  1  0.05853548  0.81991349  0.06291252  1
  Zn  Zn166  1  0.06106557  0.81183881  0.56409210  1
  Zn  Zn167  1  0.56466076  0.31616876  0.07106305  1
  Zn  Zn168  1  0.56255739  0.31417301  0.56238432  1
  Zn  Zn169  1  0.56772809  0.80949116  0.05858698  1
  Zn  Zn170  1  0.56346354  0.81078804  0.56150756  1
  O  O171  1  0.13054717  0.12463422  0.10806490  1
  O  O172  1  0.11521079  0.12314696  0.60659206  1
  O  O173  1  0.11798625  0.61535257  0.12824592  1
  O  O174  1  0.11696369  0.61761273  0.62026441  1
  O  O175  1  0.62048857  0.11572326  0.11997497  1
  O  O176  1  0.61338451  0.11925164  0.61359774  1
  O  O177  1  0.62156037  0.61840049  0.10690941  1
  O  O178  1  0.62223065  0.61973943  0.61576634  1
  O  O179  1  0.38290612  0.38021211  0.38289556  1
  O  O180  1  0.37993023  0.37622151  0.88848133  1
  O  O181  1  0.38397834  0.88065873  0.37875218  1
  O  O182  1  0.38586302  0.88260698  0.87822103  1
  O  O183  1  0.88979411  0.39564955  0.36896888  1
  O  O184  1  0.87912549  0.37879915  0.88845087  1
  O  O185  1  0.88009183  0.87823350  0.38227612  1
  O  O186  1  0.86688840  0.89118716  0.87586490  1
  O  O187  1  0.25903300  0.00528186  0.36964576  1
  O  O188  1  0.26386380  -0.01159817  0.87443175  1
  O  O189  1  0.25517264  0.50567609  0.36815982  1
  O  O190  1  0.25614429  0.50599161  0.86221353  1
  O  O191  1  0.75164015  0.00473652  0.36445876  1
  O  O192  1  0.75285343  0.00962253  0.87048627  1
  O  O193  1  0.76305529  0.50263175  0.37505551  1
  O  O194  1  0.74866534  0.50430055  0.87396960  1
  O  O195  1  0.24441048  0.48926156  0.13062987  1
  O  O196  1  0.23864652  0.50185332  0.62676327  1
  O  O197  1  0.24992341  0.98962726  0.13529186  1
  O  O198  1  0.25527987  0.98707387  0.60979824  1
  O  O199  1  0.72864132  0.50512593  0.11429829  1
  O  O200  1  0.74528342  0.49917238  0.61875376  1
  O  O201  1  0.74496470  0.99630035  0.13681725  1
  O  O202  1  0.74428408  0.99674919  0.63166703  1
  O  O203  1  0.00927257  0.37107982  0.25712105  1
  O  O204  1  0.01331695  0.38328561  0.74734070  1
  O  O205  1  0.00705440  0.86444930  0.25575883  1
  O  O206  1  -0.02258166  0.85453862  0.76140601  1
  O  O207  1  0.50189673  0.36126256  0.26442850  1
  O  O208  1  0.51903771  0.35251075  0.74265670  1
  O  O209  1  0.50703597  0.86586132  0.25560322  1
  O  O210  1  0.50439062  0.87170034  0.75408524  1
  O  O211  1  0.50250860  0.13621467  0.25032071  1
  O  O212  1  0.50088019  0.13296010  0.73838789  1
  O  O213  1  0.50616738  0.64530093  0.25665463  1
  O  O214  1  0.49400711  0.63403548  0.73817895  1
  O  O215  1  0.99020969  0.13677691  0.26100587  1
  O  O216  1  0.99393079  0.12566414  0.73739581  1
  O  O217  1  1.00772383  0.63643445  0.24078902  1
  O  O218  1  0.99206428  0.63366296  0.74416392  1
  O  O219  1  0.37088140  0.25948868  0.00853704  1
  O  O220  1  0.37505739  0.26004142  0.50608511  1
  O  O221  1  0.37451359  0.76497922  -0.00842841  1
  O  O222  1  0.36863964  0.75460556  0.50120001  1
  O  O223  1  0.86510977  0.24253926  0.00276047  1
  O  O224  1  0.86954308  0.26058748  0.48005560  1
  O  O225  1  0.86567616  0.74760910  0.00500064  1
  O  O226  1  0.88345707  0.76279057  0.50942133  1
  O  O227  1  0.13140893  0.24649574  0.49307314  1
  O  O228  1  0.13371412  0.24014202  0.99736119  1
  O  O229  1  0.13215835  0.74376567  0.49765573  1
  O  O230  1  0.12576355  0.75490591  0.98892929  1
  O  O231  1  0.61561523  0.23912762  0.48929155  1
  O  O232  1  0.62683361  0.24234246  0.99522687  1
  O  O233  1  0.62865830  0.73621968  0.50548332  1
  O  O234  1  0.63290624  0.73791103  0.99546800  1
  O  O235  1  0.49170654  0.24779636  0.13459848  1
  O  O236  1  0.49426063  0.24159953  0.62772787  1
  O  O237  1  0.49998486  0.75267062  0.13376406  1
  O  O238  1  0.49330214  0.74615130  0.62880133  1
  O  O239  1  1.00777017  0.25740532  0.13755396  1
  O  O240  1  1.00165243  0.23857789  0.62310137  1
  O  O241  1  0.99578881  0.74277794  0.12894252  1
  O  O242  1  0.99105611  0.74646011  0.63277689  1
  O  O243  1  0.00675996  0.26210579  0.36725793  1
  O  O244  1  0.00360780  0.25617827  0.86436459  1
  O  O245  1  -0.00081681  0.75363817  0.36708441  1
  O  O246  1  0.00942955  0.74701060  0.87114515  1
  O  O247  1  0.50416934  0.25307480  0.37056686  1
  O  O248  1  0.50678963  0.24844710  0.86944323  1
  O  O249  1  0.49851060  0.76143682  0.37292753  1
  O  O250  1  0.50224334  0.75987097  0.86354839  1
  O  O251  1  0.24132331  0.13454704  0.50415197  1
  O  O252  1  0.23735102  0.12699605  0.99500760  1
  O  O253  1  0.24646884  0.63227887  0.49503689  1
  O  O254  1  0.25741407  0.63111044  0.99716199  1
  O  O255  1  0.73932166  0.10977068  0.48940896  1
  O  O256  1  0.74188835  0.12871971  0.99711462  1
  O  O257  1  0.74005902  0.62600180  0.49029439  1
  O  O258  1  0.74485719  0.62788839  0.98437686  1
  O  O259  1  0.25801734  0.36955066  0.00439997  1
  O  O260  1  0.26331323  0.37001236  0.50043244  1
  O  O261  1  0.25711952  0.87218475  0.01108832  1
  O  O262  1  0.25477750  0.86720135  0.50221021  1
  O  O263  1  0.75119954  0.35632042  0.00465324  1
  O  O264  1  0.75624254  0.36678601  0.48718637  1
  O  O265  1  0.74920789  0.86246898  0.00238204  1
  O  O266  1  0.76077744  0.88142587  0.50704422  1
  O  O267  1  0.13753666  0.49508856  0.24302354  1
  O  O268  1  0.13175467  0.50019680  0.74092433  1
  O  O269  1  0.13438227  0.99292759  0.25191400  1
  O  O270  1  0.07750408  0.97673283  0.73905926  1
  O  O271  1  0.62986541  0.49110401  0.24550909  1
  O  O272  1  0.62749456  0.50243173  0.72586626  1
  O  O273  1  0.63066990  0.99126737  0.24522218  1
  O  O274  1  0.62941904  0.99633273  0.74376486  1
  O  O275  1  0.36824145  -0.00621797  0.26159542  1
  O  O276  1  0.37968256  -0.00199638  0.76603856  1
  O  O277  1  0.36041378  0.48344200  0.26520316  1
  O  O278  1  0.35805512  0.51112086  0.73618022  1
  O  O279  1  0.86709508  0.00164887  0.25612468  1
  O  O280  1  0.87118278  0.00912618  0.76114242  1
  O  O281  1  0.87951214  0.50833866  0.26038934  1
  O  O282  1  0.88086484  0.51391767  0.73942440  1
  O  O283  1  0.12214723  0.37161035  0.36756409  1
  O  O284  1  0.12480018  0.38501997  0.85993273  1
  O  O285  1  0.11986045  0.87321618  0.36471832  1
  O  O286  1  0.12351885  0.86394623  0.87248771  1
  O  O287  1  0.61954976  0.36659303  0.37708778  1
  O  O288  1  0.62512323  0.36409551  0.87444609  1
  O  O289  1  0.61607391  0.88026314  0.36514323  1
  O  O290  1  0.61350030  0.87602002  0.86928462  1
  O  O291  1  0.37111845  0.13838547  0.11773836  1
  O  O292  1  0.38262909  0.13494575  0.61856883  1
  O  O293  1  0.38636241  0.57914724  0.14616800  1
  O  O294  1  0.38327716  0.63100688  0.62818870  1
  O  O295  1  0.87207765  0.11903172  0.13865946  1
  O  O296  1  0.88376355  0.12116218  0.63420036  1
  O  O297  1  0.88516213  0.63474836  0.12261166  1
  O  O298  1  0.87822028  0.63369094  0.62695728  1
  O  O299  1  0.25862357  0.26418607  0.13244841  1
  O  O300  1  0.26962737  0.25624457  0.61680138  1
  O  O301  1  0.24740931  0.76435386  0.13058564  1
  O  O302  1  0.25523142  0.75237828  0.61142873  1
  O  O303  1  0.75422743  0.24642003  0.12837346  1
  O  O304  1  0.75536051  0.23707011  0.59811984  1
  O  O305  1  0.75591046  0.74262727  0.11324893  1
  O  O306  1  0.76192799  0.75519238  0.63038066  1
  O  O307  1  0.24902749  0.24446726  0.38008743  1
  O  O308  1  0.26376230  0.24165276  0.85887147  1
  O  O309  1  0.25185868  0.74543153  0.38461696  1
  O  O310  1  0.23721460  0.75189078  0.87330122  1
  O  O311  1  0.73703241  0.23149118  0.37234931  1
  O  O312  1  0.74390983  0.23579915  0.88825574  1
  O  O313  1  0.75565743  0.73981209  0.37683678  1
  O  O314  1  0.74824987  0.74929917  0.88324454  1
  O  O315  1  0.01523997  0.12328043  -0.00224815  1
  O  O316  1  0.00396884  0.12004985  0.49908388  1
  O  O317  1  0.00003407  0.61547554  0.01055019  1
  O  O318  1  0.00504627  0.62015953  0.50324795  1
  O  O319  1  0.50469148  0.11511042  0.00440507  1
  O  O320  1  0.50571724  0.11720821  0.50615005  1
  O  O321  1  0.51291702  0.62512009  -0.01405779  1
  O  O322  1  0.51407141  0.63015895  0.50718198  1
  O  O323  1  0.49026341  0.37089169  0.48796646  1
  O  O324  1  0.48865235  0.36730487  0.99882220  1
  O  O325  1  0.49831255  0.87960171  0.49253866  1
  O  O326  1  0.49621285  0.87976464  0.99208369  1
  O  O327  1  1.01007225  0.38589879  0.48492760  1
  O  O328  1  1.00043215  0.39108050  1.00281274  1
  O  O329  1  0.99551360  0.88195977  0.49499252  1
  O  O330  1  0.99209103  0.88290302  0.99720109  1
  O  O331  1  0.49186056  0.49258909  0.36672098  1
  O  O332  1  0.48609449  0.48511748  0.82999192  1
  O  O333  1  0.49439140  0.99189104  0.37566644  1
  O  O334  1  0.49896306  0.99343742  0.88528803  1
  O  O335  1  0.99683559  0.49892521  0.37739442  1
  O  O336  1  1.00651983  0.50556994  0.89139597  1
  O  O337  1  0.99342173  0.99403909  0.38088061  1
  O  O338  1  0.98241204  0.99996609  0.87886745  1
  O  O339  1  0.00156364  0.00004553  0.13096785  1
  O  O340  1  -0.00905620  0.01188972  0.60482824  1
  O  O341  1  0.01050426  0.50839184  0.12043236  1
  O  O342  1  0.00433475  0.50514026  0.61326982  1
  O  O343  1  0.50113848  -0.00175844  0.11438744  1
  O  O344  1  0.50060098  0.00615301  0.61934716  1
  O  O345  1  0.52969754  0.48563940  0.12019128  1
  O  O346  1  0.49976544  0.51204207  0.62680722  1
  O  O347  1  0.24435001  0.38099054  0.24317718  1
  O  O348  1  0.23897479  0.38894109  0.74321722  1
  O  O349  1  0.24349721  0.88298206  0.24840033  1
  O  O350  1  0.25265391  0.87439088  0.72945086  1
  O  O351  1  0.76533045  0.35138986  0.26064971  1
  O  O352  1  0.73844566  0.33520875  0.74204740  1
  O  O353  1  0.74267739  0.87979005  0.25036053  1
  O  O354  1  0.74436764  0.88235501  0.74327114  1
  O  O355  1  0.24576894  0.11262079  0.25582446  1
  O  O356  1  0.24019436  0.12613157  0.73347121  1
  O  O357  1  0.25320002  0.61739890  0.25528488  1
  O  O358  1  0.25776291  0.62377713  0.74499667  1
  O  O359  1  0.75505482  0.11450355  0.25723500  1
  O  O360  1  0.75621488  0.12387555  0.75966941  1
  O  O361  1  0.73893248  0.63148106  0.26630094  1
  O  O362  1  0.75517557  0.62638885  0.76442968  1
  O  O363  1  0.36774796  0.11523406  0.38179484  1
  O  O364  1  0.38143302  0.10679658  0.87982408  1
  O  O365  1  0.37146470  0.61601670  0.36968365  1
  O  O366  1  0.37547507  0.62529022  0.85701904  1
  O  O367  1  0.86513630  0.11773925  0.36827506  1
  O  O368  1  0.86707136  0.11578301  0.87206670  1
  O  O369  1  0.86021260  0.61747315  0.37807803  1
  O  O370  1  0.86008047  0.62432892  0.86751101  1
  O  O371  1  0.13395394  0.38202144  0.12795734  1
  O  O372  1  0.12489035  0.38971854  0.62716278  1
  O  O373  1  0.13096730  0.87672687  0.13823861  1
  O  O374  1  0.14189140  0.87264586  0.61812639  1
  O  O375  1  0.63664937  0.37569884  0.13693213  1
  O  O376  1  0.62597022  0.39103900  0.61543252  1
  O  O377  1  0.62702940  0.88018051  0.13278716  1
  O  O378  1  0.63010471  0.88180781  0.62769037  1
  O  O379  1  0.12116026  0.25360656  0.25543105  1
  O  O380  1  0.12352559  0.27296038  0.73950455  1
  O  O381  1  0.11775615  0.75845473  0.25268847  1
  O  O382  1  0.11374634  0.75943208  0.75247195  1
  O  O383  1  0.61710370  0.24944562  0.26453693  1
  O  O384  1  0.61982886  0.22988055  0.77206965  1
  O  O385  1  0.61689527  0.76107117  0.24279905  1
  O  O386  1  0.61932510  0.75782816  0.74901219  1
  O  O387  1  0.38356136  0.25437459  0.24013771  1
  O  O388  1  0.38646203  0.25391948  0.74233950  1
  O  O389  1  0.39116511  0.75235963  0.25008365  1
  O  O390  1  0.37899593  0.74509518  0.74243968  1
  O  O391  1  0.88243162  0.24216090  0.24369698  1
  O  O392  1  0.87547596  0.23555498  0.75465600  1
  O  O393  1  0.88600566  0.75125282  0.24060815  1
  O  O394  1  0.87748341  0.73775634  0.74269955  1
  O  O395  1  0.37105255  0.49372170  0.48686569  1
  O  O396  1  0.37498130  0.48357413  0.99669090  1
  O  O397  1  0.38477135  0.99034614  0.48457060  1
  O  O398  1  0.38116379  0.98963814  0.99221804  1
  O  O399  1  0.88830612  0.50684000  0.48928977  1
  O  O400  1  0.89002237  0.50129190  1.00955981  1
  O  O401  1  0.88074797  0.99033929  0.49259498  1
  O  O402  1  0.86911222  0.99980310  0.98774829  1
  O  O403  1  0.12271771  0.01002859  0.00390639  1
  O  O404  1  0.11459003  0.00994212  0.48769602  1
  O  O405  1  0.12128727  0.49665866  0.00939497  1
  O  O406  1  0.11939262  0.50640889  0.50439568  1
  O  O407  1  0.61694632  0.00314182  0.00590003  1
  O  O408  1  0.61767492  0.00498511  0.50482399  1
  O  O409  1  0.62241324  0.50947308  -0.00603381  1
  O  O410  1  0.62607406  0.51413421  0.51198429  1
  O  O411  1  0.36965431  0.37396108  0.11413478  1
  O  O412  1  0.38248539  0.37233604  0.61897089  1
  O  O413  1  0.36664147  0.87928253  0.11569262  1
  O  O414  1  0.36782045  0.86943754  0.61501225  1
  O  O415  1  0.87183383  0.37147038  0.13164166  1
  O  O416  1  0.87230340  0.36222466  0.61557327  1
  O  O417  1  0.86899813  0.85728173  0.12430347  1
  O  O418  1  0.87061320  0.86865652  0.61832456  1
  O  O419  1  0.13271873  0.13214898  0.38250117  1
  O  O420  1  0.12379996  0.12200570  0.88264337  1
  O  O421  1  0.13465050  0.62649486  0.38058128  1
  O  O422  1  0.12912196  0.64414217  0.86594040  1
  O  O423  1  0.62885466  0.12751787  0.38480130  1
  O  O424  1  0.63184413  0.12444643  0.88693051  1
  O  O425  1  0.63660376  0.62053071  0.38740326  1
  O  O426  1  0.63681103  0.62250850  0.87606051  1
