# generated using pymatgen
data_V85Zn86O256
_symmetry_space_group_name_H-M   'P 1'
_cell_length_a   16.94901519
_cell_length_b   16.95289878
_cell_length_c   16.94323273
_cell_angle_alpha   90.09646653
_cell_angle_beta   90.01449397
_cell_angle_gamma   89.95817131
_symmetry_Int_Tables_number   1
_chemical_formula_structural   V85Zn86O256
_chemical_formula_sum   'V85 Zn86 O256'
_cell_volume   4868.37438956
_cell_formula_units_Z   1
loop_
 _symmetry_equiv_pos_site_id
 _symmetry_equiv_pos_as_xyz
  1  'x, y, z'
loop_
 _atom_site_type_symbol
 _atom_site_label
 _atom_site_symmetry_multiplicity
 _atom_site_fract_x
 _atom_site_fract_y
 _atom_site_fract_z
 _atom_site_occupancy
  V  V0  1  0.74335325  0.13313576  0.37291362  1
  V  V1  1  0.24930435  0.74221690  -0.00226048  1
  V  V2  1  0.50176247  0.25472404  0.25921290  1
  V  V3  1  0.74744185  0.62703262  0.38797454  1
  V  V4  1  0.61630162  0.74315098  0.38286589  1
  V  V5  1  0.86881224  -0.00204424  0.87083250  1
  V  V6  1  0.25296641  0.51118693  0.75455262  1
  V  V7  1  0.75064746  0.50143333  0.24929413  1
  V  V8  1  0.12299858  0.51388383  0.62237377  1
  V  V9  1  0.38163220  0.25264466  0.63464398  1
  V  V10  1  0.88734284  0.62000648  0.74420913  1
  V  V11  1  0.62771649  0.62124811  0.00098757  1
  V  V12  1  0.87620329  0.37558930  0.50097509  1
  V  V13  1  0.73681777  0.25360740  0.49630897  1
  V  V14  1  0.62416905  -0.00251480  0.12503681  1
  V  V15  1  0.00368436  0.36753409  0.37646960  1
  V  V16  1  0.24665771  0.74703394  0.50040667  1
  V  V17  1  0.12276913  0.88360887  0.25355410  1
  V  V18  1  -0.00425251  0.13214076  0.12300170  1
  V  V19  1  0.74867911  0.00140483  0.24882640  1
  V  V20  1  0.62323300  0.37211310  0.26344142  1
  V  V21  1  0.37509345  0.25183326  0.12691125  1
  V  V22  1  0.87292228  0.25081376  0.62340294  1
  V  V23  1  0.24735194  0.25374795  0.49290480  1
  V  V24  1  0.12496190  0.11965426  0.00515948  1
  V  V25  1  0.62629928  0.48693172  0.12340034  1
  V  V26  1  0.24481558  0.62353448  0.38026589  1
  V  V27  1  0.62313382  0.12456884  -0.00546112  1
  V  V28  1  0.51049076  0.51239041  0.50267881  1
  V  V29  1  0.24324195  0.87857054  0.12701847  1
  V  V30  1  0.75225840  0.74664541  0.00083894  1
  V  V31  1  0.87286123  0.13435169  0.24485184  1
  V  V32  1  0.12523738  0.13008902  0.48646935  1
  V  V33  1  0.88030082  0.75125424  0.12872916  1
  V  V34  1  0.37990125  0.49826962  0.37682774  1
  V  V35  1  0.25050960  0.50023030  0.25242302  1
  V  V36  1  0.12102295  0.74953756  0.37244726  1
  V  V37  1  0.12614088  0.36707279  0.25421864  1
  V  V38  1  0.61122437  0.11557157  0.49518341  1
  V  V39  1  0.24837437  0.37663962  0.62671183  1
  V  V40  1  0.62303972  0.74455514  0.87122937  1
  V  V41  1  0.37398474  0.74865292  0.12847416  1
  V  V42  1  0.51235302  0.62679856  0.63674626  1
  V  V43  1  0.87405577  0.00176287  0.37598464  1
  V  V44  1  0.87251612  0.12113833  0.74668175  1
  V  V45  1  0.00109197  0.12686027  0.62261365  1
  V  V46  1  -0.00141370  0.25291282  0.75108551  1
  V  V47  1  0.12599387  0.49989947  0.12765667  1
  V  V48  1  0.87790679  0.50140746  0.37566237  1
  V  V49  1  0.50223627  0.62292060  0.12847742  1
  V  V50  1  0.49641508  0.89204447  0.37859072  1
  V  V51  1  0.49894686  0.86733982  0.86288241  1
  V  V52  1  0.12082860  0.37724477  0.75313595  1
  V  V53  1  0.75842344  0.24753628  0.00690534  1
  V  V54  1  0.24535005  0.12395987  0.87528321  1
  V  V55  1  0.74305696  0.50171891  0.74936403  1
  V  V56  1  0.74582522  0.12756156  0.87157929  1
  V  V57  1  0.37665560  0.74050335  0.63596383  1
  V  V58  1  0.00019650  0.49499057  -0.00586124  1
  V  V59  1  0.38376224  0.37816323  0.50035385  1
  V  V60  1  0.49960934  -0.00594143  0.00191728  1
  V  V61  1  0.37359659  0.51511084  0.87155699  1
  V  V62  1  0.00023379  0.87238534  0.87310486  1
  V  V63  1  0.26434629  0.12780557  0.36887869  1
  V  V64  1  -0.00085809  0.87321872  0.37171340  1
  V  V65  1  0.87794482  0.75937277  0.62267879  1
  V  V66  1  0.61842228  0.36541708  0.75947801  1
  V  V67  1  0.12040122  0.25403319  0.87709374  1
  V  V68  1  0.00354889  0.62778614  0.12994247  1
  V  V69  1  0.49441210  0.12674248  0.12934630  1
  V  V70  1  0.37458564  0.87320603  0.00143013  1
  V  V71  1  0.12687739  0.74523033  0.87406942  1
  V  V72  1  0.74142740  0.37880684  0.62684476  1
  V  V73  1  0.00084415  -0.00218425  0.00527677  1
  V  V74  1  0.37089502  0.37448472  -0.00939402  1
  V  V75  1  0.64561021  0.87242770  0.74557302  1
  V  V76  1  0.12485364  0.00252472  0.62325682  1
  V  V77  1  0.25477036  0.87632716  0.62307354  1
  V  V78  1  0.50063825  0.49489489  -0.00586973  1
  V  V79  1  0.87608030  0.63155539  0.25314601  1
  V  V80  1  0.25098836  0.00255279  0.74981328  1
  V  V81  1  0.37226039  -0.00407204  0.87554665  1
  V  V82  1  0.00488092  0.51099648  0.50221898  1
  V  V83  1  0.74975516  0.87286739  0.12703555  1
  V  V84  1  0.26171733  0.00694110  0.24844805  1
  Zn  Zn85  1  0.87076725  0.87914903  0.50232174  1
  Zn  Zn86  1  -0.00073077  0.25110324  0.24866653  1
  Zn  Zn87  1  0.88319356  0.36629071  0.00038680  1
  Zn  Zn88  1  0.38532745  0.88510916  0.50233088  1
  Zn  Zn89  1  0.24582192  0.25097017  0.00358494  1
  Zn  Zn90  1  0.50264558  0.12072986  0.63642423  1
  Zn  Zn91  1  0.74227847  0.75950112  0.51119926  1
  Zn  Zn92  1  0.38356404  0.13140581  0.75714178  1
  Zn  Zn93  1  0.50023169  0.75091400  0.25249943  1
  Zn  Zn94  1  0.87541092  0.87323451  -0.00019989  1
  Zn  Zn95  1  0.75724021  0.62153859  0.87498929  1
  Zn  Zn96  1  0.62870140  -0.01143289  0.62424090  1
  Zn  Zn97  1  0.00253270  0.00088744  0.49663869  1
  Zn  Zn98  1  0.12417030  0.87447669  0.74822591  1
  Zn  Zn99  1  0.12741745  0.62370626  -0.00168327  1
  Zn  Zn100  1  0.25083872  0.37437624  0.12578766  1
  Zn  Zn101  1  0.62321819  0.87065646  0.25184319  1
  Zn  Zn102  1  0.55661449  0.21739986  0.81822186  1
  Zn  Zn103  1  0.87814346  0.48871527  0.87117298  1
  Zn  Zn104  1  0.00689106  0.74486410  0.74085590  1
  Zn  Zn105  1  0.76021495  0.36575378  0.12935986  1
  Zn  Zn106  1  0.37575379  0.62401253  0.25320883  1
  Zn  Zn107  1  0.18623206  0.18636527  0.18498589  1
  Zn  Zn108  1  0.18969326  0.18918431  0.68558423  1
  Zn  Zn109  1  0.18825893  0.69004061  0.19374774  1
  Zn  Zn110  1  0.18946647  0.68906544  0.68978095  1
  Zn  Zn111  1  0.68076740  0.18779551  0.18341195  1
  Zn  Zn112  1  0.69714252  0.16177046  0.67196509  1
  Zn  Zn113  1  0.68681259  0.68627835  0.19288421  1
  Zn  Zn114  1  0.69384099  0.68866683  0.68961906  1
  Zn  Zn115  1  0.31634783  0.31476359  0.31256661  1
  Zn  Zn116  1  0.30688481  0.31649526  0.81495328  1
  Zn  Zn117  1  0.31378862  0.81502159  0.31375535  1
  Zn  Zn118  1  0.30931063  0.81172435  0.81096702  1
  Zn  Zn119  1  0.81271754  0.31478199  0.31204241  1
  Zn  Zn120  1  0.81140711  0.31268236  0.81785671  1
  Zn  Zn121  1  0.80638114  0.81317245  0.31895565  1
  Zn  Zn122  1  0.81859978  0.80259501  0.81399209  1
  Zn  Zn123  1  0.18719964  0.43778840  0.43882416  1
  Zn  Zn124  1  0.18852968  0.43915673  0.93749704  1
  Zn  Zn125  1  0.22672307  0.96086579  0.45488446  1
  Zn  Zn126  1  0.18468317  0.93332461  0.93918404  1
  Zn  Zn127  1  0.68944356  0.44138082  0.43923395  1
  Zn  Zn128  1  0.69294920  0.43189470  0.93221034  1
  Zn  Zn129  1  0.68565172  0.93426470  0.43513508  1
  Zn  Zn130  1  0.68803352  0.93386904  0.93457860  1
  Zn  Zn131  1  0.31096835  0.06167774  0.06589399  1
  Zn  Zn132  1  0.32017106  0.06950916  0.56314095  1
  Zn  Zn133  1  0.31368955  0.56161573  0.06267827  1
  Zn  Zn134  1  0.31122306  0.56343180  0.56296500  1
  Zn  Zn135  1  0.81375072  0.06063276  0.05971439  1
  Zn  Zn136  1  0.80313890  0.05899450  0.56071548  1
  Zn  Zn137  1  0.81600870  0.55962060  0.06511584  1
  Zn  Zn138  1  0.81673040  0.56308792  0.56773658  1
  Zn  Zn139  1  0.43847442  0.43413597  0.18532828  1
  Zn  Zn140  1  0.44166483  0.44348431  0.68794578  1
  Zn  Zn141  1  0.43833617  0.93372335  0.19197038  1
  Zn  Zn142  1  0.44088395  0.94022067  0.68234418  1
  Zn  Zn143  1  0.93703098  0.43591050  0.18440523  1
  Zn  Zn144  1  0.93816921  0.43849289  0.68505653  1
  Zn  Zn145  1  0.93725737  0.94134654  0.18928653  1
  Zn  Zn146  1  0.93940879  0.93703316  0.68878015  1
  Zn  Zn147  1  0.06357937  0.06002880  0.30860514  1
  Zn  Zn148  1  0.05936700  0.06203166  0.81371005  1
  Zn  Zn149  1  0.06164434  0.56099113  0.31330244  1
  Zn  Zn150  1  0.06776424  0.56336408  0.81292564  1
  Zn  Zn151  1  0.56250938  0.06679186  0.30975467  1
  Zn  Zn152  1  0.55931510  0.04784455  0.80702737  1
  Zn  Zn153  1  0.56273870  0.56105237  0.31431554  1
  Zn  Zn154  1  0.56403270  0.55759038  0.81160772  1
  Zn  Zn155  1  0.43411557  0.19438576  0.43777355  1
  Zn  Zn156  1  0.42771409  0.17987988  0.94355793  1
  Zn  Zn157  1  0.43089752  0.68725777  0.44387432  1
  Zn  Zn158  1  0.44018098  0.68607453  0.94123156  1
  Zn  Zn159  1  0.93363704  0.18781717  0.43718703  1
  Zn  Zn160  1  0.93723757  0.18515393  0.93337539  1
  Zn  Zn161  1  0.93921350  0.69136567  0.43936594  1
  Zn  Zn162  1  0.93946666  0.68168232  0.93724005  1
  Zn  Zn163  1  0.06444359  0.31280747  0.06544297  1
  Zn  Zn164  1  0.06371215  0.31575478  0.56279122  1
  Zn  Zn165  1  0.06308838  0.81258343  0.06271388  1
  Zn  Zn166  1  0.06035784  0.81376227  0.55695249  1
  Zn  Zn167  1  0.54145602  0.29012587  0.01115699  1
  Zn  Zn168  1  0.56221020  0.31559837  0.56368068  1
  Zn  Zn169  1  0.56323059  0.80978183  0.06083878  1
  Zn  Zn170  1  0.55925424  0.81076232  0.56282949  1
  O  O171  1  0.11666401  0.12673307  0.11150359  1
  O  O172  1  0.12257280  0.11771887  0.61867785  1
  O  O173  1  0.11859650  0.62090003  0.12952380  1
  O  O174  1  0.12901809  0.61294004  0.62729576  1
  O  O175  1  0.61701341  0.11474578  0.11671960  1
  O  O176  1  0.61115485  0.14868575  0.59693930  1
  O  O177  1  0.61883508  0.61737835  0.12058960  1
  O  O178  1  0.61127021  0.63625477  0.62814966  1
  O  O179  1  0.36936069  0.38891170  0.38662648  1
  O  O180  1  0.37027949  0.38082594  0.88735824  1
  O  O181  1  0.39351263  0.86702492  0.37700160  1
  O  O182  1  0.38011775  0.87570200  0.88056000  1
  O  O183  1  0.88127918  0.38272406  0.37971749  1
  O  O184  1  0.87398683  0.37501370  0.88635676  1
  O  O185  1  0.88234890  0.88576265  0.36786101  1
  O  O186  1  0.88173163  0.87961542  0.87671555  1
  O  O187  1  0.24392297  0.01372437  0.35561828  1
  O  O188  1  0.25105791  0.00141386  0.86820307  1
  O  O189  1  0.25452127  0.50720616  0.37284940  1
  O  O190  1  0.26231429  0.49861143  0.86903740  1
  O  O191  1  0.75415187  0.01161066  0.36686036  1
  O  O192  1  0.76065655  0.00862693  0.88290355  1
  O  O193  1  0.75747489  0.50766318  0.37071800  1
  O  O194  1  0.75520560  0.50192874  0.86573385  1
  O  O195  1  0.23935007  0.50260576  0.13112621  1
  O  O196  1  0.24576725  0.49249726  0.63089932  1
  O  O197  1  0.24997664  0.99195648  0.13537450  1
  O  O198  1  0.24458246  0.99616364  0.63396726  1
  O  O199  1  0.74080458  0.50350789  0.13235405  1
  O  O200  1  0.75723044  0.48944767  0.63433469  1
  O  O201  1  0.74555892  0.99362166  0.12838238  1
  O  O202  1  0.72602104  1.04781512  0.63770322  1
  O  O203  1  0.00739046  0.37629894  0.25801510  1
  O  O204  1  0.01391753  0.37060085  0.74378213  1
  O  O205  1  0.00835115  0.88247473  0.25925819  1
  O  O206  1  0.00326763  0.87444935  0.76345081  1
  O  O207  1  0.51575288  0.37037232  0.24412899  1
  O  O208  1  0.51997096  0.37942915  0.74085554  1
  O  O209  1  0.50232117  0.87069754  0.26213327  1
  O  O210  1  0.49872964  0.87141964  0.76216837  1
  O  O211  1  0.50865439  0.13795252  0.23634786  1
  O  O212  1  0.50149328  0.13205999  0.75743063  1
  O  O213  1  0.49801952  0.62280374  0.23756879  1
  O  O214  1  0.50057861  0.61731403  0.73595804  1
  O  O215  1  0.99297020  0.12475958  0.24074118  1
  O  O216  1  0.99323104  0.13110745  0.74318454  1
  O  O217  1  0.99162877  0.62067987  0.23904318  1
  O  O218  1  0.99086154  0.62282475  0.75071706  1
  O  O219  1  0.36893468  0.25871200  0.00977916  1
  O  O220  1  0.36714324  0.26056327  0.50856993  1
  O  O221  1  0.36913138  0.75353418  0.00984113  1
  O  O222  1  0.35927005  0.75407815  0.50815698  1
  O  O223  1  0.86173533  0.24160383  -0.00021171  1
  O  O224  1  0.86695368  0.25722600  0.50462523  1
  O  O225  1  0.86842466  0.74824795  0.00895143  1
  O  O226  1  0.87619969  0.75040376  0.51389502  1
  O  O227  1  0.13718098  0.24332624  0.50758977  1
  O  O228  1  0.12421220  0.24299025  0.99259608  1
  O  O229  1  0.13513732  0.75386235  0.48683389  1
  O  O230  1  0.13375927  0.75003775  0.99486521  1
  O  O231  1  0.63529222  0.25866181  0.49261869  1
  O  O232  1  0.63729658  0.22841515  1.00553690  1
  O  O233  1  0.62561692  0.74993935  0.48701183  1
  O  O234  1  0.63357596  0.74212233  0.99471132  1
  O  O235  1  0.49359378  0.24117803  0.11879514  1
  O  O236  1  0.48256877  0.25290062  0.61962909  1
  O  O237  1  0.49258605  0.74113218  0.12480948  1
  O  O238  1  0.48558731  0.73814599  0.61938626  1
  O  O239  1  1.00092865  0.23622265  0.12468145  1
  O  O240  1  0.99457773  0.24657773  0.62970310  1
  O  O241  1  0.98839935  0.74449118  0.12223755  1
  O  O242  1  0.98891890  0.75320392  0.62505007  1
  O  O243  1  -0.00495993  0.26388653  0.37350619  1
  O  O244  1  0.01275205  0.24347753  0.86764111  1
  O  O245  1  0.00843746  0.75921458  0.37639993  1
  O  O246  1  0.00708035  0.75806417  0.87712083  1
  O  O247  1  0.49226422  0.25215108  0.35812586  1
  O  O248  1  0.50249879  0.25298649  0.90709348  1
  O  O249  1  0.50951274  0.73930639  0.37417335  1
  O  O250  1  0.51094822  0.75560015  0.88476929  1
  O  O251  1  0.24455090  0.13656408  0.49021135  1
  O  O252  1  0.24014973  0.12353182  0.99482643  1
  O  O253  1  0.24977905  0.63040379  0.48890742  1
  O  O254  1  0.24835913  0.63888820  1.00673190  1
  O  O255  1  0.73969746  0.13668359  0.48839326  1
  O  O256  1  0.74317917  0.12749549  0.99440300  1
  O  O257  1  0.75654474  0.62529261  0.48959018  1
  O  O258  1  0.74715822  0.63276576  1.00169600  1
  O  O259  1  0.25650037  0.37401792  0.00435498  1
  O  O260  1  0.25695423  0.37160878  0.50789295  1
  O  O261  1  0.25422727  0.86910254  0.01040522  1
  O  O262  1  0.24179993  0.86342103  0.51608309  1
  O  O263  1  0.74324055  0.35319396  0.00065025  1
  O  O264  1  0.75593325  0.37280127  0.50612226  1
  O  O265  1  0.75084846  0.86123118  0.00653452  1
  O  O266  1  0.75879564  0.87046207  0.48727980  1
  O  O267  1  0.12953413  0.49256254  0.24400047  1
  O  O268  1  0.13108659  0.49347596  0.74525066  1
  O  O269  1  0.13352095  0.98811311  0.24897395  1
  O  O270  1  0.13410973  1.00193342  0.74334291  1
  O  O271  1  0.62796415  0.49059623  0.24445238  1
  O  O272  1  0.63851215  0.49040286  0.75240506  1
  O  O273  1  0.63255091  1.00003955  0.24144659  1
  O  O274  1  0.62911106  0.97343868  0.75880461  1
  O  O275  1  0.36067959  0.00056477  0.24521991  1
  O  O276  1  0.36296797  0.00083869  0.75555763  1
  O  O277  1  0.37042915  0.49776579  0.25888082  1
  O  O278  1  0.36881551  0.49255104  0.76487454  1
  O  O279  1  0.86797841  0.01061914  0.25822388  1
  O  O280  1  0.88147145  0.00672518  0.76144263  1
  O  O281  1  0.87190451  0.51061922  0.25589079  1
  O  O282  1  0.87203544  0.50798505  0.74978664  1
  O  O283  1  0.11605927  0.38093167  0.36693163  1
  O  O284  1  0.13012854  0.36634425  0.86600335  1
  O  O285  1  0.11585692  0.87103355  0.36814884  1
  O  O286  1  0.11653678  0.86596559  0.87427475  1
  O  O287  1  0.62801266  0.37967925  0.36172361  1
  O  O288  1  0.62603810  0.37203529  0.86005157  1
  O  O289  1  0.61163962  0.86301730  0.37323926  1
  O  O290  1  0.61877716  0.86357838  0.87037078  1
  O  O291  1  0.38484094  0.13464078  0.11805671  1
  O  O292  1  0.37691145  0.14063474  0.62986092  1
  O  O293  1  0.38337461  0.63110990  0.12582275  1
  O  O294  1  0.37583684  0.63735261  0.62315666  1
  O  O295  1  0.88297157  0.11760021  0.13356632  1
  O  O296  1  0.88167051  0.13248587  0.62637942  1
  O  O297  1  0.88206868  0.63182652  0.13338891  1
  O  O298  1  0.87832650  0.63023284  0.63932468  1
  O  O299  1  0.26006892  0.25079058  0.12491295  1
  O  O300  1  0.25781444  0.25862638  0.61739223  1
  O  O301  1  0.25721219  0.75619908  0.12134845  1
  O  O302  1  0.25514358  0.75578760  0.62082363  1
  O  O303  1  0.74987237  0.24441660  0.11127207  1
  O  O304  1  0.75634461  0.25494916  0.61401690  1
  O  O305  1  0.75928442  0.75120248  0.12105174  1
  O  O306  1  0.77075610  0.74242634  0.62469505  1
  O  O307  1  0.25422796  0.24706901  0.38403338  1
  O  O308  1  0.23742774  0.24207291  0.87622069  1
  O  O309  1  0.24659342  0.74393690  0.38202095  1
  O  O310  1  0.24145513  0.75931606  0.88676666  1
  O  O311  1  0.75670879  0.24082539  0.38126326  1
  O  O312  1  0.75150398  0.23390486  0.88842124  1
  O  O313  1  0.73771060  0.74050420  0.37568413  1
  O  O314  1  0.74474375  0.74531241  0.88605181  1
  O  O315  1  0.00392502  0.11786017  0.00440220  1
  O  O316  1  0.00887877  0.12646476  0.50404034  1
  O  O317  1  0.00459907  0.61821145  0.01449877  1
  O  O318  1  -0.00081684  0.60979921  0.49252312  1
  O  O319  1  0.50653365  0.11259962  0.00834364  1
  O  O320  1  0.51088743  0.12791118  0.48781357  1
  O  O321  1  0.50499826  0.61413342  0.01062228  1
  O  O322  1  0.49670190  0.61607991  0.50896449  1
  O  O323  1  0.48786647  0.38866686  0.50963234  1
  O  O324  1  0.48945421  0.39111358  1.00750201  1
  O  O325  1  0.50117762  0.87421910  0.48503574  1
  O  O326  1  0.49317954  0.87748634  0.99553221  1
  O  O327  1  0.99511985  0.37954033  0.49328123  1
  O  O328  1  1.00543152  0.39216879  1.00627156  1
  O  O329  1  0.99413146  0.88143406  0.48533805  1
  O  O330  1  0.99951101  0.88145993  0.99230776  1
  O  O331  1  0.49058117  0.50799669  0.38848311  1
  O  O332  1  0.48756981  0.50381649  0.88273361  1
  O  O333  1  0.50139254  0.99058070  0.36993882  1
  O  O334  1  0.49150241  0.98712054  0.88249727  1
  O  O335  1  0.99553596  0.49123460  0.38136932  1
  O  O336  1  1.00587587  0.50531516  0.89195192  1
  O  O337  1  0.99018944  0.99671883  0.37456618  1
  O  O338  1  0.99318008  0.99312367  0.88350198  1
  O  O339  1  -0.00537272  0.00669902  0.11075878  1
  O  O340  1  0.00868110  0.00645471  0.62133025  1
  O  O341  1  0.01210687  0.50810623  0.12073625  1
  O  O342  1  0.01131365  0.49368924  0.61468811  1
  O  O343  1  0.50319531  0.00421688  0.12237797  1
  O  O344  1  0.51360613  0.00724451  0.63337217  1
  O  O345  1  0.50751564  0.50596599  0.11918471  1
  O  O346  1  0.49361127  0.51591185  0.61386967  1
  O  O347  1  0.24267228  0.38293128  0.25070086  1
  O  O348  1  0.24003227  0.38203601  0.74318770  1
  O  O349  1  0.24709230  0.88620847  0.24609457  1
  O  O350  1  0.24682006  0.88281669  0.73902085  1
  O  O351  1  0.74034578  0.38044289  0.24870648  1
  O  O352  1  0.74555424  0.38047045  0.74315959  1
  O  O353  1  0.74745260  0.88274143  0.24438397  1
  O  O354  1  0.74389881  0.86805320  0.75444682  1
  O  O355  1  0.24477912  0.11577170  0.25317496  1
  O  O356  1  0.25042039  0.11797781  0.75719910  1
  O  O357  1  0.25306097  0.61821239  0.26100164  1
  O  O358  1  0.24854431  0.61022979  0.74851642  1
  O  O359  1  0.75329444  0.12343805  0.25362264  1
  O  O360  1  0.76149414  0.13542133  0.76372089  1
  O  O361  1  0.75829779  0.61838600  0.25757011  1
  O  O362  1  0.76016086  0.61479830  0.75077153  1
  O  O363  1  0.36337598  0.12943712  0.37437206  1
  O  O364  1  0.36257936  0.11463870  0.87637258  1
  O  O365  1  0.36585667  0.61505442  0.37494080  1
  O  O366  1  0.37462242  0.61394497  0.87972749  1
  O  O367  1  0.86733863  0.11982399  0.36687167  1
  O  O368  1  0.86855054  0.11585310  0.86850583  1
  O  O369  1  0.87021872  0.62397783  0.36870587  1
  O  O370  1  0.87624371  0.62312300  0.85996513  1
  O  O371  1  0.12700768  0.38432874  0.13407567  1
  O  O372  1  0.13641661  0.37880911  0.63179189  1
  O  O373  1  0.13730920  0.86648920  0.13426173  1
  O  O374  1  0.12900940  0.88901797  0.62471554  1
  O  O375  1  0.63210143  0.38591177  0.12987964  1
  O  O376  1  0.63873349  0.37255139  0.62896450  1
  O  O377  1  0.63034468  0.87989198  0.12605378  1
  O  O378  1  0.62515856  0.86601859  0.64155288  1
  O  O379  1  0.12252312  0.26373141  0.24502353  1
  O  O380  1  0.12125861  0.25718145  0.75542974  1
  O  O381  1  0.13580807  0.76540160  0.26460707  1
  O  O382  1  0.12445628  0.75394297  0.75790163  1
  O  O383  1  0.61929955  0.26504310  0.24455262  1
  O  O384  1  0.63203763  0.26124726  0.74494870  1
  O  O385  1  0.62208302  0.75020250  0.26272214  1
  O  O386  1  0.63115585  0.75531589  0.76481273  1
  O  O387  1  0.38677480  0.26316483  0.23499098  1
  O  O388  1  0.36736024  0.25343073  0.73811089  1
  O  O389  1  0.37525164  0.74711786  0.23836629  1
  O  O390  1  0.36807405  0.74993390  0.73462068  1
  O  O391  1  0.87657062  0.23805279  0.25215713  1
  O  O392  1  0.88018341  0.24499454  0.74323935  1
  O  O393  1  0.86835325  0.73891644  0.24436383  1
  O  O394  1  0.88163916  0.73860027  0.74163024  1
  O  O395  1  0.37931750  0.49548416  0.49502798  1
  O  O396  1  0.37942966  0.49623758  0.99099722  1
  O  O397  1  0.33452401  0.98642336  0.49433507  1
  O  O398  1  0.37762656  0.99184187  0.99579290  1
  O  O399  1  0.88301993  0.49359325  0.49627005  1
  O  O400  1  0.89329323  0.50688833  0.99853609  1
  O  O401  1  0.87358014  1.00611611  0.48630449  1
  O  O402  1  0.88262670  0.99674925  0.98897759  1
  O  O403  1  0.11447574  0.00820779  -0.00646266  1
  O  O404  1  0.13029603  0.01262486  0.50786628  1
  O  O405  1  0.11956247  0.50361626  0.00875734  1
  O  O406  1  0.11756563  0.49409280  0.51076817  1
  O  O407  1  0.62127115  0.00427498  0.00473961  1
  O  O408  1  0.62733129  0.01404094  0.49866514  1
  O  O409  1  0.61958566  0.50049802  0.00388172  1
  O  O410  1  0.60856795  0.49759986  0.49732795  1
  O  O411  1  0.37279294  0.37046417  0.11385403  1
  O  O412  1  0.36655423  0.37063292  0.62247970  1
  O  O413  1  0.36650918  0.86669475  0.12248512  1
  O  O414  1  0.36922071  0.86585003  0.62345912  1
  O  O415  1  0.87107830  0.38131834  0.11424377  1
  O  O416  1  0.86813450  0.36728169  0.62078858  1
  O  O417  1  0.87072571  0.86657463  0.12552685  1
  O  O418  1  0.87687925  0.86466522  0.62568616  1
  O  O419  1  0.12763251  0.12460011  0.38409299  1
  O  O420  1  0.12758448  0.12995366  0.88387463  1
  O  O421  1  0.13268591  0.63505884  0.36675171  1
  O  O422  1  0.12264859  0.64025947  0.87858296  1
  O  O423  1  0.63295384  0.12628725  0.38172631  1
  O  O424  1  0.63060160  0.11785108  0.87953047  1
  O  O425  1  0.63358671  0.63339672  0.37175409  1
  O  O426  1  0.62667856  0.62902167  0.88278321  1
