# generated using pymatgen
data_V85Zn86O256
_symmetry_space_group_name_H-M   'P 1'
_cell_length_a   16.92522972
_cell_length_b   16.92918567
_cell_length_c   16.92868525
_cell_angle_alpha   89.96945453
_cell_angle_beta   90.00618832
_cell_angle_gamma   90.02313832
_symmetry_Int_Tables_number   1
_chemical_formula_structural   V85Zn86O256
_chemical_formula_sum   'V85 Zn86 O256'
_cell_volume   4850.58110722
_cell_formula_units_Z   1
loop_
 _symmetry_equiv_pos_site_id
 _symmetry_equiv_pos_as_xyz
  1  'x, y, z'
loop_
 _atom_site_type_symbol
 _atom_site_label
 _atom_site_symmetry_multiplicity
 _atom_site_fract_x
 _atom_site_fract_y
 _atom_site_fract_z
 _atom_site_occupancy
  V  V0  1  0.50549035  0.37799564  0.38031462  1
  V  V1  1  0.12339459  0.12723361  0.50743738  1
  V  V2  1  -0.00156004  0.37568852  0.86861278  1
  V  V3  1  0.24180771  0.12961754  0.37430934  1
  V  V4  1  0.62740490  0.24106965  0.38829546  1
  V  V5  1  -0.00626140  0.12793878  0.12632986  1
  V  V6  1  0.50128257  0.24831801  0.25226513  1
  V  V7  1  0.86982746  0.25311223  0.12745736  1
  V  V8  1  0.37464529  0.62780807  0.74131374  1
  V  V9  1  0.75862610  0.37907494  0.62461325  1
  V  V10  1  0.37901551  0.25313695  0.63092024  1
  V  V11  1  0.24880427  0.00042317  0.74828848  1
  V  V12  1  0.12227911  0.37061088  0.26646248  1
  V  V13  1  0.50073891  0.87183225  0.87947993  1
  V  V14  1  0.62671336  0.12771042  -0.00167201  1
  V  V15  1  0.24704469  0.62549613  0.37743806  1
  V  V16  1  0.37192197  0.00102433  0.37661592  1
  V  V17  1  0.12332828  0.25436008  0.86880740  1
  V  V18  1  0.49928078  0.12520765  0.12635619  1
  V  V19  1  0.24348576  0.49840453  0.74956816  1
  V  V20  1  0.37477206  0.87165880  0.50207918  1
  V  V21  1  0.62853344  0.87505304  0.25447420  1
  V  V22  1  -0.00214963  0.49817239  -0.00158850  1
  V  V23  1  0.74704202  0.73531280  -0.00220258  1
  V  V24  1  0.11673534  0.86898152  0.74778183  1
  V  V25  1  0.62220953  0.37326441  0.74824632  1
  V  V26  1  0.12488935  0.62798234  0.00005120  1
  V  V27  1  0.00104664  0.50228688  0.48800725  1
  V  V28  1  0.50453086  0.51081793  0.00320730  1
  V  V29  1  0.74511116  0.74645156  0.50012712  1
  V  V30  1  -0.00604698  0.24463725  0.73969522  1
  V  V31  1  0.49766689  0.74918480  0.74346448  1
  V  V32  1  0.50253443  0.74676659  0.24137079  1
  V  V33  1  0.37952168  0.62540212  0.24279481  1
  V  V34  1  0.62223968  0.50353607  0.61032616  1
  V  V35  1  0.37678836  0.49912140  0.87382556  1
  V  V36  1  -0.00078758  0.25101353  0.25997659  1
  V  V37  1  0.37725856  0.37730001  0.50039729  1
  V  V38  1  0.76569751  0.00099979  0.25553261  1
  V  V39  1  0.62824088  0.37042206  0.23978542  1
  V  V40  1  0.87683519  0.61835015  0.25908586  1
  V  V41  1  0.75484944  0.49253813  0.25024362  1
  V  V42  1  0.86610140  0.37527305  0.00183179  1
  V  V43  1  0.50115814  0.62445454  0.61087431  1
  V  V44  1  0.38252348  0.12719273  0.75128696  1
  V  V45  1  0.75196346  0.87566082  0.62894518  1
  V  V46  1  0.62501615  0.51491772  0.12465500  1
  V  V47  1  0.50178055  0.87424865  0.37578144  1
  V  V48  1  0.75384957  0.12201267  0.86622800  1
  V  V49  1  -0.00483770  0.00481075  0.50126345  1
  V  V50  1  0.62666393  0.00046501  0.12851778  1
  V  V51  1  0.12365914  -0.00376854  0.12493234  1
  V  V52  1  0.24981565  0.12632349  0.87454000  1
  V  V53  1  0.24401266  0.25294352  0.49720008  1
  V  V54  1  0.87958784  0.75010548  0.62986271  1
  V  V55  1  0.12188031  0.12565545  -0.00198908  1
  V  V56  1  0.49662971  -0.00397612  0.00260176  1
  V  V57  1  0.74470844  0.61875520  0.37978570  1
  V  V58  1  0.12176868  0.50379085  0.62250715  1
  V  V59  1  0.49910080  0.36782144  0.87110816  1
  V  V60  1  0.37392129  -0.00659841  0.87704496  1
  V  V61  1  -0.00030389  0.62286666  0.12657365  1
  V  V62  1  0.62691767  0.73360130  0.87668364  1
  V  V63  1  0.12658069  0.49331863  0.12379000  1
  V  V64  1  0.62434031  0.00116045  0.62209440  1
  V  V65  1  0.24924313  0.74755700  0.50365095  1
  V  V66  1  0.25458546  0.87434159  0.62587827  1
  V  V67  1  -0.00488457  0.88129086  0.37443871  1
  V  V68  1  0.37414294  0.12662635  0.25219136  1
  V  V69  1  0.80631408  0.20648195  0.55466519  1
  V  V70  1  0.87503937  0.38382523  0.48679744  1
  V  V71  1  0.62865908  0.87890512  0.75266550  1
  V  V72  1  0.87244650  0.87831075  -0.00355969  1
  V  V73  1  0.00123431  0.62654695  0.62860809  1
  V  V74  1  0.75987355  0.12502047  0.37084163  1
  V  V75  1  0.25020352  0.62875656  0.87576980  1
  V  V76  1  0.50287758  0.12857089  0.61874241  1
  V  V77  1  0.38165083  0.50175108  0.37957581  1
  V  V78  1  0.00095741  0.74934258  0.25072133  1
  V  V79  1  0.12304886  0.74881009  0.38084097  1
  V  V80  1  0.25151710  0.49907322  0.25017957  1
  V  V81  1  0.74974717  0.50991238  0.75572497  1
  V  V82  1  0.24429508  0.37533739  0.62921363  1
  V  V83  1  0.75070123  0.87346130  0.12438654  1
  V  V84  1  0.37523625  0.37577862  0.00421392  1
  Zn  Zn85  1  -0.00577121  0.87316167  0.87047597  1
  Zn  Zn86  1  0.62438401  0.25002942  0.87246284  1
  Zn  Zn87  1  0.74569745  0.25382216  0.00287039  1
  Zn  Zn88  1  0.12286742  0.00366506  0.62562015  1
  Zn  Zn89  1  0.26197788  0.87628266  0.12212305  1
  Zn  Zn90  1  0.87550875  0.12569598  0.73424694  1
  Zn  Zn91  1  0.87205869  -0.00276205  0.85721409  1
  Zn  Zn92  1  0.25013737  0.25096037  0.00143920  1
  Zn  Zn93  1  0.37176246  0.24919900  0.12541961  1
  Zn  Zn94  1  0.25074300  0.37165236  0.12644524  1
  Zn  Zn95  1  0.62246503  0.74417288  0.38059805  1
  Zn  Zn96  1  0.87514728  0.74702353  0.12392934  1
  Zn  Zn97  1  0.37904942  0.75639490  0.11314022  1
  Zn  Zn98  1  0.11756256  0.74630785  0.86706751  1
  Zn  Zn99  1  -0.00664987  0.00121381  -0.00508895  1
  Zn  Zn100  1  0.50347291  0.00345474  0.49866857  1
  Zn  Zn101  1  0.87864842  0.63175605  0.75895048  1
  Zn  Zn102  1  0.86763377  0.50648974  0.87975004  1
  Zn  Zn103  1  0.87445505  0.87472396  0.49606131  1
  Zn  Zn104  1  0.24656372  -0.00044122  0.24931994  1
  Zn  Zn105  1  0.12685830  0.87625912  0.24917394  1
  Zn  Zn106  1  0.25729118  0.76355566  0.00042214  1
  Zn  Zn107  1  0.18535874  0.18837058  0.18476853  1
  Zn  Zn108  1  0.18693946  0.19061941  0.69030448  1
  Zn  Zn109  1  0.19025577  0.68933005  0.18662179  1
  Zn  Zn110  1  0.18626348  0.68646225  0.68250223  1
  Zn  Zn111  1  0.68822261  0.18603468  0.19081786  1
  Zn  Zn112  1  0.67968444  0.18859607  0.69208592  1
  Zn  Zn113  1  0.69098119  0.68838798  0.19280560  1
  Zn  Zn114  1  0.68314019  0.68900734  0.68483950  1
  Zn  Zn115  1  0.31220384  0.31370514  0.31245745  1
  Zn  Zn116  1  0.31145270  0.31325756  0.81311427  1
  Zn  Zn117  1  0.31154399  0.81348512  0.30407970  1
  Zn  Zn118  1  0.31186517  0.81091651  0.81273566  1
  Zn  Zn119  1  0.81156324  0.30844735  0.31260454  1
  Zn  Zn120  1  0.81146335  0.31031545  0.81435549  1
  Zn  Zn121  1  0.81475855  0.80722596  0.31379266  1
  Zn  Zn122  1  0.81013594  0.80783210  0.81450056  1
  Zn  Zn123  1  0.18801838  0.44146201  0.44108267  1
  Zn  Zn124  1  0.18674373  0.43791157  0.93607876  1
  Zn  Zn125  1  0.18305007  0.93847432  0.43588088  1
  Zn  Zn126  1  0.18374794  0.93803058  0.93676621  1
  Zn  Zn127  1  0.69221562  0.43228443  0.43379153  1
  Zn  Zn128  1  0.68416610  0.43926851  0.93803349  1
  Zn  Zn129  1  0.68962243  0.93897935  0.44097294  1
  Zn  Zn130  1  0.68743092  0.93860523  0.93765126  1
  Zn  Zn131  1  0.31048354  0.06089845  0.06190037  1
  Zn  Zn132  1  0.31273754  0.06321922  0.56217687  1
  Zn  Zn133  1  0.31432232  0.56644156  0.06077553  1
  Zn  Zn134  1  0.31345834  0.56322537  0.56105246  1
  Zn  Zn135  1  0.81139151  0.06377515  0.06396384  1
  Zn  Zn136  1  0.81199401  0.04509657  0.56211155  1
  Zn  Zn137  1  0.81348782  0.55862258  0.07087754  1
  Zn  Zn138  1  0.81529624  0.56290644  0.56443612  1
  Zn  Zn139  1  0.44257262  0.43862453  0.18915158  1
  Zn  Zn140  1  0.43799610  0.44192255  0.68638447  1
  Zn  Zn141  1  0.43601553  0.93704281  0.19186618  1
  Zn  Zn142  1  0.43878546  0.93845188  0.68847136  1
  Zn  Zn143  1  0.93871246  0.43322520  0.18847610  1
  Zn  Zn144  1  0.93640126  0.43622312  0.68784784  1
  Zn  Zn145  1  0.94037637  0.93539382  0.18304681  1
  Zn  Zn146  1  0.93540086  0.94417883  0.68371433  1
  Zn  Zn147  1  0.06043268  0.06584646  0.31236962  1
  Zn  Zn148  1  0.05637190  0.05906986  0.81139210  1
  Zn  Zn149  1  0.06739514  0.56246466  0.31201369  1
  Zn  Zn150  1  0.06045539  0.56160003  0.81197000  1
  Zn  Zn151  1  0.56620661  0.06139263  0.31536579  1
  Zn  Zn152  1  0.56366006  0.06180197  0.81132460  1
  Zn  Zn153  1  0.56533764  0.56073918  0.31188066  1
  Zn  Zn154  1  0.56011265  0.55581317  0.80635134  1
  Zn  Zn155  1  0.43436220  0.19078584  0.44060601  1
  Zn  Zn156  1  0.43796139  0.18770550  0.93888675  1
  Zn  Zn157  1  0.43316819  0.69184418  0.43150848  1
  Zn  Zn158  1  0.43874055  0.68577068  0.93266749  1
  Zn  Zn159  1  0.94253343  0.18673665  0.43394249  1
  Zn  Zn160  1  0.93578632  0.19045206  0.93738428  1
  Zn  Zn161  1  0.93367490  0.68531636  0.44269913  1
  Zn  Zn162  1  0.93674579  0.69093474  0.93175243  1
  Zn  Zn163  1  0.05796421  0.31112912  0.05949746  1
  Zn  Zn164  1  0.06173901  0.31897874  0.55860910  1
  Zn  Zn165  1  0.06180573  0.81170180  0.05781835  1
  Zn  Zn166  1  0.06353081  0.81529734  0.56225025  1
  Zn  Zn167  1  0.55713278  0.31282066  0.06115962  1
  Zn  Zn168  1  0.56336300  0.31506999  0.56502024  1
  Zn  Zn169  1  0.56608268  0.81029964  0.06136359  1
  Zn  Zn170  1  0.56373795  0.81210548  0.56282454  1
  O  O171  1  0.11503609  0.12130147  0.11656327  1
  O  O172  1  0.13330457  0.12524903  0.61132576  1
  O  O173  1  0.12152742  0.61244551  0.12084180  1
  O  O174  1  0.12024575  0.61248333  0.62323704  1
  O  O175  1  0.61980972  0.12022310  0.11906258  1
  O  O176  1  0.61471310  0.11574572  0.63370970  1
  O  O177  1  0.62454313  0.61309178  0.13321676  1
  O  O178  1  0.61721643  0.61213338  0.62547381  1
  O  O179  1  0.38374910  0.38229482  0.37823075  1
  O  O180  1  0.38057448  0.38100039  0.87972937  1
  O  O181  1  0.38057063  0.88277745  0.37925031  1
  O  O182  1  0.38275005  0.88623464  0.86937886  1
  O  O183  1  0.87045902  0.37362276  0.38851209  1
  O  O184  1  0.88077652  0.37929042  0.88305631  1
  O  O185  1  0.89108546  0.86651192  0.37665639  1
  O  O186  1  0.86846850  0.87834620  0.88296956  1
  O  O187  1  0.25675585  0.00860460  0.37511241  1
  O  O188  1  0.25840136  0.00589394  0.86958455  1
  O  O189  1  0.25625641  0.50740314  0.37140690  1
  O  O190  1  0.25343644  0.50722410  0.86586417  1
  O  O191  1  0.74436056  0.01483591  0.37118881  1
  O  O192  1  0.74683700  0.01759828  0.87817571  1
  O  O193  1  0.74576636  0.50516557  0.36154304  1
  O  O194  1  0.74566333  0.49718732  0.85894356  1
  O  O195  1  0.24289237  0.49850268  0.13247961  1
  O  O196  1  0.24439196  0.49576235  0.62886722  1
  O  O197  1  0.23624461  1.00502118  0.12790168  1
  O  O198  1  0.25036698  0.99229934  0.63046476  1
  O  O199  1  0.73665390  0.50091968  0.13691714  1
  O  O200  1  0.74045305  0.49541191  0.63009926  1
  O  O201  1  0.74546939  0.99371649  0.13440374  1
  O  O202  1  0.74062801  0.98503990  0.62405683  1
  O  O203  1  0.01416980  0.36720837  0.24768767  1
  O  O204  1  -0.00587620  0.36859654  0.76285905  1
  O  O205  1  0.00202463  0.86519338  0.25532270  1
  O  O206  1  0.01536542  0.87812682  0.73989198  1
  O  O207  1  0.50688179  0.36795777  0.26168445  1
  O  O208  1  0.50762986  0.38570550  0.75912114  1
  O  O209  1  0.50802206  0.86995248  0.25964375  1
  O  O210  1  0.50384957  0.86677336  0.75785074  1
  O  O211  1  0.49577962  0.12911503  0.24831701  1
  O  O212  1  0.48759238  0.12121233  0.74250363  1
  O  O213  1  0.49259799  0.63553316  0.26138036  1
  O  O214  1  0.49244722  0.63010401  0.74202485  1
  O  O215  1  1.00733821  0.14260214  0.24221523  1
  O  O216  1  0.99998038  0.14000151  0.74904309  1
  O  O217  1  0.99548784  0.62787673  0.24828671  1
  O  O218  1  0.99987028  0.61909611  0.73373143  1
  O  O219  1  0.37465609  0.26052409  0.00170020  1
  O  O220  1  0.36450122  0.25578855  0.51170871  1
  O  O221  1  0.36649471  0.72796843  0.00240093  1
  O  O222  1  0.36455201  0.76510655  0.49195810  1
  O  O223  1  0.87350264  0.25886569  0.00875704  1
  O  O224  1  0.87810062  0.26007982  0.50170811  1
  O  O225  1  0.86016890  0.75910423  0.00265861  1
  O  O226  1  0.86428508  0.75131661  0.51070135  1
  O  O227  1  0.13548379  0.24700390  0.50352764  1
  O  O228  1  0.12393770  0.24024608  0.99076090  1
  O  O229  1  0.13310063  0.75373832  0.48854772  1
  O  O230  1  0.12808956  0.73367135  1.00310076  1
  O  O231  1  0.62417533  0.25434288  0.48642541  1
  O  O232  1  0.62418082  0.24167136  0.99929365  1
  O  O233  1  0.63950584  0.75211242  0.50010518  1
  O  O234  1  0.63681791  0.75071878  0.99184304  1
  O  O235  1  0.49740392  0.24210231  0.13386393  1
  O  O236  1  0.49065864  0.24448362  0.62265213  1
  O  O237  1  0.50346420  0.75175896  0.13807912  1
  O  O238  1  0.50729077  0.74258564  0.63703950  1
  O  O239  1  0.99282537  0.24480348  0.13102001  1
  O  O240  1  1.00824185  0.26084748  0.64251585  1
  O  O241  1  1.00154572  0.74185913  0.13481602  1
  O  O242  1  0.99250541  0.74021015  0.61388929  1
  O  O243  1  0.00122022  0.24966188  0.35905138  1
  O  O244  1  0.00519127  0.25680709  0.86881997  1
  O  O245  1  0.00714015  0.75122687  0.37256460  1
  O  O246  1  0.00683690  0.76080288  0.88114012  1
  O  O247  1  0.50972581  0.25284424  0.37236909  1
  O  O248  1  0.50019380  0.26386257  0.87688493  1
  O  O249  1  0.50154312  0.76224154  0.36943892  1
  O  O250  1  0.50675538  0.75605085  0.86750064  1
  O  O251  1  0.24587851  0.13402155  0.49510277  1
  O  O252  1  0.24162921  0.12612773  0.99113464  1
  O  O253  1  0.25818939  0.63655053  0.49142969  1
  O  O254  1  0.23949225  0.61486263  0.98777633  1
  O  O255  1  0.75764831  0.13586328  0.49609116  1
  O  O256  1  0.73582622  0.12460372  0.99726446  1
  O  O257  1  0.75762055  0.63023476  0.49068809  1
  O  O258  1  0.75340483  0.63737869  1.00858074  1
  O  O259  1  0.26487697  0.37836509  -0.00139139  1
  O  O260  1  0.25562790  0.37007636  0.50660291  1
  O  O261  1  0.24044844  0.87615486  0.00710341  1
  O  O262  1  0.25444858  0.87084222  0.50557326  1
  O  O263  1  0.76169958  0.37506721  -0.00413848  1
  O  O264  1  0.76482468  0.37895599  0.50624467  1
  O  O265  1  0.75155044  0.87014288  0.00922514  1
  O  O266  1  0.75338238  0.86763220  0.50762446  1
  O  O267  1  0.12817584  0.48841942  0.24360536  1
  O  O268  1  0.13731857  0.50315181  0.74249219  1
  O  O269  1  0.12379549  1.00261664  0.23924244  1
  O  O270  1  0.13260313  0.99325232  0.74551283  1
  O  O271  1  0.62901425  0.49066989  0.24087743  1
  O  O272  1  0.63445342  0.49217332  0.74058653  1
  O  O273  1  0.63139624  0.99225356  0.24572399  1
  O  O274  1  0.61677747  0.98593560  0.74140039  1
  O  O275  1  0.37586199  0.00815655  0.26455867  1
  O  O276  1  0.37033121  0.00714222  0.75750645  1
  O  O277  1  0.37290370  0.50371057  0.26094967  1
  O  O278  1  0.36494663  0.50721005  0.75310837  1
  O  O279  1  0.86464744  -0.00555842  0.24858751  1
  O  O280  1  0.87459401  0.01331246  0.74352570  1
  O  O281  1  0.86660138  0.50409036  0.24490846  1
  O  O282  1  0.85681890  0.49913569  0.74709053  1
  O  O283  1  0.12804474  0.37720948  0.36462216  1
  O  O284  1  0.11490852  0.36512039  0.88219209  1
  O  O285  1  0.11537244  0.86542313  0.37228669  1
  O  O286  1  0.12686793  0.87673856  0.85515236  1
  O  O287  1  0.62044735  0.36465208  0.36827914  1
  O  O288  1  0.61611233  0.37629784  0.86736185  1
  O  O289  1  0.61723679  0.87539267  0.37304198  1
  O  O290  1  0.61830886  0.87049994  0.86868107  1
  O  O291  1  0.38196592  0.12323290  0.13326459  1
  O  O292  1  0.37932973  0.13310427  0.63187495  1
  O  O293  1  0.37616033  0.61956278  0.14122596  1
  O  O294  1  0.38254901  0.61833315  0.63510607  1
  O  O295  1  0.88711254  0.13261981  0.12035291  1
  O  O296  1  0.85922630  0.14124415  0.61325708  1
  O  O297  1  0.88208553  0.62586719  0.13824910  1
  O  O298  1  0.88290118  0.63217878  0.62945981  1
  O  O299  1  0.25291685  0.25364078  0.12028192  1
  O  O300  1  0.25510139  0.25969151  0.62133250  1
  O  O301  1  0.25554592  0.75168799  0.12287331  1
  O  O302  1  0.24760922  0.75611049  0.61140694  1
  O  O303  1  0.76539482  0.24225004  0.12665084  1
  O  O304  1  0.74248128  0.25884536  0.61858342  1
  O  O305  1  0.74812814  0.75689970  0.11670369  1
  O  O306  1  0.75313792  0.75706950  0.61926673  1
  O  O307  1  0.25752311  0.24288331  0.38665804  1
  O  O308  1  0.24139697  0.24489636  0.87577585  1
  O  O309  1  0.24359084  0.74498462  0.38021357  1
  O  O310  1  0.24465042  0.73696730  0.87418171  1
  O  O311  1  0.73681973  0.23855808  0.36887370  1
  O  O312  1  0.74542319  0.23860401  0.88112522  1
  O  O313  1  0.74976033  0.74046742  0.38306179  1
  O  O314  1  0.74120052  0.74987313  0.88902377  1
  O  O315  1  0.00552873  0.12607135  0.00680635  1
  O  O316  1  0.00894203  0.11513943  0.49222780  1
  O  O317  1  0.00681665  0.61784452  0.00658726  1
  O  O318  1  -0.00778577  0.60858427  0.50992006  1
  O  O319  1  0.50948756  0.11762771  0.00291183  1
  O  O320  1  0.49236886  0.12294265  0.51440050  1
  O  O321  1  0.50316345  0.60938035  -0.00776256  1
  O  O322  1  0.49108502  0.63515057  0.51196859  1
  O  O323  1  0.49411416  0.36943816  0.48777431  1
  O  O324  1  0.49043139  0.38250756  0.99284534  1
  O  O325  1  0.49121664  0.87460535  0.49458913  1
  O  O326  1  0.50663609  0.88095476  0.98806208  1
  O  O327  1  0.98633363  0.38733149  0.50407331  1
  O  O328  1  0.99079446  0.37957116  0.99079695  1
  O  O329  1  1.00216907  0.88671531  0.49181453  1
  O  O330  1  0.98367781  0.87720828  1.00524935  1
  O  O331  1  0.49438585  0.49059991  0.37189780  1
  O  O332  1  0.49558950  0.49138805  0.88120969  1
  O  O333  1  0.49396076  0.99076121  0.37784614  1
  O  O334  1  0.49496860  0.99236482  0.88135641  1
  O  O335  1  1.00473665  0.50486887  0.38894034  1
  O  O336  1  1.00090121  0.49080831  0.88139174  1
  O  O337  1  1.00739333  0.99199736  0.38366177  1
  O  O338  1  0.99206720  0.99207955  0.87715924  1
  O  O339  1  0.00445148  0.01183339  0.12343069  1
  O  O340  1  0.00481328  -0.00249730  0.60537956  1
  O  O341  1  0.00776059  0.50359250  0.12027114  1
  O  O342  1  0.00707961  0.50246744  0.62021146  1
  O  O343  1  0.50584718  0.00459157  0.11923806  1
  O  O344  1  0.50512859  0.00799820  0.62354034  1
  O  O345  1  0.51466924  0.49669752  0.11908556  1
  O  O346  1  0.51317288  0.50754607  0.62516093  1
  O  O347  1  0.23875165  0.37979722  0.24988173  1
  O  O348  1  0.25615152  0.38528387  0.74041535  1
  O  O349  1  0.24392118  0.88095250  0.24506296  1
  O  O350  1  0.24788270  0.87958821  0.74141960  1
  O  O351  1  0.74105622  0.38087923  0.25541963  1
  O  O352  1  0.74419183  0.38150793  0.74173650  1
  O  O353  1  0.74739369  0.87802282  0.24659088  1
  O  O354  1  0.73861835  0.86735616  0.74244028  1
  O  O355  1  0.25525554  0.12720732  0.25920832  1
  O  O356  1  0.26005132  0.12068899  0.75422046  1
  O  O357  1  0.25753202  0.61840053  0.25852544  1
  O  O358  1  0.25542884  0.62023636  0.75312648  1
  O  O359  1  0.74674842  0.11489474  0.26167235  1
  O  O360  1  0.75069774  0.13233325  0.76331830  1
  O  O361  1  0.75906399  0.61752877  0.25693588  1
  O  O362  1  0.74771423  0.61147800  0.74305722  1
  O  O363  1  0.36700875  0.11858933  0.37509544  1
  O  O364  1  0.37373110  0.11765657  0.86818778  1
  O  O365  1  0.36692872  0.61823541  0.36907803  1
  O  O366  1  0.36772391  0.61720261  0.86191857  1
  O  O367  1  0.85885467  0.13425969  0.37427070  1
  O  O368  1  0.85902515  0.12414124  0.88145346  1
  O  O369  1  0.86781275  0.62733417  0.36404560  1
  O  O370  1  0.87827815  0.61876190  0.87098447  1
  O  O371  1  0.12513077  0.38546686  0.12351580  1
  O  O372  1  0.13755359  0.38613908  0.62102181  1
  O  O373  1  0.11526929  0.89088814  0.12501127  1
  O  O374  1  0.13749370  0.87727703  0.63153318  1
  O  O375  1  0.62027917  0.37403482  0.13776148  1
  O  O376  1  0.63086924  0.38534375  0.62888892  1
  O  O377  1  0.63544642  0.87903471  0.13113080  1
  O  O378  1  0.62977620  0.87904348  0.63354318  1
  O  O379  1  0.11657341  0.26425927  0.24490824  1
  O  O380  1  0.11689867  0.24737794  0.76270787  1
  O  O381  1  0.11423263  0.74612469  0.26057696  1
  O  O382  1  0.13100805  0.76502370  0.74611805  1
  O  O383  1  0.61875067  0.25394749  0.25736743  1
  O  O384  1  0.62393156  0.26833924  0.75080308  1
  O  O385  1  0.62023110  0.75701234  0.25563311  1
  O  O386  1  0.61808186  0.75765595  0.75711111  1
  O  O387  1  0.38388299  0.24391407  0.25231183  1
  O  O388  1  0.36964855  0.24315215  0.73925753  1
  O  O389  1  0.38563342  0.73999531  0.25310459  1
  O  O390  1  0.38488884  0.74038163  0.75505455  1
  O  O391  1  0.89080666  0.26089274  0.24303711  1
  O  O392  1  0.88849291  0.24604474  0.75234326  1
  O  O393  1  0.88736521  0.74052058  0.24909603  1
  O  O394  1  0.86893728  0.74970728  0.73471867  1
  O  O395  1  0.37095297  0.49420089  0.48713654  1
  O  O396  1  0.38352826  0.49576235  0.99505807  1
  O  O397  1  0.37493798  0.99101565  0.49059249  1
  O  O398  1  0.38891500  1.00782372  0.99147576  1
  O  O399  1  0.88466738  0.49133390  0.50089568  1
  O  O400  1  0.88032156  0.49279566  1.00315099  1
  O  O401  1  0.89020989  0.99701955  0.49574904  1
  O  O402  1  0.86991999  0.98691994  1.00194465  1
  O  O403  1  0.11921991  0.01348073  0.00430454  1
  O  O404  1  0.11834804  0.00983286  0.50112622  1
  O  O405  1  0.11959976  0.50614734  0.00644762  1
  O  O406  1  0.11077116  0.49496375  0.50721250  1
  O  O407  1  0.61446839  0.00526221  0.00617374  1
  O  O408  1  0.62138139  -0.00519934  0.51667216  1
  O  O409  1  0.62130983  0.49444218  0.01697250  1
  O  O410  1  0.62907263  0.49356866  0.51201813  1
  O  O411  1  0.37593273  0.37574261  0.11738200  1
  O  O412  1  0.36936645  0.37086478  0.62146740  1
  O  O413  1  0.37823314  0.87129550  0.12723165  1
  O  O414  1  0.36494708  0.87941968  0.61701748  1
  O  O415  1  0.88100848  0.36548960  0.11491543  1
  O  O416  1  0.86256109  0.37773151  0.61835411  1
  O  O417  1  0.86253875  0.87078834  0.12128392  1
  O  O418  1  0.86714579  0.86921169  0.62171616  1
  O  O419  1  0.13778739  0.12321674  0.38422768  1
  O  O420  1  0.12782261  0.12994460  0.88079547  1
  O  O421  1  0.13921171  0.63103320  0.37243694  1
  O  O422  1  0.13191722  0.62330489  0.88180314  1
  O  O423  1  0.63058180  0.13567716  0.37693692  1
  O  O424  1  0.62980672  0.12711324  0.88065660  1
  O  O425  1  0.63974850  0.62577396  0.37112919  1
  O  O426  1  0.61915362  0.63507356  0.86598263  1
