# generated using pymatgen
data_V85Zn86O256
_symmetry_space_group_name_H-M   'P 1'
_cell_length_a   16.92243731
_cell_length_b   16.91733207
_cell_length_c   16.91813782
_cell_angle_alpha   90.02184574
_cell_angle_beta   89.95803318
_cell_angle_gamma   90.00287574
_symmetry_Int_Tables_number   1
_chemical_formula_structural   V85Zn86O256
_chemical_formula_sum   'V85 Zn86 O256'
_cell_volume   4843.36498780
_cell_formula_units_Z   1
loop_
 _symmetry_equiv_pos_site_id
 _symmetry_equiv_pos_as_xyz
  1  'x, y, z'
loop_
 _atom_site_type_symbol
 _atom_site_label
 _atom_site_symmetry_multiplicity
 _atom_site_fract_x
 _atom_site_fract_y
 _atom_site_fract_z
 _atom_site_occupancy
  V  V0  1  0.49819730  -0.00225154  0.49928099  1
  V  V1  1  0.87512280  0.00333653  0.87642400  1
  V  V2  1  -0.01140653  0.73724110  0.74937769  1
  V  V3  1  -0.00654398  -0.01219334  0.50285705  1
  V  V4  1  0.75234991  0.75100909  -0.00154370  1
  V  V5  1  0.24517684  0.62780633  0.37952330  1
  V  V6  1  0.87453480  0.62729297  0.25380307  1
  V  V7  1  0.50794940  0.62175842  0.61831151  1
  V  V8  1  0.62493907  0.74982822  0.87498762  1
  V  V9  1  0.50210217  0.62949220  0.12856392  1
  V  V10  1  0.74923324  0.62753382  0.38372414  1
  V  V11  1  0.37835607  0.62886474  0.25017329  1
  V  V12  1  0.24241051  0.00370039  0.24740658  1
  V  V13  1  0.87890190  0.12514622  0.25474890  1
  V  V14  1  0.75305897  0.49655414  0.25331655  1
  V  V15  1  0.49712278  0.23440435  0.24873282  1
  V  V16  1  0.74861752  0.12920486  0.87609726  1
  V  V17  1  0.75663336  0.62398910  0.86873053  1
  V  V18  1  0.12315912  0.87083695  0.75070788  1
  V  V19  1  0.24914251  0.87219899  0.62487245  1
  V  V20  1  0.24455055  0.13338801  0.87335380  1
  V  V21  1  0.00458138  0.12649822  0.12990825  1
  V  V22  1  0.61785942  0.25862232  0.87580277  1
  V  V23  1  0.37440467  0.37680369  0.50091402  1
  V  V24  1  0.50122609  0.12481745  0.62675258  1
  V  V25  1  0.87392469  0.25235772  0.12878654  1
  V  V26  1  0.00355444  0.62743169  0.12884801  1
  V  V27  1  0.25801869  0.12461917  0.37295211  1
  V  V28  1  0.37473127  0.12439119  0.74938545  1
  V  V29  1  0.38143361  0.37278798  -0.00180653  1
  V  V30  1  0.49858391  0.86969345  0.36920227  1
  V  V31  1  0.25237153  0.50075970  0.24964639  1
  V  V32  1  0.62558366  0.74517231  0.39359573  1
  V  V33  1  0.49744467  0.00451821  0.00584720  1
  V  V34  1  0.63108338  0.49501437  0.12249950  1
  V  V35  1  -0.00275646  0.87334946  0.35806097  1
  V  V36  1  0.37200491  0.74693228  0.62218333  1
  V  V37  1  0.37443489  0.25173214  0.62398421  1
  V  V38  1  0.87876534  0.75246499  0.12897607  1
  V  V39  1  0.87492390  0.87795352  -0.00041570  1
  V  V40  1  0.62112329  0.37886659  0.74322436  1
  V  V41  1  0.50158249  0.49872979  -0.00607962  1
  V  V42  1  0.01333483  0.37203202  0.87511611  1
  V  V43  1  0.12295085  0.13733934  -0.00141356  1
  V  V44  1  0.63030547  0.12697259  0.50140347  1
  V  V45  1  0.74908276  -0.00015473  0.25200395  1
  V  V46  1  0.37559840  0.49729049  0.87208556  1
  V  V47  1  -0.00469147  0.62699836  0.61358393  1
  V  V48  1  0.87294995  0.26768937  0.62390124  1
  V  V49  1  0.12512214  0.49848523  0.61303157  1
  V  V50  1  0.81139964  0.81455838  0.56647567  1
  V  V51  1  0.62636687  0.62574684  -0.00134328  1
  V  V52  1  0.62034969  0.00384000  0.12870543  1
  V  V53  1  -0.01074617  0.49510411  0.48634325  1
  V  V54  1  0.01255508  0.25575786  0.75060102  1
  V  V55  1  0.62381118  0.86279399  0.24801786  1
  V  V56  1  0.12377388  0.73782489  0.87670590  1
  V  V57  1  0.23522107  0.74909182  0.50124122  1
  V  V58  1  0.12537553  -0.00198825  0.62463381  1
  V  V59  1  0.49704244  0.74800868  0.75224424  1
  V  V60  1  0.74992220  -0.00110798  0.74550021  1
  V  V61  1  0.75572492  0.49529357  0.74290505  1
  V  V62  1  0.25574848  0.37311046  0.12603665  1
  V  V63  1  0.37337817  -0.00031641  0.87421780  1
  V  V64  1  0.12003134  0.75390046  0.35719298  1
  V  V65  1  0.23987310  0.49459021  0.75049608  1
  V  V66  1  0.12331924  0.36754462  0.25448511  1
  V  V67  1  0.00148105  0.50240829  0.00526505  1
  V  V68  1  0.24483701  0.74301883  0.00201504  1
  V  V69  1  0.37277315  0.87544124  0.00207670  1
  V  V70  1  0.74871978  0.26017198  0.00535293  1
  V  V71  1  0.62821011  0.87367680  0.74550137  1
  V  V72  1  0.37760492  0.50132074  0.37536258  1
  V  V73  1  0.87545171  0.13121008  0.74752244  1
  V  V74  1  0.37819611  0.23378716  0.12625476  1
  V  V75  1  0.37862535  0.75480814  0.12938869  1
  V  V76  1  0.87774172  0.49791375  0.87297837  1
  V  V77  1  0.12647935  0.50309988  0.12186302  1
  V  V78  1  0.01041541  0.00188156  0.00169991  1
  V  V79  1  0.62278421  0.37290397  0.24717141  1
  V  V80  1  0.75434459  0.26644978  0.50128071  1
  V  V81  1  0.62386697  0.12525482  0.00206438  1
  V  V82  1  0.00057520  0.87375101  0.87360662  1
  V  V83  1  0.12419803  0.12534012  0.49744897  1
  V  V84  1  0.23145685  0.87806817  0.13005413  1
  Zn  Zn85  1  0.49879828  0.87474852  0.87578664  1
  Zn  Zn86  1  0.49965315  0.37343160  0.37323266  1
  Zn  Zn87  1  0.24832845  0.25069981  0.49674628  1
  Zn  Zn88  1  0.63968581  0.50002580  0.61156281  1
  Zn  Zn89  1  0.86903424  -0.00769798  0.38170111  1
  Zn  Zn90  1  0.62532327  0.25100494  0.37570891  1
  Zn  Zn91  1  0.50644312  0.50259365  0.49620856  1
  Zn  Zn92  1  0.37109837  0.62277687  0.75091176  1
  Zn  Zn93  1  0.37756167  0.00007805  0.36523139  1
  Zn  Zn94  1  -0.00026005  0.12724902  0.62401081  1
  Zn  Zn95  1  0.75279363  0.12422056  0.37960385  1
  Zn  Zn96  1  0.11791178  0.24471030  0.36866782  1
  Zn  Zn97  1  0.62867347  -0.00464634  0.62227734  1
  Zn  Zn98  1  0.24843633  -0.00189475  0.75097801  1
  Zn  Zn99  1  0.75014585  0.87611052  0.12394387  1
  Zn  Zn100  1  0.24757099  0.62035017  0.87836692  1
  Zn  Zn101  1  0.87436722  0.37699753  0.00789688  1
  Zn  Zn102  1  -0.03425396  0.35468863  0.38391233  1
  Zn  Zn103  1  0.37227696  0.87391702  0.49588751  1
  Zn  Zn104  1  0.49743204  0.25699160  0.75458715  1
  Zn  Zn105  1  0.24883189  0.25315207  -0.00349572  1
  Zn  Zn106  1  0.24112102  0.36951799  0.62841668  1
  Zn  Zn107  1  0.18973420  0.18470984  0.18363225  1
  Zn  Zn108  1  0.18974195  0.18383725  0.68450459  1
  Zn  Zn109  1  0.18990857  0.68660412  0.18719444  1
  Zn  Zn110  1  0.18190828  0.67809067  0.68935287  1
  Zn  Zn111  1  0.68808576  0.18526406  0.18827039  1
  Zn  Zn112  1  0.68915804  0.19290401  0.68582806  1
  Zn  Zn113  1  0.69247799  0.68554618  0.18596304  1
  Zn  Zn114  1  0.69098734  0.68643940  0.68612682  1
  Zn  Zn115  1  0.31282534  0.30886270  0.31264511  1
  Zn  Zn116  1  0.31298775  0.31539794  0.81103292  1
  Zn  Zn117  1  0.31010959  0.81596242  0.30966779  1
  Zn  Zn118  1  0.31022161  0.81121412  0.81313528  1
  Zn  Zn119  1  0.80523016  0.31028314  0.31075455  1
  Zn  Zn120  1  0.81277094  0.31735737  0.81493009  1
  Zn  Zn121  1  0.81020018  0.81143059  0.31538295  1
  Zn  Zn122  1  0.81276422  0.81417493  0.80823569  1
  Zn  Zn123  1  0.18875997  0.43816189  0.43917989  1
  Zn  Zn124  1  0.19027982  0.43738385  0.94128460  1
  Zn  Zn125  1  0.18447956  0.93630326  0.43377736  1
  Zn  Zn126  1  0.18791285  0.93504885  0.93743935  1
  Zn  Zn127  1  0.68538607  0.43992306  0.43214131  1
  Zn  Zn128  1  0.68834593  0.43671815  0.93280655  1
  Zn  Zn129  1  0.68630980  0.93308495  0.43904397  1
  Zn  Zn130  1  0.68630861  0.93771457  0.93423015  1
  Zn  Zn131  1  0.30393713  0.05916957  0.06157129  1
  Zn  Zn132  1  0.31235693  0.06078968  0.55990028  1
  Zn  Zn133  1  0.31521617  0.56288745  0.06199149  1
  Zn  Zn134  1  0.31202029  0.56358439  0.56249337  1
  Zn  Zn135  1  0.81211150  0.06556436  0.06552928  1
  Zn  Zn136  1  0.81444148  0.06302684  0.56553740  1
  Zn  Zn137  1  0.81543319  0.56372144  0.06321971  1
  Zn  Zn138  1  0.82164646  0.56512722  0.56186068  1
  Zn  Zn139  1  0.44192659  0.43757528  0.18571528  1
  Zn  Zn140  1  0.43784199  0.43742458  0.68930492  1
  Zn  Zn141  1  0.43404339  0.94163102  0.19018526  1
  Zn  Zn142  1  0.43858426  0.93478794  0.68707990  1
  Zn  Zn143  1  0.92184418  0.42166327  0.21936767  1
  Zn  Zn144  1  0.94459015  0.44313876  0.68946967  1
  Zn  Zn145  1  0.93797266  0.94323814  0.18455041  1
  Zn  Zn146  1  0.93714263  0.93575118  0.68912936  1
  Zn  Zn147  1  0.06470336  0.05800401  0.31370090  1
  Zn  Zn148  1  0.06197954  0.06513007  0.81192104  1
  Zn  Zn149  1  0.06564281  0.56477096  0.30815386  1
  Zn  Zn150  1  0.06395011  0.55753685  0.81005754  1
  Zn  Zn151  1  0.56583554  0.06039284  0.31741421  1
  Zn  Zn152  1  0.56226058  0.06351390  0.81455583  1
  Zn  Zn153  1  0.56505801  0.56463201  0.31138718  1
  Zn  Zn154  1  0.56414092  0.56265905  0.80892832  1
  Zn  Zn155  1  0.43883506  0.18849218  0.43731969  1
  Zn  Zn156  1  0.43703964  0.18532422  0.93892323  1
  Zn  Zn157  1  0.43585743  0.69184225  0.43848643  1
  Zn  Zn158  1  0.43422832  0.68482006  0.93964969  1
  Zn  Zn159  1  0.93898058  0.18124630  0.43939494  1
  Zn  Zn160  1  0.93715001  0.19198801  0.93835534  1
  Zn  Zn161  1  0.93490522  0.69347801  0.43870897  1
  Zn  Zn162  1  0.93849354  0.68366734  0.94069671  1
  Zn  Zn163  1  0.06024678  0.31433550  0.06794930  1
  Zn  Zn164  1  0.05858736  0.31485081  0.55887752  1
  Zn  Zn165  1  0.05941881  0.80948351  0.05991758  1
  Zn  Zn166  1  0.05680485  0.80944375  0.56337820  1
  Zn  Zn167  1  0.55959536  0.31089202  0.06571178  1
  Zn  Zn168  1  0.56170751  0.31573351  0.56175160  1
  Zn  Zn169  1  0.56149193  0.81673690  0.06175828  1
  Zn  Zn170  1  0.56130419  0.81265683  0.56412505  1
  O  O171  1  0.11685641  0.12689289  0.11414657  1
  O  O172  1  0.12429881  0.11137493  0.61928181  1
  O  O173  1  0.11738656  0.61629746  0.13224257  1
  O  O174  1  0.11045795  0.61050620  0.62891594  1
  O  O175  1  0.62818367  0.11121434  0.11888073  1
  O  O176  1  0.61760684  0.12560007  0.61787030  1
  O  O177  1  0.61849297  0.62113775  0.11811110  1
  O  O178  1  0.61059595  0.62301386  0.63110695  1
  O  O179  1  0.37349144  0.38505773  0.38075179  1
  O  O180  1  0.37331856  0.38602777  0.88425413  1
  O  O181  1  0.38495500  0.87257488  0.37607898  1
  O  O182  1  0.37283622  0.88277584  0.88230934  1
  O  O183  1  0.88021387  0.39114030  0.32466705  1
  O  O184  1  0.88170103  0.38574213  0.88251297  1
  O  O185  1  0.89101259  0.87396739  0.36944743  1
  O  O186  1  0.88196122  0.88121283  0.87929016  1
  O  O187  1  0.25145975  0.00333886  0.36561258  1
  O  O188  1  0.26064361  0.00692510  0.87654083  1
  O  O189  1  0.25866105  0.51009789  0.37229834  1
  O  O190  1  0.25537857  0.49960648  0.86927845  1
  O  O191  1  0.74836130  -0.00141931  0.36468689  1
  O  O192  1  0.75506229  0.00926577  0.86821640  1
  O  O193  1  0.74303185  0.50981404  0.35835007  1
  O  O194  1  0.75924613  0.50542239  0.87022897  1
  O  O195  1  0.24670804  0.49439637  0.12760370  1
  O  O196  1  0.23823102  0.50227587  0.62883666  1
  O  O197  1  0.24783519  0.98727574  0.13133212  1
  O  O198  1  0.24199381  0.99199481  0.62564115  1
  O  O199  1  0.73541344  0.50975359  0.12907587  1
  O  O200  1  0.75414405  0.51077412  0.63917203  1
  O  O201  1  0.74210826  0.99821148  0.13458856  1
  O  O202  1  0.74705031  1.00786454  0.64174180  1
  O  O203  1  0.02505067  0.37667360  0.24073972  1
  O  O204  1  -0.00191059  0.37094972  0.76570484  1
  O  O205  1  0.00256194  0.88258903  0.25957484  1
  O  O206  1  0.00488730  0.86292500  0.75455780  1
  O  O207  1  0.50933826  0.36963805  0.24967282  1
  O  O208  1  0.51518354  0.37606514  0.75083265  1
  O  O209  1  0.50867574  0.88118770  0.26176754  1
  O  O210  1  0.50378566  0.86247860  0.75341289  1
  O  O211  1  0.50521598  0.13545079  0.25195784  1
  O  O212  1  0.49697349  0.12561052  0.73855991  1
  O  O213  1  0.49634992  0.62150293  0.23521225  1
  O  O214  1  0.49730375  0.63547080  0.74306437  1
  O  O215  1  0.99273814  0.11478063  0.24159340  1
  O  O216  1  0.99128451  0.13567624  0.75112282  1
  O  O217  1  0.98983468  0.61909690  0.23768693  1
  O  O218  1  1.00349269  0.63438401  0.74680704  1
  O  O219  1  0.37776129  0.25770581  0.00740350  1
  O  O220  1  0.37349577  0.25691045  0.50701738  1
  O  O221  1  0.36641830  0.75536367  0.00815974  1
  O  O222  1  0.36301468  0.75221658  0.50793565  1
  O  O223  1  0.86514405  0.25056206  0.00840275  1
  O  O224  1  0.86657366  0.24444006  0.51460353  1
  O  O225  1  0.87234651  0.75637983  0.00644467  1
  O  O226  1  0.87161303  0.75552844  0.50757148  1
  O  O227  1  0.12689216  0.23452543  0.50651999  1
  O  O228  1  0.12544619  0.24119752  1.00140122  1
  O  O229  1  0.13303526  0.75009271  0.49526904  1
  O  O230  1  0.13279886  0.75556106  0.98940035  1
  O  O231  1  0.63783147  0.24608211  0.50383484  1
  O  O232  1  0.62925576  0.24743438  0.99559256  1
  O  O233  1  0.62532516  0.74947619  0.49195609  1
  O  O234  1  0.63087823  0.74738528  0.99420496  1
  O  O235  1  0.49202519  0.24974918  0.13717128  1
  O  O236  1  0.49051446  0.24220728  0.62578896  1
  O  O237  1  0.49019225  0.74255681  0.11648258  1
  O  O238  1  0.49208772  0.74239989  0.63080775  1
  O  O239  1  0.99129113  0.23526600  0.11955212  1
  O  O240  1  0.98845861  0.25047957  0.63080580  1
  O  O241  1  0.99221678  0.73997861  0.11933242  1
  O  O242  1  1.00740832  0.73596719  0.63620424  1
  O  O243  1  0.00503515  0.25037552  0.38220204  1
  O  O244  1  -0.00468089  0.26491482  0.86868777  1
  O  O245  1  0.01071535  0.76004734  0.37533985  1
  O  O246  1  0.00533419  0.75035635  0.86822737  1
  O  O247  1  0.50004858  0.25089288  0.36121191  1
  O  O248  1  0.51358691  0.24306762  0.87376271  1
  O  O249  1  0.51309026  0.75564720  0.37789738  1
  O  O250  1  0.50284173  0.74839974  0.86834559  1
  O  O251  1  0.24127296  0.12154418  0.49176569  1
  O  O252  1  0.23935196  0.12636054  0.99248138  1
  O  O253  1  0.25458952  0.63298345  0.48647620  1
  O  O254  1  0.25197190  0.63888521  1.00253464  1
  O  O255  1  0.74227425  0.12771529  0.50204946  1
  O  O256  1  0.74341325  0.13183284  0.99400286  1
  O  O257  1  0.75791897  0.61680105  0.48257727  1
  O  O258  1  0.74539080  0.62943143  0.99025606  1
  O  O259  1  0.26233952  0.37357485  0.00717219  1
  O  O260  1  0.26157761  0.37346936  0.50407310  1
  O  O261  1  0.25316847  0.86959800  0.01160987  1
  O  O262  1  0.24952268  0.86721198  0.50660183  1
  O  O263  1  0.75025354  0.36391841  -0.00039229  1
  O  O264  1  0.75234961  0.36513912  0.49516943  1
  O  O265  1  0.75701202  0.87067821  -0.00092822  1
  O  O266  1  0.75151509  0.87635462  0.50956610  1
  O  O267  1  0.13452841  0.49314856  0.24017762  1
  O  O268  1  0.13086572  0.49928075  0.73836710  1
  O  O269  1  0.14137021  0.99541467  0.25350050  1
  O  O270  1  0.12241169  0.99237499  0.74088929  1
  O  O271  1  0.62798005  0.49401215  0.24036778  1
  O  O272  1  0.63283280  0.49044037  0.74873699  1
  O  O273  1  0.62944859  0.99357480  0.24455585  1
  O  O274  1  0.63200237  0.99251691  0.75285461  1
  O  O275  1  0.35512156  -0.00632955  0.25093737  1
  O  O276  1  0.37435256  0.00402001  0.75790355  1
  O  O277  1  0.37128998  0.50603150  0.25498519  1
  O  O278  1  0.36969290  0.50061101  0.75866602  1
  O  O279  1  0.86469233  0.00771146  0.24893922  1
  O  O280  1  0.87003741  0.00911784  0.75643231  1
  O  O281  1  0.85908723  0.51737858  0.22782346  1
  O  O282  1  0.86918733  0.49442787  0.76082356  1
  O  O283  1  0.13587041  0.37433497  0.35880566  1
  O  O284  1  0.11227198  0.37785152  0.87976610  1
  O  O285  1  0.11548212  0.86155621  0.37701444  1
  O  O286  1  0.11897823  0.86693991  0.86959483  1
  O  O287  1  0.62039542  0.37028358  0.36272921  1
  O  O288  1  0.62622180  0.36726979  0.86570563  1
  O  O289  1  0.62037591  0.86225837  0.36876434  1
  O  O290  1  0.62099697  0.86791348  0.86622935  1
  O  O291  1  0.36963668  0.13496113  0.11738924  1
  O  O292  1  0.38098205  0.12991285  0.62898666  1
  O  O293  1  0.38233234  0.63287527  0.12843666  1
  O  O294  1  0.38029570  0.63531078  0.62773839  1
  O  O295  1  0.88279473  0.13069070  0.13169747  1
  O  O296  1  0.87751057  0.13020977  0.63872602  1
  O  O297  1  0.88188699  0.63536544  0.12874123  1
  O  O298  1  0.89728193  0.61659509  0.63262993  1
  O  O299  1  0.26059636  0.25771683  0.12264632  1
  O  O300  1  0.26264140  0.24913897  0.62304637  1
  O  O301  1  0.25368705  0.76017869  0.12023534  1
  O  O302  1  0.25246702  0.74899072  0.61948327  1
  O  O303  1  0.75839115  0.24156789  0.11539792  1
  O  O304  1  0.76327044  0.25063177  0.61680278  1
  O  O305  1  0.75873481  0.75182929  0.11485520  1
  O  O306  1  0.75410814  0.75546259  0.62824862  1
  O  O307  1  0.24540795  0.23901141  0.37595777  1
  O  O308  1  0.25697409  0.23768852  0.87655320  1
  O  O309  1  0.23914409  0.74832702  0.37925158  1
  O  O310  1  0.24188338  0.74817431  0.88396852  1
  O  O311  1  0.74980339  0.24583624  0.38945840  1
  O  O312  1  0.74219037  0.24677730  0.88348116  1
  O  O313  1  0.73369712  0.74381402  0.37006695  1
  O  O314  1  0.74826571  0.74220896  0.87803978  1
  O  O315  1  0.00633173  0.12042486  0.00162752  1
  O  O316  1  0.00940446  0.10987223  0.50277637  1
  O  O317  1  -0.00281435  0.61139488  0.01160127  1
  O  O318  1  -0.00272838  0.62048959  0.50873685  1
  O  O319  1  0.50647939  0.11184127  -0.00340043  1
  O  O320  1  0.50540531  0.12002322  0.50932870  1
  O  O321  1  0.50490523  0.61870444  0.00843408  1
  O  O322  1  0.49503469  0.62726518  0.51550444  1
  O  O323  1  0.48676466  0.37561104  0.49580402  1
  O  O324  1  0.48967164  0.38355118  1.00503691  1
  O  O325  1  0.50107085  0.88163298  0.49076342  1
  O  O326  1  0.49279393  0.88653339  0.99666808  1
  O  O327  1  1.00259773  0.38912216  0.49094527  1
  O  O328  1  0.99966990  0.38399523  0.99327277  1
  O  O329  1  1.00549744  0.88537430  0.49483531  1
  O  O330  1  0.99568230  0.88390021  0.99386128  1
  O  O331  1  0.48670311  0.50308580  0.37293767  1
  O  O332  1  0.49487854  0.50629024  0.88685664  1
  O  O333  1  0.49889893  0.99141541  0.38221569  1
  O  O334  1  0.48732469  1.00002713  0.88114702  1
  O  O335  1  1.00785904  0.50690348  0.38727796  1
  O  O336  1  0.99656253  0.49301976  0.88214235  1
  O  O337  1  1.00226661  0.98541178  0.38477560  1
  O  O338  1  0.99353273  0.99599530  0.88027940  1
  O  O339  1  -0.00539469  0.01289487  0.11207832  1
  O  O340  1  0.00740481  -0.00159486  0.61743746  1
  O  O341  1  0.00951051  0.50397935  0.11972773  1
  O  O342  1  0.00778842  0.50541879  0.61384723  1
  O  O343  1  0.50669747  -0.00408545  0.11755461  1
  O  O344  1  0.50185867  0.00691822  0.61891695  1
  O  O345  1  0.50705341  0.50847917  0.11343183  1
  O  O346  1  0.49540649  0.51698576  0.62682595  1
  O  O347  1  0.24964099  0.38163565  0.24173268  1
  O  O348  1  0.25497932  0.38858836  0.74534740  1
  O  O349  1  0.24757722  0.87929074  0.23520572  1
  O  O350  1  0.24103423  0.87515175  0.74373969  1
  O  O351  1  0.73307213  0.38317176  0.24652978  1
  O  O352  1  0.73895752  0.38548111  0.75637091  1
  O  O353  1  0.74131119  0.88222482  0.24815736  1
  O  O354  1  0.74046191  0.88649099  0.75869638  1
  O  O355  1  0.24582134  0.11305369  0.25569353  1
  O  O356  1  0.25506844  0.11987491  0.75699705  1
  O  O357  1  0.25728819  0.62087681  0.25878157  1
  O  O358  1  0.25144466  0.61124451  0.75416758  1
  O  O359  1  0.75418750  0.11511511  0.25458218  1
  O  O360  1  0.75535073  0.12320962  0.75686915  1
  O  O361  1  0.75533716  0.61952873  0.25579814  1
  O  O362  1  0.74393374  0.61639492  0.76422629  1
  O  O363  1  0.36203051  0.12116534  0.38210664  1
  O  O364  1  0.36895249  0.11835666  0.86955176  1
  O  O365  1  0.36943519  0.62296799  0.36918166  1
  O  O366  1  0.37118338  0.61067962  0.87679559  1
  O  O367  1  0.87416739  0.11519309  0.36750702  1
  O  O368  1  0.86975459  0.12562347  0.86559959  1
  O  O369  1  0.86857541  0.63729022  0.35987384  1
  O  O370  1  0.86869116  0.61127498  0.88224291  1
  O  O371  1  0.13975115  0.37950522  0.12935994  1
  O  O372  1  0.12361054  0.39122985  0.61997286  1
  O  O373  1  0.13348279  0.87313344  0.12150874  1
  O  O374  1  0.12755698  0.88038966  0.62987807  1
  O  O375  1  0.61885716  0.38641430  0.12895850  1
  O  O376  1  0.62494385  0.37636078  0.63909889  1
  O  O377  1  0.62542955  0.88522256  0.13143537  1
  O  O378  1  0.61713814  0.87685343  0.64116152  1
  O  O379  1  0.13422023  0.26373113  0.24722199  1
  O  O380  1  0.11153206  0.24596085  0.74113558  1
  O  O381  1  0.12728662  0.75317089  0.25876585  1
  O  O382  1  0.11909439  0.75281269  0.75893328  1
  O  O383  1  0.61492753  0.25472759  0.24695021  1
  O  O384  1  0.62599229  0.26196443  0.75671689  1
  O  O385  1  0.62622743  0.76160017  0.24425608  1
  O  O386  1  0.61821248  0.75489919  0.75591788  1
  O  O387  1  0.38840818  0.25209676  0.24182902  1
  O  O388  1  0.37832817  0.24446041  0.74302417  1
  O  O389  1  0.36989841  0.74589166  0.23675138  1
  O  O390  1  0.38076022  0.74766561  0.74430893  1
  O  O391  1  0.86448399  0.23195428  0.24292621  1
  O  O392  1  0.87731725  0.24790116  0.74124887  1
  O  O393  1  0.86765016  0.74491900  0.23540979  1
  O  O394  1  0.89039854  0.74803534  0.75690948  1
  O  O395  1  0.37740101  0.49490051  0.49246690  1
  O  O396  1  0.38266722  0.49363299  0.99554297  1
  O  O397  1  0.38825502  0.99612545  0.49959325  1
  O  O398  1  0.37955679  0.99711103  0.99514404  1
  O  O399  1  0.89012068  0.49954111  0.49545014  1
  O  O400  1  0.88390529  0.49624911  0.99789959  1
  O  O401  1  0.89000569  1.00453311  0.50060211  1
  O  O402  1  0.88080717  0.99823544  0.99409015  1
  O  O403  1  0.11366795  0.00657098  -0.00646929  1
  O  O404  1  0.11846018  0.00371613  0.50724994  1
  O  O405  1  0.12070125  0.49613796  0.01388132  1
  O  O406  1  0.12233418  0.50357083  0.50890104  1
  O  O407  1  0.61708845  0.00184325  0.00668685  1
  O  O408  1  0.61511643  0.00708693  0.50194347  1
  O  O409  1  0.61980851  0.50354610  0.00311026  1
  O  O410  1  0.61860108  0.49361615  0.50236111  1
  O  O411  1  0.36815548  0.37297928  0.11892754  1
  O  O412  1  0.37560216  0.36728798  0.61896712  1
  O  O413  1  0.37141265  0.86808114  0.11974206  1
  O  O414  1  0.36941879  0.86188787  0.62515478  1
  O  O415  1  0.88266590  0.35654942  0.12879038  1
  O  O416  1  0.87853061  0.36589815  0.62912954  1
  O  O417  1  0.87575044  0.86919776  0.11844349  1
  O  O418  1  0.87050096  0.87279347  0.62660148  1
  O  O419  1  0.13403910  0.12245457  0.38293177  1
  O  O420  1  0.13427085  0.12085748  0.88227301  1
  O  O421  1  0.13309682  0.64002414  0.36813140  1
  O  O422  1  0.12480169  0.63419552  0.87523199  1
  O  O423  1  0.62521068  0.12928715  0.39045860  1
  O  O424  1  0.63100405  0.13255179  0.88080380  1
  O  O425  1  0.63004058  0.63947892  0.36986400  1
  O  O426  1  0.63201725  0.62997206  0.88058238  1
