# generated using pymatgen
data_V85Zn86O256
_symmetry_space_group_name_H-M   'P 1'
_cell_length_a   16.95684438
_cell_length_b   16.98388181
_cell_length_c   16.97834340
_cell_angle_alpha   90.05581814
_cell_angle_beta   90.00376832
_cell_angle_gamma   90.06452802
_symmetry_Int_Tables_number   1
_chemical_formula_structural   V85Zn86O256
_chemical_formula_sum   'V85 Zn86 O256'
_cell_volume   4889.63931334
_cell_formula_units_Z   1
loop_
 _symmetry_equiv_pos_site_id
 _symmetry_equiv_pos_as_xyz
  1  'x, y, z'
loop_
 _atom_site_type_symbol
 _atom_site_label
 _atom_site_symmetry_multiplicity
 _atom_site_fract_x
 _atom_site_fract_y
 _atom_site_fract_z
 _atom_site_occupancy
  V  V0  1  0.37518930  0.24625690  0.12932449  1
  V  V1  1  0.12645216  0.37479502  0.25459537  1
  V  V2  1  0.12637268  0.37649249  0.75273398  1
  V  V3  1  0.00098301  -0.01238856  -0.00365780  1
  V  V4  1  0.87628280  0.25366954  0.11763462  1
  V  V5  1  0.12305695  0.87645574  0.25216314  1
  V  V6  1  0.63474063  -0.00382184  0.12435293  1
  V  V7  1  0.25234351  0.62669281  0.86628551  1
  V  V8  1  0.25201275  0.37665740  0.62366442  1
  V  V9  1  0.62378573  0.49486815  0.13750627  1
  V  V10  1  0.74697027  0.49922156  0.75942133  1
  V  V11  1  0.86044871  0.75372225  0.11913284  1
  V  V12  1  0.74922328  0.63375670  0.88526906  1
  V  V13  1  0.61983676  0.37475177  0.77297661  1
  V  V14  1  0.61638021  0.62588370  0.50627120  1
  V  V15  1  0.75120753  0.25834387  -0.00812296  1
  V  V16  1  0.88029729  0.00004330  0.37745347  1
  V  V17  1  0.12085452  0.49450739  0.62449098  1
  V  V18  1  0.37379215  0.62254932  0.25249839  1
  V  V19  1  0.62272788  -0.00031670  0.62397932  1
  V  V20  1  0.37639432  0.50221420  0.87016555  1
  V  V21  1  0.63362740  0.12821375  0.50001333  1
  V  V22  1  0.11052091  0.75244271  0.87055973  1
  V  V23  1  0.62656916  0.24867223  0.37408320  1
  V  V24  1  0.75644241  0.12830833  0.87301074  1
  V  V25  1  0.12184697  0.12280477  0.49676320  1
  V  V26  1  0.12392175  0.50280623  0.12202325  1
  V  V27  1  -0.06276922  0.54954978  0.44061059  1
  V  V28  1  -0.00755233  0.12899215  0.62392960  1
  V  V29  1  0.37717116  -0.00369198  0.87329823  1
  V  V30  1  0.24712306  0.12494823  0.87264426  1
  V  V31  1  0.62354051  0.49228444  0.62378236  1
  V  V32  1  0.50008277  0.74685166  0.25085225  1
  V  V33  1  0.88133837  0.87927949  0.50225248  1
  V  V34  1  0.50510316  0.38494781  0.37146886  1
  V  V35  1  0.74987281  0.74431435  0.50111864  1
  V  V36  1  0.50069142  0.87455707  0.37585825  1
  V  V37  1  0.24817663  0.74951719  -0.00259885  1
  V  V38  1  0.12071702  0.12456123  -0.00054797  1
  V  V39  1  0.50308530  0.49858313  -0.00315977  1
  V  V40  1  0.62407029  0.13131738  -0.00640117  1
  V  V41  1  0.50124151  0.25275669  0.76718314  1
  V  V42  1  0.37596002  0.87397440  -0.00423260  1
  V  V43  1  -0.01622052  0.37719372  0.87697265  1
  V  V44  1  0.37646538  0.00348457  0.36377986  1
  V  V45  1  0.37505926  0.74731160  0.63288171  1
  V  V46  1  0.24827302  0.74661360  0.50042701  1
  V  V47  1  -0.00410139  0.62137977  0.63324729  1
  V  V48  1  0.25388716  0.12645986  0.36641129  1
  V  V49  1  0.24857443  0.25081685  0.49686883  1
  V  V50  1  0.49718245  0.12210987  0.12794429  1
  V  V51  1  0.38848453  0.37976778  0.49983873  1
  V  V52  1  0.74886491  0.87487742  0.62606784  1
  V  V53  1  0.12420953  0.25198872  0.87376476  1
  V  V54  1  0.61536757  0.87421888  0.75680376  1
  V  V55  1  0.50038746  -0.00864943  -0.00233302  1
  V  V56  1  0.62962588  0.75076503  0.37754644  1
  V  V57  1  0.87421121  0.62297274  0.76188421  1
  V  V58  1  0.50500955  0.25023790  0.24882149  1
  V  V59  1  0.12481948  0.61769841  0.49925407  1
  V  V60  1  0.75470825  0.00420832  0.74851258  1
  V  V61  1  0.37381521  0.87563098  0.50011800  1
  V  V62  1  0.37605388  0.24998283  0.62496282  1
  V  V63  1  0.49562155  0.62133111  0.63868414  1
  V  V64  1  0.37720311  0.75037272  0.12447081  1
  V  V65  1  0.50018793  0.62578811  0.12468176  1
  V  V66  1  0.49920090  0.00151308  0.49887844  1
  V  V67  1  0.37445912  0.12582872  0.74968223  1
  V  V68  1  0.87985177  -0.00952028  0.87116371  1
  V  V69  1  0.10933632  0.87279053  0.75135375  1
  V  V70  1  0.24647121  0.87680978  0.62636873  1
  V  V71  1  0.37907331  0.37520572  -0.00347067  1
  V  V72  1  0.49922248  0.13082734  0.62405663  1
  V  V73  1  -0.01289750  0.24956299  0.74331963  1
  V  V74  1  0.24859800  0.87671071  0.12477080  1
  V  V75  1  0.87518627  0.12260389  0.24589387  1
  V  V76  1  0.74243084  0.37108310  0.13205539  1
  V  V77  1  -0.00116161  0.74153012  0.24311994  1
  V  V78  1  0.11869716  0.00098865  0.62042681  1
  V  V79  1  0.87651751  0.74882203  0.63644970  1
  V  V80  1  -0.01103877  0.49761454  -0.00224140  1
  V  V81  1  0.25133428  0.37548272  0.12480366  1
  V  V82  1  0.63202131  0.63172562  0.00512624  1
  V  V83  1  0.12131820  0.62389118  0.00012939  1
  V  V84  1  -0.01885273  0.37091144  0.37738878  1
  Zn  Zn85  1  0.75554185  -0.00873810  0.24898208  1
  Zn  Zn86  1  0.25573784  0.50308842  0.74822449  1
  Zn  Zn87  1  0.25082336  0.62197187  0.37556100  1
  Zn  Zn88  1  0.24961752  0.24928047  0.00090271  1
  Zn  Zn89  1  0.00478699  0.87885033  0.37851416  1
  Zn  Zn90  1  0.75147530  0.12468187  0.37358856  1
  Zn  Zn91  1  0.49092325  0.75363907  0.76214821  1
  Zn  Zn92  1  0.61792041  0.75949020  0.88973958  1
  Zn  Zn93  1  0.12355479  0.74831409  0.37482471  1
  Zn  Zn94  1  0.12369869  0.25073733  0.37212724  1
  Zn  Zn95  1  0.25213216  0.50177471  0.25213008  1
  Zn  Zn96  1  0.25036233  0.00356569  0.24684525  1
  Zn  Zn97  1  0.00109178  0.24876636  0.24566243  1
  Zn  Zn98  1  0.62857797  0.87030746  0.24316157  1
  Zn  Zn99  1  0.24601453  0.00190919  0.74786401  1
  Zn  Zn100  1  0.37805188  0.50433484  0.38238863  1
  Zn  Zn101  1  0.12258699  0.00169737  0.12574844  1
  Zn  Zn102  1  0.78638989  0.48104487  0.27247909  1
  Zn  Zn103  1  0.86725180  0.62589671  0.25397882  1
  Zn  Zn104  1  0.86235112  0.87487476  0.00289212  1
  Zn  Zn105  1  0.00010918  0.12504627  0.12287836  1
  Zn  Zn106  1  0.81096402  0.30726765  0.57080789  1
  Zn  Zn107  1  0.18650773  0.18932538  0.18622991  1
  Zn  Zn108  1  0.18315722  0.19077771  0.68498630  1
  Zn  Zn109  1  0.18643985  0.68878634  0.18617285  1
  Zn  Zn110  1  0.18284287  0.68836822  0.68810782  1
  Zn  Zn111  1  0.68880215  0.18268630  0.18447399  1
  Zn  Zn112  1  0.68371571  0.18833960  0.69775408  1
  Zn  Zn113  1  0.69070936  0.68111735  0.19189032  1
  Zn  Zn114  1  0.68726185  0.68794950  0.69218909  1
  Zn  Zn115  1  0.31772305  0.31403947  0.31064211  1
  Zn  Zn116  1  0.31264048  0.31315456  0.81338241  1
  Zn  Zn117  1  0.31086559  0.81223790  0.31354701  1
  Zn  Zn118  1  0.30343099  0.81486850  0.81158372  1
  Zn  Zn119  1  0.81150759  0.30200181  0.30945389  1
  Zn  Zn120  1  0.80736550  0.31259134  0.80195533  1
  Zn  Zn121  1  0.81143781  0.81578941  0.31085604  1
  Zn  Zn122  1  0.80487597  0.81415406  0.81658291  1
  Zn  Zn123  1  0.19381189  0.43928873  0.43688348  1
  Zn  Zn124  1  0.19039455  0.43868976  0.93753465  1
  Zn  Zn125  1  0.18874533  0.93989511  0.43641567  1
  Zn  Zn126  1  0.18582588  0.93733369  0.93434828  1
  Zn  Zn127  1  0.70142392  0.42533578  0.43768049  1
  Zn  Zn128  1  0.69320195  0.44649393  0.94483519  1
  Zn  Zn129  1  0.69401520  0.93623269  0.43464736  1
  Zn  Zn130  1  0.68721985  0.94656656  0.93321773  1
  Zn  Zn131  1  0.31038677  0.06253148  0.06023680  1
  Zn  Zn132  1  0.31018705  0.06205119  0.55731521  1
  Zn  Zn133  1  0.31082991  0.56292270  0.05980716  1
  Zn  Zn134  1  0.31411336  0.56059654  0.56454732  1
  Zn  Zn135  1  0.81554941  0.06551650  0.05556015  1
  Zn  Zn136  1  0.81258733  0.06376492  0.56156544  1
  Zn  Zn137  1  0.82825999  0.55033934  0.10097201  1
  Zn  Zn138  1  0.80182940  0.56010223  0.57012039  1
  Zn  Zn139  1  0.44147824  0.43686101  0.18837082  1
  Zn  Zn140  1  0.44458485  0.43319394  0.68966004  1
  Zn  Zn141  1  0.44318280  0.93288082  0.18463243  1
  Zn  Zn142  1  0.43469703  0.94028670  0.68619288  1
  Zn  Zn143  1  0.94318134  0.42958703  0.18143403  1
  Zn  Zn144  1  0.93234129  0.44313134  0.69136973  1
  Zn  Zn145  1  0.93959406  0.93664014  0.18433523  1
  Zn  Zn146  1  0.93630916  0.94295416  0.68408059  1
  Zn  Zn147  1  0.06015423  0.06131331  0.31142372  1
  Zn  Zn148  1  0.05926470  0.06237105  0.80794470  1
  Zn  Zn149  1  0.06690099  0.56197364  0.30862873  1
  Zn  Zn150  1  0.06124630  0.56117421  0.81514003  1
  Zn  Zn151  1  0.56224622  0.06474377  0.30852451  1
  Zn  Zn152  1  0.56362524  0.06223738  0.81300563  1
  Zn  Zn153  1  0.66181790  0.56875810  0.32139628  1
  Zn  Zn154  1  0.56391444  0.56641894  0.81808464  1
  Zn  Zn155  1  0.43880873  0.18944024  0.43695802  1
  Zn  Zn156  1  0.43276287  0.18186979  0.94447203  1
  Zn  Zn157  1  0.43956423  0.68659308  0.44090535  1
  Zn  Zn158  1  0.44081305  0.68691774  0.93630355  1
  Zn  Zn159  1  0.93589088  0.18763126  0.43512827  1
  Zn  Zn160  1  0.93560834  0.18625154  0.93267496  1
  Zn  Zn161  1  0.93986789  0.71109726  0.43803061  1
  Zn  Zn162  1  0.93639436  0.68580960  0.94575929  1
  Zn  Zn163  1  0.06261161  0.31380443  0.05997977  1
  Zn  Zn164  1  -0.03106312  0.31851847  0.55930231  1
  Zn  Zn165  1  0.06150373  0.81108384  0.06426057  1
  Zn  Zn166  1  0.06098991  0.80658728  0.56668308  1
  Zn  Zn167  1  0.56280293  0.31212813  0.05735542  1
  Zn  Zn168  1  0.64584004  0.30956551  0.56876073  1
  Zn  Zn169  1  0.68684020  0.81857637  0.06247549  1
  Zn  Zn170  1  0.55968026  0.81190764  0.56770096  1
  O  O171  1  0.12543202  0.12324027  0.11336366  1
  O  O172  1  0.12410525  0.11725418  0.61642423  1
  O  O173  1  0.13188119  0.61475223  0.11397988  1
  O  O174  1  0.11587109  0.61735724  0.62160754  1
  O  O175  1  0.61707695  0.11676072  0.11524610  1
  O  O176  1  0.61438123  0.11801163  0.61886467  1
  O  O177  1  0.61915502  0.61651241  0.12112969  1
  O  O178  1  0.61210002  0.62236655  0.62691953  1
  O  O179  1  0.38574459  0.37464389  0.38155830  1
  O  O180  1  0.36495075  0.38246544  0.89083209  1
  O  O181  1  0.38006089  0.88064244  0.38131811  1
  O  O182  1  0.36346029  0.88935924  0.87848256  1
  O  O183  1  0.88130013  0.37511698  0.36648652  1
  O  O184  1  0.88597412  0.37303972  0.86953852  1
  O  O185  1  0.87635324  0.88080366  0.38656949  1
  O  O186  1  0.87203239  0.88715248  0.87485068  1
  O  O187  1  0.26023363  0.00786280  0.37337064  1
  O  O188  1  0.25432111  0.01164677  0.87194317  1
  O  O189  1  0.25913901  0.50387872  0.36989217  1
  O  O190  1  0.25763645  0.50904890  0.87353429  1
  O  O191  1  0.76349254  0.00377856  0.37328222  1
  O  O192  1  0.75847127  0.00752113  0.86523633  1
  O  O193  1  0.73641114  0.49867747  0.36857294  1
  O  O194  1  0.74456077  0.51303962  0.86590116  1
  O  O195  1  0.24222404  0.49153337  0.12455777  1
  O  O196  1  0.24340641  0.49471749  0.62980928  1
  O  O197  1  0.25133049  0.98782728  0.12615104  1
  O  O198  1  0.24087122  0.99214873  0.62393065  1
  O  O199  1  0.73574749  0.48331770  0.11554345  1
  O  O200  1  0.72891291  0.51002551  0.64376374  1
  O  O201  1  0.73622386  1.00801307  0.12091235  1
  O  O202  1  0.74472069  0.99694791  0.63142172  1
  O  O203  1  0.00956838  0.37564054  0.26005167  1
  O  O204  1  0.00785109  0.36906979  0.76194011  1
  O  O205  1  0.01407178  0.86990928  0.24846237  1
  O  O206  1  0.01041038  0.87577364  0.74092578  1
  O  O207  1  0.49561121  0.36479096  0.26220267  1
  O  O208  1  0.50804351  0.36627637  0.75863389  1
  O  O209  1  0.50461980  0.86281768  0.25551053  1
  O  O210  1  0.51244184  0.87738506  0.74286342  1
  O  O211  1  0.49925907  0.13066580  0.23449914  1
  O  O212  1  0.49480236  0.12865719  0.74372374  1
  O  O213  1  0.48938731  0.63818491  0.24459604  1
  O  O214  1  0.50211204  0.63095877  0.74106438  1
  O  O215  1  0.98947548  0.12653009  0.24560516  1
  O  O216  1  1.00940894  0.14049058  0.73961131  1
  O  O217  1  1.00022785  0.63994511  0.25510160  1
  O  O218  1  0.98813189  0.61923457  0.74536407  1
  O  O219  1  0.37426988  0.25844681  0.00984421  1
  O  O220  1  0.36768048  0.25432332  0.50640268  1
  O  O221  1  0.36824540  0.75541326  0.00475017  1
  O  O222  1  0.36731017  0.75511562  0.51127403  1
  O  O223  1  0.86340589  0.24135438  0.00545615  1
  O  O224  1  0.88803461  0.25977880  0.50152897  1
  O  O225  1  0.87788413  0.75459002  0.01505690  1
  O  O226  1  0.86520032  0.75425355  0.51280962  1
  O  O227  1  0.14323838  0.24181344  0.49375260  1
  O  O228  1  0.12687425  0.24254916  0.99154595  1
  O  O229  1  0.13075444  0.73631524  0.50309564  1
  O  O230  1  0.12900465  0.74297091  0.99469551  1
  O  O231  1  0.60936495  0.23540134  0.48688436  1
  O  O232  1  0.63134231  0.23777357  1.00103119  1
  O  O233  1  0.63057926  0.74718616  0.49946851  1
  O  O234  1  0.62442761  0.73541844  1.00904286  1
  O  O235  1  0.49545258  0.24377972  0.12881368  1
  O  O236  1  0.49351101  0.23579738  0.63623330  1
  O  O237  1  0.49005629  0.74469334  0.13641296  1
  O  O238  1  0.49032356  0.74233520  0.63227529  1
  O  O239  1  0.99072930  0.24875485  0.12219015  1
  O  O240  1  1.01236709  0.24216401  0.63739602  1
  O  O241  1  0.99874849  0.75233632  0.14007330  1
  O  O242  1  0.98964932  0.73183969  0.61957274  1
  O  O243  1  0.00283908  0.26315522  0.36749264  1
  O  O244  1  0.00418343  0.25923471  0.86760828  1
  O  O245  1  0.00473571  0.76022305  0.36130194  1
  O  O246  1  0.01212899  0.74539610  0.87975572  1
  O  O247  1  0.50376521  0.25017317  0.36298077  1
  O  O248  1  0.49210921  0.23900763  0.86531314  1
  O  O249  1  0.50326001  0.75731768  0.37048811  1
  O  O250  1  0.50546368  0.74915517  0.87288172  1
  O  O251  1  0.24504900  0.13127215  0.48979529  1
  O  O252  1  0.23808656  0.12460300  0.99077007  1
  O  O253  1  0.24227590  0.63164352  0.50361792  1
  O  O254  1  0.23973607  0.62931126  0.99105680  1
  O  O255  1  0.73620302  0.12019831  0.49728158  1
  O  O256  1  0.74195592  0.13263184  0.99134866  1
  O  O257  1  0.73511547  0.63830619  0.51355331  1
  O  O258  1  0.74221331  0.61527698  0.99268971  1
  O  O259  1  0.25567693  0.37329967  0.01163454  1
  O  O260  1  0.25805254  0.36652189  0.50501248  1
  O  O261  1  0.25449208  0.87113871  0.00650696  1
  O  O262  1  0.25088480  0.86790431  0.51012261  1
  O  O263  1  0.74382600  0.36132686  0.00389524  1
  O  O264  1  0.72924669  0.37629896  0.52739894  1
  O  O265  1  0.74880200  0.87884447  -0.00604666  1
  O  O266  1  0.75730396  0.86551350  0.50873335  1
  O  O267  1  0.12852327  0.49425171  0.23877738  1
  O  O268  1  0.12652791  0.48972146  0.74624766  1
  O  O269  1  0.12836082  0.99143403  0.24672489  1
  O  O270  1  0.12645156  0.99222941  0.74095853  1
  O  O271  1  0.61264843  0.50271586  0.23590032  1
  O  O272  1  0.62449336  0.49210559  0.75003126  1
  O  O273  1  0.62343344  1.00317903  0.23215770  1
  O  O274  1  0.62912675  0.99171434  0.74315842  1
  O  O275  1  0.37485101  -0.00816047  0.26112065  1
  O  O276  1  0.37117027  0.00688591  0.75681349  1
  O  O277  1  0.37715894  0.51480938  0.24621433  1
  O  O278  1  0.37727270  0.49087219  0.76693162  1
  O  O279  1  0.87626523  0.00525707  0.25464433  1
  O  O280  1  0.86477877  -0.00180340  0.75482756  1
  O  O281  1  0.87412395  0.51271408  0.21119171  1
  O  O282  1  0.86034625  0.51217358  0.74846751  1
  O  O283  1  0.13142036  0.37680617  0.36019547  1
  O  O284  1  0.12665057  0.36961612  0.86730836  1
  O  O285  1  0.12671327  0.87286489  0.36707217  1
  O  O286  1  0.13134182  0.86524780  0.86273073  1
  O  O287  1  0.61000304  0.36276537  0.38030810  1
  O  O288  1  0.62237210  0.38344394  0.87084100  1
  O  O289  1  0.61676861  0.86444038  0.38055083  1
  O  O290  1  0.62495761  0.87990136  0.85934230  1
  O  O291  1  0.38293080  0.13460034  0.11515010  1
  O  O292  1  0.37895086  0.12794212  0.62910934  1
  O  O293  1  0.37798474  0.63155848  0.12961891  1
  O  O294  1  0.38709802  0.63168951  0.62252931  1
  O  O295  1  0.87558591  0.13318769  0.12873279  1
  O  O296  1  0.89343205  0.11985798  0.61751290  1
  O  O297  1  0.87468812  0.65060957  0.13115364  1
  O  O298  1  0.87801862  0.62968097  0.63626112  1
  O  O299  1  0.25883717  0.25642213  0.12323628  1
  O  O300  1  0.25550339  0.25627945  0.61723990  1
  O  O301  1  0.25515415  0.76033812  0.11859637  1
  O  O302  1  0.25297041  0.75481410  0.61737874  1
  O  O303  1  0.75264372  0.25372046  0.11483878  1
  O  O304  1  0.72794058  0.24584304  0.61797125  1
  O  O305  1  0.75550671  0.75376543  0.12967487  1
  O  O306  1  0.75624969  0.75545105  0.62205723  1
  O  O307  1  0.25468217  0.24304801  0.37990110  1
  O  O308  1  0.24627796  0.23835839  0.87670783  1
  O  O309  1  0.24918451  0.74906178  0.39136013  1
  O  O310  1  0.24433772  0.74287821  0.88092655  1
  O  O311  1  0.73148723  0.24563570  0.36840086  1
  O  O312  1  0.75572609  0.24162090  0.87930837  1
  O  O313  1  0.74089671  0.75358967  0.38845024  1
  O  O314  1  0.73835132  0.73857651  0.87176258  1
  O  O315  1  0.01217366  0.12046915  -0.00477557  1
  O  O316  1  0.01765116  0.13388808  0.50513709  1
  O  O317  1  0.01409163  0.61333095  -0.00789297  1
  O  O318  1  0.00006520  0.61595361  0.50080924  1
  O  O319  1  0.50671565  0.11885105  0.00835151  1
  O  O320  1  0.50258591  0.11873529  0.50806226  1
  O  O321  1  0.50570858  0.61770833  0.00965116  1
  O  O322  1  0.51009931  0.63448989  0.51753010  1
  O  O323  1  0.48922455  0.36557739  0.48494295  1
  O  O324  1  0.49002559  0.38429398  1.00370723  1
  O  O325  1  0.49362020  0.88086156  0.49714431  1
  O  O326  1  0.48985264  0.89067858  1.00134776  1
  O  O327  1  1.00971983  0.38271342  0.47320996  1
  O  O328  1  1.00471739  0.37985866  0.98319499  1
  O  O329  1  0.98538168  0.86495851  0.50220461  1
  O  O330  1  1.00215545  0.88603307  0.99924004  1
  O  O331  1  0.50030010  0.48293093  0.37172790  1
  O  O332  1  0.49155288  0.50929975  0.88946880  1
  O  O333  1  0.49471954  0.99509787  0.37750220  1
  O  O334  1  0.48778340  1.00843066  0.88348166  1
  O  O335  1  0.99343836  0.49421852  0.37190624  1
  O  O336  1  1.00302080  0.48475820  0.88120383  1
  O  O337  1  0.98655719  0.99628158  0.37355495  1
  O  O338  1  0.99018581  1.00707045  0.88072756  1
  O  O339  1  0.00171279  0.00440184  0.11078526  1
  O  O340  1  0.01252517  0.00995398  0.62731480  1
  O  O341  1  0.01877429  0.48503563  0.11078668  1
  O  O342  1  0.00876367  0.51057654  0.62950312  1
  O  O343  1  0.50424051  0.00696510  0.11734484  1
  O  O344  1  0.50125858  0.01030880  0.61992398  1
  O  O345  1  0.50351767  0.50432968  0.11535608  1
  O  O346  1  0.50619963  0.51488853  0.63328306  1
  O  O347  1  0.24727007  0.37605294  0.23852815  1
  O  O348  1  0.24308265  0.37519753  0.74224323  1
  O  O349  1  0.24018302  0.87277416  0.24229872  1
  O  O350  1  0.24105319  0.87700322  0.73495485  1
  O  O351  1  0.75214449  0.37090250  0.23574084  1
  O  O352  1  0.73223479  0.38481696  0.75671314  1
  O  O353  1  0.73989127  0.87886855  0.25478979  1
  O  O354  1  0.74061774  0.88611953  0.74458823  1
  O  O355  1  0.24663153  0.12453709  0.26238897  1
  O  O356  1  0.25489496  0.12603753  0.75596547  1
  O  O357  1  0.26070648  0.62833457  0.25129078  1
  O  O358  1  0.24600654  0.62449722  0.76221773  1
  O  O359  1  0.76327776  0.11998530  0.24937754  1
  O  O360  1  0.74073019  0.11224973  0.75874647  1
  O  O361  1  0.74974359  0.61257176  0.25620066  1
  O  O362  1  0.75365281  0.62048656  0.76073452  1
  O  O363  1  0.36772967  0.11439156  0.38038775  1
  O  O364  1  0.36497351  0.11659627  0.87228825  1
  O  O365  1  0.37648970  0.62516123  0.36732790  1
  O  O366  1  0.36357249  0.61459947  0.88428649  1
  O  O367  1  0.87501862  0.11814296  0.36613715  1
  O  O368  1  0.86187717  0.11381330  0.87839211  1
  O  O369  1  0.88669246  0.61837871  0.38514370  1
  O  O370  1  0.86745358  0.63469187  0.86757260  1
  O  O371  1  0.13456268  0.37788076  0.13149776  1
  O  O372  1  0.12940103  0.38761462  0.63290371  1
  O  O373  1  0.13447757  0.87606966  0.13072923  1
  O  O374  1  0.12854448  0.88092720  0.62682544  1
  O  O375  1  0.63017330  0.38069899  0.12136590  1
  O  O376  1  0.60422936  0.39319824  0.63948047  1
  O  O377  1  0.61901636  0.89317203  0.12277295  1
  O  O378  1  0.62989669  0.88259875  0.63004318  1
  O  O379  1  0.12257135  0.26021151  0.25028196  1
  O  O380  1  0.12097020  0.26262497  0.75449795  1
  O  O381  1  0.11659719  0.75558095  0.25047303  1
  O  O382  1  0.12642345  0.75954112  0.75789572  1
  O  O383  1  0.61193235  0.24074376  0.25415388  1
  O  O384  1  0.61546563  0.26625781  0.75557362  1
  O  O385  1  0.61626880  0.74668954  0.26130810  1
  O  O386  1  0.62480912  0.76991162  0.74580412  1
  O  O387  1  0.38529681  0.25309882  0.23553107  1
  O  O388  1  0.38037319  0.24559794  0.74489763  1
  O  O389  1  0.37967630  0.74494412  0.24639144  1
  O  O390  1  0.37055694  0.75854467  0.73608164  1
  O  O391  1  0.87710430  0.23988163  0.23798157  1
  O  O392  1  0.88873289  0.24577622  0.75481779  1
  O  O393  1  0.88644240  0.75114623  0.24739631  1
  O  O394  1  0.86647349  0.74494519  0.74052856  1
  O  O395  1  0.37309030  0.48543344  0.50154960  1
  O  O396  1  0.38106108  0.49329971  0.99514058  1
  O  O397  1  0.38014687  0.99321072  0.49202676  1
  O  O398  1  0.37981221  0.99730429  0.99139151  1
  O  O399  1  0.87350857  0.50276296  0.50131062  1
  O  O400  1  0.89107116  0.50715050  1.01154302  1
  O  O401  1  0.87084405  0.98917704  0.49387879  1
  O  O402  1  0.88436364  0.99788931  0.99092704  1
  O  O403  1  0.11806723  0.00682729  -0.00226720  1
  O  O404  1  0.13057172  0.00997703  0.50789717  1
  O  O405  1  0.12328226  0.50707856  0.00368832  1
  O  O406  1  0.13252877  0.51028139  0.51003709  1
  O  O407  1  0.61645061  0.00874518  0.00692334  1
  O  O408  1  0.61824406  0.00547162  0.50419770  1
  O  O409  1  0.61555865  0.50828883  0.00707955  1
  O  O410  1  0.62425795  0.51195904  0.52061481  1
  O  O411  1  0.36945228  0.37028689  0.11791583  1
  O  O412  1  0.37556035  0.36930590  0.61783492  1
  O  O413  1  0.36870815  0.86942856  0.11891348  1
  O  O414  1  0.36550689  0.87065544  0.61964341  1
  O  O415  1  0.86565427  0.35856163  0.12348804  1
  O  O416  1  0.89252722  0.36054238  0.63354712  1
  O  O417  1  0.88026889  0.85922981  0.12447745  1
  O  O418  1  0.86997096  0.86792883  0.62202424  1
  O  O419  1  0.13241052  0.12518233  0.38099668  1
  O  O420  1  0.13095658  0.13011297  0.87713192  1
  O  O421  1  0.12749362  0.62529080  0.38591667  1
  O  O422  1  0.13199795  0.63118162  0.87960647  1
  O  O423  1  0.62268864  0.12898179  0.38319789  1
  O  O424  1  0.63705861  0.11541267  0.88530852  1
  O  O425  1  0.61325778  0.64246323  0.39214347  1
  O  O426  1  0.63162602  0.62684606  0.88882979  1
