# generated using pymatgen
data_V85Zn86O256
_symmetry_space_group_name_H-M   'P 1'
_cell_length_a   16.96415021
_cell_length_b   16.96036209
_cell_length_c   16.92965462
_cell_angle_alpha   89.98470012
_cell_angle_beta   89.95914938
_cell_angle_gamma   90.01295848
_symmetry_Int_Tables_number   1
_chemical_formula_structural   V85Zn86O256
_chemical_formula_sum   'V85 Zn86 O256'
_cell_volume   4870.96703202
_cell_formula_units_Z   1
loop_
 _symmetry_equiv_pos_site_id
 _symmetry_equiv_pos_as_xyz
  1  'x, y, z'
loop_
 _atom_site_type_symbol
 _atom_site_label
 _atom_site_symmetry_multiplicity
 _atom_site_fract_x
 _atom_site_fract_y
 _atom_site_fract_z
 _atom_site_occupancy
  V  V0  1  0.87169416  0.75100880  0.62031537  1
  V  V1  1  0.87710962  0.62673580  0.24877832  1
  V  V2  1  -0.00372966  0.11468322  0.61827824  1
  V  V3  1  0.50074402  0.88627664  0.88014393  1
  V  V4  1  0.12354778  0.87931493  0.25225313  1
  V  V5  1  0.87657221  -0.00291317  0.89215305  1
  V  V6  1  0.24705219  0.13002479  0.37612310  1
  V  V7  1  0.37453105  0.88453343  0.00207688  1
  V  V8  1  0.62253248  0.74801353  0.37348780  1
  V  V9  1  0.00318493  0.37147097  0.37638247  1
  V  V10  1  0.24558458  0.25252273  0.49959302  1
  V  V11  1  -0.00246576  0.62443833  0.62636923  1
  V  V12  1  0.61067276  0.62379663  0.00500126  1
  V  V13  1  0.62579182  0.49836196  0.62671698  1
  V  V14  1  0.50465813  0.37223276  0.37279736  1
  V  V15  1  0.86697920  0.62705061  0.76248133  1
  V  V16  1  -0.00642241  0.88188381  0.38983715  1
  V  V17  1  0.75201142  -0.00285289  0.74927723  1
  V  V18  1  0.12661902  0.50120889  0.63607524  1
  V  V19  1  0.63138928  0.37362310  0.24630805  1
  V  V20  1  0.37659367  0.49784442  0.37296475  1
  V  V21  1  0.25548270  0.75399110  0.49611788  1
  V  V22  1  0.62593300  0.74312381  0.87769148  1
  V  V23  1  0.12714881  0.37215993  0.25256531  1
  V  V24  1  -0.00035482  0.75197478  0.25169855  1
  V  V25  1  0.37883905  0.25219149  0.62822167  1
  V  V26  1  0.49684807  0.12437673  0.62943256  1
  V  V27  1  0.00030286  0.49945342  0.50188919  1
  V  V28  1  0.11641434  0.12644305  0.49328482  1
  V  V29  1  0.25301797  0.38209553  0.63260936  1
  V  V30  1  0.87677052  0.75540304  0.12131544  1
  V  V31  1  0.75281439  0.74371641  -0.00285783  1
  V  V32  1  0.74764696  0.50507481  0.76845280  1
  V  V33  1  0.12141640  0.00058224  0.12078744  1
  V  V34  1  0.49007014  -0.00458644  0.49741935  1
  V  V35  1  0.00401375  0.24693618  0.25056790  1
  V  V36  1  0.62177901  -0.00578793  0.62340163  1
  V  V37  1  0.13271152  0.12637970  -0.00603951  1
  V  V38  1  0.61001339  0.50163854  0.12356938  1
  V  V39  1  0.37417434  0.12166737  0.25252955  1
  V  V40  1  0.50095387  0.24591989  0.76071274  1
  V  V41  1  0.80618515  0.91780411  0.56493904  1
  V  V42  1  0.37790322  0.75026362  0.62295954  1
  V  V43  1  0.74767553  0.25886605  -0.00070924  1
  V  V44  1  0.36701946  0.61528257  0.75580182  1
  V  V45  1  -0.00430012  0.12147562  0.11528573  1
  V  V46  1  0.25290164  0.37259140  0.11487487  1
  V  V47  1  0.62622187  0.36308458  0.75609622  1
  V  V48  1  0.15532432  0.02222007  0.63448350  1
  V  V49  1  0.62254180  0.87479737  0.24912105  1
  V  V50  1  0.49942600  0.74575518  0.24029812  1
  V  V51  1  0.87149955  0.12424402  0.25751697  1
  V  V52  1  0.12498209  0.62489071  0.50112748  1
  V  V53  1  0.87863258  0.25669051  0.62702934  1
  V  V54  1  0.74919086  0.00268680  0.25606121  1
  V  V55  1  0.87570119  0.12309460  0.75196914  1
  V  V56  1  0.25236131  0.87012504  0.62626344  1
  V  V57  1  0.37674062  0.25222570  0.11790430  1
  V  V58  1  -0.00286220  0.87946913  0.88790173  1
  V  V59  1  0.12887303  0.88126984  0.75074551  1
  V  V60  1  0.12365110  0.75152603  0.37661162  1
  V  V61  1  0.24862842  0.49768567  0.25084665  1
  V  V62  1  0.75277238  0.37858405  0.62795836  1
  V  V63  1  0.50086273  0.62355811  0.62627816  1
  V  V64  1  0.50112941  0.24864296  0.25318698  1
  V  V65  1  0.25060680  0.62317273  0.37483254  1
  V  V66  1  0.74870360  0.75081997  0.50139449  1
  V  V67  1  0.87283688  0.26124330  0.11999536  1
  V  V68  1  0.12538737  0.74759831  0.87828996  1
  V  V69  1  0.49875951  0.38363005  0.88650679  1
  V  V70  1  0.75012585  0.62254699  0.37381343  1
  V  V71  1  0.12469436  0.50527783  0.11535180  1
  V  V72  1  -0.00129797  0.75272367  0.75156503  1
  V  V73  1  0.75214117  0.87575475  0.11975936  1
  V  V74  1  0.50140105  0.11531082  0.11886820  1
  V  V75  1  0.37775096  0.62312525  0.24158331  1
  V  V76  1  0.35714689  0.00690251  0.86127969  1
  V  V77  1  0.75371937  0.49739186  0.23860166  1
  V  V78  1  0.63144278  0.87164570  0.75086895  1
  V  V79  1  0.00650451  0.25224140  0.75315688  1
  V  V80  1  0.49906127  0.74936416  0.75316921  1
  V  V81  1  0.74359845  0.12754408  0.87646669  1
  V  V82  1  0.24781307  0.74622428  0.00030785  1
  V  V83  1  0.62528604  0.62263118  0.49979727  1
  V  V84  1  -0.01887732  0.50151775  -0.00405377  1
  Zn  Zn85  1  0.24617076  0.00128347  0.25323595  1
  Zn  Zn86  1  0.87662791  0.50081606  0.37412400  1
  Zn  Zn87  1  0.87455401  0.37676115  0.49857378  1
  Zn  Zn88  1  0.13614062  0.24987927  0.87239505  1
  Zn  Zn89  1  0.26031537  0.24730600  -0.01221079  1
  Zn  Zn90  1  0.23840924  0.61352889  0.87627694  1
  Zn  Zn91  1  0.13010498  0.38007676  0.75943868  1
  Zn  Zn92  1  0.00766239  0.62913228  0.12155800  1
  Zn  Zn93  1  0.36471572  -0.00653009  0.38245466  1
  Zn  Zn94  1  0.62228284  -0.00388511  0.11822836  1
  Zn  Zn95  1  0.48716282  0.86845102  0.37895952  1
  Zn  Zn96  1  0.24904813  0.87568890  0.12568799  1
  Zn  Zn97  1  0.87313705  -0.00037868  0.38730455  1
  Zn  Zn98  1  0.74544220  0.25407288  0.49357465  1
  Zn  Zn99  1  -0.00628037  0.36982552  0.89172039  1
  Zn  Zn100  1  0.62461181  0.12848363  0.48982256  1
  Zn  Zn101  1  0.37471858  0.75067204  0.12099543  1
  Zn  Zn102  1  0.65028241  0.23094564  0.36439509  1
  Zn  Zn103  1  0.62399823  0.12012544  -0.00520934  1
  Zn  Zn104  1  0.37538658  0.37464810  0.49736509  1
  Zn  Zn105  1  0.36385691  0.49162308  0.89086493  1
  Zn  Zn106  1  0.50079954  0.49708607  0.49860147  1
  Zn  Zn107  1  0.18718538  0.18708647  0.18359817  1
  Zn  Zn108  1  0.18975735  0.19074710  0.68468694  1
  Zn  Zn109  1  0.19014403  0.68933489  0.18824356  1
  Zn  Zn110  1  0.18685177  0.68967521  0.69043413  1
  Zn  Zn111  1  0.68943960  0.18666700  0.18435946  1
  Zn  Zn112  1  0.69284252  0.18079370  0.66729579  1
  Zn  Zn113  1  0.68764525  0.68483639  0.18413489  1
  Zn  Zn114  1  0.69032181  0.68913406  0.68646718  1
  Zn  Zn115  1  0.31483422  0.30988648  0.30982959  1
  Zn  Zn116  1  0.31618078  0.31153041  0.81416415  1
  Zn  Zn117  1  0.31306110  0.81328669  0.31184623  1
  Zn  Zn118  1  0.31362659  0.81390192  0.81424279  1
  Zn  Zn119  1  0.81913098  0.31539074  0.30989453  1
  Zn  Zn120  1  0.81473342  0.31292887  0.82034709  1
  Zn  Zn121  1  0.81134027  0.81483996  0.31311081  1
  Zn  Zn122  1  0.81353931  0.81157314  0.81635767  1
  Zn  Zn123  1  0.18568748  0.43543302  0.44052199  1
  Zn  Zn124  1  0.18409610  0.43382413  0.93077390  1
  Zn  Zn125  1  0.18336512  0.94315209  0.44301856  1
  Zn  Zn126  1  0.18764927  0.93781017  0.93962241  1
  Zn  Zn127  1  0.69040818  0.43496241  0.43515331  1
  Zn  Zn128  1  0.68011144  0.43516125  0.94114836  1
  Zn  Zn129  1  0.67471427  0.94463359  0.43013722  1
  Zn  Zn130  1  0.68824038  0.93792371  0.93935166  1
  Zn  Zn131  1  0.31082927  0.05916034  0.06493140  1
  Zn  Zn132  1  0.31035061  0.07139527  0.57449549  1
  Zn  Zn133  1  0.30645584  0.56405473  0.05939960  1
  Zn  Zn134  1  0.31386378  0.56350015  0.56137429  1
  Zn  Zn135  1  0.80782525  0.06576716  0.06695688  1
  Zn  Zn136  1  0.80762107  0.08137258  0.55938803  1
  Zn  Zn137  1  0.80895070  0.56900182  0.06291134  1
  Zn  Zn138  1  0.81360754  0.56208313  0.56627111  1
  Zn  Zn139  1  0.43707854  0.43349943  0.06331119  1
  Zn  Zn140  1  0.44126140  0.43397710  0.69048200  1
  Zn  Zn141  1  0.43385006  0.93565619  0.19197997  1
  Zn  Zn142  1  0.43788331  0.93343532  0.69033809  1
  Zn  Zn143  1  0.94222685  0.43862746  0.18525322  1
  Zn  Zn144  1  0.92099739  0.42320141  0.72937075  1
  Zn  Zn145  1  0.93774485  0.93907007  0.19007323  1
  Zn  Zn146  1  0.94531533  0.94035650  0.69529448  1
  Zn  Zn147  1  0.05814051  0.06195085  0.31396719  1
  Zn  Zn148  1  0.06042684  0.06190474  0.81273330  1
  Zn  Zn149  1  0.06317095  0.56098698  0.31147751  1
  Zn  Zn150  1  0.05461705  0.56438868  0.81638369  1
  Zn  Zn151  1  0.56213030  0.06146561  0.31230977  1
  Zn  Zn152  1  0.56180220  0.06212862  0.80962045  1
  Zn  Zn153  1  0.56160761  0.56023052  0.30822485  1
  Zn  Zn154  1  0.56172976  0.56222177  0.81334091  1
  Zn  Zn155  1  0.43789311  0.18405051  0.44140236  1
  Zn  Zn156  1  0.43597503  0.18213891  0.93405030  1
  Zn  Zn157  1  0.43904736  0.68477802  0.43522775  1
  Zn  Zn158  1  0.43356307  0.69079048  0.93741295  1
  Zn  Zn159  1  0.93207722  0.19299231  0.43632102  1
  Zn  Zn160  1  0.93512174  0.18598877  0.93765287  1
  Zn  Zn161  1  0.93711717  0.69013179  0.43785674  1
  Zn  Zn162  1  0.94379122  0.68623907  0.94256521  1
  Zn  Zn163  1  0.06220536  0.31461457  0.06242611  1
  Zn  Zn164  1  0.06412708  0.31294033  0.56891074  1
  Zn  Zn165  1  0.06357043  0.81376097  0.06286711  1
  Zn  Zn166  1  0.06623855  0.81423964  0.56705287  1
  Zn  Zn167  1  0.57061948  0.30582924  0.06721000  1
  Zn  Zn168  1  0.56559582  0.31004262  0.55788777  1
  Zn  Zn169  1  0.56157326  0.81448240  0.06057910  1
  Zn  Zn170  1  0.56242340  0.81370034  0.56226749  1
  O  O171  1  0.11595074  0.11883847  0.11951974  1
  O  O172  1  0.10906412  0.12886068  0.61397269  1
  O  O173  1  0.12662400  0.60866035  0.13439492  1
  O  O174  1  0.12010740  0.62109079  0.62149928  1
  O  O175  1  0.60790820  0.12298585  0.13155626  1
  O  O176  1  0.60931978  0.10456758  0.63869328  1
  O  O177  1  0.62346575  0.61134588  0.12170808  1
  O  O178  1  0.62144150  0.61748804  0.62207505  1
  O  O179  1  0.38306051  0.38200780  0.37238262  1
  O  O180  1  0.39492194  0.37761717  0.86888790  1
  O  O181  1  0.37504130  0.88137691  0.37241646  1
  O  O182  1  0.38295253  0.88239283  0.88052610  1
  O  O183  1  0.89174075  0.38183648  0.37559742  1
  O  O184  1  0.89554587  0.38437529  0.83621270  1
  O  O185  1  0.88979069  0.87418536  0.37408374  1
  O  O186  1  0.88443092  0.88564283  0.86780702  1
  O  O187  1  0.24671690  0.01516497  0.37630006  1
  O  O188  1  0.25724692  -0.00331958  0.87009359  1
  O  O189  1  0.25479898  0.50280440  0.37203540  1
  O  O190  1  0.25143089  0.50170426  0.87526116  1
  O  O191  1  0.75467662  -0.01164123  0.35993878  1
  O  O192  1  0.75933233  0.00427133  0.86673569  1
  O  O193  1  0.75372717  0.50784278  0.36537979  1
  O  O194  1  0.74064693  0.50111905  0.86746723  1
  O  O195  1  0.24080010  0.49226739  0.13103894  1
  O  O196  1  0.24038824  0.49365794  0.61654751  1
  O  O197  1  0.23554486  0.99841412  0.13155772  1
  O  O198  1  0.25740136  0.97014862  0.59946847  1
  O  O199  1  0.74397761  0.50526557  0.13642701  1
  O  O200  1  0.74206466  0.49494494  0.63303543  1
  O  O201  1  0.75190823  0.98896397  0.13547459  1
  O  O202  1  0.74498788  0.98945545  0.62754807  1
  O  O203  1  0.00771051  0.36924557  0.25585545  1
  O  O204  1  0.01410684  0.35510882  0.72947849  1
  O  O205  1  0.00882536  0.87018592  0.25803630  1
  O  O206  1  0.00968529  0.86836652  0.75631870  1
  O  O207  1  0.50986418  0.36280172  0.26085303  1
  O  O208  1  0.51014515  0.36768661  0.75666435  1
  O  O209  1  0.50734878  0.86631730  0.25090752  1
  O  O210  1  0.51133213  0.86753612  0.75761172  1
  O  O211  1  0.49166081  0.12908428  0.24472615  1
  O  O212  1  0.50199493  0.13582494  0.74548837  1
  O  O213  1  0.48919619  0.63272288  0.25583178  1
  O  O214  1  0.49447463  0.63100672  0.74408868  1
  O  O215  1  0.99566119  0.13262388  0.24320906  1
  O  O216  1  0.99288086  0.13086900  0.74213652  1
  O  O217  1  0.99252754  0.63206212  0.24907079  1
  O  O218  1  0.98685782  0.63203089  0.74559337  1
  O  O219  1  0.37725181  0.24309276  0.01404360  1
  O  O220  1  0.36715521  0.25050217  0.51048512  1
  O  O221  1  0.36534466  0.76051043  -0.00061644  1
  O  O222  1  0.36700586  0.74054327  0.50915459  1
  O  O223  1  0.86905170  0.24669205  0.01286901  1
  O  O224  1  0.87387215  0.25486637  0.51700234  1
  O  O225  1  0.86740517  0.74422716  0.01022698  1
  O  O226  1  0.86927162  0.74874065  0.51216937  1
  O  O227  1  0.13798107  0.24322223  0.50726856  1
  O  O228  1  0.12318262  0.23426059  1.00324881  1
  O  O229  1  0.13092565  0.74216789  0.49635272  1
  O  O230  1  0.13280900  0.75785863  0.98952478  1
  O  O231  1  0.62465602  0.25158661  0.48378478  1
  O  O232  1  0.64411501  0.23996499  1.00886092  1
  O  O233  1  0.62807131  0.74309272  0.49502092  1
  O  O234  1  0.63042826  0.74464849  0.99549664  1
  O  O235  1  0.49515051  0.24357411  0.13698582  1
  O  O236  1  0.49706151  0.24351440  0.62928940  1
  O  O237  1  0.49856336  0.75145980  0.13723670  1
  O  O238  1  0.49435030  0.74458848  0.62977500  1
  O  O239  1  0.98991923  0.24350172  0.12942597  1
  O  O240  1  0.99310098  0.24054836  0.62936271  1
  O  O241  1  0.99361698  0.74986576  0.13115790  1
  O  O242  1  0.99282102  0.74592123  0.63083050  1
  O  O243  1  -0.00417666  0.25964162  0.36416946  1
  O  O244  1  -0.00077466  0.24587625  0.86321729  1
  O  O245  1  0.00556208  0.75849261  0.37128101  1
  O  O246  1  0.00532386  0.75858197  0.87087635  1
  O  O247  1  0.49419287  0.25316046  0.36297175  1
  O  O248  1  0.49647890  0.25530676  0.86450073  1
  O  O249  1  0.50819226  0.74958341  0.36760876  1
  O  O250  1  0.50709009  0.75861132  0.86966768  1
  O  O251  1  0.24308907  0.13455281  0.49502917  1
  O  O252  1  0.23550127  0.12803926  1.00892594  1
  O  O253  1  0.24492270  0.63296229  0.49441061  1
  O  O254  1  0.25064685  0.64200319  0.99535211  1
  O  O255  1  0.72483540  0.15085114  0.54905973  1
  O  O256  1  0.75284172  0.13237505  0.99011925  1
  O  O257  1  0.74532232  0.62887174  0.49444952  1
  O  O258  1  0.73712044  0.63946813  1.00698000  1
  O  O259  1  0.24073584  0.36775478  0.01340015  1
  O  O260  1  0.25200180  0.36709242  0.50592464  1
  O  O261  1  0.25728557  0.86717072  0.00120002  1
  O  O262  1  0.23986742  0.85650214  0.50094506  1
  O  O263  1  0.74729313  0.35821328  -0.00576394  1
  O  O264  1  0.75525098  0.37878792  0.51365787  1
  O  O265  1  0.74504189  0.86270269  0.01435240  1
  O  O266  1  0.74049549  0.86917613  0.49834027  1
  O  O267  1  0.12970473  0.49108245  0.24412044  1
  O  O268  1  0.11684109  0.50217605  0.73892903  1
  O  O269  1  0.12356280  0.99332289  0.24572389  1
  O  O270  1  0.12003305  0.99101642  0.74089441  1
  O  O271  1  0.63205510  0.49544942  0.24023257  1
  O  O272  1  0.63093332  0.49574443  0.74342412  1
  O  O273  1  0.63048072  0.98910352  0.24477778  1
  O  O274  1  0.63243774  0.98972002  0.74572548  1
  O  O275  1  0.36945197  0.01300814  0.25106630  1
  O  O276  1  0.37512240  -0.00671056  0.76228934  1
  O  O277  1  0.36489263  0.50821820  0.26257945  1
  O  O278  1  0.38085893  0.51524693  0.74715495  1
  O  O279  1  0.86764664  0.00790887  0.25199986  1
  O  O280  1  0.86944768  0.01100849  0.74919628  1
  O  O281  1  0.87099712  0.50906219  0.24771778  1
  O  O282  1  0.86166694  0.52071755  0.74315592  1
  O  O283  1  0.11711169  0.37921246  0.36258279  1
  O  O284  1  0.11218498  0.36709665  0.87333719  1
  O  O285  1  0.11603792  0.87314524  0.37147240  1
  O  O286  1  0.11834359  0.87176974  0.86756053  1
  O  O287  1  0.61837972  0.37990610  0.36170280  1
  O  O288  1  0.61320842  0.37434380  0.86647202  1
  O  O289  1  0.62075285  0.86725379  0.36158863  1
  O  O290  1  0.61898771  0.86633129  0.87085607  1
  O  O291  1  0.38359207  0.12861550  0.13174058  1
  O  O292  1  0.38932835  0.13635024  0.62567486  1
  O  O293  1  0.36662175  0.62758070  0.13957459  1
  O  O294  1  0.37989686  0.63176211  0.63315511  1
  O  O295  1  0.88271914  0.12910695  0.13472674  1
  O  O296  1  0.88061502  0.13426378  0.63311862  1
  O  O297  1  0.87405173  0.63760363  0.13707218  1
  O  O298  1  0.87911396  0.63526262  0.63094507  1
  O  O299  1  0.26068479  0.25717689  0.12697457  1
  O  O300  1  0.26034771  0.25931010  0.61943432  1
  O  O301  1  0.24913043  0.75489072  0.11573124  1
  O  O302  1  0.25667551  0.75281759  0.61683229  1
  O  O303  1  0.76439467  0.24424691  0.11504049  1
  O  O304  1  0.76108764  0.27111243  0.63855438  1
  O  O305  1  0.75770952  0.75606196  0.12152950  1
  O  O306  1  0.75771282  0.75159936  0.61594120  1
  O  O307  1  0.25507336  0.24023461  0.38427832  1
  O  O308  1  0.25072319  0.24844124  0.87536135  1
  O  O309  1  0.24394454  0.74301074  0.37977809  1
  O  O310  1  0.24048958  0.75166118  0.88111677  1
  O  O311  1  0.76170149  0.25302046  0.38033602  1
  O  O312  1  0.75980171  0.24101951  0.88847268  1
  O  O313  1  0.74321922  0.74334179  0.38009308  1
  O  O314  1  0.73990057  0.75685263  0.88623481  1
  O  O315  1  0.00478212  0.12656412  0.01215534  1
  O  O316  1  0.00509906  0.13117973  0.50425156  1
  O  O317  1  -0.00168823  0.61048573  0.00750426  1
  O  O318  1  0.00475083  0.61970490  0.50453636  1
  O  O319  1  0.50281303  0.13189744  0.01646948  1
  O  O320  1  0.50413425  0.11522933  0.51110450  1
  O  O321  1  0.51173497  0.63544762  0.00105091  1
  O  O322  1  0.50755868  0.62108874  0.50773156  1
  O  O323  1  0.49882986  0.37591763  0.48499788  1
  O  O324  1  0.50705619  0.36800122  0.99076724  1
  O  O325  1  0.50334680  0.89058675  0.50000493  1
  O  O326  1  0.48892314  0.86938049  0.99102894  1
  O  O327  1  1.00308328  0.38141439  0.49363004  1
  O  O328  1  1.00003586  0.39363967  1.00727151  1
  O  O329  1  1.00462886  0.87062082  0.48821529  1
  O  O330  1  1.00172999  0.87425768  0.98736845  1
  O  O331  1  0.49256460  0.49029590  0.37181641  1
  O  O332  1  0.50204638  0.48513613  0.87519337  1
  O  O333  1  0.49710860  1.00001926  0.39036416  1
  O  O334  1  0.49994445  0.98781860  0.87174446  1
  O  O335  1  1.00146089  0.49409263  0.38455826  1
  O  O336  1  1.00000623  0.50271978  0.89355629  1
  O  O337  1  0.99632696  0.98612743  0.37721624  1
  O  O338  1  0.98786387  0.99191210  0.86930816  1
  O  O339  1  0.00945508  0.00899514  0.13173564  1
  O  O340  1  0.00420090  0.01366428  0.62810021  1
  O  O341  1  0.01209743  0.50294740  0.12088233  1
  O  O342  1  0.00916950  0.50844658  0.61622107  1
  O  O343  1  0.49737085  0.01320170  0.12969571  1
  O  O344  1  0.50236230  0.00290832  0.61996733  1
  O  O345  1  0.51230430  0.49518152  0.13142418  1
  O  O346  1  0.51273397  0.50206674  0.62457832  1
  O  O347  1  0.24275528  0.37717476  0.24549293  1
  O  O348  1  0.24944930  0.37289927  0.73580322  1
  O  O349  1  0.23311132  0.87437158  0.25081899  1
  O  O350  1  0.24039011  0.86691016  0.73949796  1
  O  O351  1  0.74383168  0.38566387  0.25375268  1
  O  O352  1  0.74160638  0.38582270  0.74859939  1
  O  O353  1  0.74192200  0.87681173  0.24127593  1
  O  O354  1  0.73746680  0.87617659  0.75476780  1
  O  O355  1  0.25541485  0.12862319  0.25883642  1
  O  O356  1  0.23252907  0.08663277  0.67286730  1
  O  O357  1  0.25502819  0.61997460  0.25855709  1
  O  O358  1  0.26464300  0.63065424  0.75109233  1
  O  O359  1  0.75967743  0.11412087  0.24125509  1
  O  O360  1  0.75919927  0.12166139  0.75297382  1
  O  O361  1  0.75790044  0.62032212  0.25463388  1
  O  O362  1  0.75860545  0.62185519  0.74972166  1
  O  O363  1  0.36604019  0.12274320  0.36870580  1
  O  O364  1  0.37764433  0.10457998  0.87780847  1
  O  O365  1  0.36889240  0.61773446  0.36905156  1
  O  O366  1  0.37716832  0.62460008  0.86087241  1
  O  O367  1  0.88267429  0.11959235  0.36220853  1
  O  O368  1  0.86953664  0.11618258  0.86767512  1
  O  O369  1  0.87077568  0.62592587  0.36402822  1
  O  O370  1  0.87620377  0.63755832  0.86043403  1
  O  O371  1  0.13011114  0.38294421  0.13569716  1
  O  O372  1  0.13602137  0.38635884  0.62407054  1
  O  O373  1  0.12154846  0.88412832  0.13421614  1
  O  O374  1  0.13428679  0.88181230  0.63330909  1
  O  O375  1  0.62352312  0.38458442  0.13733071  1
  O  O376  1  0.63188422  0.38206343  0.63168884  1
  O  O377  1  0.63218275  0.87232084  0.13447023  1
  O  O378  1  0.61777239  0.88451662  0.63630760  1
  O  O379  1  0.11217209  0.25699092  0.24159103  1
  O  O380  1  0.11843965  0.24332859  0.75212791  1
  O  O381  1  0.11850529  0.75640265  0.25667536  1
  O  O382  1  0.11895370  0.76151132  0.75383275  1
  O  O383  1  0.62096260  0.25669898  0.24955782  1
  O  O384  1  0.61982765  0.25968702  0.74011590  1
  O  O385  1  0.61870034  0.75266236  0.25318179  1
  O  O386  1  0.62137488  0.75350054  0.75714266  1
  O  O387  1  0.38259962  0.23927705  0.24244656  1
  O  O388  1  0.38785356  0.25834714  0.73572994  1
  O  O389  1  0.38259100  0.74102477  0.24948142  1
  O  O390  1  0.38185825  0.74200551  0.74415508  1
  O  O391  1  0.88367142  0.24293911  0.23953372  1
  O  O392  1  0.88178140  0.23902026  0.74215136  1
  O  O393  1  0.88034840  0.74483334  0.24593388  1
  O  O394  1  0.87449740  0.74369360  0.73994216  1
  O  O395  1  0.37761900  0.50038582  0.48577771  1
  O  O396  1  0.37978938  0.50535854  1.00257819  1
  O  O397  1  0.38865599  1.00829655  0.50466060  1
  O  O398  1  0.36738377  0.98807868  0.99214931  1
  O  O399  1  0.88884994  0.50035936  0.50095822  1
  O  O400  1  0.88194628  0.50241911  1.00720110  1
  O  O401  1  0.85501136  0.99404786  0.50637058  1
  O  O402  1  0.86954290  1.00172998  0.99104042  1
  O  O403  1  0.12657099  0.01118165  0.00951854  1
  O  O404  1  0.13292890  0.01729594  0.51959898  1
  O  O405  1  0.12632029  0.49860119  0.01529420  1
  O  O406  1  0.11626678  0.50623044  0.50550910  1
  O  O407  1  0.63233213  0.00652790  0.00574873  1
  O  O408  1  0.61538410  0.00196431  0.51029013  1
  O  O409  1  0.62843430  0.50720881  0.01551576  1
  O  O410  1  0.62620731  0.50470238  0.50900760  1
  O  O411  1  0.36639755  0.36479036  0.12751086  1
  O  O412  1  0.37109876  0.37249617  0.62001458  1
  O  O413  1  0.37199147  0.87423792  0.11706953  1
  O  O414  1  0.37088258  0.85699271  0.63136576  1
  O  O415  1  0.87703863  0.35907296  0.13258682  1
  O  O416  1  0.87034812  0.37203813  0.63184492  1
  O  O417  1  0.86827288  0.86332063  0.13294704  1
  O  O418  1  0.87652463  0.87013114  0.62863421  1
  O  O419  1  0.12806091  0.12322282  0.38563880  1
  O  O420  1  0.11866278  0.12197914  0.89189494  1
  O  O421  1  0.13046622  0.63033338  0.37978376  1
  O  O422  1  0.12294480  0.64380926  0.86395174  1
  O  O423  1  0.63244338  0.11793490  0.37568860  1
  O  O424  1  0.64088727  0.12141476  0.87027570  1
  O  O425  1  0.63014743  0.62771786  0.37887426  1
  O  O426  1  0.61961173  0.63711412  0.88204016  1
