# generated using pymatgen
data_V85Zn86O256
_symmetry_space_group_name_H-M   'P 1'
_cell_length_a   16.92840671
_cell_length_b   16.93640861
_cell_length_c   16.93369861
_cell_angle_alpha   90.02506801
_cell_angle_beta   90.05405592
_cell_angle_gamma   89.96574846
_symmetry_Int_Tables_number   1
_chemical_formula_structural   V85Zn86O256
_chemical_formula_sum   'V85 Zn86 O256'
_cell_volume   4854.99649772
_cell_formula_units_Z   1
loop_
 _symmetry_equiv_pos_site_id
 _symmetry_equiv_pos_as_xyz
  1  'x, y, z'
loop_
 _atom_site_type_symbol
 _atom_site_label
 _atom_site_symmetry_multiplicity
 _atom_site_fract_x
 _atom_site_fract_y
 _atom_site_fract_z
 _atom_site_occupancy
  V  V0  1  0.75365581  0.62324545  0.37420001  1
  V  V1  1  0.62639909  0.87010778  0.24871949  1
  V  V2  1  0.63079205  0.12098682  0.49989211  1
  V  V3  1  0.25647448  0.61851379  0.37784059  1
  V  V4  1  0.12072509  0.26058662  0.37483829  1
  V  V5  1  0.50356858  0.12485078  0.62861863  1
  V  V6  1  0.36872593  0.87203665  0.49762606  1
  V  V7  1  0.89028908  0.49501176  0.37654676  1
  V  V8  1  0.24742419  0.00173693  0.23980085  1
  V  V9  1  0.62091359  -0.00125097  0.12354626  1
  V  V10  1  -0.00157100  0.00111085  0.50004060  1
  V  V11  1  0.74814680  0.37809539  0.12525970  1
  V  V12  1  0.87807203  0.50381200  0.87862913  1
  V  V13  1  0.49823966  0.87012350  0.37466817  1
  V  V14  1  0.87873039  0.62638007  0.74231854  1
  V  V15  1  -0.00916272  0.24756461  0.25511480  1
  V  V16  1  0.12993964  0.86685562  0.75318543  1
  V  V17  1  0.75053054  0.62536235  0.87345970  1
  V  V18  1  0.37744389  0.13377905  0.75195956  1
  V  V19  1  0.75159296  0.00759584  0.25223427  1
  V  V20  1  0.25318299  0.25142581  0.01571063  1
  V  V21  1  0.00301064  0.75194882  0.75090680  1
  V  V22  1  0.87390836  0.23716956  0.12652597  1
  V  V23  1  0.50406012  -0.00020971  0.50487549  1
  V  V24  1  0.52300349  0.37562731  0.37468951  1
  V  V25  1  0.01922342  0.89378000  0.88325926  1
  V  V26  1  0.25141112  0.00284710  0.75228381  1
  V  V27  1  0.00319177  0.24689025  0.75393863  1
  V  V28  1  0.63123079  0.49922218  0.62518518  1
  V  V29  1  0.37777847  0.25372889  0.62370917  1
  V  V30  1  0.11349761  0.63174418  0.50084003  1
  V  V31  1  0.61433498  0.25195521  0.87160982  1
  V  V32  1  0.12606652  0.25000981  0.88625702  1
  V  V33  1  0.87805317  0.37707388  -0.00034972  1
  V  V34  1  0.10961459  0.50091497  0.61882925  1
  V  V35  1  0.75389386  0.74965999  0.49993963  1
  V  V36  1  0.63175242  0.50687385  0.12397413  1
  V  V37  1  0.75179424  0.74975874  -0.00105003  1
  V  V38  1  0.12445533  0.12633029  0.49960206  1
  V  V39  1  0.24942776  0.12703378  0.88526396  1
  V  V40  1  0.88054410  0.62204768  0.24447546  1
  V  V41  1  0.10274287  0.50068958  0.12246950  1
  V  V42  1  0.49885973  0.62394522  0.62289150  1
  V  V43  1  0.74054969  0.00210971  0.74123221  1
  V  V44  1  0.87277437  0.25744052  0.62770728  1
  V  V45  1  0.62426325  0.75135272  0.87188146  1
  V  V46  1  0.88765673  0.37657505  0.49572129  1
  V  V47  1  0.25057439  0.87494318  0.62213669  1
  V  V48  1  0.37251837  0.38126576  0.48958363  1
  V  V49  1  0.49770303  0.50153903  0.00023093  1
  V  V50  1  0.88099503  0.74861126  0.12268256  1
  V  V51  1  0.37154899  0.37312273  0.00252230  1
  V  V52  1  0.74355268  0.25999268  0.50323075  1
  V  V53  1  0.00112117  0.12658769  0.62866239  1
  V  V54  1  0.49876597  0.75067822  0.74887596  1
  V  V55  1  0.38162070  0.13611300  0.24595318  1
  V  V56  1  0.62463708  0.62399610  0.49995883  1
  V  V57  1  -0.00169909  0.87633553  0.37491980  1
  V  V58  1  0.24769126  0.12442924  0.37504760  1
  V  V59  1  0.12456214  0.00163292  0.62768934  1
  V  V60  1  0.74819329  0.25018297  -0.00489555  1
  V  V61  1  0.48917185  0.73704253  0.23484789  1
  V  V62  1  0.23749574  0.62762020  0.87463543  1
  V  V63  1  0.24253899  0.74685869  -0.00274488  1
  V  V64  1  0.49733249  0.87651847  0.87567122  1
  V  V65  1  0.25091822  0.86337716  0.12897671  1
  V  V66  1  0.37488691  0.87022109  0.00618045  1
  V  V67  1  0.86939974  0.00030964  0.87344161  1
  V  V68  1  0.00252881  0.37952580  0.87762519  1
  V  V69  1  0.74467376  0.87809549  0.62275025  1
  V  V70  1  0.62368534  0.36971848  0.74187520  1
  V  V71  1  0.87901786  0.87978495  -0.00140462  1
  V  V72  1  0.87164556  0.01249142  0.37228175  1
  V  V73  1  0.62404145  0.74692376  0.37232435  1
  V  V74  1  0.00429637  0.74511421  0.25024745  1
  V  V75  1  0.37395828  0.62345427  0.75326812  1
  V  V76  1  0.61946800  0.62693506  -0.00125322  1
  V  V77  1  0.74747326  0.12669228  0.87194309  1
  V  V78  1  0.37331866  0.00056303  0.37441780  1
  V  V79  1  0.12223728  0.87921529  0.24398635  1
  V  V80  1  0.30097474  0.43412427  0.18085346  1
  V  V81  1  0.36887148  0.74755675  0.61959658  1
  V  V82  1  0.01819334  0.11542114  0.11527782  1
  V  V83  1  0.74782294  0.49784817  0.25053000  1
  V  V84  1  0.24880187  0.49793637  0.74665023  1
  Zn  Zn85  1  0.36565435  0.61326923  0.24786285  1
  Zn  Zn86  1  0.75251978  0.49576760  0.74688862  1
  Zn  Zn87  1  0.61966962  0.87916827  0.74328047  1
  Zn  Zn88  1  0.87492209  0.87675488  0.50142314  1
  Zn  Zn89  1  0.10948725  0.62451523  0.00306917  1
  Zn  Zn90  1  0.61903259  0.12249693  -0.00233254  1
  Zn  Zn91  1  0.37577495  0.00149467  0.87861410  1
  Zn  Zn92  1  0.49613476  0.14078819  0.12179615  1
  Zn  Zn93  1  0.37276918  0.49877308  0.87668475  1
  Zn  Zn94  1  0.25093541  0.37524892  0.62526260  1
  Zn  Zn95  1  0.54931167  0.26451189  0.25790685  1
  Zn  Zn96  1  0.24939691  0.25050798  0.50236977  1
  Zn  Zn97  1  0.87731017  0.74960472  0.62386958  1
  Zn  Zn98  1  0.13396675  0.75269724  0.38187868  1
  Zn  Zn99  1  0.49675798  0.00137602  0.00433207  1
  Zn  Zn100  1  0.12495950  0.37812305  0.24470054  1
  Zn  Zn101  1  0.12730514  0.37608509  0.74987513  1
  Zn  Zn102  1  0.87344928  0.12526787  0.74920902  1
  Zn  Zn103  1  0.75256266  0.87448565  0.12497525  1
  Zn  Zn104  1  0.49407254  0.50311622  0.49475376  1
  Zn  Zn105  1  0.70229574  0.17063545  0.34059194  1
  Zn  Zn106  1  0.49688260  0.37451363  0.87082121  1
  Zn  Zn107  1  0.18106575  0.18613386  0.19238993  1
  Zn  Zn108  1  0.18961471  0.19040610  0.69192031  1
  Zn  Zn109  1  0.18600901  0.67831358  0.18847322  1
  Zn  Zn110  1  0.18682120  0.68336933  0.68055238  1
  Zn  Zn111  1  0.67694941  0.19294583  0.17301818  1
  Zn  Zn112  1  0.68596815  0.18920758  0.68411435  1
  Zn  Zn113  1  0.69162323  0.68647346  0.18552477  1
  Zn  Zn114  1  0.68886770  0.68873027  0.68696535  1
  Zn  Zn115  1  0.31114107  0.30916572  0.31748737  1
  Zn  Zn116  1  0.31232995  0.31353971  0.81721074  1
  Zn  Zn117  1  0.30735453  0.80354906  0.31599562  1
  Zn  Zn118  1  0.31268956  0.81033050  0.81397980  1
  Zn  Zn119  1  0.79981239  0.30960669  0.31142596  1
  Zn  Zn120  1  0.80906016  0.31573441  0.80950734  1
  Zn  Zn121  1  0.81483036  0.81461491  0.31287966  1
  Zn  Zn122  1  0.81356852  0.81578510  0.80996689  1
  Zn  Zn123  1  0.18815967  0.44102710  0.44098277  1
  Zn  Zn124  1  0.18724967  0.44147338  0.94543849  1
  Zn  Zn125  1  0.18444768  0.93910564  0.43415641  1
  Zn  Zn126  1  0.19073586  0.93327719  0.93674798  1
  Zn  Zn127  1  0.69664497  0.44156392  0.44385453  1
  Zn  Zn128  1  0.68844322  0.43801827  0.93332890  1
  Zn  Zn129  1  0.68637086  0.93830653  0.43626848  1
  Zn  Zn130  1  0.68731282  0.93543774  0.93664894  1
  Zn  Zn131  1  0.31480120  0.05916996  0.06521748  1
  Zn  Zn132  1  0.31488875  0.06333958  0.56294579  1
  Zn  Zn133  1  0.32018312  0.57646368  0.06750709  1
  Zn  Zn134  1  0.30404026  0.56291915  0.55863385  1
  Zn  Zn135  1  0.80613936  0.05968814  0.06081251  1
  Zn  Zn136  1  0.81471831  0.06424093  0.56388056  1
  Zn  Zn137  1  0.93509447  0.56800812  0.05619107  1
  Zn  Zn138  1  0.81534470  0.55961143  0.56143731  1
  Zn  Zn139  1  0.46173188  0.43817832  0.18948401  1
  Zn  Zn140  1  0.44172517  0.43781456  0.68512018  1
  Zn  Zn141  1  0.43616509  0.93397414  0.18999251  1
  Zn  Zn142  1  0.43509716  0.94015806  0.68780939  1
  Zn  Zn143  1  0.93518086  0.42800072  0.19297570  1
  Zn  Zn144  1  0.93588127  0.43366126  0.69189474  1
  Zn  Zn145  1  0.93680426  0.94085727  0.18625901  1
  Zn  Zn146  1  0.93315110  0.93604672  0.69015649  1
  Zn  Zn147  1  0.05911954  0.06646693  0.30669588  1
  Zn  Zn148  1  0.07044222  0.05599098  0.83271022  1
  Zn  Zn149  1  0.07312157  0.56128919  0.31178956  1
  Zn  Zn150  1  0.06144926  0.56237850  0.80997631  1
  Zn  Zn151  1  0.55878477  0.05541772  0.31265841  1
  Zn  Zn152  1  0.56096641  0.06246610  0.81361906  1
  Zn  Zn153  1  0.56095576  0.55776325  0.31457960  1
  Zn  Zn154  1  0.56153081  0.55839306  0.81138227  1
  Zn  Zn155  1  0.44251682  0.19350099  0.43462179  1
  Zn  Zn156  1  0.43452734  0.18789159  0.94271080  1
  Zn  Zn157  1  0.43299988  0.68552987  0.43235549  1
  Zn  Zn158  1  0.43267900  0.68997143  0.94106052  1
  Zn  Zn159  1  0.93406635  0.18968557  0.43973556  1
  Zn  Zn160  1  0.93663075  0.18476967  0.94023852  1
  Zn  Zn161  1  0.94017261  0.68606201  0.43419231  1
  Zn  Zn162  1  0.94237595  0.70169420  0.92492280  1
  Zn  Zn163  1  0.06061240  0.31268109  0.06764112  1
  Zn  Zn164  1  0.06450784  0.31447502  0.56467526  1
  Zn  Zn165  1  0.06297269  0.81164520  0.06405080  1
  Zn  Zn166  1  0.06041557  0.81254847  0.56699774  1
  Zn  Zn167  1  0.56155980  0.31582348  0.06357980  1
  Zn  Zn168  1  0.55786913  0.31202126  0.56058029  1
  Zn  Zn169  1  0.56279701  0.81324228  0.06223528  1
  Zn  Zn170  1  0.56166840  0.81089319  0.56107521  1
  O  O171  1  0.11874163  0.11980386  0.12246099  1
  O  O172  1  0.12105793  0.12096054  0.62257832  1
  O  O173  1  0.12412134  0.60817047  0.12250019  1
  O  O174  1  0.12749813  0.61249801  0.61323535  1
  O  O175  1  0.62603726  0.10898400  0.11852123  1
  O  O176  1  0.60980815  0.12902567  0.61940905  1
  O  O177  1  0.63596338  0.61902636  0.10961305  1
  O  O178  1  0.61923539  0.62101678  0.62012236  1
  O  O179  1  0.37513219  0.37296095  0.38845490  1
  O  O180  1  0.37898733  0.37842513  0.88518914  1
  O  O181  1  0.37705639  0.87841627  0.38207054  1
  O  O182  1  0.38192578  0.87624779  0.88133533  1
  O  O183  1  0.86900405  0.38036376  0.38795100  1
  O  O184  1  0.87963777  0.38251450  0.87936897  1
  O  O185  1  0.88778532  0.88027666  0.37682492  1
  O  O186  1  0.87948303  0.88392264  0.88096296  1
  O  O187  1  0.25336742  0.00945955  0.36863269  1
  O  O188  1  0.25205886  0.00873650  0.86972751  1
  O  O189  1  0.24048270  0.51736599  0.37647279  1
  O  O190  1  0.25068311  0.50817941  0.86400947  1
  O  O191  1  0.75897232  -0.00545002  0.36714945  1
  O  O192  1  0.75309137  0.00573159  0.86720655  1
  O  O193  1  0.75758667  0.50489200  0.36682504  1
  O  O194  1  0.75867204  0.50950083  0.87243899  1
  O  O195  1  0.24825094  0.49629742  0.12125296  1
  O  O196  1  0.24393840  0.50049306  0.63743163  1
  O  O197  1  0.25116103  0.99017767  0.13648673  1
  O  O198  1  0.24541463  0.99797445  0.63344480  1
  O  O199  1  0.74543277  0.49403323  0.13189502  1
  O  O200  1  0.73592508  0.50614060  0.62677139  1
  O  O201  1  0.74149818  0.99396159  0.13368807  1
  O  O202  1  0.75049959  0.99295140  0.62964310  1
  O  O203  1  0.00219397  0.35281254  0.24665140  1
  O  O204  1  0.00085816  0.36280903  0.76072586  1
  O  O205  1  0.00555487  0.87059859  0.25513822  1
  O  O206  1  0.01422696  0.87887590  0.75677398  1
  O  O207  1  0.51331814  0.37735907  0.26804596  1
  O  O208  1  0.51672980  0.38154002  0.75382744  1
  O  O209  1  0.51054437  0.86645570  0.25474992  1
  O  O210  1  0.49801336  0.87036812  0.75633234  1
  O  O211  1  0.48621333  0.12401305  0.25491891  1
  O  O212  1  0.48895371  0.11743240  0.74194961  1
  O  O213  1  0.49944723  0.63613095  0.25700327  1
  O  O214  1  0.49114440  0.62833340  0.74445703  1
  O  O215  1  1.00357905  0.13924240  0.23648697  1
  O  O216  1  1.00090639  0.13648321  0.75082524  1
  O  O217  1  0.99448494  0.63746467  0.25817758  1
  O  O218  1  0.99057429  0.63883120  0.76135529  1
  O  O219  1  0.36739806  0.26031212  0.00272959  1
  O  O220  1  0.37340711  0.25963970  0.50690740  1
  O  O221  1  0.36245390  0.76262870  -0.00297806  1
  O  O222  1  0.38208425  0.76082463  0.50800550  1
  O  O223  1  0.86389214  0.25635073  0.00266041  1
  O  O224  1  0.87115842  0.25904660  0.50930958  1
  O  O225  1  0.86988882  0.75570024  0.00584476  1
  O  O226  1  0.86413304  0.74963650  0.49848801  1
  O  O227  1  0.12488700  0.24329495  0.49406323  1
  O  O228  1  0.13261707  0.25896188  0.99103219  1
  O  O229  1  0.12043401  0.73681815  0.50532781  1
  O  O230  1  0.13799685  0.74765513  1.00399994  1
  O  O231  1  0.63839557  0.24420081  0.50737101  1
  O  O232  1  0.63640315  0.25456533  0.98934188  1
  O  O233  1  0.63446884  0.74341308  0.49403020  1
  O  O234  1  0.62962400  0.74521786  0.99315479  1
  O  O235  1  0.53512469  0.24574294  0.14545170  1
  O  O236  1  0.48729828  0.23998845  0.62139335  1
  O  O237  1  0.50577732  0.74930455  0.13735287  1
  O  O238  1  0.49012696  0.74442230  0.62910173  1
  O  O239  1  0.99090863  0.24119280  0.13185002  1
  O  O240  1  0.99706931  0.24687283  0.63581287  1
  O  O241  1  0.98871649  0.75573280  0.13488388  1
  O  O242  1  0.99171697  0.76306799  0.64338622  1
  O  O243  1  0.00473592  0.24026246  0.36331100  1
  O  O244  1  0.00607437  0.25530330  0.87220131  1
  O  O245  1  0.00129145  0.76043665  0.36665014  1
  O  O246  1  0.00016643  0.77613889  0.85964945  1
  O  O247  1  0.50243588  0.26797274  0.37171138  1
  O  O248  1  0.51192708  0.25030444  0.87920169  1
  O  O249  1  0.50737470  0.75478779  0.37123904  1
  O  O250  1  0.50176381  0.75928036  0.86996837  1
  O  O251  1  0.24428808  0.12397021  0.49140308  1
  O  O252  1  0.26068454  0.13150268  0.99124420  1
  O  O253  1  0.23719486  0.62289795  0.49019326  1
  O  O254  1  0.25260360  0.63191386  0.98905809  1
  O  O255  1  0.73577274  0.12947909  0.50925117  1
  O  O256  1  0.74523877  0.13447172  0.99118672  1
  O  O257  1  0.74693209  0.63183229  0.49529737  1
  O  O258  1  0.73874950  0.63393044  0.98241994  1
  O  O259  1  0.26317845  0.36805427  -0.00385656  1
  O  O260  1  0.26081774  0.37248489  0.50333220  1
  O  O261  1  0.25285290  0.86962238  0.00813778  1
  O  O262  1  0.26160170  0.88431127  0.50425474  1
  O  O263  1  0.76053816  0.37070863  0.00085387  1
  O  O264  1  0.75753628  0.36273861  0.50502549  1
  O  O265  1  0.76054131  0.86643387  -0.00169496  1
  O  O266  1  0.74977127  0.86640512  0.50380646  1
  O  O267  1  0.11833552  0.49540156  0.23212804  1
  O  O268  1  0.13151887  0.50082449  0.73981963  1
  O  O269  1  0.13567153  0.99100297  0.25875491  1
  O  O270  1  0.13738746  0.99398311  0.74907800  1
  O  O271  1  0.63727453  0.51147490  0.23811242  1
  O  O272  1  0.62758119  0.49270657  0.74218670  1
  O  O273  1  0.62990041  0.98893107  0.24548618  1
  O  O274  1  0.63574150  0.99810334  0.75353369  1
  O  O275  1  0.36613548  0.00319809  0.25839942  1
  O  O276  1  0.36320359  0.00920021  0.75074286  1
  O  O277  1  0.36675620  0.48773370  0.23946465  1
  O  O278  1  0.36900125  0.50833107  0.74891891  1
  O  O279  1  0.86201158  -0.00999154  0.25914039  1
  O  O280  1  0.85673824  0.00257626  0.75294172  1
  O  O281  1  0.87080751  0.50626429  0.25487005  1
  O  O282  1  0.87413081  0.50650418  0.75971122  1
  O  O283  1  0.13029173  0.36250589  0.37589898  1
  O  O284  1  0.11674777  0.37149577  0.87593624  1
  O  O285  1  0.11473210  0.87369286  0.36726639  1
  O  O286  1  0.13644269  0.85775046  0.85587445  1
  O  O287  1  0.62158472  0.37505398  0.38869221  1
  O  O288  1  0.62273967  0.36775743  0.86620256  1
  O  O289  1  0.61868407  0.86817099  0.36802968  1
  O  O290  1  0.61534447  0.86735495  0.87304273  1
  O  O291  1  0.37801520  0.11907296  0.14190653  1
  O  O292  1  0.38134534  0.13141663  0.63160553  1
  O  O293  1  0.38075398  0.63114749  0.13894601  1
  O  O294  1  0.37617305  0.63103874  0.63121020  1
  O  O295  1  0.86987412  0.13636087  0.11925835  1
  O  O296  1  0.88423043  0.13753504  0.62666410  1
  O  O297  1  0.87700226  0.63208681  0.13728799  1
  O  O298  1  0.87113962  0.62465436  0.63883787  1
  O  O299  1  0.24225162  0.24367480  0.11388550  1
  O  O300  1  0.26233346  0.25015062  0.62426524  1
  O  O301  1  0.24466178  0.75914021  0.12053295  1
  O  O302  1  0.26292345  0.75552853  0.62783459  1
  O  O303  1  0.75500083  0.25843550  0.11294472  1
  O  O304  1  0.76122054  0.24563870  0.61499476  1
  O  O305  1  0.76368465  0.75119594  0.11922986  1
  O  O306  1  0.75279211  0.75500224  0.61509482  1
  O  O307  1  0.23998191  0.23736089  0.37656668  1
  O  O308  1  0.24331855  0.24399431  0.88306794  1
  O  O309  1  0.24747477  0.73648304  0.38108636  1
  O  O310  1  0.25407674  0.73904906  0.88244577  1
  O  O311  1  0.76775900  0.24283268  0.40081397  1
  O  O312  1  0.74412378  0.24525526  0.87849282  1
  O  O313  1  0.74561861  0.74490184  0.38051158  1
  O  O314  1  0.74482689  0.74595620  0.87685662  1
  O  O315  1  -0.00000587  0.13073426  0.01562179  1
  O  O316  1  0.00532144  0.12073212  0.50760778  1
  O  O317  1  -0.00336722  0.63288138  -0.00868364  1
  O  O318  1  0.01304511  0.62454995  0.49797059  1
  O  O319  1  0.50023329  0.12006809  0.00552903  1
  O  O320  1  0.50440141  0.11825307  0.50656335  1
  O  O321  1  0.51208267  0.62099312  -0.00794032  1
  O  O322  1  0.50558055  0.62530849  0.50470374  1
  O  O323  1  0.48988245  0.37630376  0.49179819  1
  O  O324  1  0.48951135  0.38253294  1.00065066  1
  O  O325  1  0.49145421  0.88157598  0.49735054  1
  O  O326  1  0.49112855  0.87287925  0.99339067  1
  O  O327  1  0.98643991  0.36857983  0.49762607  1
  O  O328  1  0.98551973  0.36536180  0.99150265  1
  O  O329  1  1.00054334  0.88254328  0.49215035  1
  O  O330  1  0.98758636  0.86642574  0.99275222  1
  O  O331  1  0.50401416  0.48439420  0.37997305  1
  O  O332  1  0.49973490  0.49870967  0.88880477  1
  O  O333  1  0.49178918  0.98944454  0.38238409  1
  O  O334  1  0.49857727  0.98695169  0.87684783  1
  O  O335  1  0.98889066  0.50045007  0.36765571  1
  O  O336  1  0.99353890  0.48730403  0.86897681  1
  O  O337  1  0.99401401  0.99503199  0.37729679  1
  O  O338  1  0.97211014  0.99883339  0.85027577  1
  O  O339  1  -0.00419397  0.01725830  0.12883518  1
  O  O340  1  0.00420636  0.00592510  0.62323800  1
  O  O341  1  -0.00332775  0.49817502  0.12443501  1
  O  O342  1  0.01160029  0.49836831  0.63311884  1
  O  O343  1  0.51228103  -0.00422777  0.12812487  1
  O  O344  1  0.49191430  0.00922661  0.61495707  1
  O  O345  1  0.52076190  0.49676409  0.11174773  1
  O  O346  1  0.51084711  0.50932586  0.62151586  1
  O  O347  1  0.24748988  0.37085246  0.24331967  1
  O  O348  1  0.24930310  0.38449654  0.74960925  1
  O  O349  1  0.24354095  0.87854324  0.24563368  1
  O  O350  1  0.24968431  0.88223965  0.74296629  1
  O  O351  1  0.75947964  0.38953462  0.23932168  1
  O  O352  1  0.73200283  0.37926175  0.75265840  1
  O  O353  1  0.73686649  0.87564685  0.25083193  1
  O  O354  1  0.74616006  0.88248417  0.74068013  1
  O  O355  1  0.25578316  0.11749843  0.25591922  1
  O  O356  1  0.25607046  0.11938678  0.75975011  1
  O  O357  1  0.24748459  0.62976852  0.26900134  1
  O  O358  1  0.25603970  0.62110072  0.75543108  1
  O  O359  1  0.74518970  0.10903934  0.24846120  1
  O  O360  1  0.74914886  0.11979128  0.75352645  1
  O  O361  1  0.76118442  0.61782869  0.25364436  1
  O  O362  1  0.75711896  0.62594533  0.75962880  1
  O  O363  1  0.36707784  0.12140039  0.36959647  1
  O  O364  1  0.36937272  0.12481531  0.86724871  1
  O  O365  1  0.36424119  0.62103755  0.36965325  1
  O  O366  1  0.37068538  0.62445445  0.86258629  1
  O  O367  1  0.87817523  0.11210909  0.37576321  1
  O  O368  1  0.86422197  0.12029649  0.87317331  1
  O  O369  1  0.87124495  0.61765691  0.36643190  1
  O  O370  1  0.86775385  0.61996985  0.86850324  1
  O  O371  1  0.11936532  0.39163312  0.12370931  1
  O  O372  1  0.12824905  0.38724164  0.62667548  1
  O  O373  1  0.13082305  0.87537281  0.13666415  1
  O  O374  1  0.13299865  0.88321651  0.63044597  1
  O  O375  1  0.64300031  0.38717549  0.11308417  1
  O  O376  1  0.61906531  0.38186660  0.63342011  1
  O  O377  1  0.62884390  0.87853172  0.13284056  1
  O  O378  1  0.63780783  0.86853120  0.62469770  1
  O  O379  1  0.11473565  0.25245071  0.25894965  1
  O  O380  1  0.11900070  0.25365962  0.76193169  1
  O  O381  1  0.11609749  0.75807732  0.25038531  1
  O  O382  1  0.11777681  0.75645987  0.73632762  1
  O  O383  1  0.66482529  0.25037165  0.26773667  1
  O  O384  1  0.62727987  0.26143261  0.75447800  1
  O  O385  1  0.62061301  0.75292277  0.25348614  1
  O  O386  1  0.61592894  0.75125443  0.75487259  1
  O  O387  1  0.37111064  0.23456068  0.25261461  1
  O  O388  1  0.37048822  0.23944479  0.74464656  1
  O  O389  1  0.39082363  0.75700820  0.25177081  1
  O  O390  1  0.37962980  0.74269111  0.74188909  1
  O  O391  1  0.88119667  0.25224535  0.24184279  1
  O  O392  1  0.88199089  0.25093244  0.74441682  1
  O  O393  1  0.88082557  0.74377043  0.24349515  1
  O  O394  1  0.88088378  0.74247500  0.75083261  1
  O  O395  1  0.37574486  0.48451906  0.51001544  1
  O  O396  1  0.38390462  0.49648354  1.00012527  1
  O  O397  1  0.38315771  0.99409496  0.49429796  1
  O  O398  1  0.37484052  0.98519507  0.99846832  1
  O  O399  1  0.87090174  0.48547098  0.49359952  1
  O  O400  1  0.87506244  0.49256898  0.98659840  1
  O  O401  1  0.88128800  0.99941082  0.49222811  1
  O  O402  1  0.86611093  0.99031815  0.98921526  1
  O  O403  1  0.08418942  -0.03035528  -0.07264115  1
  O  O404  1  0.11840569  0.00625986  0.50614301  1
  O  O405  1  0.12287296  0.50372814  0.01479374  1
  O  O406  1  0.12292340  0.50522051  0.51367784  1
  O  O407  1  0.62317052  -0.00399339  0.01017782  1
  O  O408  1  0.61184554  0.00373602  0.49937095  1
  O  O409  1  0.62307777  0.50935582  0.00159953  1
  O  O410  1  0.62624791  0.50910010  0.50766367  1
  O  O411  1  0.37280366  0.38304876  0.12274031  1
  O  O412  1  0.37720371  0.36667836  0.61912218  1
  O  O413  1  0.36414496  0.87697119  0.11870499  1
  O  O414  1  0.37062737  0.86839561  0.61773678  1
  O  O415  1  0.86659981  0.36783843  0.11545124  1
  O  O416  1  0.87975673  0.36546966  0.61617644  1
  O  O417  1  0.87462305  0.86863071  0.11641884  1
  O  O418  1  0.86081478  0.87329680  0.62157805  1
  O  O419  1  0.13137314  0.12962634  0.37921065  1
  O  O420  1  0.13736056  0.13685632  0.87571826  1
  O  O421  1  0.12626825  0.62849539  0.38863776  1
  O  O422  1  0.13522225  0.62199284  0.87687258  1
  O  O423  1  0.61718902  0.11672728  0.39132081  1
  O  O424  1  0.63039999  0.13387620  0.87470095  1
  O  O425  1  0.63322104  0.62774915  0.38076644  1
  O  O426  1  0.63051918  0.63122734  0.87561445  1
