# generated using pymatgen
data_V85Zn86O256
_symmetry_space_group_name_H-M   'P 1'
_cell_length_a   16.99786655
_cell_length_b   16.99722087
_cell_length_c   17.00421425
_cell_angle_alpha   89.98514767
_cell_angle_beta   89.98391220
_cell_angle_gamma   89.97577893
_symmetry_Int_Tables_number   1
_chemical_formula_structural   V85Zn86O256
_chemical_formula_sum   'V85 Zn86 O256'
_cell_volume   4912.79713264
_cell_formula_units_Z   1
loop_
 _symmetry_equiv_pos_site_id
 _symmetry_equiv_pos_as_xyz
  1  'x, y, z'
loop_
 _atom_site_type_symbol
 _atom_site_label
 _atom_site_symmetry_multiplicity
 _atom_site_fract_x
 _atom_site_fract_y
 _atom_site_fract_z
 _atom_site_occupancy
  V  V0  1  0.62778712  0.25521176  0.37855465  1
  V  V1  1  0.62790128  0.00013111  0.62963408  1
  V  V2  1  0.50558172  0.37477226  0.37229119  1
  V  V3  1  0.37420353  0.75036925  0.12485162  1
  V  V4  1  0.87150180  0.49099016  0.87826133  1
  V  V5  1  0.11875716  0.50011898  0.62510174  1
  V  V6  1  0.37237282  0.50600535  0.87816894  1
  V  V7  1  0.37990833  0.25595592  0.62864212  1
  V  V8  1  0.62570964  0.12203993  0.50199083  1
  V  V9  1  0.11921521  0.75185743  0.87774741  1
  V  V10  1  0.12221373  0.87507724  0.74895022  1
  V  V11  1  0.50399251  0.75056560  0.24842582  1
  V  V12  1  -0.00588449  0.63133323  0.13224821  1
  V  V13  1  0.12154580  0.74661473  0.37010700  1
  V  V14  1  0.24834388  0.37708436  0.62483795  1
  V  V15  1  0.37496584  0.61930440  0.25040174  1
  V  V16  1  0.50411824  0.01375434  -0.00123812  1
  V  V17  1  0.62822437  0.62453295  0.00066027  1
  V  V18  1  0.49042464  -0.00127340  0.50591824  1
  V  V19  1  0.00215427  0.24826273  0.75333292  1
  V  V20  1  0.25148486  0.00956634  0.75200983  1
  V  V21  1  0.74956858  0.87734504  0.63236274  1
  V  V22  1  0.50235058  0.62363469  0.12326862  1
  V  V23  1  -0.00432226  0.49801390  0.00066503  1
  V  V24  1  0.74885150  0.62146805  0.87988768  1
  V  V25  1  0.12061795  0.62722512  0.00203902  1
  V  V26  1  -0.00135378  0.86805413  0.37252636  1
  V  V27  1  0.62685702  0.74451615  0.37583799  1
  V  V28  1  0.75734344  0.12045330  0.37768523  1
  V  V29  1  0.24873017  0.62366483  0.37616205  1
  V  V30  1  0.26634067  0.21431591  0.03017676  1
  V  V31  1  0.88224844  0.13560556  0.23998419  1
  V  V32  1  0.75619639  0.62109947  0.37669366  1
  V  V33  1  0.61597182  0.75278185  0.87735723  1
  V  V34  1  0.86916230  0.12059333  0.75336717  1
  V  V35  1  0.76476270  0.37340130  0.11896209  1
  V  V36  1  0.87503073  -0.00003369  0.37739817  1
  V  V37  1  0.87337582  0.62266446  0.75275153  1
  V  V38  1  0.49592770  0.87099438  0.37418639  1
  V  V39  1  0.24436066  0.50232332  0.75288612  1
  V  V40  1  0.24983015  0.10831378  0.37070744  1
  V  V41  1  0.00373494  0.37590778  0.36236190  1
  V  V42  1  0.25332061  0.74683322  0.50575248  1
  V  V43  1  0.00169299  0.12498804  0.62362863  1
  V  V44  1  0.24644788  0.62799759  0.87690122  1
  V  V45  1  0.87386085  0.76334641  0.12852828  1
  V  V46  1  0.86539533  0.00112316  0.87560349  1
  V  V47  1  -0.00349667  0.74949860  0.75228675  1
  V  V48  1  0.12301694  0.50203159  0.13259032  1
  V  V49  1  0.62770983  0.51140684  0.61904741  1
  V  V50  1  0.24747404  0.25093980  0.49893266  1
  V  V51  1  0.61716130  0.87225088  0.75234106  1
  V  V52  1  0.12883918  0.11121829  0.00915383  1
  V  V53  1  0.87370713  0.74897725  0.62813778  1
  V  V54  1  0.13982861  0.24001448  0.87731224  1
  V  V55  1  0.61201890  0.37628505  0.74611656  1
  V  V56  1  0.49497293  0.37614916  0.86598045  1
  V  V57  1  0.49860929  0.13064995  0.62638354  1
  V  V58  1  0.42944070  0.04495257  0.32473171  1
  V  V59  1  -0.00097630  -0.00100003  0.50129300  1
  V  V60  1  0.36534291  0.37570220  -0.00216595  1
  V  V61  1  0.76080508  0.49632568  0.25425630  1
  V  V62  1  0.37612878  0.37704005  0.49768140  1
  V  V63  1  -0.00341495  0.36562925  0.88738948  1
  V  V64  1  0.12654758  0.25173656  0.35725906  1
  V  V65  1  0.87794978  0.24921248  0.62368166  1
  V  V66  1  0.62981282  0.50571457  0.13277399  1
  V  V67  1  0.75563195  -0.00633431  0.23525747  1
  V  V68  1  0.74426309  0.74476022  0.50276340  1
  V  V69  1  -0.00611189  0.87904504  0.88123546  1
  V  V70  1  0.50619886  0.50895863  0.49705850  1
  V  V71  1  0.24851050  0.38046268  0.12959919  1
  V  V72  1  0.75414426  0.24998581  0.50410831  1
  V  V73  1  0.24612272  0.88242307  0.13535041  1
  V  V74  1  0.87360783  0.87345619  0.50289597  1
  V  V75  1  0.88029993  0.38115601  0.49419022  1
  V  V76  1  0.12522959  -0.00220448  0.62312432  1
  V  V77  1  0.74888445  0.37492313  0.62429026  1
  V  V78  1  0.12494755  0.88755898  0.25314010  1
  V  V79  1  -0.00048584  0.00172129  0.00977529  1
  V  V80  1  0.75467071  0.76601017  0.00221304  1
  V  V81  1  0.24744156  0.75329089  0.00538969  1
  V  V82  1  0.25879792  0.87079098  0.62712652  1
  V  V83  1  0.59445981  0.32790320  0.20847841  1
  V  V84  1  0.74735268  0.49630895  0.75325516  1
  Zn  Zn85  1  0.37164487  0.13475216  0.75378579  1
  Zn  Zn86  1  0.50123800  0.49903146  0.00124610  1
  Zn  Zn87  1  0.71747837  0.12484464  0.89387411  1
  Zn  Zn88  1  0.90393013  0.25478060  0.10675305  1
  Zn  Zn89  1  0.48809335  0.75265681  0.74340525  1
  Zn  Zn90  1  0.62129808  0.00038804  0.11492750  1
  Zn  Zn91  1  -0.00175962  0.50148045  0.49395062  1
  Zn  Zn92  1  0.37080365  0.63926014  0.74230978  1
  Zn  Zn93  1  0.37573218  0.87004501  0.50022697  1
  Zn  Zn94  1  -0.00205176  0.62371333  0.62394001  1
  Zn  Zn95  1  0.24519280  0.50176494  0.25360155  1
  Zn  Zn96  1  0.54521494  0.20851422  0.80425357  1
  Zn  Zn97  1  0.12554688  0.12852337  0.49901608  1
  Zn  Zn98  1  0.12375917  0.37323660  0.75481094  1
  Zn  Zn99  1  0.87733457  0.62850322  0.25327693  1
  Zn  Zn100  1  0.37176870  0.00740999  0.88172396  1
  Zn  Zn101  1  0.76285152  0.25641666  -0.02674540  1
  Zn  Zn102  1  0.37608102  0.49972341  0.37332000  1
  Zn  Zn103  1  0.11972265  0.62469595  0.50167530  1
  Zn  Zn104  1  0.63239558  0.87714333  0.24717147  1
  Zn  Zn105  1  0.39054588  0.87486654  -0.01355447  1
  Zn  Zn106  1  0.49331540  0.63237139  0.62464707  1
  Zn  Zn107  1  0.20934405  0.17660853  0.18471186  1
  Zn  Zn108  1  0.18463065  0.19038766  0.68334497  1
  Zn  Zn109  1  0.18369129  0.68960115  0.19126607  1
  Zn  Zn110  1  0.18425870  0.68673002  0.68887897  1
  Zn  Zn111  1  0.68949621  0.17604926  0.09996638  1
  Zn  Zn112  1  0.67501159  0.17277261  0.72041774  1
  Zn  Zn113  1  0.69415873  0.69059650  0.18930247  1
  Zn  Zn114  1  0.68489886  0.68833055  0.69184224  1
  Zn  Zn115  1  0.30336412  0.31938105  0.31546048  1
  Zn  Zn116  1  0.31281535  0.31788198  0.80945367  1
  Zn  Zn117  1  0.31383797  0.80867926  0.31179707  1
  Zn  Zn118  1  0.31168451  0.82007656  0.81746250  1
  Zn  Zn119  1  0.81174522  0.31543574  0.31083125  1
  Zn  Zn120  1  0.81126423  0.30870855  0.80979271  1
  Zn  Zn121  1  0.81507265  0.81041476  0.31328701  1
  Zn  Zn122  1  0.80881298  0.81365484  0.81715241  1
  Zn  Zn123  1  0.18193844  0.43744397  0.43728310  1
  Zn  Zn124  1  0.17961318  0.43608703  0.93936768  1
  Zn  Zn125  1  0.18415814  0.93070299  0.44279825  1
  Zn  Zn126  1  0.20317166  0.93130127  0.93144216  1
  Zn  Zn127  1  0.68970329  0.43916674  0.43784610  1
  Zn  Zn128  1  0.67802222  0.41600623  0.94771963  1
  Zn  Zn129  1  0.68281307  0.93392399  0.43896301  1
  Zn  Zn130  1  0.68011086  0.93915754  0.93785036  1
  Zn  Zn131  1  0.31545882  0.05403927  0.06355963  1
  Zn  Zn132  1  0.31150628  0.06743245  0.56310191  1
  Zn  Zn133  1  0.31152900  0.56384943  0.06309876  1
  Zn  Zn134  1  0.31098882  0.56096463  0.56108727  1
  Zn  Zn135  1  0.81818639  0.06845832  0.05653170  1
  Zn  Zn136  1  0.81306246  0.06170612  0.56691208  1
  Zn  Zn137  1  0.81397243  0.56185685  0.06440156  1
  Zn  Zn138  1  0.81305954  0.56298215  0.56314640  1
  Zn  Zn139  1  0.42455672  0.31250897  0.17832773  1
  Zn  Zn140  1  0.42794679  0.46644916  0.68012896  1
  Zn  Zn141  1  0.44529035  0.93141658  0.17378777  1
  Zn  Zn142  1  0.43609211  0.93643735  0.68926816  1
  Zn  Zn143  1  0.94011914  0.43900299  0.18876779  1
  Zn  Zn144  1  0.93642556  0.43204765  0.69186890  1
  Zn  Zn145  1  0.94001736  0.93893475  0.19250633  1
  Zn  Zn146  1  0.93647763  0.93728443  0.69153156  1
  Zn  Zn147  1  0.06212088  0.06502038  0.31616281  1
  Zn  Zn148  1  0.06112051  0.06187638  0.81420913  1
  Zn  Zn149  1  0.05919263  0.56206318  0.31344359  1
  Zn  Zn150  1  0.05857643  0.56192812  0.81468016  1
  Zn  Zn151  1  0.60852571  0.10791780  0.26408220  1
  Zn  Zn152  1  0.55429541  0.04301372  0.81444892  1
  Zn  Zn153  1  0.56624386  0.56456946  0.31277849  1
  Zn  Zn154  1  0.55848965  0.56496574  0.80986673  1
  Zn  Zn155  1  0.43431440  0.20477838  0.32951953  1
  Zn  Zn156  1  0.42748994  0.18309053  0.93612356  1
  Zn  Zn157  1  0.43465016  0.68903226  0.43780940  1
  Zn  Zn158  1  0.43564802  0.68865620  0.93802389  1
  Zn  Zn159  1  0.94318947  0.19197707  0.43428259  1
  Zn  Zn160  1  0.93762384  0.18218906  0.94156371  1
  Zn  Zn161  1  0.93558228  0.68638984  0.44195910  1
  Zn  Zn162  1  0.93274250  0.68615202  0.94169636  1
  Zn  Zn163  1  0.08016894  0.30274671  0.06870564  1
  Zn  Zn164  1  0.06344045  0.31594316  0.56206904  1
  Zn  Zn165  1  0.06034786  0.81760225  0.06700462  1
  Zn  Zn166  1  0.06398639  0.80890082  0.56062872  1
  Zn  Zn167  1  0.56419962  0.30982827  0.03524572  1
  Zn  Zn168  1  0.56322092  0.31590853  0.56040497  1
  Zn  Zn169  1  0.56684759  0.82351056  0.06509859  1
  Zn  Zn170  1  0.56123553  0.81031382  0.56317844  1
  O  O171  1  0.13554958  0.12245076  0.10739545  1
  O  O172  1  0.11799866  0.11641802  0.62094731  1
  O  O173  1  0.11665657  0.62211239  0.11948740  1
  O  O174  1  0.11990158  0.61455283  0.62599272  1
  O  O175  1  0.62511223  0.11002080  0.15415761  1
  O  O176  1  0.61978878  0.11672676  0.62602006  1
  O  O177  1  0.62236879  0.62505212  0.12012340  1
  O  O178  1  0.62840028  0.61313333  0.62657819  1
  O  O179  1  0.38428563  0.37744658  0.38173070  1
  O  O180  1  0.37416377  0.38595852  0.87976920  1
  O  O181  1  0.39063242  0.86288304  0.37919098  1
  O  O182  1  0.32101708  0.89767199  0.89659363  1
  O  O183  1  0.89251741  0.36389077  0.38259636  1
  O  O184  1  0.88475856  0.38141724  0.86748842  1
  O  O185  1  0.88293764  0.87661255  0.38257900  1
  O  O186  1  0.88481704  0.88478616  0.86874082  1
  O  O187  1  0.24426283  0.01073659  0.38855443  1
  O  O188  1  0.22814656  0.01087028  0.84876187  1
  O  O189  1  0.24825827  0.51194407  0.37465526  1
  O  O190  1  0.24763994  0.50746016  0.87134526  1
  O  O191  1  0.76079500  0.00782412  0.39089402  1
  O  O192  1  0.76252259  0.00744672  0.88602491  1
  O  O193  1  0.74447417  0.51018895  0.36792697  1
  O  O194  1  0.75358531  0.49989858  0.87210176  1
  O  O195  1  0.24124053  0.49814713  0.12616187  1
  O  O196  1  0.23700372  0.49661329  0.63470617  1
  O  O197  1  0.24965798  0.97975260  0.12578884  1
  O  O198  1  0.24094030  0.99143060  0.62613756  1
  O  O199  1  0.74740324  0.49887255  0.13699201  1
  O  O200  1  0.74508277  0.49449712  0.63043359  1
  O  O201  1  0.75841623  1.00063479  0.13496401  1
  O  O202  1  0.74081965  0.98827023  0.61770674  1
  O  O203  1  -0.00065059  0.37691374  0.26424404  1
  O  O204  1  0.00182471  0.36051313  0.75944385  1
  O  O205  1  0.00641294  0.87762937  0.26561556  1
  O  O206  1  0.00457125  0.86866630  0.75840144  1
  O  O207  1  0.51085677  0.37408104  0.26281706  1
  O  O208  1  0.50038104  0.39125350  0.75348865  1
  O  O209  1  0.50164114  0.86594485  0.25764696  1
  O  O210  1  0.51321264  0.87331009  0.74662487  1
  O  O211  1  0.49085167  0.11187697  0.27781791  1
  O  O212  1  0.49394211  0.12425646  0.73509751  1
  O  O213  1  0.49458941  0.63137917  0.24436018  1
  O  O214  1  0.49270218  0.62992721  0.74798619  1
  O  O215  1  0.97913883  0.11899531  0.26272110  1
  O  O216  1  0.99706598  0.13381075  0.74313608  1
  O  O217  1  0.99796546  0.62242873  0.23635437  1
  O  O218  1  0.98980713  0.63179058  0.75212117  1
  O  O219  1  0.35582309  0.25900404  -0.00719485  1
  O  O220  1  0.36212277  0.26714006  0.51004330  1
  O  O221  1  0.36371869  0.75382138  0.00529247  1
  O  O222  1  0.35802528  0.74865828  0.49871562  1
  O  O223  1  0.87379727  0.25120634  -0.00145239  1
  O  O224  1  0.87176920  0.25728747  0.50528452  1
  O  O225  1  0.86087095  0.74772859  0.00727843  1
  O  O226  1  0.86548689  0.75607341  0.50889363  1
  O  O227  1  0.13900875  0.25135777  0.50140483  1
  O  O228  1  0.14524125  0.23640282  0.99129343  1
  O  O229  1  0.13489634  0.74769680  0.49008360  1
  O  O230  1  0.12582574  0.74291799  0.99909712  1
  O  O231  1  0.63521488  0.24368867  0.49590299  1
  O  O232  1  0.65624495  0.30324209  0.97960841  1
  O  O233  1  0.63837005  0.75547488  0.49231024  1
  O  O234  1  0.63786101  0.74529928  0.99594111  1
  O  O235  1  0.52712609  0.27875169  0.13829203  1
  O  O236  1  0.49134124  0.24291469  0.61355762  1
  O  O237  1  0.49542341  0.74158627  0.12839523  1
  O  O238  1  0.50404951  0.74471724  0.62803638  1
  O  O239  1  1.00976444  0.25714795  0.13352005  1
  O  O240  1  1.00003222  0.24526770  0.63316626  1
  O  O241  1  0.98378081  0.74302700  0.11463067  1
  O  O242  1  0.99110701  0.75051817  0.63272353  1
  O  O243  1  0.01948790  0.25687118  0.37780028  1
  O  O244  1  0.00648835  0.25301142  0.87041594  1
  O  O245  1  0.00722972  0.75822116  0.38366891  1
  O  O246  1  -0.00011800  0.75794747  0.87438088  1
  O  O247  1  0.51580960  0.26074494  0.38402962  1
  O  O248  1  0.48729599  0.26951877  0.87685050  1
  O  O249  1  0.50900244  0.75153393  0.37183367  1
  O  O250  1  0.51474300  0.74799986  0.87934642  1
  O  O251  1  0.25065286  0.13607456  0.49243996  1
  O  O252  1  0.23699707  0.11595631  0.98605293  1
  O  O253  1  0.24663063  0.62887983  0.49423632  1
  O  O254  1  0.24090937  0.63523938  0.99883558  1
  O  O255  1  0.74668845  0.13231234  0.49905894  1
  O  O256  1  0.74142390  0.13654265  1.00663789  1
  O  O257  1  0.75545999  0.63472424  0.49340190  1
  O  O258  1  0.74351241  0.62509719  0.99465717  1
  O  O259  1  0.25882208  0.38519507  0.00504012  1
  O  O260  1  0.25648628  0.37345174  0.50345841  1
  O  O261  1  0.23192839  0.85853000  0.02107106  1
  O  O262  1  0.25072119  0.86524593  0.50948280  1
  O  O263  1  0.76814580  0.40030069  0.02211752  1
  O  O264  1  0.75880308  0.36764613  0.50239582  1
  O  O265  1  0.74984621  0.86348540  -0.00494318  1
  O  O266  1  0.75466537  0.86573764  0.51001215  1
  O  O267  1  0.12492224  0.50601519  0.23574598  1
  O  O268  1  0.13158587  0.49902596  0.74888944  1
  O  O269  1  0.12361755  0.98696041  0.26038238  1
  O  O270  1  0.12509047  0.99711403  0.73600686  1
  O  O271  1  0.63416272  0.50995829  0.23796197  1
  O  O272  1  0.63018810  0.49490322  0.73927783  1
  O  O273  1  0.65451334  0.99801182  0.26636413  1
  O  O274  1  0.62399331  0.98731553  0.73621013  1
  O  O275  1  0.38291829  -0.00877733  0.25662763  1
  O  O276  1  0.35712604  -0.00404412  0.74986782  1
  O  O277  1  0.37223148  0.51712368  0.25255450  1
  O  O278  1  0.35578972  0.49677711  0.76762237  1
  O  O279  1  0.86991779  0.00299966  0.25956263  1
  O  O280  1  0.88283234  0.00846370  0.76179952  1
  O  O281  1  0.86417881  0.50544295  0.24939689  1
  O  O282  1  0.86764784  0.50282311  0.75683084  1
  O  O283  1  0.11859905  0.36154002  0.37519949  1
  O  O284  1  0.11602353  0.35965392  0.87682615  1
  O  O285  1  0.11795577  0.86653730  0.37266665  1
  O  O286  1  0.11753377  0.86926125  0.86813539  1
  O  O287  1  0.62016245  0.36576689  0.38212449  1
  O  O288  1  0.60512729  0.39312700  0.85728446  1
  O  O289  1  0.61506648  0.86336572  0.37329133  1
  O  O290  1  0.63702335  0.86469162  0.86185757  1
  O  O291  1  0.30736809  0.15500252  0.11155456  1
  O  O292  1  0.38290049  0.13846186  0.62292832  1
  O  O293  1  0.38332865  0.63045936  0.12920808  1
  O  O294  1  0.38546269  0.58335008  0.63985398  1
  O  O295  1  0.87446633  0.13142867  0.13733410  1
  O  O296  1  0.88690400  0.12974204  0.62707748  1
  O  O297  1  0.88216856  0.63293605  0.12567759  1
  O  O298  1  0.87425501  0.63040113  0.63597185  1
  O  O299  1  0.22722404  0.27612927  0.11783284  1
  O  O300  1  0.25445681  0.25858547  0.61831548  1
  O  O301  1  0.25693390  0.74642203  0.12072500  1
  O  O302  1  0.23951984  0.75873411  0.61785946  1
  O  O303  1  0.74794019  0.27190994  0.12256069  1
  O  O304  1  0.75525563  0.25438350  0.61320826  1
  O  O305  1  0.76070976  0.74729950  0.11144265  1
  O  O306  1  0.75322408  0.75359324  0.61931689  1
  O  O307  1  0.24024890  0.24738563  0.38322113  1
  O  O308  1  0.23799673  0.25056157  0.86581159  1
  O  O309  1  0.24339427  0.73932909  0.38180079  1
  O  O310  1  0.23736351  0.74575252  0.88761375  1
  O  O311  1  0.74915181  0.24563341  0.38861028  1
  O  O312  1  0.75606848  0.22924006  0.85983486  1
  O  O313  1  0.74451420  0.74629932  0.38315044  1
  O  O314  1  0.74736074  0.74171984  0.88769691  1
  O  O315  1  0.01524562  0.10999282  -0.00442397  1
  O  O316  1  0.00256261  0.11816588  0.50605569  1
  O  O317  1  0.00349569  0.61877270  0.00799073  1
  O  O318  1  -0.00036714  0.61829130  0.50524596  1
  O  O319  1  0.49697700  0.11574357  -0.00354970  1
  O  O320  1  0.51127291  0.11274808  0.51351028  1
  O  O321  1  0.50878258  0.62579689  0.00752393  1
  O  O322  1  0.49333550  0.61121529  0.49874452  1
  O  O323  1  0.49400816  0.38262270  0.48984559  1
  O  O324  1  0.48170072  0.38061210  0.99040073  1
  O  O325  1  0.50059484  0.88240511  0.49320592  1
  O  O326  1  0.50042960  0.88572294  1.00092937  1
  O  O327  1  0.99342995  0.37562601  0.49332975  1
  O  O328  1  1.00737287  0.38266071  0.99032719  1
  O  O329  1  0.99471479  0.87883037  0.49381756  1
  O  O330  1  1.00845582  0.88746883  0.98944630  1
  O  O331  1  0.50378496  0.49325718  0.38023264  1
  O  O332  1  0.48584244  0.49684116  0.87742751  1
  O  O333  1  0.49616427  0.98880802  0.38553459  1
  O  O334  1  0.49078511  0.99326871  0.88855585  1
  O  O335  1  1.01021219  0.48129806  0.37779671  1
  O  O336  1  0.99445112  0.49010885  0.88208268  1
  O  O337  1  0.99465073  0.99180215  0.38551859  1
  O  O338  1  0.99543350  0.99146672  0.88035161  1
  O  O339  1  -0.00153774  -0.00840062  0.10831404  1
  O  O340  1  0.00565441  0.00323734  0.62052354  1
  O  O341  1  0.00501273  0.50625865  0.11807544  1
  O  O342  1  0.01108843  0.49662016  0.63186556  1
  O  O343  1  0.49967183  0.00216628  0.10777680  1
  O  O344  1  0.50632164  0.00397168  0.62142420  1
  O  O345  1  0.51153712  0.51801420  0.12499016  1
  O  O346  1  0.51575037  0.49615647  0.61101570  1
  O  O347  1  0.25163046  0.38460790  0.23361312  1
  O  O348  1  0.24428845  0.38556515  0.74421657  1
  O  O349  1  0.24267254  0.86735287  0.24237392  1
  O  O350  1  0.23791633  0.88512600  0.74079450  1
  O  O351  1  0.74764087  0.38661006  0.24571496  1
  O  O352  1  0.74186247  0.38155087  0.74305734  1
  O  O353  1  0.75706254  0.89129838  0.25798923  1
  O  O354  1  0.74335042  0.86716090  0.73620678  1
  O  O355  1  0.25018318  0.11746710  0.27250392  1
  O  O356  1  0.25233262  0.11117544  0.73044079  1
  O  O357  1  0.25644505  0.62713509  0.25922698  1
  O  O358  1  0.24838020  0.61858814  0.75837503  1
  O  O359  1  0.76791260  0.10769319  0.26633676  1
  O  O360  1  0.77240264  0.11902411  0.73102945  1
  O  O361  1  0.75216965  0.61760293  0.25981618  1
  O  O362  1  0.75405564  0.61728559  0.75987071  1
  O  O363  1  0.36777254  0.11276127  0.37717459  1
  O  O364  1  0.37165115  0.12045790  0.86421216  1
  O  O365  1  0.36592452  0.62539261  0.36758258  1
  O  O366  1  0.36299978  0.61841358  0.88069032  1
  O  O367  1  0.86725109  0.12108804  0.38292408  1
  O  O368  1  0.88509019  0.11312473  0.86371600  1
  O  O369  1  0.86080008  0.63394992  0.37232471  1
  O  O370  1  0.86895310  0.61411667  0.87127358  1
  O  O371  1  0.13893365  0.39566933  0.10706278  1
  O  O372  1  0.13109184  0.38214469  0.63021646  1
  O  O373  1  0.13475075  0.86358857  0.14218315  1
  O  O374  1  0.12788634  0.88166444  0.62963277  1
  O  O375  1  0.63857615  0.39000696  0.13157069  1
  O  O376  1  0.63207046  0.38495750  0.62589636  1
  O  O377  1  0.62666308  0.88632508  0.13513404  1
  O  O378  1  0.63276655  0.88048290  0.62990892  1
  O  O379  1  0.13788867  0.24356860  0.26112530  1
  O  O380  1  0.11851345  0.24819482  0.75950374  1
  O  O381  1  0.12666742  0.75612587  0.26670541  1
  O  O382  1  0.11563937  0.75437756  0.75718680  1
  O  O383  1  0.63610707  0.25025129  0.26663436  1
  O  O384  1  0.61647350  0.27215947  0.73534492  1
  O  O385  1  0.62206918  0.75156582  0.25839844  1
  O  O386  1  0.62611854  0.75610719  0.76222306  1
  O  O387  1  0.37130996  0.25485787  0.25461753  1
  O  O388  1  0.37069646  0.25590668  0.73239606  1
  O  O389  1  0.38229002  0.73971719  0.24326164  1
  O  O390  1  0.37413316  0.75108912  0.76289305  1
  O  O391  1  0.86873727  0.23424579  0.25524523  1
  O  O392  1  0.88643375  0.24260185  0.74119751  1
  O  O393  1  0.86683877  0.74697481  0.23262223  1
  O  O394  1  0.87696469  0.74395524  0.74814075  1
  O  O395  1  0.38170216  0.48896154  0.49477292  1
  O  O396  1  0.37363517  0.49649945  0.99092772  1
  O  O397  1  0.38777627  0.99662814  0.50984067  1
  O  O398  1  0.38492162  0.99629051  1.00140800  1
  O  O399  1  0.87545233  0.48410163  0.50562155  1
  O  O400  1  0.88984635  0.50601028  0.99435726  1
  O  O401  1  0.88168925  0.99180777  0.49924854  1
  O  O402  1  0.89220792  1.00820474  0.99066145  1
  O  O403  1  0.11884610  0.00649151  -0.00835186  1
  O  O404  1  0.11764804  -0.00109431  0.51115905  1
  O  O405  1  0.11280107  0.51125396  0.00281700  1
  O  O406  1  0.12217174  0.50090608  0.51283397  1
  O  O407  1  0.61266001  0.00589565  -0.00420221  1
  O  O408  1  0.61774728  0.00267446  0.51107950  1
  O  O409  1  0.62430798  0.50622221  0.01396501  1
  O  O410  1  0.61829680  0.49809488  0.50627937  1
  O  O411  1  0.35886434  0.37931817  0.11312732  1
  O  O412  1  0.36909310  0.37699711  0.61742315  1
  O  O413  1  0.36023117  0.86283880  0.12747778  1
  O  O414  1  0.36095530  0.87687443  0.62345179  1
  O  O415  1  0.86693511  0.37056056  0.13667735  1
  O  O416  1  0.86925865  0.36682158  0.61989566  1
  O  O417  1  0.88154395  0.86148115  0.12729372  1
  O  O418  1  0.86760827  0.87018339  0.62365832  1
  O  O419  1  0.13393568  0.13453181  0.37966913  1
  O  O420  1  0.11862024  0.13871956  0.87904037  1
  O  O421  1  0.13010015  0.63022982  0.37638962  1
  O  O422  1  0.12563500  0.63186814  0.88253764  1
  O  O423  1  0.64241473  0.13478697  0.37849087  1
  O  O424  1  0.62627945  0.13006284  0.82490787  1
  O  O425  1  0.63545645  0.63847244  0.37325393  1
  O  O426  1  0.63076379  0.63032927  0.88133225  1
