# generated using pymatgen
data_V85Zn86O256
_symmetry_space_group_name_H-M   'P 1'
_cell_length_a   16.95049178
_cell_length_b   16.97307316
_cell_length_c   16.96427734
_cell_angle_alpha   89.94114263
_cell_angle_beta   89.94044524
_cell_angle_gamma   90.07476672
_symmetry_Int_Tables_number   1
_chemical_formula_structural   V85Zn86O256
_chemical_formula_sum   'V85 Zn86 O256'
_cell_volume   4880.64607741
_cell_formula_units_Z   1
loop_
 _symmetry_equiv_pos_site_id
 _symmetry_equiv_pos_as_xyz
  1  'x, y, z'
loop_
 _atom_site_type_symbol
 _atom_site_label
 _atom_site_symmetry_multiplicity
 _atom_site_fract_x
 _atom_site_fract_y
 _atom_site_fract_z
 _atom_site_occupancy
  V  V0  1  0.74015895  0.88016906  0.63090533  1
  V  V1  1  0.11522973  -0.00108478  0.62249246  1
  V  V2  1  0.25087711  0.36571175  0.12461946  1
  V  V3  1  0.62588418  0.87315211  0.24719199  1
  V  V4  1  0.87619755  0.62327762  0.75409066  1
  V  V5  1  -0.01363468  -0.01349056  -0.00951998  1
  V  V6  1  0.87216120  0.37302614  0.50096480  1
  V  V7  1  0.25123219  0.12337093  0.87525534  1
  V  V8  1  0.12094542  0.74913298  0.37676274  1
  V  V9  1  0.12582972  0.37426477  0.25447397  1
  V  V10  1  -0.00979846  0.12053560  0.13028669  1
  V  V11  1  -0.00460187  0.88612604  0.38368643  1
  V  V12  1  0.51294016  0.62602512  0.12082849  1
  V  V13  1  0.52048145  0.50227076  0.49931836  1
  V  V14  1  0.86848165  0.75238855  0.61739502  1
  V  V15  1  0.24939738  0.74973951  0.50070185  1
  V  V16  1  0.87173005  0.49771158  0.88555804  1
  V  V17  1  0.12123996  0.62517145  0.50046694  1
  V  V18  1  0.24985838  0.37548201  0.62456386  1
  V  V19  1  0.12375489  0.87530689  0.25313151  1
  V  V20  1  0.74356329  0.50225443  0.74651262  1
  V  V21  1  0.74562100  0.37439943  0.62452490  1
  V  V22  1  0.61772467  0.73596606  0.88267841  1
  V  V23  1  0.24271562  0.62186683  0.87787760  1
  V  V24  1  0.37349860  0.13726342  0.24573440  1
  V  V25  1  0.75328408  0.00009225  0.26402894  1
  V  V26  1  0.63154372  0.74556740  0.38303372  1
  V  V27  1  0.37733544  -0.00206801  0.87280068  1
  V  V28  1  0.62680539  0.00327136  0.12502449  1
  V  V29  1  -0.00259802  0.74760145  0.25594700  1
  V  V30  1  0.50354569  0.75207470  0.74642070  1
  V  V31  1  0.50164851  0.75034507  0.24946505  1
  V  V32  1  -0.00391271  0.37686161  0.87866662  1
  V  V33  1  0.37818392  0.62507668  0.24945192  1
  V  V34  1  0.63795281  0.12751328  -0.00353551  1
  V  V35  1  0.74463093  0.74777760  0.00470261  1
  V  V36  1  0.49650551  0.12957738  0.12217358  1
  V  V37  1  0.67593236  0.19139328  0.43692763  1
  V  V38  1  0.37466279  0.49923717  0.87564963  1
  V  V39  1  0.50949985  0.37218901  0.36911749  1
  V  V40  1  -0.00057073  0.50022494  0.50098056  1
  V  V41  1  0.37643862  0.74797838  0.12330812  1
  V  V42  1  0.50812434  0.00191705  0.50248082  1
  V  V43  1  0.87624805  0.75762523  0.12004917  1
  V  V44  1  0.12481307  0.75472967  0.86946079  1
  V  V45  1  0.50932650  0.87647919  0.86998458  1
  V  V46  1  -0.05393831  0.19361616  0.79958115  1
  V  V47  1  -0.00142239  0.63331523  0.62930256  1
  V  V48  1  0.24853489  0.87547284  0.62825454  1
  V  V49  1  0.37391812  0.87548521  0.49933237  1
  V  V50  1  0.63866383  0.25061785  0.87258044  1
  V  V51  1  0.87188254  0.12320010  0.27037995  1
  V  V52  1  0.24327283  0.74506092  0.00049266  1
  V  V53  1  0.51595995  0.25392770  0.24743737  1
  V  V54  1  0.75668996  0.27051663  0.01805717  1
  V  V55  1  0.25228537  0.87406564  0.12480987  1
  V  V56  1  0.74697595  0.48650700  0.24453625  1
  V  V57  1  0.50560918  0.50287195  -0.00046032  1
  V  V58  1  0.37562938  0.00133551  0.37367115  1
  V  V59  1  0.87692882  0.24142606  0.61705933  1
  V  V60  1  0.12484143  -0.00200307  0.12011339  1
  V  V61  1  0.87158247  0.62441438  0.24652160  1
  V  V62  1  0.51367539  0.62080303  0.62071036  1
  V  V63  1  0.25148497  0.62562836  0.37709239  1
  V  V64  1  0.62814558  0.48614613  0.12534676  1
  V  V65  1  0.11520930  0.12397176  0.49933458  1
  V  V66  1  0.12228266  0.49964890  0.62670492  1
  V  V67  1  0.86753013  0.88960582  0.49906081  1
  V  V68  1  0.37759029  0.87478035  -0.00220101  1
  V  V69  1  -0.05216695  0.80567718  0.80822262  1
  V  V70  1  0.25356328  0.50095887  0.24980396  1
  V  V71  1  0.50221744  0.25273680  0.75296525  1
  V  V72  1  0.37918646  0.12299874  0.74662837  1
  V  V73  1  0.11786902  0.36822499  0.74782627  1
  V  V74  1  0.25206254  0.00066049  0.24880451  1
  V  V75  1  0.75198498  0.02516431  0.77587042  1
  V  V76  1  0.24934178  0.49962476  0.74953696  1
  V  V77  1  0.37848279  0.37692557  0.49881604  1
  V  V78  1  0.37916455  0.50077037  0.37725481  1
  V  V79  1  0.87592537  0.49647839  0.37251714  1
  V  V80  1  0.12580538  0.24802163  0.87764857  1
  V  V81  1  0.25003377  0.12865411  0.37698520  1
  V  V82  1  0.37657775  0.36694648  0.00293020  1
  V  V83  1  0.12843040  0.50666273  0.11704380  1
  V  V84  1  0.37453825  0.24964427  0.62270632  1
  Zn  Zn85  1  0.50139965  0.37670250  0.87357576  1
  Zn  Zn86  1  0.12267584  0.12223880  -0.00133270  1
  Zn  Zn87  1  0.25260593  0.24618963  0.00186087  1
  Zn  Zn88  1  0.74462307  0.62107008  0.88130024  1
  Zn  Zn89  1  -0.00443525  0.12331572  0.62513788  1
  Zn  Zn90  1  0.37658086  0.74623350  0.62441205  1
  Zn  Zn91  1  0.73892945  0.61784832  0.38495042  1
  Zn  Zn92  1  0.62773619  0.00660509  0.63593292  1
  Zn  Zn93  1  -0.03300070  0.27512089  0.23248197  1
  Zn  Zn94  1  0.50291368  0.00355590  -0.00332091  1
  Zn  Zn95  1  0.24765004  0.25040008  0.49849766  1
  Zn  Zn96  1  0.11586786  0.24672080  0.37196481  1
  Zn  Zn97  1  0.50002503  0.87450902  0.37383309  1
  Zn  Zn98  1  0.75670555  0.87955457  0.11934435  1
  Zn  Zn99  1  0.24919559  -0.00232353  0.74835188  1
  Zn  Zn100  1  0.00282785  0.37097036  0.37897657  1
  Zn  Zn101  1  0.11681567  0.87277231  0.74884675  1
  Zn  Zn102  1  0.62255223  0.37916410  0.74613129  1
  Zn  Zn103  1  0.00810778  0.63030191  0.11930047  1
  Zn  Zn104  1  0.00241358  0.50606333  -0.00176853  1
  Zn  Zn105  1  0.51376767  0.13561007  0.61248473  1
  Zn  Zn106  1  0.37552928  0.62361167  0.74435846  1
  Zn  Zn107  1  0.18253617  0.18704295  0.18663936  1
  Zn  Zn108  1  0.18732793  0.18549097  0.68823318  1
  Zn  Zn109  1  0.18942466  0.68841933  0.19134167  1
  Zn  Zn110  1  0.18779968  0.68838483  0.69006133  1
  Zn  Zn111  1  0.69253608  0.18338172  0.18959075  1
  Zn  Zn112  1  0.69214290  0.18570965  0.68429510  1
  Zn  Zn113  1  0.69170078  0.68404343  0.19077760  1
  Zn  Zn114  1  0.68788640  0.69225540  0.69008403  1
  Zn  Zn115  1  0.31431517  0.31349833  0.31324296  1
  Zn  Zn116  1  0.31106352  0.31239703  0.81179541  1
  Zn  Zn117  1  0.31298873  0.81197947  0.31323142  1
  Zn  Zn118  1  0.31669025  0.80865900  0.81139222  1
  Zn  Zn119  1  0.80204905  0.30662065  0.31838919  1
  Zn  Zn120  1  0.80946353  0.31598289  0.81151065  1
  Zn  Zn121  1  0.81220778  0.81546672  0.31326774  1
  Zn  Zn122  1  0.78467400  0.81835495  0.81566875  1
  Zn  Zn123  1  0.19098331  0.43882180  0.43968858  1
  Zn  Zn124  1  0.18779308  0.43110948  0.93759580  1
  Zn  Zn125  1  0.18547601  0.94051121  0.43967714  1
  Zn  Zn126  1  0.18709302  0.93604056  0.93747868  1
  Zn  Zn127  1  0.69415496  0.42288896  0.42927495  1
  Zn  Zn128  1  0.68466600  0.43597490  0.93540761  1
  Zn  Zn129  1  0.68645304  0.92885438  0.43774484  1
  Zn  Zn130  1  0.68897626  0.93413383  0.94040737  1
  Zn  Zn131  1  0.31405929  0.06158060  0.05978840  1
  Zn  Zn132  1  0.31017354  0.06143576  0.56165770  1
  Zn  Zn133  1  0.31503100  0.56022252  0.06161032  1
  Zn  Zn134  1  0.31763166  0.56329199  0.56302695  1
  Zn  Zn135  1  0.81126137  0.06025532  0.06352152  1
  Zn  Zn136  1  0.80079412  0.06620583  0.55413754  1
  Zn  Zn137  1  0.81012804  0.56746782  0.06392078  1
  Zn  Zn138  1  0.80484398  0.56124444  0.56231616  1
  Zn  Zn139  1  0.43846920  0.43538791  0.18409253  1
  Zn  Zn140  1  0.44029203  0.44033801  0.68469189  1
  Zn  Zn141  1  0.43961843  0.94064748  0.18640269  1
  Zn  Zn142  1  0.43876547  0.93570274  0.68528053  1
  Zn  Zn143  1  0.93717908  0.44161313  0.18226703  1
  Zn  Zn144  1  0.93348407  0.43822659  0.68936618  1
  Zn  Zn145  1  0.93829446  0.93833588  0.19164595  1
  Zn  Zn146  1  0.92451153  0.94890590  0.68521368  1
  Zn  Zn147  1  0.06315437  0.06264945  0.31123099  1
  Zn  Zn148  1  0.06636568  0.05211946  0.81349194  1
  Zn  Zn149  1  0.06130242  0.56049333  0.31049476  1
  Zn  Zn150  1  0.06122334  0.56359471  0.81386414  1
  Zn  Zn151  1  0.56231778  0.06350919  0.31424069  1
  Zn  Zn152  1  0.56955401  0.06509223  0.80909327  1
  Zn  Zn153  1  0.56568227  0.56133124  0.30994821  1
  Zn  Zn154  1  0.55925718  0.56260601  0.80782085  1
  Zn  Zn155  1  0.44637953  0.18921943  0.43501339  1
  Zn  Zn156  1  0.44178731  0.18663137  0.93513205  1
  Zn  Zn157  1  0.44391736  0.68787907  0.43876395  1
  Zn  Zn158  1  0.43327968  0.68490559  0.93662730  1
  Zn  Zn159  1  0.93973391  0.19361953  0.43157892  1
  Zn  Zn160  1  0.92213615  0.17343729  0.97048601  1
  Zn  Zn161  1  0.90026822  0.67045471  0.45343153  1
  Zn  Zn162  1  0.93466166  0.68056357  0.94693554  1
  Zn  Zn163  1  0.03368336  0.32325205  0.07806192  1
  Zn  Zn164  1  0.05842262  0.30701920  0.56164731  1
  Zn  Zn165  1  0.06201001  0.81204457  0.06239946  1
  Zn  Zn166  1  0.05840733  0.81306712  0.56251680  1
  Zn  Zn167  1  0.56288477  0.30953848  0.05984930  1
  Zn  Zn168  1  0.56336147  0.31214615  0.56017337  1
  Zn  Zn169  1  0.56421841  0.81502919  0.06028602  1
  Zn  Zn170  1  0.56051342  0.81318132  0.56101691  1
  O  O171  1  0.12677202  0.10621658  0.12686388  1
  O  O172  1  0.12566115  0.11785926  0.61714243  1
  O  O173  1  0.13279211  0.60962233  0.13194803  1
  O  O174  1  0.11657807  0.62145060  0.62120109  1
  O  O175  1  0.61795245  0.11949255  0.11961726  1
  O  O176  1  0.62333671  0.12074686  0.62741819  1
  O  O177  1  0.61471618  0.61750646  0.12979408  1
  O  O178  1  0.61309171  0.63045611  0.62572393  1
  O  O179  1  0.38146124  0.38148749  0.38045490  1
  O  O180  1  0.37282913  0.38655457  0.88123874  1
  O  O181  1  0.37398150  0.88251205  0.38158006  1
  O  O182  1  0.38239420  0.87825029  0.87963974  1
  O  O183  1  0.87481394  0.38302500  0.38084938  1
  O  O184  1  0.88545401  0.38522862  0.86509042  1
  O  O185  1  0.88416134  0.87049243  0.38773026  1
  O  O186  1  0.88368295  0.85524619  0.86404371  1
  O  O187  1  0.25460164  0.00977440  0.36958798  1
  O  O188  1  0.25681528  0.00662714  0.87188395  1
  O  O189  1  0.25893253  0.50732144  0.37104391  1
  O  O190  1  0.25342809  0.50486525  0.87231120  1
  O  O191  1  0.74651260  -0.00767517  0.36194016  1
  O  O192  1  0.75018471  0.00144392  0.87443074  1
  O  O193  1  0.75805387  0.49881282  0.36237810  1
  O  O194  1  0.75576274  0.50086065  0.86836284  1
  O  O195  1  0.24462982  0.49278171  0.13021884  1
  O  O196  1  0.24309551  0.49496452  0.62819458  1
  O  O197  1  0.24594052  0.99193791  0.12785723  1
  O  O198  1  0.24281383  0.99024333  0.62563539  1
  O  O199  1  0.74300191  0.50458210  0.13514898  1
  O  O200  1  0.75855306  0.49030320  0.63526590  1
  O  O201  1  0.73754788  0.99905627  0.13054316  1
  O  O202  1  0.74650631  0.98566614  0.61647409  1
  O  O203  1  0.02253533  0.38998133  0.26024364  1
  O  O204  1  0.01334519  0.38312382  0.75678529  1
  O  O205  1  0.00349919  0.86856157  0.26195771  1
  O  O206  1  -0.00494002  0.87405099  0.74779679  1
  O  O207  1  0.49246364  0.36061259  0.25269151  1
  O  O208  1  0.50224108  0.36795453  0.74942921  1
  O  O209  1  0.50722820  0.86926298  0.24971004  1
  O  O210  1  0.49563214  0.86549993  0.75766579  1
  O  O211  1  0.49361172  0.13562657  0.24400598  1
  O  O212  1  0.48902791  0.13285185  0.74923044  1
  O  O213  1  0.49556595  0.62946042  0.24082281  1
  O  O214  1  0.49782736  0.62839832  0.73595302  1
  O  O215  1  0.98206233  0.11002391  0.24465021  1
  O  O216  1  1.00386881  0.12693581  0.74709567  1
  O  O217  1  0.99648854  0.63339105  0.24499866  1
  O  O218  1  0.98693981  0.61811102  0.74220796  1
  O  O219  1  0.37580920  0.26366973  -0.00738958  1
  O  O220  1  0.37770871  0.25644093  0.50815355  1
  O  O221  1  0.36583785  0.75519387  0.00383082  1
  O  O222  1  0.37051300  0.76167396  0.49682236  1
  O  O223  1  0.85603257  0.25511504  0.00109449  1
  O  O224  1  0.87949268  0.25939205  0.50803277  1
  O  O225  1  0.86657357  0.74761779  0.01239349  1
  O  O226  1  0.88542624  0.76540362  0.51578242  1
  O  O227  1  0.12794717  0.24169195  0.49546534  1
  O  O228  1  0.12276213  0.24650799  0.98352522  1
  O  O229  1  0.12799989  0.74338436  0.49591828  1
  O  O230  1  0.13862675  0.75464743  0.99495144  1
  O  O231  1  0.59708993  0.23146158  0.49132855  1
  O  O232  1  0.63203758  0.24552033  0.99264271  1
  O  O233  1  0.61992483  0.75607232  0.48086644  1
  O  O234  1  0.62736687  0.74724940  0.99435900  1
  O  O235  1  0.50193619  0.24160186  0.13520709  1
  O  O236  1  0.48926168  0.25173456  0.63489805  1
  O  O237  1  0.49670530  0.74286625  0.12858016  1
  O  O238  1  0.50054954  0.74228188  0.62978284  1
  O  O239  1  1.02590666  0.21744024  0.13714689  1
  O  O240  1  0.98309084  0.24793304  0.62720522  1
  O  O241  1  0.99546778  0.75137465  0.13778053  1
  O  O242  1  0.99487429  0.73813513  0.62556222  1
  O  O243  1  -0.00067168  0.25606404  0.35542431  1
  O  O244  1  0.00523267  0.25621555  0.86521598  1
  O  O245  1  0.00339718  0.75508880  0.36459780  1
  O  O246  1  0.00653135  0.74762004  0.87318559  1
  O  O247  1  0.49232566  0.25812623  0.35657370  1
  O  O248  1  0.50220291  0.25353481  0.86212348  1
  O  O249  1  0.50790047  0.75144798  0.36417825  1
  O  O250  1  0.50152848  0.75378080  0.87004530  1
  O  O251  1  0.24445905  0.12698461  0.49056000  1
  O  O252  1  0.24975874  0.12650412  0.98825034  1
  O  O253  1  0.24433454  0.62994634  0.49545312  1
  O  O254  1  0.25669390  0.63328577  0.99082697  1
  O  O255  1  0.74090766  0.13694754  0.49286564  1
  O  O256  1  0.73985468  0.13174734  1.00581783  1
  O  O257  1  0.79115265  0.63458612  0.48325282  1
  O  O258  1  0.75174102  0.63973151  0.99771550  1
  O  O259  1  0.25773097  0.37223257  0.00796523  1
  O  O260  1  0.25883134  0.37303415  0.50715183  1
  O  O261  1  0.25874882  0.86755374  0.00527545  1
  O  O262  1  0.25454197  0.87031185  0.50719891  1
  O  O263  1  0.74475254  0.36961235  0.00624303  1
  O  O264  1  0.76493655  0.38476877  0.50991410  1
  O  O265  1  0.74365404  0.85766695  0.00499539  1
  O  O266  1  0.76297216  0.87333695  0.50410268  1
  O  O267  1  0.13763845  0.49405203  0.24601808  1
  O  O268  1  0.13052822  0.49353134  0.74426607  1
  O  O269  1  0.13279985  0.99263815  0.24470294  1
  O  O270  1  0.13069916  0.99214759  0.73993561  1
  O  O271  1  0.63951570  0.50212135  0.24271977  1
  O  O272  1  0.63903757  0.50067609  0.75402431  1
  O  O273  1  0.63226395  0.99418236  0.24521103  1
  O  O274  1  0.64458643  1.00316739  0.75259188  1
  O  O275  1  0.36979018  0.00729405  0.25438091  1
  O  O276  1  0.37404678  0.00818418  0.75271835  1
  O  O277  1  0.37216534  0.50492185  0.25573570  1
  O  O278  1  0.36847352  0.49831649  0.75864051  1
  O  O279  1  0.85981947  0.00457246  0.24720876  1
  O  O280  1  0.84816470  0.00326087  0.74491616  1
  O  O281  1  0.86935798  0.50422555  0.25015148  1
  O  O282  1  0.86575856  0.50839602  0.75745957  1
  O  O283  1  0.13308753  0.37474247  0.36484898  1
  O  O284  1  0.12156046  0.36697791  0.86623619  1
  O  O285  1  0.11539408  0.86910947  0.37487379  1
  O  O286  1  0.13259887  0.85974436  0.87169855  1
  O  O287  1  0.60830787  0.38067934  0.36848669  1
  O  O288  1  0.62000080  0.36485692  0.87059890  1
  O  O289  1  0.62238655  0.86575618  0.36144428  1
  O  O290  1  0.61125881  0.86451921  0.88159896  1
  O  O291  1  0.38587618  0.11751262  0.13245606  1
  O  O292  1  0.37480054  0.13317320  0.63170862  1
  O  O293  1  0.38123094  0.63042746  0.13100593  1
  O  O294  1  0.38669710  0.62798724  0.62512220  1
  O  O295  1  0.88758105  0.12366069  0.12844788  1
  O  O296  1  0.87360108  0.13808207  0.61463244  1
  O  O297  1  0.87756777  0.63368629  0.13626298  1
  O  O298  1  0.87936153  0.63550336  0.63409810  1
  O  O299  1  0.24369660  0.26194714  0.12132038  1
  O  O300  1  0.26164630  0.25570302  0.62560768  1
  O  O301  1  0.25449214  0.75380408  0.11850996  1
  O  O302  1  0.25083024  0.75593027  0.61681351  1
  O  O303  1  0.74224538  0.25383137  0.11615314  1
  O  O304  1  0.76829680  0.26149314  0.63372095  1
  O  O305  1  0.75756609  0.74999350  0.12159838  1
  O  O306  1  0.75915222  0.76244525  0.63125592  1
  O  O307  1  0.25170341  0.23665858  0.37491404  1
  O  O308  1  0.24406168  0.24157314  0.87652642  1
  O  O309  1  0.24246941  0.74503125  0.38063195  1
  O  O310  1  0.24554255  0.74138191  0.88071722  1
  O  O311  1  0.72805157  0.26973696  0.39285894  1
  O  O312  1  0.74039098  0.25710773  0.88251816  1
  O  O313  1  0.73391286  0.74977974  0.36618330  1
  O  O314  1  0.73347966  0.74578023  0.88286130  1
  O  O315  1  0.00378305  0.11163203  0.01637818  1
  O  O316  1  0.01238516  0.12962195  0.49930259  1
  O  O317  1  0.00400104  0.61950495  0.00671300  1
  O  O318  1  -0.00079461  0.61839314  0.50908729  1
  O  O319  1  0.50598117  0.12627850  0.01011498  1
  O  O320  1  0.48482903  0.10479583  0.50150233  1
  O  O321  1  0.49041323  0.61519414  0.01023931  1
  O  O322  1  0.49985214  0.61679248  0.51076335  1
  O  O323  1  0.49610656  0.38326601  0.49193899  1
  O  O324  1  0.49224799  0.38306108  0.99863807  1
  O  O325  1  0.48948398  0.88298962  0.49697190  1
  O  O326  1  0.49174438  0.87688921  0.99209709  1
  O  O327  1  0.99172543  0.38240066  0.50017718  1
  O  O328  1  1.01118413  0.38265508  0.98111030  1
  O  O329  1  0.99275092  0.87412808  0.48893924  1
  O  O330  1  1.00060756  0.88787126  1.00638166  1
  O  O331  1  0.49532477  0.49607545  0.37835901  1
  O  O332  1  0.49147266  0.50068498  0.88141236  1
  O  O333  1  0.49200028  0.99775222  0.38184055  1
  O  O334  1  0.49642571  0.99173301  0.87262180  1
  O  O335  1  0.99470167  0.49665787  0.38310986  1
  O  O336  1  0.99138533  0.49380642  0.87452739  1
  O  O337  1  1.00421568  0.98344728  0.37225025  1
  O  O338  1  1.00458775  0.99999389  0.89207578  1
  O  O339  1  0.00828613  0.00437283  0.12428796  1
  O  O340  1  0.01115110  0.00221964  0.62813130  1
  O  O341  1  0.01980874  0.50358621  0.12540920  1
  O  O342  1  0.00328500  0.50886180  0.62084691  1
  O  O343  1  0.51153445  0.01071474  0.12643693  1
  O  O344  1  0.50359781  -0.00344780  0.61171311  1
  O  O345  1  0.50582776  0.50705661  0.11908984  1
  O  O346  1  0.50215030  0.51106675  0.61513938  1
  O  O347  1  0.24839522  0.38237089  0.24341208  1
  O  O348  1  0.24119622  0.38056153  0.74407032  1
  O  O349  1  0.24501244  0.87897331  0.24449090  1
  O  O350  1  0.25378603  0.87148296  0.73526263  1
  O  O351  1  0.75830923  0.38856953  0.24737688  1
  O  O352  1  0.74875036  0.38512865  0.74147034  1
  O  O353  1  0.74343342  0.88471997  0.24527074  1
  O  O354  1  0.74611672  0.88041504  0.73263914  1
  O  O355  1  0.25556695  0.12034112  0.25421850  1
  O  O356  1  0.26243901  0.12531793  0.75928720  1
  O  O357  1  0.25860177  0.62144800  0.25779788  1
  O  O358  1  0.25291665  0.61723914  0.75769900  1
  O  O359  1  0.76014501  0.10964576  0.24757459  1
  O  O360  1  0.74882546  0.12552969  0.76492818  1
  O  O361  1  0.76001243  0.61573635  0.25601735  1
  O  O362  1  0.76005264  0.62083297  0.75136358  1
  O  O363  1  0.36904843  0.12034045  0.36630416  1
  O  O364  1  0.37103875  0.11952161  0.86809904  1
  O  O365  1  0.37319865  0.62091757  0.37023503  1
  O  O366  1  0.36488907  0.61227994  0.87322409  1
  O  O367  1  0.87867700  0.11663478  0.36827754  1
  O  O368  1  0.89354357  0.14046664  0.86440877  1
  O  O369  1  0.88632563  0.60739298  0.35785713  1
  O  O370  1  0.87254288  0.61759865  0.86748812  1
  O  O371  1  0.13175474  0.38473957  0.13638327  1
  O  O372  1  0.12801787  0.37692352  0.63058411  1
  O  O373  1  0.13050768  0.88198478  0.13215044  1
  O  O374  1  0.13103276  0.88093232  0.62300477  1
  O  O375  1  0.61540447  0.38798725  0.12547978  1
  O  O376  1  0.64106818  0.36738382  0.62329610  1
  O  O377  1  0.62253153  0.88413392  0.13501039  1
  O  O378  1  0.63802297  0.87568862  0.61705849  1
  O  O379  1  0.13560562  0.26948136  0.25219427  1
  O  O380  1  0.13139345  0.25898576  0.75898972  1
  O  O381  1  0.11849045  0.75615152  0.25550455  1
  O  O382  1  0.12568602  0.75340833  0.76026068  1
  O  O383  1  0.61392746  0.24898985  0.24605794  1
  O  O384  1  0.61764647  0.25134360  0.75707849  1
  O  O385  1  0.61935891  0.75774184  0.24886447  1
  O  O386  1  0.61122474  0.74548788  0.76228033  1
  O  O387  1  0.37480392  0.23866367  0.24747078  1
  O  O388  1  0.38089024  0.24501715  0.74394583  1
  O  O389  1  0.38170184  0.74599679  0.24388668  1
  O  O390  1  0.38924853  0.74455018  0.74900519  1
  O  O391  1  0.86212903  0.22789854  0.25876015  1
  O  O392  1  0.88031640  0.25029543  0.74311748  1
  O  O393  1  0.88079807  0.74201908  0.24912733  1
  O  O394  1  0.87953212  0.74701112  0.74854627  1
  O  O395  1  0.38223399  0.49390756  0.49272218  1
  O  O396  1  0.38305973  0.49206808  0.99327449  1
  O  O397  1  0.37690076  0.98879315  0.49504087  1
  O  O398  1  0.37926382  0.99217716  0.99212714  1
  O  O399  1  0.88178294  0.49308560  0.48992223  1
  O  O400  1  0.87305364  0.50360794  0.98852794  1
  O  O401  1  0.87491149  0.98783942  0.50396122  1
  O  O402  1  0.88654863  1.00091950  1.00334206  1
  O  O403  1  0.12185359  -0.00053124  0.00869161  1
  O  O404  1  0.13001391  0.01072337  0.50997172  1
  O  O405  1  0.13249595  0.49575225  0.01545284  1
  O  O406  1  0.11958753  0.50562897  0.50671982  1
  O  O407  1  0.62364855  0.00824298  0.00801713  1
  O  O408  1  0.60839228  -0.00688044  0.49328948  1
  O  O409  1  0.61228191  0.49804292  0.00530109  1
  O  O410  1  0.61901305  0.49605267  0.48892636  1
  O  O411  1  0.36383047  0.38169005  0.11440235  1
  O  O412  1  0.37135816  0.36957211  0.61900136  1
  O  O413  1  0.37299650  0.86862805  0.11876008  1
  O  O414  1  0.36694374  0.87188904  0.61536052  1
  O  O415  1  0.93829091  0.34150608  0.13952037  1
  O  O416  1  0.87144292  0.36920570  0.61751988  1
  O  O417  1  0.87404350  0.86081315  0.13633104  1
  O  O418  1  0.86774328  0.87208265  0.61509698  1
  O  O419  1  0.13219043  0.12470352  0.37989911  1
  O  O420  1  0.13519900  0.12964217  0.87214344  1
  O  O421  1  0.12910941  0.62943574  0.38093860  1
  O  O422  1  0.13678934  0.63271545  0.87012818  1
  O  O423  1  0.63305035  0.13165821  0.36637460  1
  O  O424  1  0.61421538  0.13899295  0.88749313  1
  O  O425  1  0.62415177  0.63987633  0.36993635  1
  O  O426  1  0.62003318  0.63284887  0.87616363  1
