# generated using pymatgen
data_V85Zn86O256
_symmetry_space_group_name_H-M   'P 1'
_cell_length_a   16.97658306
_cell_length_b   16.96807982
_cell_length_c   16.97535503
_cell_angle_alpha   90.07901840
_cell_angle_beta   89.99138685
_cell_angle_gamma   89.99891763
_symmetry_Int_Tables_number   1
_chemical_formula_structural   V85Zn86O256
_chemical_formula_sum   'V85 Zn86 O256'
_cell_volume   4889.91634463
_cell_formula_units_Z   1
loop_
 _symmetry_equiv_pos_site_id
 _symmetry_equiv_pos_as_xyz
  1  'x, y, z'
loop_
 _atom_site_type_symbol
 _atom_site_label
 _atom_site_symmetry_multiplicity
 _atom_site_fract_x
 _atom_site_fract_y
 _atom_site_fract_z
 _atom_site_occupancy
  V  V0  1  0.12671382  0.63057243  0.50260421  1
  V  V1  1  0.49932985  0.74999672  0.25137593  1
  V  V2  1  0.49668980  0.50267471  -0.01081587  1
  V  V3  1  0.49584915  0.62211505  0.61384657  1
  V  V4  1  0.25895696  0.01179045  0.25156343  1
  V  V5  1  0.86710244  0.89183740  0.49808252  1
  V  V6  1  0.37485650  0.50120703  0.38010464  1
  V  V7  1  0.75521813  0.75200014  0.50010090  1
  V  V8  1  0.24791618  0.50332016  0.24650057  1
  V  V9  1  0.11943260  0.12943965  0.00544101  1
  V  V10  1  0.31166055  0.31629854  0.44822681  1
  V  V11  1  0.88080963  0.25938845  0.62561971  1
  V  V12  1  0.37794773  0.25434650  0.63208864  1
  V  V13  1  0.37431008  0.87354575  -0.00377452  1
  V  V14  1  0.88199605  0.23531136  0.12633786  1
  V  V15  1  0.13064126  0.37901051  0.75303020  1
  V  V16  1  0.75298248  0.74516938  0.00827206  1
  V  V17  1  0.75113917  0.24715795  0.00277787  1
  V  V18  1  0.62414396  0.87417106  0.25257849  1
  V  V19  1  0.62562163  0.62218785  -0.00151329  1
  V  V20  1  0.88623477  0.36651127  0.48804813  1
  V  V21  1  0.50229447  -0.00327730  -0.00371853  1
  V  V22  1  0.75883535  0.50417575  0.25228607  1
  V  V23  1  0.70565243  0.27543898  0.54400158  1
  V  V24  1  0.62585236  0.74273867  0.38012192  1
  V  V25  1  0.88273670  0.12624506  0.74990352  1
  V  V26  1  0.37615532  0.37505129  -0.00145262  1
  V  V27  1  0.75362338  0.62094726  0.86624275  1
  V  V28  1  0.62614110  -0.00157501  0.12879858  1
  V  V29  1  0.50013238  0.36783927  0.38039663  1
  V  V30  1  0.37012022  0.24370721  0.11574329  1
  V  V31  1  0.24580672  0.37209542  0.11641810  1
  V  V32  1  0.93493832  0.68817102  0.18379412  1
  V  V33  1  0.12720741  -0.00545970  0.62234551  1
  V  V34  1  0.62231544  0.50105381  0.12927243  1
  V  V35  1  0.12180443  0.87034583  0.25195688  1
  V  V36  1  0.87872339  -0.00168107  0.87712418  1
  V  V37  1  0.49383951  0.12262555  0.12461782  1
  V  V38  1  0.87376892  0.37337723  0.00008581  1
  V  V39  1  0.24862333  0.12607342  0.88104624  1
  V  V40  1  -0.00040781  0.37570996  0.87482403  1
  V  V41  1  0.87385867  0.50150917  0.86051666  1
  V  V42  1  0.62589148  0.87352601  0.74526737  1
  V  V43  1  0.00232940  0.49758660  0.49327891  1
  V  V44  1  0.87830859  0.87031448  0.00940254  1
  V  V45  1  0.75190852  0.37273673  0.12554201  1
  V  V46  1  0.24801047  0.87533138  0.12573658  1
  V  V47  1  0.49183670  0.87602097  0.38868530  1
  V  V48  1  0.61890328  0.00292755  0.62564728  1
  V  V49  1  0.24864194  0.77042628  0.50135426  1
  V  V50  1  0.24661075  -0.00915203  0.75131987  1
  V  V51  1  -0.00585331  0.50362455  0.00419326  1
  V  V52  1  0.11722760  0.00295405  0.12682969  1
  V  V53  1  0.63357360  0.23959805  0.36483884  1
  V  V54  1  0.11762299  0.37698146  0.25737605  1
  V  V55  1  0.36689223  0.61711561  0.74814232  1
  V  V56  1  0.75729783  -0.00429395  0.73908811  1
  V  V57  1  -0.01021150  0.63069165  0.62973837  1
  V  V58  1  0.75021751  0.00397683  0.26369838  1
  V  V59  1  0.75132533  0.87311930  0.12749780  1
  V  V60  1  0.37407772  0.12842955  0.75034039  1
  V  V61  1  0.36805156  0.76514884  0.62225877  1
  V  V62  1  0.00522372  0.12866173  0.62018418  1
  V  V63  1  0.37423143  0.62463514  0.24793039  1
  V  V64  1  0.25250693  0.37325159  0.62958372  1
  V  V65  1  0.12367107  0.74743985  0.87050314  1
  V  V66  1  0.49426212  0.24725184  0.24111516  1
  V  V67  1  0.87737690  0.11875985  0.26719291  1
  V  V68  1  0.62433661  0.12352832  0.49643204  1
  V  V69  1  0.14089007  0.13036609  0.49287079  1
  V  V70  1  0.13030784  0.25261218  0.88131371  1
  V  V71  1  0.13069437  0.50353877  0.63048694  1
  V  V72  1  0.11978533  0.50510248  0.12557676  1
  V  V73  1  0.12159807  0.62661864  0.00059496  1
  V  V74  1  0.49810915  0.62508212  0.12604033  1
  V  V75  1  0.75227487  0.12051541  0.88226129  1
  V  V76  1  0.76701996  0.62750431  0.37102754  1
  V  V77  1  -0.01015298  0.87772988  0.37083398  1
  V  V78  1  0.00120096  0.24729636  0.25574844  1
  V  V79  1  0.62472326  0.37412156  0.24592977  1
  V  V80  1  0.24892461  0.63036978  0.37566891  1
  V  V81  1  0.00299865  0.87202966  0.87442387  1
  V  V82  1  0.37329817  0.74913490  0.12372604  1
  V  V83  1  0.80982656  0.81346319  0.66587777  1
  V  V84  1  0.49717529  0.74979238  0.74922301  1
  Zn  Zn85  1  0.48764597  0.00201675  0.50765257  1
  Zn  Zn86  1  0.53723825  0.18501779  0.67817718  1
  Zn  Zn87  1  0.62426372  0.74937732  0.87461273  1
  Zn  Zn88  1  0.49663586  0.48621238  0.50674856  1
  Zn  Zn89  1  0.12862359  0.25114355  0.37839997  1
  Zn  Zn90  1  0.11859997  0.75124167  0.37318287  1
  Zn  Zn91  1  0.37513250  0.00064568  0.87404233  1
  Zn  Zn92  1  0.50351972  0.87562204  0.87363823  1
  Zn  Zn93  1  0.36667642  0.49185368  0.86704189  1
  Zn  Zn94  1  0.34839908  0.03388828  0.40092638  1
  Zn  Zn95  1  -0.00129379  0.00247540  0.00541405  1
  Zn  Zn96  1  0.00524253  0.25076021  0.75201340  1
  Zn  Zn97  1  -0.00362904  0.00535977  0.49479537  1
  Zn  Zn98  1  0.63775554  0.27462436  0.83629394  1
  Zn  Zn99  1  -0.01452515  0.74923187  0.74633323  1
  Zn  Zn100  1  0.65600629  0.58706120  0.53258801  1
  Zn  Zn101  1  0.12428082  0.86984519  0.74071504  1
  Zn  Zn102  1  0.24834214  0.74938048  -0.00367735  1
  Zn  Zn103  1  0.88247329  0.49895261  0.37031941  1
  Zn  Zn104  1  0.62484119  0.12592710  0.00331257  1
  Zn  Zn105  1  0.49632759  0.35006216  0.84230326  1
  Zn  Zn106  1  0.24604147  0.61965883  0.86942037  1
  Zn  Zn107  1  0.18527485  0.18856116  0.18660071  1
  Zn  Zn108  1  0.19094679  0.18837441  0.68944630  1
  Zn  Zn109  1  0.18283132  0.68924725  0.18526700  1
  Zn  Zn110  1  0.18745313  0.69207417  0.68497667  1
  Zn  Zn111  1  0.68962156  0.18218296  0.18618117  1
  Zn  Zn112  1  0.70064455  0.17459134  0.69222137  1
  Zn  Zn113  1  0.68885678  0.68630408  0.19049619  1
  Zn  Zn114  1  0.67966024  0.67497267  0.69157877  1
  Zn  Zn115  1  0.30886524  0.31137373  0.28639812  1
  Zn  Zn116  1  0.30918223  0.31281935  0.81454764  1
  Zn  Zn117  1  0.31025033  0.81622572  0.31251399  1
  Zn  Zn118  1  0.31074050  0.80916636  0.81337795  1
  Zn  Zn119  1  0.81378639  0.31186848  0.31050518  1
  Zn  Zn120  1  0.81125775  0.31328982  0.80813521  1
  Zn  Zn121  1  0.81581336  0.81230264  0.31076965  1
  Zn  Zn122  1  0.81090277  0.81051021  0.83170481  1
  Zn  Zn123  1  0.18273029  0.44745087  0.43498994  1
  Zn  Zn124  1  0.18926329  0.44326714  0.93694402  1
  Zn  Zn125  1  0.17932259  0.94528442  0.43184102  1
  Zn  Zn126  1  0.18574570  0.93969991  0.93916704  1
  Zn  Zn127  1  0.68389380  0.43336548  0.51762285  1
  Zn  Zn128  1  0.67947104  0.44195489  0.84358811  1
  Zn  Zn129  1  0.68119393  0.93302042  0.43917998  1
  Zn  Zn130  1  0.68897365  0.93557227  0.93640775  1
  Zn  Zn131  1  0.30847011  0.05877037  0.06072002  1
  Zn  Zn132  1  0.31217181  0.06161739  0.57163434  1
  Zn  Zn133  1  0.30738087  0.56198451  0.05709453  1
  Zn  Zn134  1  0.31108583  0.56459678  0.56336799  1
  Zn  Zn135  1  0.81606996  0.05751974  0.06873303  1
  Zn  Zn136  1  0.80727452  0.08023985  0.55630887  1
  Zn  Zn137  1  0.81206636  0.56064989  0.06438510  1
  Zn  Zn138  1  0.81855768  0.55531126  0.56101186  1
  Zn  Zn139  1  0.43656529  0.43664499  0.18519161  1
  Zn  Zn140  1  0.44344282  0.43342741  0.68564606  1
  Zn  Zn141  1  0.43824836  0.93448828  0.18769243  1
  Zn  Zn142  1  0.43754917  0.94165241  0.69145404  1
  Zn  Zn143  1  0.93820088  0.43354400  0.18546841  1
  Zn  Zn144  1  0.94600625  0.43828283  0.68257574  1
  Zn  Zn145  1  0.93656415  0.93798373  0.19221775  1
  Zn  Zn146  1  0.94796097  0.94142913  0.68778435  1
  Zn  Zn147  1  0.06319393  0.06002527  0.31316216  1
  Zn  Zn148  1  0.06483008  0.06257162  0.81256939  1
  Zn  Zn149  1  0.05906751  0.57095737  0.31125305  1
  Zn  Zn150  1  0.05865767  0.56327822  0.81106176  1
  Zn  Zn151  1  0.51536090  0.07969910  0.33214668  1
  Zn  Zn152  1  0.57169937  0.07932646  0.81006917  1
  Zn  Zn153  1  0.59265244  0.53242762  0.35539556  1
  Zn  Zn154  1  0.55859787  0.56223995  0.80355496  1
  Zn  Zn155  1  0.44566823  0.18774575  0.44465971  1
  Zn  Zn156  1  0.43744211  0.18550039  0.93740471  1
  Zn  Zn157  1  0.43112141  0.69422110  0.43762512  1
  Zn  Zn158  1  0.43627490  0.68793911  0.93293602  1
  Zn  Zn159  1  0.94466095  0.18846718  0.43687771  1
  Zn  Zn160  1  0.94184217  0.18798984  0.93790685  1
  Zn  Zn161  1  0.93800302  0.69615991  0.44357117  1
  Zn  Zn162  1  0.93668028  0.68630499  0.94165328  1
  Zn  Zn163  1  0.05907704  0.31265484  0.06520526  1
  Zn  Zn164  1  0.06718913  0.31209499  0.56194511  1
  Zn  Zn165  1  0.06092007  0.81111374  0.06372841  1
  Zn  Zn166  1  0.05343920  0.81419739  0.55636889  1
  Zn  Zn167  1  0.56597646  0.31498165  -0.01055896  1
  Zn  Zn168  1  0.62820899  0.40048951  0.69867104  1
  Zn  Zn169  1  0.56325596  0.81063983  0.06269531  1
  Zn  Zn170  1  0.56758088  0.80829405  0.56671144  1
  O  O171  1  0.13019969  0.11663889  0.11623751  1
  O  O172  1  0.12087191  0.12258597  0.61769995  1
  O  O173  1  0.12679707  0.61280991  0.11822731  1
  O  O174  1  0.12269297  0.61924406  0.61955334  1
  O  O175  1  0.61904623  0.11190230  0.12245420  1
  O  O176  1  0.62220292  0.11851627  0.62016797  1
  O  O177  1  0.61842172  0.62069337  0.12044945  1
  O  O178  1  0.60058377  0.63715801  0.62027051  1
  O  O179  1  0.36981034  0.37394809  0.37686763  1
  O  O180  1  0.38270853  0.37301376  0.88222944  1
  O  O181  1  0.39275610  0.87089426  0.37119385  1
  O  O182  1  0.37630263  0.87582839  0.88615826  1
  O  O183  1  0.87512274  0.37396584  0.38506740  1
  O  O184  1  0.87848939  0.38037207  0.88039410  1
  O  O185  1  0.88207086  0.87800347  0.38067775  1
  O  O186  1  0.88504900  0.88007495  0.88581947  1
  O  O187  1  0.25038518  -0.00324136  0.35721157  1
  O  O188  1  0.24785020  0.00812816  0.86877779  1
  O  O189  1  0.25659380  0.50831739  0.36741669  1
  O  O190  1  0.25524763  0.50659673  0.87657865  1
  O  O191  1  0.73933937  -0.00334807  0.36182138  1
  O  O192  1  0.76643578  -0.00416025  0.86807735  1
  O  O193  1  0.75534572  0.51457002  0.36583351  1
  O  O194  1  0.76080076  0.51341470  0.88288210  1
  O  O195  1  0.23951426  0.49447582  0.12735621  1
  O  O196  1  0.23809639  0.49095569  0.61741436  1
  O  O197  1  0.24130689  0.99000350  0.12999644  1
  O  O198  1  0.23668696  1.00614214  0.63920499  1
  O  O199  1  0.74184452  0.49471804  0.13185278  1
  O  O200  1  0.72333895  0.51005477  0.59119626  1
  O  O201  1  0.74193956  0.99179190  0.12985382  1
  O  O202  1  0.74617438  1.01163309  0.63757512  1
  O  O203  1  0.01000094  0.36678104  0.24557993  1
  O  O204  1  0.01356449  0.37549755  0.75679843  1
  O  O205  1  0.00491416  0.87876166  0.26194360  1
  O  O206  1  0.00317788  0.87067354  0.76021633  1
  O  O207  1  0.50606686  0.36472711  0.24696975  1
  O  O208  1  0.52016653  0.37080087  0.73489643  1
  O  O209  1  0.50652485  0.86840680  0.25574981  1
  O  O210  1  0.50815258  0.86896432  0.75187397  1
  O  O211  1  0.50601137  0.13207970  0.23051719  1
  O  O212  1  0.47711537  0.11169049  0.75124249  1
  O  O213  1  0.48937152  0.63423441  0.24076068  1
  O  O214  1  0.48949244  0.63399512  0.73939167  1
  O  O215  1  0.98720803  0.12826390  0.25366397  1
  O  O216  1  0.99812946  0.12647491  0.74139753  1
  O  O217  1  0.99488479  0.63042052  0.24372448  1
  O  O218  1  0.99984746  0.62700030  0.73451074  1
  O  O219  1  0.37582147  0.25996644  0.00882946  1
  O  O220  1  0.36711519  0.25164331  0.50395361  1
  O  O221  1  0.37321302  0.75660459  0.00450046  1
  O  O222  1  0.36342674  0.74988022  0.51373305  1
  O  O223  1  0.87280309  0.25110812  0.00844289  1
  O  O224  1  0.88864402  0.25671164  0.50996695  1
  O  O225  1  0.86517584  0.75901101  -0.00398824  1
  O  O226  1  0.86179656  0.76463781  0.50140720  1
  O  O227  1  0.12405528  0.23657276  0.49742077  1
  O  O228  1  0.12136963  0.24368054  0.99453672  1
  O  O229  1  0.13195275  0.74486191  0.50162943  1
  O  O230  1  0.12161408  0.74222822  0.99016381  1
  O  O231  1  0.62281535  0.24620531  0.47720612  1
  O  O232  1  0.64765353  0.24187017  1.01865749  1
  O  O233  1  0.63915245  0.75469144  0.49225481  1
  O  O234  1  0.62912598  0.73794641  0.99891911  1
  O  O235  1  0.49034848  0.23814904  0.12511924  1
  O  O236  1  0.47671171  0.25220062  0.61435417  1
  O  O237  1  0.49335325  0.74448886  0.12959595  1
  O  O238  1  0.48742140  0.74592787  0.63101855  1
  O  O239  1  0.99144811  0.25359771  0.13773221  1
  O  O240  1  0.99863623  0.24357922  0.62984956  1
  O  O241  1  0.99432298  0.74900663  0.12722074  1
  O  O242  1  1.00383925  0.73532789  0.62551984  1
  O  O243  1  0.00445651  0.25021001  0.36021458  1
  O  O244  1  0.01117568  0.25789292  0.87474123  1
  O  O245  1  0.00244482  0.77112808  0.38509518  1
  O  O246  1  0.00288709  0.75573503  0.87095117  1
  O  O247  1  0.50300412  0.25440797  0.35834031  1
  O  O248  1  0.51893648  0.25044759  0.89934086  1
  O  O249  1  0.50659782  0.75529353  0.37212083  1
  O  O250  1  0.50183807  0.75142750  0.86081537  1
  O  O251  1  0.23907609  0.12436316  0.50018738  1
  O  O252  1  0.23831291  0.11808661  0.98788631  1
  O  O253  1  0.23901978  0.62973543  0.49632085  1
  O  O254  1  0.23315944  0.62812706  0.99935602  1
  O  O255  1  0.72981092  0.15612364  0.51246989  1
  O  O256  1  0.75948946  0.12883079  0.99722047  1
  O  O257  1  0.75355349  0.63639226  0.48746509  1
  O  O258  1  0.74170775  0.62912565  0.99876744  1
  O  O259  1  0.25917421  0.38074488  0.00997245  1
  O  O260  1  0.24912203  0.37607364  0.50364561  1
  O  O261  1  0.25680912  0.87517470  0.00723089  1
  O  O262  1  0.24060812  0.86857610  0.49323769  1
  O  O263  1  0.76075139  0.36178876  0.00898185  1
  O  O264  1  0.76052133  0.34559315  0.49322328  1
  O  O265  1  0.75712448  0.86553223  0.00452892  1
  O  O266  1  0.75724804  0.86935250  0.49863311  1
  O  O267  1  0.12516349  0.49630247  0.24258999  1
  O  O268  1  0.12006072  0.49381650  0.74058230  1
  O  O269  1  0.13293848  0.99187323  0.24319814  1
  O  O270  1  0.13006956  0.99834306  0.74243655  1
  O  O271  1  0.63484542  0.48927661  0.25305653  1
  O  O272  1  0.63553403  0.50098549  0.75486120  1
  O  O273  1  0.63117485  0.99186895  0.23825343  1
  O  O274  1  0.63720553  0.99426774  0.74484004  1
  O  O275  1  0.35842710  -0.00394438  0.24038446  1
  O  O276  1  0.36261681  0.00523124  0.75256431  1
  O  O277  1  0.36567920  0.50428360  0.25407871  1
  O  O278  1  0.38156072  0.51484473  0.74769400  1
  O  O279  1  0.86786912  0.01206978  0.24901460  1
  O  O280  1  0.87321354  0.00234167  0.75640037  1
  O  O281  1  0.86298541  0.48941184  0.25139774  1
  O  O282  1  0.87976996  0.49153461  0.76135436  1
  O  O283  1  0.13236194  0.37576071  0.36039468  1
  O  O284  1  0.12276725  0.37054495  0.87165597  1
  O  O285  1  0.11487404  0.87443755  0.36630494  1
  O  O286  1  0.11328280  0.86787121  0.87943232  1
  O  O287  1  0.61410298  0.35864865  0.35751639  1
  O  O288  1  0.60738626  0.37230010  0.89605603  1
  O  O289  1  0.61884831  0.86105770  0.36877558  1
  O  O290  1  0.62833644  0.87221392  0.86013673  1
  O  O291  1  0.37999084  0.13174496  0.11419524  1
  O  O292  1  0.35826314  0.14067489  0.63991335  1
  O  O293  1  0.37600923  0.63058528  0.12677228  1
  O  O294  1  0.37947248  0.63360885  0.63231451  1
  O  O295  1  0.87798773  0.13285096  0.13080085  1
  O  O296  1  0.88580495  0.13588334  0.62819214  1
  O  O297  1  0.88057355  0.62777480  0.12123348  1
  O  O298  1  0.89204287  0.62090867  0.61812349  1
  O  O299  1  0.25716735  0.26050080  0.13054995  1
  O  O300  1  0.25214231  0.26627940  0.62700832  1
  O  O301  1  0.25217906  0.76190833  0.12155388  1
  O  O302  1  0.25981904  0.75282977  0.61797903  1
  O  O303  1  0.76347934  0.25160101  0.12364013  1
  O  O304  1  0.76441879  0.24663521  0.62976080  1
  O  O305  1  0.74268827  0.75547853  0.11430170  1
  O  O306  1  0.74589814  0.74374621  0.61858878  1
  O  O307  1  0.25675142  0.26295856  0.38060734  1
  O  O308  1  0.23760148  0.24338595  0.87562043  1
  O  O309  1  0.25007981  0.74559641  0.38415864  1
  O  O310  1  0.23805084  0.74493243  0.87706417  1
  O  O311  1  0.73152793  0.24494660  0.35603488  1
  O  O312  1  0.75249512  0.23405321  0.88700581  1
  O  O313  1  0.74568208  0.74635722  0.37989673  1
  O  O314  1  0.74654201  0.73776441  0.89026939  1
  O  O315  1  0.01458276  0.12050076  -0.00450976  1
  O  O316  1  0.00612736  0.12333973  0.50936613  1
  O  O317  1  0.01046709  0.61549562  -0.00458627  1
  O  O318  1  0.01081389  0.62309361  0.50715343  1
  O  O319  1  0.50297408  0.11279328  0.00956220  1
  O  O320  1  0.51815954  0.12092867  0.50385748  1
  O  O321  1  0.50369967  0.62231780  0.00522622  1
  O  O322  1  0.48943041  0.62867893  0.51211491  1
  O  O323  1  0.49429082  0.37113601  0.47923926  1
  O  O324  1  0.48349861  0.39040241  1.01447757  1
  O  O325  1  0.50400264  0.86891515  0.49072626  1
  O  O326  1  0.49262160  0.87871953  0.99822250  1
  O  O327  1  0.99775119  0.38458139  0.50350691  1
  O  O328  1  0.99393147  0.38209593  0.99379624  1
  O  O329  1  0.98565558  0.88318199  0.49269348  1
  O  O330  1  0.99277535  0.87645663  0.99350404  1
  O  O331  1  0.48456402  0.48217799  0.36018881  1
  O  O332  1  0.49204573  0.50898291  0.88652668  1
  O  O333  1  0.51364670  0.97844094  0.38540014  1
  O  O334  1  0.50261469  1.00038221  0.88856167  1
  O  O335  1  1.00205322  0.50717861  0.38898430  1
  O  O336  1  0.99288061  0.49596783  0.88408655  1
  O  O337  1  1.00495181  0.98447890  0.37871200  1
  O  O338  1  0.99187890  0.99219960  0.87535570  1
  O  O339  1  0.01376367  -0.00543331  0.12642198  1
  O  O340  1  0.00893044  0.01373019  0.62253271  1
  O  O341  1  0.00615754  0.49330899  0.11225565  1
  O  O342  1  0.01133267  0.51016764  0.61510379  1
  O  O343  1  0.50527606  0.00185049  0.11748724  1
  O  O344  1  0.51500050  -0.00585967  0.62502835  1
  O  O345  1  0.50337294  0.50961954  0.12186643  1
  O  O346  1  0.49193589  0.51685462  0.61877950  1
  O  O347  1  0.23947055  0.38492122  0.23493749  1
  O  O348  1  0.23857418  0.37666208  0.74512243  1
  O  O349  1  0.24256405  0.88083896  0.24125418  1
  O  O350  1  0.24413348  0.88694305  0.75832576  1
  O  O351  1  0.74319924  0.37914877  0.24482160  1
  O  O352  1  0.71172490  0.34875139  0.77232609  1
  O  O353  1  0.74488308  0.88097566  0.24524550  1
  O  O354  1  0.75078870  0.87545444  0.74263519  1
  O  O355  1  0.24736829  0.11045598  0.24400749  1
  O  O356  1  0.25330516  0.11849115  0.76374237  1
  O  O357  1  0.25283737  0.62207695  0.25381786  1
  O  O358  1  0.26436356  0.62874376  0.74435365  1
  O  O359  1  0.76502369  0.11581287  0.24432625  1
  O  O360  1  0.76610092  0.11121293  0.76359590  1
  O  O361  1  0.74819939  0.61503359  0.25640404  1
  O  O362  1  0.75101848  0.63253233  0.76804651  1
  O  O363  1  0.41071862  0.11747585  0.36483014  1
  O  O364  1  0.36410664  0.12385500  0.87307385  1
  O  O365  1  0.37066529  0.61884684  0.36769624  1
  O  O366  1  0.37288488  0.62998667  0.85580456  1
  O  O367  1  0.87430553  0.12764524  0.36574277  1
  O  O368  1  0.87338962  0.11540973  0.87347128  1
  O  O369  1  0.86961911  0.62621592  0.37948068  1
  O  O370  1  0.86297196  0.61695267  0.88144746  1
  O  O371  1  0.12982211  0.38511662  0.12752785  1
  O  O372  1  0.13004407  0.38265963  0.63371215  1
  O  O373  1  0.13158794  0.88095046  0.12898282  1
  O  O374  1  0.11331477  0.89057687  0.62236968  1
  O  O375  1  0.63069869  0.38189388  0.13656359  1
  O  O376  1  0.64573522  0.34346387  0.59455698  1
  O  O377  1  0.62896501  0.87789477  0.13314360  1
  O  O378  1  0.62676244  0.88190800  0.63761433  1
  O  O379  1  0.11928624  0.25796588  0.25171674  1
  O  O380  1  0.12582633  0.25943096  0.76044193  1
  O  O381  1  0.12981940  0.76609376  0.25075929  1
  O  O382  1  0.12280087  0.75149265  0.76046503  1
  O  O383  1  0.61532788  0.25091205  0.24829749  1
  O  O384  1  0.61329340  0.19046956  0.76291785  1
  O  O385  1  0.61869847  0.75548591  0.25610078  1
  O  O386  1  0.61503797  0.75636816  0.74859680  1
  O  O387  1  0.38653624  0.25273938  0.23188138  1
  O  O388  1  0.37087881  0.24295819  0.74569911  1
  O  O389  1  0.37786872  0.74635775  0.24266558  1
  O  O390  1  0.37823844  0.74563698  0.73982148  1
  O  O391  1  0.88111848  0.23911442  0.24595054  1
  O  O392  1  0.88124130  0.24502791  0.74445094  1
  O  O393  1  0.87141761  0.74564999  0.24031029  1
  O  O394  1  0.86635072  0.76470419  0.74097546  1
  O  O395  1  0.37607012  0.50485242  0.48412755  1
  O  O396  1  0.38136075  0.49450654  1.00035364  1
  O  O397  1  0.37449728  1.00103604  0.50408556  1
  O  O398  1  0.38338570  0.98970197  0.99964011  1
  O  O399  1  0.88657468  0.48620318  0.49694433  1
  O  O400  1  0.88144786  0.49309446  0.99598860  1
  O  O401  1  0.86776696  0.99563811  0.50462018  1
  O  O402  1  0.87780370  0.99135600  0.99341090  1
  O  O403  1  0.12274425  0.00697641  0.01005468  1
  O  O404  1  0.12417652  0.01350732  0.50739654  1
  O  O405  1  0.11546608  0.50572728  0.00675869  1
  O  O406  1  0.12011089  0.51017004  0.50698035  1
  O  O407  1  0.61859367  -0.00935311  0.01315581  1
  O  O408  1  0.63357435  0.00888076  0.51138372  1
  O  O409  1  0.61249379  0.51424700  0.00954195  1
  O  O410  1  0.60577598  0.50297525  0.46845176  1
  O  O411  1  0.36433300  0.36932229  0.11865690  1
  O  O412  1  0.36243070  0.37133477  0.63076890  1
  O  O413  1  0.36795429  0.86983508  0.11542228  1
  O  O414  1  0.37691955  0.86282007  0.63131504  1
  O  O415  1  0.87011587  0.36494038  0.11944925  1
  O  O416  1  0.88259955  0.36407335  0.61842914  1
  O  O417  1  0.86964444  0.88284900  0.11481292  1
  O  O418  1  0.87548346  0.88023676  0.61762879  1
  O  O419  1  0.12355517  0.12649743  0.38891275  1
  O  O420  1  0.12912696  0.13381822  0.88097519  1
  O  O421  1  0.13033022  0.63037498  0.38331107  1
  O  O422  1  0.12190369  0.63229559  0.88057288  1
  O  O423  1  0.61521440  0.13425097  0.37597057  1
  O  O424  1  0.65017700  0.09922557  0.89163499  1
  O  O425  1  0.63498674  0.63966054  0.36954332  1
  O  O426  1  0.63544884  0.62472818  0.88370099  1
