# generated using pymatgen
data_V85Zn86O256
_symmetry_space_group_name_H-M   'P 1'
_cell_length_a   16.93706741
_cell_length_b   16.93435486
_cell_length_c   16.92993518
_cell_angle_alpha   90.02237530
_cell_angle_beta   90.01396052
_cell_angle_gamma   89.92784390
_symmetry_Int_Tables_number   1
_chemical_formula_structural   V85Zn86O256
_chemical_formula_sum   'V85 Zn86 O256'
_cell_volume   4855.81102710
_cell_formula_units_Z   1
loop_
 _symmetry_equiv_pos_site_id
 _symmetry_equiv_pos_as_xyz
  1  'x, y, z'
loop_
 _atom_site_type_symbol
 _atom_site_label
 _atom_site_symmetry_multiplicity
 _atom_site_fract_x
 _atom_site_fract_y
 _atom_site_fract_z
 _atom_site_occupancy
  V  V0  1  0.38409681  0.37552692  0.49797457  1
  V  V1  1  0.75186969  0.50086513  0.25988140  1
  V  V2  1  0.74610329  0.37247025  0.62091362  1
  V  V3  1  0.00503829  0.37474697  0.37419430  1
  V  V4  1  0.49135674  0.25044178  0.76175790  1
  V  V5  1  0.88089736  0.37284805  -0.00636549  1
  V  V6  1  0.37958142  0.49287865  0.87336931  1
  V  V7  1  0.37983298  0.62653836  0.74571884  1
  V  V8  1  0.12507144  0.00129033  0.62375425  1
  V  V9  1  0.24764059  0.37580484  0.62232551  1
  V  V10  1  0.11797107  0.62570200  0.00592590  1
  V  V11  1  0.50278301  0.02150796  0.49849526  1
  V  V12  1  -0.00132045  0.49991976  0.00793563  1
  V  V13  1  0.00649514  0.24997409  0.25535459  1
  V  V14  1  0.24594525  0.24939721  0.48782806  1
  V  V15  1  0.00255326  0.12679118  0.62571407  1
  V  V16  1  0.00027705  0.00009587  -0.00035501  1
  V  V17  1  0.13570041  0.37648369  0.24858595  1
  V  V18  1  0.62467060  0.62799209  -0.00903010  1
  V  V19  1  0.37096269  0.37747471  0.00949541  1
  V  V20  1  0.87011856  0.87613789  0.00584417  1
  V  V21  1  0.00078759  0.74902732  0.74892435  1
  V  V22  1  0.62826993  0.25231358  0.37719832  1
  V  V23  1  0.24750320  0.25458515  0.00868298  1
  V  V24  1  0.49761428  0.25325235  0.25248225  1
  V  V25  1  0.74574876  0.75320815  -0.00332183  1
  V  V26  1  0.00125758  0.12462039  0.12517463  1
  V  V27  1  0.37275942  0.24823061  0.62554933  1
  V  V28  1  0.87882427  0.87377254  0.49404339  1
  V  V29  1  0.50324027  0.49458522  -0.00313146  1
  V  V30  1  0.13388417  -0.00226446  0.12652418  1
  V  V31  1  0.87665039  0.25060634  0.12658019  1
  V  V32  1  0.87731991  0.25211143  0.62014913  1
  V  V33  1  0.87407276  0.62384397  0.74949953  1
  V  V34  1  0.88082549  0.49640465  0.87309337  1
  V  V35  1  0.88267483  0.61749914  0.25164301  1
  V  V36  1  0.12561419  0.62535620  0.49738708  1
  V  V37  1  0.74664430  0.12471563  0.37786036  1
  V  V38  1  0.50612127  0.85471527  0.37899216  1
  V  V39  1  0.25022969  0.50117606  0.74935760  1
  V  V40  1  0.37423717  0.12333935  0.74452060  1
  V  V41  1  0.75155695  0.37907845  0.12687973  1
  V  V42  1  0.51547191  0.74959660  0.75024134  1
  V  V43  1  0.61885091  0.37257411  0.75425981  1
  V  V44  1  0.87739412  -0.00582246  0.37020391  1
  V  V45  1  0.74337285  0.88274547  0.63782370  1
  V  V46  1  0.61635169  0.25460732  0.88412802  1
  V  V47  1  0.36729048  0.11818203  0.25863068  1
  V  V48  1  0.13777817  0.49943895  0.13043161  1
  V  V49  1  0.87401752  0.12347042  0.25068429  1
  V  V50  1  0.24764145  0.12783244  0.87847478  1
  V  V51  1  0.37989308  0.75317122  0.62576369  1
  V  V52  1  0.25434586  0.75121453  0.49933893  1
  V  V53  1  0.12369782  0.50093393  0.62256845  1
  V  V54  1  0.74982405  0.12019374  0.87393915  1
  V  V55  1  0.87002195  0.37665164  0.49220809  1
  V  V56  1  0.37783009  0.75153128  0.13051388  1
  V  V57  1  -0.00608800  0.50248527  0.49077043  1
  V  V58  1  0.61971898  0.37876225  0.25267123  1
  V  V59  1  0.12510434  0.87465313  0.74974363  1
  V  V60  1  0.50293876  0.62816361  0.12687744  1
  V  V61  1  -0.00070022  0.75863514  0.25167582  1
  V  V62  1  0.24942124  0.75010798  0.00255390  1
  V  V63  1  0.87164231  0.75234210  0.62376594  1
  V  V64  1  0.37677066  0.62387160  0.24912448  1
  V  V65  1  0.61850053  0.63114700  0.50017469  1
  V  V66  1  0.37597949  0.87434633  -0.00418214  1
  V  V67  1  0.87575617  0.74434202  0.12354992  1
  V  V68  1  0.37925394  0.49664135  0.37032457  1
  V  V69  1  0.12416952  0.74840050  0.87644663  1
  V  V70  1  0.74937127  0.49707821  0.75083891  1
  V  V71  1  0.50234647  0.11792387  0.12798870  1
  V  V72  1  0.74743128  0.25067715  0.00216330  1
  V  V73  1  0.73545441  -0.00374988  0.23849353  1
  V  V74  1  0.25160174  0.62321562  0.36972343  1
  V  V75  1  0.62078610  0.85779433  0.24389801  1
  V  V76  1  0.11781581  0.37377886  0.75652570  1
  V  V77  1  0.74652545  0.75277975  0.49064855  1
  V  V78  1  0.24885068  -0.00042048  0.75057496  1
  V  V79  1  -0.00021965  0.87507228  0.87701647  1
  V  V80  1  0.51755238  0.87323883  0.86991757  1
  V  V81  1  -0.00138259  0.62581051  0.62182164  1
  V  V82  1  0.24993483  0.62508946  0.87487886  1
  V  V83  1  0.13063131  0.12680185  0.48744879  1
  V  V84  1  0.49998921  0.50065365  0.50627211  1
  Zn  Zn85  1  0.70277234  0.19767473  0.54001242  1
  Zn  Zn86  1  0.00443298  -0.00555685  0.49231915  1
  Zn  Zn87  1  0.86837111  -0.00334019  0.86744429  1
  Zn  Zn88  1  0.25260497  0.87659415  0.62249248  1
  Zn  Zn89  1  0.62582983  0.11684701  0.00872346  1
  Zn  Zn90  1  0.37180541  0.25282616  0.12967209  1
  Zn  Zn91  1  -0.00625656  0.25308572  0.75768082  1
  Zn  Zn92  1  0.74657260  0.62744899  0.37218636  1
  Zn  Zn93  1  0.37672479  -0.00020954  0.87674968  1
  Zn  Zn94  1  0.50331157  -0.00593591  0.00662925  1
  Zn  Zn95  1  0.11746318  0.25473177  0.88204558  1
  Zn  Zn96  1  0.12771776  0.87808850  0.25953638  1
  Zn  Zn97  1  0.74716640  0.62803660  0.87157343  1
  Zn  Zn98  1  0.61759703  0.00166880  0.62588743  1
  Zn  Zn99  1  0.12538341  0.12713211  0.00071089  1
  Zn  Zn100  1  0.61871924  0.50034732  0.62714771  1
  Zn  Zn101  1  0.25160504  0.87521058  0.12971936  1
  Zn  Zn102  1  0.25205888  -0.00416818  0.26945182  1
  Zn  Zn103  1  0.62645591  0.50334401  0.12557713  1
  Zn  Zn104  1  0.11794777  0.75338941  0.37729452  1
  Zn  Zn105  1  0.37902024  0.88744065  0.49129324  1
  Zn  Zn106  1  0.86860406  0.12041459  0.74311431  1
  Zn  Zn107  1  0.18674024  0.18663694  0.18831191  1
  Zn  Zn108  1  0.18845926  0.18779518  0.68519517  1
  Zn  Zn109  1  0.18796272  0.68606762  0.18757755  1
  Zn  Zn110  1  0.19001841  0.68790960  0.68474642  1
  Zn  Zn111  1  0.68580465  0.18714160  0.19241734  1
  Zn  Zn112  1  0.65702343  0.15161113  0.70889127  1
  Zn  Zn113  1  0.69303979  0.68659847  0.17957204  1
  Zn  Zn114  1  0.68975580  0.68412788  0.67863129  1
  Zn  Zn115  1  0.31546905  0.31292253  0.31265000  1
  Zn  Zn116  1  0.30466782  0.31446191  0.81842091  1
  Zn  Zn117  1  0.31546284  0.81593745  0.31384401  1
  Zn  Zn118  1  0.31391133  0.81193014  0.81235080  1
  Zn  Zn119  1  0.81458826  0.31225651  0.31388849  1
  Zn  Zn120  1  0.80945714  0.30688155  0.81028703  1
  Zn  Zn121  1  0.80760526  0.81500973  0.30703962  1
  Zn  Zn122  1  0.81287268  0.81277509  0.81649023  1
  Zn  Zn123  1  0.18964300  0.43898186  0.43374010  1
  Zn  Zn124  1  0.18950619  0.43977480  0.93940663  1
  Zn  Zn125  1  0.18389551  0.93066026  0.43435539  1
  Zn  Zn126  1  0.18882624  0.93777512  0.93959860  1
  Zn  Zn127  1  0.68261806  0.43781711  0.43728708  1
  Zn  Zn128  1  0.69024461  0.43853935  0.93663751  1
  Zn  Zn129  1  0.67997681  0.94031794  0.43730608  1
  Zn  Zn130  1  0.68419658  0.93979089  0.94521675  1
  Zn  Zn131  1  0.31995285  0.06518673  0.06529590  1
  Zn  Zn132  1  0.31935914  0.06148735  0.44263267  1
  Zn  Zn133  1  0.31266821  0.56455809  0.06120265  1
  Zn  Zn134  1  0.31493709  0.56509385  0.56199958  1
  Zn  Zn135  1  0.81214364  0.06271947  0.06115353  1
  Zn  Zn136  1  0.81821197  0.05574740  0.56236363  1
  Zn  Zn137  1  0.81142494  0.56444258  0.06466533  1
  Zn  Zn138  1  0.80696337  0.56154094  0.56004494  1
  Zn  Zn139  1  0.43855211  0.44233819  0.18667184  1
  Zn  Zn140  1  0.43825290  0.43334437  0.68712385  1
  Zn  Zn141  1  0.44113342  0.93420329  0.19564213  1
  Zn  Zn142  1  0.43976872  0.93877818  0.68265149  1
  Zn  Zn143  1  0.94115747  0.43831490  0.18604573  1
  Zn  Zn144  1  0.93698101  0.43816921  0.68112201  1
  Zn  Zn145  1  0.93383943  0.93787763  0.18388866  1
  Zn  Zn146  1  0.93537639  0.93912930  0.68750391  1
  Zn  Zn147  1  0.06284691  0.05863627  0.31122628  1
  Zn  Zn148  1  0.05960881  0.06608146  0.81294710  1
  Zn  Zn149  1  0.06219485  0.56508424  0.31041433  1
  Zn  Zn150  1  0.05997729  0.55957086  0.81486812  1
  Zn  Zn151  1  0.55833051  0.06307238  0.31973619  1
  Zn  Zn152  1  0.56166402  0.05912749  0.81741079  1
  Zn  Zn153  1  0.56041447  0.56559929  0.31715675  1
  Zn  Zn154  1  0.56065141  0.56254764  0.81114517  1
  Zn  Zn155  1  0.44146497  0.19661704  0.43426078  1
  Zn  Zn156  1  0.43260374  0.18662469  0.94108666  1
  Zn  Zn157  1  0.43996400  0.68806798  0.43706989  1
  Zn  Zn158  1  0.43983366  0.68850340  0.93475720  1
  Zn  Zn159  1  0.93875806  0.18616181  0.43792276  1
  Zn  Zn160  1  0.93859002  0.18777210  0.93459907  1
  Zn  Zn161  1  0.93141295  0.68638311  0.43148752  1
  Zn  Zn162  1  0.93535219  0.68589615  0.93661078  1
  Zn  Zn163  1  0.06344561  0.31487406  0.06580334  1
  Zn  Zn164  1  0.06233545  0.31141635  0.56098610  1
  Zn  Zn165  1  0.05881310  0.81326340  0.07016422  1
  Zn  Zn166  1  0.06377449  0.81329440  0.55957503  1
  Zn  Zn167  1  0.55940018  0.31339161  0.07004354  1
  Zn  Zn168  1  0.57068661  0.28197092  0.58098357  1
  Zn  Zn169  1  0.56355550  0.81290898  0.06258392  1
  Zn  Zn170  1  0.56376572  0.81540463  0.56606936  1
  O  O171  1  0.11697652  0.11657250  0.12382656  1
  O  O172  1  0.12134941  0.11860757  0.61979053  1
  O  O173  1  0.12738102  0.61283684  0.11726266  1
  O  O174  1  0.11895510  0.61969762  0.61871434  1
  O  O175  1  0.60689307  0.13449747  0.12766333  1
  O  O176  1  0.61848391  0.17884347  0.60915423  1
  O  O177  1  0.61747856  0.62337846  0.11561970  1
  O  O178  1  0.63240538  0.61576770  0.60645181  1
  O  O179  1  0.36873607  0.38581853  0.38502702  1
  O  O180  1  0.36966901  0.38901557  0.88214062  1
  O  O181  1  0.39743731  0.86732763  0.37427798  1
  O  O182  1  0.37494877  0.87381730  0.88761043  1
  O  O183  1  0.88528564  0.37233513  0.38539768  1
  O  O184  1  0.86723541  0.38112741  0.88429428  1
  O  O185  1  0.86802418  0.88241402  0.38087215  1
  O  O186  1  0.88346812  0.87568685  0.88611622  1
  O  O187  1  0.24743253  0.00417827  0.38155231  1
  O  O188  1  0.25037673  0.00647107  0.86596596  1
  O  O189  1  0.26164763  0.51574494  0.38314300  1
  O  O190  1  0.25684292  0.50701860  0.86894133  1
  O  O191  1  0.75709212  0.00727029  0.36664622  1
  O  O192  1  0.74682504  0.01729037  0.88051070  1
  O  O193  1  0.75131643  0.49743766  0.36209994  1
  O  O194  1  0.76213544  0.50185136  0.86855083  1
  O  O195  1  0.23633266  0.49975348  0.11905063  1
  O  O196  1  0.24509706  0.49537895  0.62887732  1
  O  O197  1  0.23879893  1.00155816  0.12059071  1
  O  O198  1  0.23642734  0.99835495  0.64067302  1
  O  O199  1  0.74936082  0.49015223  0.13124922  1
  O  O200  1  0.75133079  0.48758406  0.63390644  1
  O  O201  1  0.75169260  1.00549677  0.14038616  1
  O  O202  1  0.75207273  0.98493979  0.62212710  1
  O  O203  1  0.00415947  0.36972713  0.25721097  1
  O  O204  1  0.01542293  0.37766297  0.74179808  1
  O  O205  1  -0.00429831  0.86059103  0.24546169  1
  O  O206  1  0.00597221  0.86769735  0.75543072  1
  O  O207  1  0.50955747  0.36964363  0.24216197  1
  O  O208  1  0.51038596  0.36882240  0.75159344  1
  O  O209  1  0.51275652  0.87623712  0.26262264  1
  O  O210  1  0.49554806  0.86330832  0.76143751  1
  O  O211  1  0.49230770  0.13193187  0.24554501  1
  O  O212  1  0.48614459  0.14160512  0.76306434  1
  O  O213  1  0.48918898  0.61971214  0.24099913  1
  O  O214  1  0.49209366  0.63873759  0.75645631  1
  O  O215  1  0.99571812  0.13298497  0.24568475  1
  O  O216  1  1.00319085  0.12945662  0.73492122  1
  O  O217  1  0.98599180  0.62950974  0.24897352  1
  O  O218  1  0.99460865  0.62845464  0.74294004  1
  O  O219  1  0.36734064  0.26250273  0.00098386  1
  O  O220  1  0.36894858  0.25705227  0.50775261  1
  O  O221  1  0.36967163  0.75271920  0.00717582  1
  O  O222  1  0.37010765  0.74329852  0.51156678  1
  O  O223  1  0.86809778  0.25756222  0.00585395  1
  O  O224  1  0.88357641  0.26182938  0.50943879  1
  O  O225  1  0.87309199  0.75471745  0.00605107  1
  O  O226  1  0.86816022  0.75299055  0.50561112  1
  O  O227  1  0.13275844  0.23721533  0.50625118  1
  O  O228  1  0.13210418  0.25000535  1.00130258  1
  O  O229  1  0.13423941  0.74160269  0.50135105  1
  O  O230  1  0.12666195  0.74202632  0.99979420  1
  O  O231  1  0.62751854  0.27080983  0.47887392  1
  O  O232  1  0.63172736  0.25385214  0.99950129  1
  O  O233  1  0.63164706  0.73861078  0.50708793  1
  O  O234  1  0.63435371  0.74199023  1.00407047  1
  O  O235  1  0.49540803  0.24466022  0.13769385  1
  O  O236  1  0.47665251  0.26196989  0.64252668  1
  O  O237  1  0.49142475  0.73558062  0.11620782  1
  O  O238  1  0.49390222  0.75529346  0.64081026  1
  O  O239  1  0.99485030  0.24525259  0.13181748  1
  O  O240  1  0.99546459  0.24411497  0.62747916  1
  O  O241  1  0.98653422  0.74833861  0.13435246  1
  O  O242  1  0.99278125  0.74411986  0.62768149  1
  O  O243  1  -0.00278828  0.25939843  0.36549446  1
  O  O244  1  0.00517289  0.24739486  0.87008660  1
  O  O245  1  -0.00320332  0.74275480  0.35589597  1
  O  O246  1  0.00532861  0.75375153  0.86967776  1
  O  O247  1  0.51062384  0.25086445  0.36074071  1
  O  O248  1  0.50456080  0.25223211  0.87598426  1
  O  O249  1  0.50854249  0.75488677  0.37494126  1
  O  O250  1  0.49698760  0.76054092  0.86215748  1
  O  O251  1  0.23832498  0.13415950  0.50005442  1
  O  O252  1  0.25248481  0.13299573  0.99374598  1
  O  O253  1  0.24627402  0.63306950  0.49456590  1
  O  O254  1  0.23953418  0.62941263  0.99427877  1
  O  O255  1  0.76305926  0.12233866  0.48375413  1
  O  O256  1  0.74771191  0.13627745  0.99687609  1
  O  O257  1  0.74374466  0.63386570  0.49637456  1
  O  O258  1  0.74056689  0.62964748  0.99920101  1
  O  O259  1  0.25848480  0.36806510  -0.00452985  1
  O  O260  1  0.25308188  0.37085762  0.50745368  1
  O  O261  1  0.25786289  0.86779455  0.00407701  1
  O  O262  1  0.25679807  0.86097505  0.50064145  1
  O  O263  1  0.75817143  0.37138596  0.00902597  1
  O  O264  1  0.75973446  0.38502932  0.50669263  1
  O  O265  1  0.75899701  0.86744279  -0.00535886  1
  O  O266  1  0.75836672  0.86812239  0.50594421  1
  O  O267  1  0.12095378  0.49636308  0.23692809  1
  O  O268  1  0.12835557  0.49305804  0.74377386  1
  O  O269  1  0.12750335  0.99967008  0.23995263  1
  O  O270  1  0.12868337  0.99473531  0.74648483  1
  O  O271  1  0.63156514  0.49573681  0.24865853  1
  O  O272  1  0.62821237  0.49043119  0.74964850  1
  O  O273  1  0.63504399  1.00370758  0.25168223  1
  O  O274  1  0.62718232  1.04224616  0.73056569  1
  O  O275  1  0.37292125  0.01482879  0.24800030  1
  O  O276  1  0.36656728  0.00688432  0.74988781  1
  O  O277  1  0.37723457  0.50664928  0.26026245  1
  O  O278  1  0.37333850  0.50567088  0.75547504  1
  O  O279  1  0.86646106  0.00248006  0.25379381  1
  O  O280  1  0.88206379  0.00798614  0.75538063  1
  O  O281  1  0.87005898  0.51067884  0.24304866  1
  O  O282  1  0.87263755  0.50091887  0.75621022  1
  O  O283  1  0.11277731  0.38339969  0.36631224  1
  O  O284  1  0.12949403  0.37980442  0.85907515  1
  O  O285  1  0.11766784  0.86614844  0.37350776  1
  O  O286  1  0.11956419  0.86760503  0.87176720  1
  O  O287  1  0.63272868  0.37104798  0.35803250  1
  O  O288  1  0.63193924  0.36367857  0.86889597  1
  O  O289  1  0.61518679  0.87674793  0.36426134  1
  O  O290  1  0.61573783  0.87453689  0.87270373  1
  O  O291  1  0.38447810  0.13085688  0.13788305  1
  O  O292  1  0.36629203  0.13728995  0.64251721  1
  O  O293  1  0.38063537  0.62909881  0.12993283  1
  O  O294  1  0.37124328  0.63198501  0.63926784  1
  O  O295  1  0.88123868  0.13023875  0.13088782  1
  O  O296  1  0.88354747  0.13348174  0.62072103  1
  O  O297  1  0.87124364  0.63218527  0.13723879  1
  O  O298  1  0.87716996  0.63509266  0.62774325  1
  O  O299  1  0.25194283  0.24684413  0.11291580  1
  O  O300  1  0.25640356  0.25898866  0.61967550  1
  O  O301  1  0.25876090  0.74876464  0.11770344  1
  O  O302  1  0.25910974  0.75040458  0.61708130  1
  O  O303  1  0.75393016  0.25720132  0.11905637  1
  O  O304  1  0.76249749  0.26515519  0.61791601  1
  O  O305  1  0.76390562  0.74746300  0.11061817  1
  O  O306  1  0.75789576  0.75720590  0.61630759  1
  O  O307  1  0.25042114  0.25617840  0.38895635  1
  O  O308  1  0.24346216  0.24344266  0.88595660  1
  O  O309  1  0.25431705  0.73844758  0.38334748  1
  O  O310  1  0.24332000  0.74435974  0.88152759  1
  O  O311  1  0.74295448  0.23921347  0.36513003  1
  O  O312  1  0.74364279  0.24859960  0.89055365  1
  O  O313  1  0.75330407  0.75112526  0.38748597  1
  O  O314  1  0.75870282  0.74417405  0.89030409  1
  O  O315  1  -0.00054237  0.11599318  0.00715681  1
  O  O316  1  0.01118698  0.12451137  0.50979336  1
  O  O317  1  0.01148909  0.61775386  -0.00508889  1
  O  O318  1  0.00220477  0.61986468  0.50042481  1
  O  O319  1  0.49480869  0.12755663  0.01838390  1
  O  O320  1  0.49942233  0.12174438  0.49696818  1
  O  O321  1  0.50559184  0.61730136  0.00353810  1
  O  O322  1  0.51076354  0.61877905  0.49994027  1
  O  O323  1  0.48584271  0.37847704  0.50597978  1
  O  O324  1  0.49380704  0.38882074  1.00620982  1
  O  O325  1  0.50131171  0.86806079  0.48727099  1
  O  O326  1  0.49429651  0.86867991  0.98510186  1
  O  O327  1  0.99698240  0.38286705  0.49238290  1
  O  O328  1  0.98743316  0.38147269  1.00464672  1
  O  O329  1  0.98378560  0.87356712  0.50405601  1
  O  O330  1  0.99450609  0.88146603  0.99663743  1
  O  O331  1  0.48707837  0.50402630  0.38854013  1
  O  O332  1  0.49046793  0.50453722  0.88329269  1
  O  O333  1  0.50603504  0.99557905  0.39331235  1
  O  O334  1  0.49583760  0.98340325  0.87245325  1
  O  O335  1  1.00165162  0.49572370  0.38438586  1
  O  O336  1  0.98803998  0.50069754  0.88561432  1
  O  O337  1  0.98255235  1.00536390  0.37382887  1
  O  O338  1  1.00252358  0.99624681  0.88863548  1
  O  O339  1  0.00601162  0.00340646  0.11627676  1
  O  O340  1  0.01149969  0.00619942  0.62213870  1
  O  O341  1  0.00633832  0.50046394  0.11201141  1
  O  O342  1  0.00398986  0.50727599  0.61321746  1
  O  O343  1  0.49461751  0.01537501  0.13019137  1
  O  O344  1  0.50258413  -0.00745779  0.60728850  1
  O  O345  1  0.50075499  0.51239107  0.11549216  1
  O  O346  1  0.49673910  0.49705753  0.61197851  1
  O  O347  1  0.23496784  0.37130780  0.25547898  1
  O  O348  1  0.24250619  0.38288433  0.74183930  1
  O  O349  1  0.24915402  0.87844282  0.24638973  1
  O  O350  1  0.24305366  0.88263054  0.75125776  1
  O  O351  1  0.74871846  0.38143444  0.24222455  1
  O  O352  1  0.73932818  0.37642527  0.74356171  1
  O  O353  1  0.73498760  0.88754347  0.25309519  1
  O  O354  1  0.75689171  0.87007656  0.73597695  1
  O  O355  1  0.26475871  0.12583336  0.24713486  1
  O  O356  1  0.25300128  0.11911871  0.75723029  1
  O  O357  1  0.26388755  0.62911641  0.25672652  1
  O  O358  1  0.25636561  0.61928442  0.75474620  1
  O  O359  1  0.75535124  0.11654718  0.25587695  1
  O  O360  1  0.75375768  0.14514383  0.77258304  1
  O  O361  1  0.75672617  0.61588810  0.24877448  1
  O  O362  1  0.75648182  0.61647473  0.74849086  1
  O  O363  1  0.37684343  0.13114442  0.36298620  1
  O  O364  1  0.36226975  0.12405080  0.86770066  1
  O  O365  1  0.37245074  0.62064435  0.36662667  1
  O  O366  1  0.36958611  0.61826631  0.86605841  1
  O  O367  1  0.86942966  0.12069765  0.36634788  1
  O  O368  1  0.85830406  0.12494538  0.88031188  1
  O  O369  1  0.86753798  0.62637176  0.35598050  1
  O  O370  1  0.87462669  0.61518129  0.86624662  1
  O  O371  1  0.11958131  0.39005791  0.13387023  1
  O  O372  1  0.13239351  0.38140963  0.62933309  1
  O  O373  1  0.12645480  0.88479898  0.12949099  1
  O  O374  1  0.12669179  0.88320411  0.62975768  1
  O  O375  1  0.63567225  0.37736727  0.13430804  1
  O  O376  1  0.63206005  0.37259747  0.63389329  1
  O  O377  1  0.61380889  0.87435177  0.14380693  1
  O  O378  1  0.64063262  0.87448343  0.62818944  1
  O  O379  1  0.11366776  0.25926565  0.24248385  1
  O  O380  1  0.12874546  0.26785409  0.74787785  1
  O  O381  1  0.10701358  0.74596644  0.24450969  1
  O  O382  1  0.12022225  0.75355384  0.75403920  1
  O  O383  1  0.61893171  0.26009772  0.25492507  1
  O  O384  1  0.61008710  0.25483774  0.76438660  1
  O  O385  1  0.63468779  0.75883056  0.24774228  1
  O  O386  1  0.61380800  0.74088763  0.74662317  1
  O  O387  1  0.38215791  0.24505686  0.25041264  1
  O  O388  1  0.37419962  0.24898006  0.75026320  1
  O  O389  1  0.37446239  0.74294422  0.23591397  1
  O  O390  1  0.37722014  0.74229633  0.74365878  1
  O  O391  1  0.88444226  0.24584948  0.24421871  1
  O  O392  1  0.87634848  0.25070389  0.73406897  1
  O  O393  1  0.87865532  0.74355067  0.24269673  1
  O  O394  1  0.88098463  0.74546918  0.74212627  1
  O  O395  1  0.37964598  0.49493673  0.49539909  1
  O  O396  1  0.38055690  0.49669517  0.99277186  1
  O  O397  1  0.39249087  1.00141454  0.50471700  1
  O  O398  1  0.38109380  0.98915151  0.99941275  1
  O  O399  1  0.88451843  0.49202415  0.50533642  1
  O  O400  1  0.88028982  0.49492426  0.99490706  1
  O  O401  1  0.87863690  0.98959258  0.48983564  1
  O  O402  1  0.88173894  0.99199698  0.99878487  1
  O  O403  1  0.11705400  0.00091534  0.00759671  1
  O  O404  1  0.12457282  0.01024816  0.50876545  1
  O  O405  1  0.11821519  0.50418287  0.00688076  1
  O  O406  1  0.11783302  0.50619379  0.50359694  1
  O  O407  1  0.61557519  0.00442087  0.00175431  1
  O  O408  1  0.61363532  0.00138504  0.50831749  1
  O  O409  1  0.61847526  0.50505171  0.00104554  1
  O  O410  1  0.61474555  0.50360776  0.50244244  1
  O  O411  1  0.37501323  0.37814123  0.11316523  1
  O  O412  1  0.36191902  0.37236326  0.61951844  1
  O  O413  1  0.38079199  0.86660552  0.11564414  1
  O  O414  1  0.37195620  0.86244617  0.62370148  1
  O  O415  1  0.86839824  0.37071025  0.11917597  1
  O  O416  1  0.87072796  0.37072776  0.61461000  1
  O  O417  1  0.87790272  0.86653402  0.11183475  1
  O  O418  1  0.87067830  0.86437940  0.61877280  1
  O  O419  1  0.11688744  0.12465595  0.38954192  1
  O  O420  1  0.13760919  0.12486994  0.87757495  1
  O  O421  1  0.13431347  0.62833182  0.37816350  1
  O  O422  1  0.12909169  0.62872009  0.88192698  1
  O  O423  1  0.63601738  0.13681517  0.36932446  1
  O  O424  1  0.63297680  0.13997504  0.88380712  1
  O  O425  1  0.62968090  0.61775742  0.39314909  1
  O  O426  1  0.62618741  0.62063238  0.88701688  1
