# generated using pymatgen
data_V85Zn86O256
_symmetry_space_group_name_H-M   'P 1'
_cell_length_a   16.96689472
_cell_length_b   16.96051979
_cell_length_c   16.95210564
_cell_angle_alpha   89.99193241
_cell_angle_beta   90.08548346
_cell_angle_gamma   89.98197715
_symmetry_Int_Tables_number   1
_chemical_formula_structural   V85Zn86O256
_chemical_formula_sum   'V85 Zn86 O256'
_cell_volume   4878.25685919
_cell_formula_units_Z   1
loop_
 _symmetry_equiv_pos_site_id
 _symmetry_equiv_pos_as_xyz
  1  'x, y, z'
loop_
 _atom_site_type_symbol
 _atom_site_label
 _atom_site_symmetry_multiplicity
 _atom_site_fract_x
 _atom_site_fract_y
 _atom_site_fract_z
 _atom_site_occupancy
  V  V0  1  0.48997130  -0.00314018  0.49883525  1
  V  V1  1  0.62496263  0.25577344  0.38586964  1
  V  V2  1  0.62353116  0.37286881  0.76114752  1
  V  V3  1  0.63244571  0.87122923  0.24094825  1
  V  V4  1  0.62059275  0.86579293  0.74769320  1
  V  V5  1  0.86555674  0.37519216  0.50503126  1
  V  V6  1  0.25085630  0.86987323  0.62553234  1
  V  V7  1  0.25082905  0.62330941  0.87475160  1
  V  V8  1  0.86758271  -0.00240985  0.87755630  1
  V  V9  1  0.86573507  0.12725586  0.75511661  1
  V  V10  1  0.25887822  0.25132299  0.00024328  1
  V  V11  1  -0.00213275  0.25136244  0.24623930  1
  V  V12  1  0.12463176  0.50008114  0.62469115  1
  V  V13  1  0.62530484  0.49816304  0.62047205  1
  V  V14  1  0.86979376  0.38997452  -0.00241572  1
  V  V15  1  0.63192372  0.12377831  0.50360926  1
  V  V16  1  0.25826446  0.37642731  0.12208236  1
  V  V17  1  0.76461323  0.75448590  0.00416576  1
  V  V18  1  -0.00478489  0.00034624  0.50219517  1
  V  V19  1  0.63309653  0.63008816  0.49908673  1
  V  V20  1  0.49479663  0.50257203  0.49000030  1
  V  V21  1  0.00030008  0.00583958  -0.00161446  1
  V  V22  1  0.24537382  0.12440520  0.87886923  1
  V  V23  1  0.31563873  0.81595207  0.45090819  1
  V  V24  1  0.38149820  0.62502171  0.75105829  1
  V  V25  1  -0.00329041  0.63022829  0.12405165  1
  V  V26  1  0.12210090  0.49999941  0.12412303  1
  V  V27  1  0.37655537  0.74034978  0.12429299  1
  V  V28  1  0.12585771  0.12712012  0.50304047  1
  V  V29  1  0.00391011  0.12683695  0.11738302  1
  V  V30  1  0.87092126  0.25490627  0.11466046  1
  V  V31  1  -0.00211069  0.12662801  0.63086884  1
  V  V32  1  0.87642754  0.64065839  0.25144886  1
  V  V33  1  0.12119484  0.24743788  0.88350258  1
  V  V34  1  0.50426663  0.74247299  0.24431655  1
  V  V35  1  0.85798832  0.87430673  0.50340505  1
  V  V36  1  0.37268723  0.37902629  0.49843897  1
  V  V37  1  0.24437356  0.74926264  0.00199511  1
  V  V38  1  0.25004934  -0.00158154  0.75037683  1
  V  V39  1  0.50546675  0.87337817  0.37630766  1
  V  V40  1  0.61995578  0.74359260  0.88014518  1
  V  V41  1  -0.00166063  0.62666032  0.62488007  1
  V  V42  1  0.37423597  0.12446587  0.75078246  1
  V  V43  1  0.25234258  0.12007557  0.36726152  1
  V  V44  1  -0.00277710  0.50075204  0.49685726  1
  V  V45  1  0.12907600  0.63872332  0.49639005  1
  V  V46  1  0.49331517  0.37334116  0.36770701  1
  V  V47  1  0.12473196  0.25085835  0.37620662  1
  V  V48  1  0.50092096  0.62883390  0.62421458  1
  V  V49  1  -0.00737872  0.87355393  0.87947224  1
  V  V50  1  0.56252074  0.57065891  0.05966955  1
  V  V51  1  0.82696960  0.46045457  0.32470014  1
  V  V52  1  0.50061104  0.12267407  0.62517492  1
  V  V53  1  -0.00017976  0.37817522  0.37633245  1
  V  V54  1  0.12113602  0.62020102  -0.00075329  1
  V  V55  1  0.75072982  0.62240293  0.88262680  1
  V  V56  1  0.87051447  0.00540702  0.37501809  1
  V  V57  1  0.74708073  0.36393342  0.62403114  1
  V  V58  1  0.50313602  0.25163110  0.75889101  1
  V  V59  1  0.12257021  0.89959095  0.24661953  1
  V  V60  1  0.25482579  0.49745241  0.74985651  1
  V  V61  1  0.37378553  0.25109295  0.62640790  1
  V  V62  1  0.62810049  -0.00681288  0.62350138  1
  V  V63  1  0.38419656  0.49086390  0.88791667  1
  V  V64  1  0.12285331  0.37363047  0.75164858  1
  V  V65  1  0.25921356  0.50312397  0.25987359  1
  V  V66  1  0.49917405  0.24740089  0.25275757  1
  V  V67  1  0.37555476  0.87234935  0.00529980  1
  V  V68  1  0.37729497  0.75359112  0.63065022  1
  V  V69  1  0.85959142  0.75392892  0.62202355  1
  V  V70  1  0.76035740  0.63418686  0.37922274  1
  V  V71  1  0.50747927  0.12363313  0.12635840  1
  V  V72  1  -0.00353173  0.75072489  0.74863230  1
  V  V73  1  0.87390907  0.62135154  0.75294285  1
  V  V74  1  0.50668197  -0.00617833  -0.00182240  1
  V  V75  1  0.37428778  -0.00359223  0.87533934  1
  V  V76  1  0.63445738  0.74965123  0.37439976  1
  V  V77  1  0.12299769  0.87296914  0.75057828  1
  V  V78  1  0.12586493  0.37832422  0.25029294  1
  V  V79  1  0.63696235  -0.00325090  0.12075603  1
  V  V80  1  0.01836072  0.74975644  0.26096115  1
  V  V81  1  0.74718744  -0.00552075  0.75052943  1
  V  V82  1  0.63419341  0.13017784  -0.01276674  1
  V  V83  1  0.75131301  0.49926739  0.75176878  1
  V  V84  1  -0.00111830  0.39012532  0.88300257  1
  Zn  Zn85  1  0.37477213  0.62436650  0.25872024  1
  Zn  Zn86  1  0.50413009  0.36768442  0.89963402  1
  Zn  Zn87  1  0.16428050  0.06739683  0.05678569  1
  Zn  Zn88  1  0.68542770  0.43428201  0.18667710  1
  Zn  Zn89  1  0.12280287  0.74698377  0.87394298  1
  Zn  Zn90  1  0.25158618  0.25048474  0.49931839  1
  Zn  Zn91  1  0.79374086  0.84853842  0.13151425  1
  Zn  Zn92  1  0.38358983  0.25345680  0.12183485  1
  Zn  Zn93  1  0.86674173  0.13018413  0.24612128  1
  Zn  Zn94  1  -0.00501084  0.25197373  0.75265664  1
  Zn  Zn95  1  0.74625290  0.13003348  0.37160728  1
  Zn  Zn96  1  0.75014910  0.25492141  -0.01473835  1
  Zn  Zn97  1  0.86853235  0.24547088  0.62115578  1
  Zn  Zn98  1  0.24789943  0.37306961  0.62415846  1
  Zn  Zn99  1  0.37105942  -0.00535294  0.36777089  1
  Zn  Zn100  1  0.25178470  0.63124251  0.38162161  1
  Zn  Zn101  1  0.12543176  0.00016476  0.62624000  1
  Zn  Zn102  1  0.49695238  0.86503221  0.87183679  1
  Zn  Zn103  1  0.00275496  0.87178027  0.38024375  1
  Zn  Zn104  1  0.74949244  0.00928091  0.24668627  1
  Zn  Zn105  1  0.22826032  0.88891423  0.11850688  1
  Zn  Zn106  1  0.37334587  0.11463188  0.24243294  1
  Zn  Zn107  1  0.18829981  0.19345212  0.18959807  1
  Zn  Zn108  1  0.18713849  0.18901420  0.69050234  1
  Zn  Zn109  1  0.18955469  0.68773613  0.18390466  1
  Zn  Zn110  1  0.18888661  0.68735517  0.68485929  1
  Zn  Zn111  1  0.68968747  0.22266097  0.19225945  1
  Zn  Zn112  1  0.68691185  0.18604175  0.80972599  1
  Zn  Zn113  1  0.70726475  0.63374011  0.16677917  1
  Zn  Zn114  1  0.68585670  0.68617062  0.69047143  1
  Zn  Zn115  1  0.31370093  0.30900059  0.31091840  1
  Zn  Zn116  1  0.31298902  0.31285036  0.81459224  1
  Zn  Zn117  1  0.30714096  0.82127281  0.28790104  1
  Zn  Zn118  1  0.31267186  0.80903645  0.81389102  1
  Zn  Zn119  1  0.81265144  0.29423861  0.31760641  1
  Zn  Zn120  1  0.81732057  0.31671361  0.81318702  1
  Zn  Zn121  1  0.81638521  0.81791437  0.31368852  1
  Zn  Zn122  1  0.80764111  0.81095593  0.81147825  1
  Zn  Zn123  1  0.18567407  0.43872305  0.44006859  1
  Zn  Zn124  1  0.18950388  0.43716433  0.93817004  1
  Zn  Zn125  1  0.17720918  0.94327483  0.43187258  1
  Zn  Zn126  1  0.18493360  0.93264066  0.93559862  1
  Zn  Zn127  1  0.64554018  0.47411239  0.38491937  1
  Zn  Zn128  1  0.68581083  0.44364189  0.94053521  1
  Zn  Zn129  1  0.68562613  0.94148471  0.43548517  1
  Zn  Zn130  1  0.69110850  0.92619228  0.93819753  1
  Zn  Zn131  1  0.32551609  0.06129578  0.06402509  1
  Zn  Zn132  1  0.31064813  0.06093037  0.56091612  1
  Zn  Zn133  1  0.30834831  0.56286706  0.06576360  1
  Zn  Zn134  1  0.31176029  0.56355465  0.56251007  1
  Zn  Zn135  1  0.81735282  0.06560528  0.06046227  1
  Zn  Zn136  1  0.80946199  0.06072192  0.56802465  1
  Zn  Zn137  1  0.81317290  0.55484175  0.06696550  1
  Zn  Zn138  1  0.81209318  0.56036635  0.56446286  1
  Zn  Zn139  1  0.44145867  0.43552251  0.07067073  1
  Zn  Zn140  1  0.44092750  0.43800788  0.68460992  1
  Zn  Zn141  1  0.44002142  0.93590266  0.18783990  1
  Zn  Zn142  1  0.44031739  0.93458142  0.68846878  1
  Zn  Zn143  1  0.94060123  0.43925924  0.17909073  1
  Zn  Zn144  1  0.93727741  0.43786331  0.68819155  1
  Zn  Zn145  1  0.94081747  0.94706447  0.19360021  1
  Zn  Zn146  1  0.93382865  0.93763068  0.68716833  1
  Zn  Zn147  1  0.05502617  0.06936856  0.31628097  1
  Zn  Zn148  1  0.06051682  0.06091286  0.81412852  1
  Zn  Zn149  1  0.06585943  0.56397573  0.31568686  1
  Zn  Zn150  1  0.06415272  0.56323051  0.80989019  1
  Zn  Zn151  1  0.56497468  0.06092169  0.31254135  1
  Zn  Zn152  1  0.55810116  0.05478980  0.81045403  1
  Zn  Zn153  1  0.53829344  0.53517090  0.23796620  1
  Zn  Zn154  1  0.56373864  0.56052828  0.81378777  1
  Zn  Zn155  1  0.43608218  0.18579554  0.44189045  1
  Zn  Zn156  1  0.43954624  0.18296991  0.93947396  1
  Zn  Zn157  1  0.44333910  0.68105019  0.42901355  1
  Zn  Zn158  1  0.43496348  0.68538230  0.93604691  1
  Zn  Zn159  1  0.93524831  0.18944723  0.43951900  1
  Zn  Zn160  1  0.93530129  0.18941890  0.93348827  1
  Zn  Zn161  1  0.93989294  0.69162948  0.44130134  1
  Zn  Zn162  1  0.93803821  0.68284631  0.93521346  1
  Zn  Zn163  1  0.06380611  0.31390067  0.06007166  1
  Zn  Zn164  1  0.05750704  0.31204575  0.56450096  1
  Zn  Zn165  1  0.00519680  0.83677939  0.08896771  1
  Zn  Zn166  1  0.05642970  0.81467316  0.56649553  1
  Zn  Zn167  1  0.58020673  0.31532097  0.07509118  1
  Zn  Zn168  1  0.55928623  0.31316409  0.56537987  1
  Zn  Zn169  1  0.56722670  0.80128337  0.06131563  1
  Zn  Zn170  1  0.56260165  0.81097412  0.56048062  1
  O  O171  1  0.10993272  0.13971488  0.12532165  1
  O  O172  1  0.11809962  0.12418047  0.62057009  1
  O  O173  1  0.12179014  0.61836165  0.11709760  1
  O  O174  1  0.11860548  0.61946419  0.61966950  1
  O  O175  1  0.61719899  0.11386847  0.11226908  1
  O  O176  1  0.61290453  0.10970129  0.61787790  1
  O  O177  1  0.60534951  0.64170518  0.11950402  1
  O  O178  1  0.61811136  0.62179370  0.61887583  1
  O  O179  1  0.37914188  0.36694206  0.38992989  1
  O  O180  1  0.37816025  0.38887562  0.87285595  1
  O  O181  1  0.37729948  0.86895126  0.38118550  1
  O  O182  1  0.37593907  0.87612150  0.88555477  1
  O  O183  1  0.87691318  0.38214341  0.38217228  1
  O  O184  1  0.89058459  0.37632291  0.88350538  1
  O  O185  1  0.87955078  0.88570670  0.38517594  1
  O  O186  1  0.88304789  0.88321614  0.86437161  1
  O  O187  1  0.25088561  0.01676219  0.38221736  1
  O  O188  1  0.25471280  0.00271540  0.87009471  1
  O  O189  1  0.24419642  0.49815063  0.36186978  1
  O  O190  1  0.26012996  0.50258773  0.86702292  1
  O  O191  1  0.75956208  0.00362718  0.37185348  1
  O  O192  1  0.76010412  -0.00857314  0.86983818  1
  O  O193  1  0.75979676  0.51290123  0.38267988  1
  O  O194  1  0.74336637  0.50830589  0.86025090  1
  O  O195  1  0.24038988  0.49397212  0.13313513  1
  O  O196  1  0.24562848  0.49826258  0.63728454  1
  O  O197  1  0.24196925  1.00047448  0.10158596  1
  O  O198  1  0.25154873  0.98656507  0.63060942  1
  O  O199  1  0.73404688  0.52443720  0.13626886  1
  O  O200  1  0.74183039  0.49656308  0.63481782  1
  O  O201  1  0.74120247  1.00085217  0.12240079  1
  O  O202  1  0.73558286  0.99990113  0.63326359  1
  O  O203  1  0.00325127  0.36835406  0.25403596  1
  O  O204  1  0.00670638  0.37514862  0.75990785  1
  O  O205  1  0.00790275  0.86275845  0.25595974  1
  O  O206  1  0.00668055  0.87199773  0.75465656  1
  O  O207  1  0.49226379  0.36465961  0.26671634  1
  O  O208  1  0.50964011  0.36644644  0.74548816  1
  O  O209  1  0.50846978  0.86650627  0.26000900  1
  O  O210  1  0.51459495  0.87853380  0.75552096  1
  O  O211  1  0.50261880  0.12781225  0.24117835  1
  O  O212  1  0.49368199  0.13046083  0.74565738  1
  O  O213  1  0.49586269  0.63926137  0.25693886  1
  O  O214  1  0.48893072  0.61614809  0.74015307  1
  O  O215  1  0.99707165  0.14129107  0.24382343  1
  O  O216  1  0.99205817  0.12453341  0.74337902  1
  O  O217  1  0.99918600  0.63469448  0.25014141  1
  O  O218  1  0.99250131  0.62916418  0.74623865  1
  O  O219  1  0.36297211  0.24691430  -0.00015851  1
  O  O220  1  0.37491580  0.25673845  0.51173917  1
  O  O221  1  0.36647836  0.75336792  0.00390317  1
  O  O222  1  0.37474585  0.75283485  0.50646297  1
  O  O223  1  0.87893583  0.26282036  0.00148967  1
  O  O224  1  0.88100567  0.26680576  0.50366643  1
  O  O225  1  0.86368136  0.74944956  -0.00850612  1
  O  O226  1  0.88128355  0.76294762  0.50971132  1
  O  O227  1  0.12214440  0.23976907  0.49723834  1
  O  O228  1  0.13378336  0.25416805  0.98747378  1
  O  O229  1  0.11795608  0.73695122  0.50702789  1
  O  O230  1  0.13811761  0.73738893  0.99752112  1
  O  O231  1  0.61129848  0.23745356  0.49427909  1
  O  O232  1  0.62888408  0.23155012  0.99903520  1
  O  O233  1  0.62033949  0.73855546  0.49104445  1
  O  O234  1  0.63635164  0.75007424  0.98397171  1
  O  O235  1  0.50461979  0.23994722  0.13755027  1
  O  O236  1  0.48941829  0.24407064  0.63469454  1
  O  O237  1  0.48953329  0.75846039  0.13369104  1
  O  O238  1  0.49289780  0.73722224  0.62035887  1
  O  O239  1  0.99371474  0.25023489  0.12919165  1
  O  O240  1  0.99836833  0.23680677  0.62967312  1
  O  O241  1  1.00690700  0.73440257  0.14228312  1
  O  O242  1  0.99167429  0.74386651  0.63252903  1
  O  O243  1  0.00335444  0.25629673  0.36641987  1
  O  O244  1  0.00907533  0.25862437  0.87205224  1
  O  O245  1  0.00217905  0.75074893  0.36474151  1
  O  O246  1  -0.00023811  0.75701918  0.86679806  1
  O  O247  1  0.50161565  0.25403440  0.37519153  1
  O  O248  1  0.48994655  0.25316810  0.86281437  1
  O  O249  1  0.51325082  0.75648050  0.37010216  1
  O  O250  1  0.51510955  0.74513519  0.87861305  1
  O  O251  1  0.23955666  0.12790783  0.49592978  1
  O  O252  1  0.24776488  0.13331361  0.99364706  1
  O  O253  1  0.23327946  0.62327487  0.50502962  1
  O  O254  1  0.24488012  0.62994763  0.99504394  1
  O  O255  1  0.73436307  0.11936332  0.50191339  1
  O  O256  1  0.73505654  0.11894159  0.99667568  1
  O  O257  1  0.74364643  0.62361374  0.49582618  1
  O  O258  1  0.76142082  0.62857608  0.98455751  1
  O  O259  1  0.24407681  0.36598735  0.01020458  1
  O  O260  1  0.25691876  0.37319434  0.50392821  1
  O  O261  1  0.25465203  0.86422538  -0.00149175  1
  O  O262  1  0.25075302  0.87850300  0.50381990  1
  O  O263  1  0.76586694  0.37753895  -0.00902604  1
  O  O264  1  0.76382611  0.38862974  0.51081140  1
  O  O265  1  0.75189028  0.85811548  0.00904545  1
  O  O266  1  0.75899194  0.88024617  0.49953811  1
  O  O267  1  0.12982259  0.49471981  0.24309361  1
  O  O268  1  0.13363427  0.49103930  0.74727184  1
  O  O269  1  0.11097713  0.99848579  0.24600812  1
  O  O270  1  0.13138872  0.99053352  0.74870160  1
  O  O271  1  0.62768700  0.48586838  0.27387777  1
  O  O272  1  0.62943263  0.49248944  0.74185723  1
  O  O273  1  0.62758825  0.98965953  0.24013499  1
  O  O274  1  0.62894005  0.99259658  0.74286314  1
  O  O275  1  0.37988629  0.00106752  0.25438356  1
  O  O276  1  0.37041229  0.00253036  0.75595973  1
  O  O277  1  0.35710908  0.50193283  0.24710041  1
  O  O278  1  0.36932735  0.50403907  0.75362151  1
  O  O279  1  0.87307212  0.00846917  0.26113689  1
  O  O280  1  0.86419413  0.00363248  0.75347918  1
  O  O281  1  0.88769821  0.51132216  0.25969654  1
  O  O282  1  0.86445062  0.50950881  0.74260712  1
  O  O283  1  0.11910620  0.36888437  0.37163592  1
  O  O284  1  0.11685830  0.37155301  0.87075670  1
  O  O285  1  0.11791309  0.88436897  0.35742947  1
  O  O286  1  0.11850141  0.86984099  0.86167498  1
  O  O287  1  0.60901289  0.35965958  0.39346470  1
  O  O288  1  0.61971274  0.38296893  0.86404422  1
  O  O289  1  0.62192519  0.87065654  0.36628736  1
  O  O290  1  0.62390427  0.85992546  0.86826104  1
  O  O291  1  0.39487358  0.12889477  0.12161015  1
  O  O292  1  0.37902555  0.13028881  0.63028241  1
  O  O293  1  0.36758196  0.63783986  0.13118904  1
  O  O294  1  0.37993316  0.63337809  0.63043456  1
  O  O295  1  0.88855250  0.13489547  0.12356423  1
  O  O296  1  0.87988629  0.12408718  0.63548693  1
  O  O297  1  0.88756599  0.61841391  0.13844866  1
  O  O298  1  0.87965449  0.63198055  0.63228580  1
  O  O299  1  0.25161123  0.25831558  0.11762048  1
  O  O300  1  0.26218718  0.25064819  0.62603275  1
  O  O301  1  0.25680824  0.75577082  0.11678469  1
  O  O302  1  0.25787972  0.76173179  0.62696161  1
  O  O303  1  0.77083503  0.23710396  0.10823425  1
  O  O304  1  0.74763589  0.26530497  0.62491429  1
  O  O305  1  0.75176814  0.73666060  0.10659219  1
  O  O306  1  0.76066119  0.74554012  0.62697326  1
  O  O307  1  0.24151017  0.24094280  0.37786088  1
  O  O308  1  0.24479285  0.24659450  0.88205077  1
  O  O309  1  0.25910652  0.76447009  0.38536548  1
  O  O310  1  0.24933809  0.73991056  0.88234581  1
  O  O311  1  0.72995203  0.25174801  0.38118002  1
  O  O312  1  0.75341319  0.24886600  0.87236630  1
  O  O313  1  0.74180368  0.75047056  0.37476642  1
  O  O314  1  0.74316254  0.74222097  0.88138688  1
  O  O315  1  -0.00171228  0.12003278  0.00425011  1
  O  O316  1  0.00371494  0.11854124  0.50848351  1
  O  O317  1  0.01000356  0.63163493  0.00939366  1
  O  O318  1  0.00792265  0.61833980  0.50435396  1
  O  O319  1  0.51056984  0.11439248  0.00283131  1
  O  O320  1  0.50389087  0.11400834  0.50609249  1
  O  O321  1  0.49445793  0.61823045  0.00313985  1
  O  O322  1  0.50623045  0.61902625  0.50518068  1
  O  O323  1  0.48997744  0.38332005  0.49828585  1
  O  O324  1  0.50697030  0.36786707  1.01154965  1
  O  O325  1  0.50654085  0.88055759  0.48521947  1
  O  O326  1  0.49415161  0.87773188  0.99743779  1
  O  O327  1  0.99400670  0.38298405  0.49623041  1
  O  O328  1  0.99709227  0.37675282  0.98760822  1
  O  O329  1  0.99906451  0.89118221  0.50163942  1
  O  O330  1  1.00622404  0.88242818  0.98237790  1
  O  O331  1  0.50148371  0.48911529  0.38700734  1
  O  O332  1  0.48561033  0.49695856  0.87251530  1
  O  O333  1  0.50015646  0.99028728  0.38189468  1
  O  O334  1  0.49413456  0.99481878  0.88573710  1
  O  O335  1  1.00592225  0.49237615  0.38547272  1
  O  O336  1  1.00571194  0.48831617  0.87343649  1
  O  O337  1  0.98637215  1.00596322  0.38648103  1
  O  O338  1  0.98807229  0.99241989  0.87421682  1
  O  O339  1  -0.00137495  0.01412170  0.11120581  1
  O  O340  1  -0.00011801  0.01094918  0.62031437  1
  O  O341  1  0.01539405  0.51215086  0.13052128  1
  O  O342  1  0.00611369  0.50705286  0.62127980  1
  O  O343  1  0.50978516  0.00206099  0.11283213  1
  O  O344  1  0.50413544  0.00106729  0.61734848  1
  O  O345  1  0.50753160  0.50962660  0.12861175  1
  O  O346  1  0.50569376  0.50995546  0.61473388  1
  O  O347  1  0.24483305  0.38200484  0.24442501  1
  O  O348  1  0.24260075  0.38204483  0.75023626  1
  O  O349  1  0.22777488  0.88214770  0.23930431  1
  O  O350  1  0.24301816  0.87650058  0.74423273  1
  O  O351  1  0.77561965  0.39459688  0.26700347  1
  O  O352  1  0.74340379  0.38261156  0.74433877  1
  O  O353  1  0.74607645  0.87430428  0.23892410  1
  O  O354  1  0.73710267  0.88547900  0.75306063  1
  O  O355  1  0.24952985  0.12956408  0.26389451  1
  O  O356  1  0.25569662  0.11846392  0.75563075  1
  O  O357  1  0.24541836  0.61231154  0.25276271  1
  O  O358  1  0.25867824  0.61664685  0.75316158  1
  O  O359  1  0.74783229  0.13368691  0.25046548  1
  O  O360  1  0.75488901  0.10896832  0.75172841  1
  O  O361  1  0.76559773  0.63503811  0.26505498  1
  O  O362  1  0.75676665  0.61792065  0.75449343  1
  O  O363  1  0.35847279  0.12650835  0.37873399  1
  O  O364  1  0.36743599  0.11685378  0.87022126  1
  O  O365  1  0.36421248  0.63097309  0.37247661  1
  O  O366  1  0.37156626  0.61369853  0.86712373  1
  O  O367  1  0.86871584  0.12105666  0.37586896  1
  O  O368  1  0.88096517  0.11445166  0.86097161  1
  O  O369  1  0.86777139  0.63205194  0.37315001  1
  O  O370  1  0.86822632  0.62830998  0.85963089  1
  O  O371  1  0.13020101  0.38285912  0.12989151  1
  O  O372  1  0.12394878  0.37955770  0.63477055  1
  O  O373  1  0.10954632  0.87313723  0.14216513  1
  O  O374  1  0.13180557  0.87566064  0.63428361  1
  O  O375  1  0.65662098  0.33087457  0.15256672  1
  O  O376  1  0.63024122  0.38085790  0.62907633  1
  O  O377  1  0.62045412  0.88080063  0.13240678  1
  O  O378  1  0.61779758  0.88132184  0.63272301  1
  O  O379  1  0.11725133  0.25956953  0.25546293  1
  O  O380  1  0.12665926  0.26367798  0.75855434  1
  O  O381  1  0.11864925  0.74677278  0.25491813  1
  O  O382  1  0.11761895  0.75600795  0.74920627  1
  O  O383  1  0.60788632  0.24134274  0.27651311  1
  O  O384  1  0.61431326  0.25836211  0.75028975  1
  O  O385  1  0.61934764  0.75957485  0.25796591  1
  O  O386  1  0.63083302  0.75697294  0.76116440  1
  O  O387  1  0.38732909  0.24095326  0.24949052  1
  O  O388  1  0.37897375  0.24545625  0.74432669  1
  O  O389  1  0.38380912  0.75440915  0.23890047  1
  O  O390  1  0.37274013  0.73770607  0.74344288  1
  O  O391  1  0.88260348  0.25386618  0.23776245  1
  O  O392  1  0.87560155  0.23983964  0.74507611  1
  O  O393  1  0.88859447  0.74378808  0.25446843  1
  O  O394  1  0.87768838  0.74407518  0.74255765  1
  O  O395  1  0.38220056  0.49129948  0.50789124  1
  O  O396  1  0.37079087  0.49763058  0.99184902  1
  O  O397  1  0.38701198  1.00080967  0.49654224  1
  O  O398  1  0.38655890  0.98996660  0.99365983  1
  O  O399  1  0.89054758  0.49417078  0.50872453  1
  O  O400  1  0.87880090  0.48911037  1.00024708  1
  O  O401  1  0.87871062  0.99608568  0.49797856  1
  O  O402  1  0.88473362  1.00621222  0.98640851  1
  O  O403  1  0.10658620  0.00306873  -0.01873961  1
  O  O404  1  0.11506743  0.01246078  0.50358798  1
  O  O405  1  0.13302947  0.51195489  0.00787568  1
  O  O406  1  0.11490802  0.50375133  0.50843500  1
  O  O407  1  0.62178689  -0.00071500  0.00215491  1
  O  O408  1  0.61602500  0.00354095  0.50632501  1
  O  O409  1  0.62423478  0.51535218  0.00104299  1
  O  O410  1  0.61621257  0.51390907  0.49696703  1
  O  O411  1  0.36133834  0.37352115  0.12765068  1
  O  O412  1  0.37437784  0.36719723  0.61806524  1
  O  O413  1  0.37446329  0.86900221  0.11161934  1
  O  O414  1  0.37026123  0.86141070  0.63127199  1
  O  O415  1  0.88308160  0.37139436  0.10646558  1
  O  O416  1  0.86692192  0.37330286  0.62204601  1
  O  O417  1  0.90064926  0.87479235  0.11997803  1
  O  O418  1  0.87763182  0.86674054  0.61637272  1
  O  O419  1  0.13132080  0.13006650  0.38318276  1
  O  O420  1  0.13256850  0.13717153  0.86442585  1
  O  O421  1  0.13011427  0.62451225  0.39225599  1
  O  O422  1  0.13097171  0.62418968  0.88154341  1
  O  O423  1  0.62211907  0.13171271  0.38827911  1
  O  O424  1  0.62058942  0.11966316  0.88295421  1
  O  O425  1  0.64228495  0.63531770  0.38275314  1
  O  O426  1  0.63536411  0.63627256  0.86420925  1
