# generated using pymatgen
data_V85Zn86O256
_symmetry_space_group_name_H-M   'P 1'
_cell_length_a   16.95315514
_cell_length_b   16.93421739
_cell_length_c   16.94952189
_cell_angle_alpha   89.95131176
_cell_angle_beta   89.99652882
_cell_angle_gamma   90.04604657
_symmetry_Int_Tables_number   1
_chemical_formula_structural   V85Zn86O256
_chemical_formula_sum   'V85 Zn86 O256'
_cell_volume   4866.00803012
_cell_formula_units_Z   1
loop_
 _symmetry_equiv_pos_site_id
 _symmetry_equiv_pos_as_xyz
  1  'x, y, z'
loop_
 _atom_site_type_symbol
 _atom_site_label
 _atom_site_symmetry_multiplicity
 _atom_site_fract_x
 _atom_site_fract_y
 _atom_site_fract_z
 _atom_site_occupancy
  V  V0  1  -0.00188888  -0.00229354  0.49712464  1
  V  V1  1  0.74898133  0.62172077  0.87502233  1
  V  V2  1  0.49658993  0.87949363  0.87428270  1
  V  V3  1  0.50407538  0.26340944  0.24682660  1
  V  V4  1  0.74869447  0.49910680  0.75041394  1
  V  V5  1  0.74227879  -0.00691779  0.25464517  1
  V  V6  1  0.12845811  0.74802997  0.37615110  1
  V  V7  1  0.00231264  0.25020989  0.75052854  1
  V  V8  1  0.37548696  0.37639342  0.48895606  1
  V  V9  1  0.87754219  0.62564163  0.74801695  1
  V  V10  1  0.62309364  0.62092260  0.00033750  1
  V  V11  1  0.87417929  0.12593206  0.25066364  1
  V  V12  1  0.37396322  0.87275518  -0.00386184  1
  V  V13  1  0.74610652  0.37079329  0.62662671  1
  V  V14  1  0.12491426  0.88385535  0.24918860  1
  V  V15  1  0.37230157  0.49371981  0.88193463  1
  V  V16  1  0.25073561  0.74997608  0.00695621  1
  V  V17  1  0.62870967  -0.00650865  0.12640924  1
  V  V18  1  0.62104762  0.24764408  0.86342395  1
  V  V19  1  0.49487383  0.00105376  0.00082618  1
  V  V20  1  0.11659718  0.62293305  0.01660329  1
  V  V21  1  0.37354267  0.61457056  0.25174184  1
  V  V22  1  0.87467722  0.24774894  0.62196333  1
  V  V23  1  0.00422843  0.74657847  0.24316216  1
  V  V24  1  0.42394964  0.80046326  0.17399455  1
  V  V25  1  0.49958095  0.50252265  0.48931529  1
  V  V26  1  0.87785275  0.49860647  0.37982133  1
  V  V27  1  0.62288020  0.49576028  0.13075078  1
  V  V28  1  0.49454087  0.36847928  0.87467112  1
  V  V29  1  -0.00087108  0.74778306  0.74726788  1
  V  V30  1  0.02288422  0.38841322  0.40909050  1
  V  V31  1  0.24837945  0.38622526  0.11369693  1
  V  V32  1  -0.00065732  0.25656238  0.25567261  1
  V  V33  1  0.75271386  0.74924019  0.00208704  1
  V  V34  1  -0.00147419  0.49463058  0.01378379  1
  V  V35  1  0.12475693  0.38428122  0.24314046  1
  V  V36  1  0.13821402  0.13048924  0.49671255  1
  V  V37  1  0.37330630  0.75026160  0.62637564  1
  V  V38  1  0.24608351  0.50023922  0.74375913  1
  V  V39  1  0.62548794  0.87786627  0.74607285  1
  V  V40  1  0.00246490  0.12756534  0.62166438  1
  V  V41  1  0.87280526  0.75363614  0.60746598  1
  V  V42  1  0.14010416  0.24712671  0.37459692  1
  V  V43  1  0.36811682  0.13292733  0.25752184  1
  V  V44  1  0.49283261  0.62458863  0.12606797  1
  V  V45  1  0.25306200  0.12569281  0.87689816  1
  V  V46  1  0.87784118  0.49094291  0.87872774  1
  V  V47  1  0.00431515  -0.00010787  0.00565222  1
  V  V48  1  0.50045842  0.13058161  0.12990398  1
  V  V49  1  0.24600688  0.74612681  0.50241331  1
  V  V50  1  -0.00276747  0.87615570  0.87589461  1
  V  V51  1  0.12536039  0.87592456  0.75024845  1
  V  V52  1  0.62577126  0.50411535  0.62190903  1
  V  V53  1  0.38630327  0.25380487  0.62444385  1
  V  V54  1  0.38317624  0.88575362  0.49906187  1
  V  V55  1  0.00947775  0.12362732  0.12673994  1
  V  V56  1  0.25246248  0.61733349  0.38127282  1
  V  V57  1  0.86748279  0.37127074  0.49647360  1
  V  V58  1  0.12265542  0.74665918  0.87562479  1
  V  V59  1  0.24873164  0.87541545  0.62609288  1
  V  V60  1  0.12502176  0.00243424  0.62345949  1
  V  V61  1  0.38416104  0.12915726  0.75380017  1
  V  V62  1  0.61478255  0.11952864  0.48391349  1
  V  V63  1  0.87864208  0.62363986  0.24469276  1
  V  V64  1  0.87660278  0.25413782  0.11739548  1
  V  V65  1  0.87542651  0.12123936  0.74661334  1
  V  V66  1  0.24622468  0.62452947  0.87528797  1
  V  V67  1  0.37375562  0.62371305  0.75154068  1
  V  V68  1  0.24265719  0.88791928  0.12410555  1
  V  V69  1  0.25680437  0.00160264  0.75635307  1
  V  V70  1  0.12324600  0.37864995  0.74892940  1
  V  V71  1  0.74888740  0.63814825  0.39252690  1
  V  V72  1  0.50471480  0.62409464  0.62482775  1
  V  V73  1  0.50039390  0.74991234  0.75199658  1
  V  V74  1  0.75177310  0.37645267  0.12257919  1
  V  V75  1  0.62763698  0.12877256  0.00221411  1
  V  V76  1  0.37304000  0.25737587  0.11411770  1
  V  V77  1  0.25318557  0.36887906  0.62390796  1
  V  V78  1  0.75171743  0.12328679  0.87559042  1
  V  V79  1  0.74594194  0.49950340  0.25456840  1
  V  V80  1  0.50237250  0.11881257  0.62049689  1
  V  V81  1  0.25130669  0.00567514  0.25961321  1
  V  V82  1  0.87737778  -0.00757923  0.37241068  1
  V  V83  1  0.62544208  0.26417839  0.37208095  1
  V  V84  1  0.00950905  0.61247241  0.60936756  1
  Zn  Zn85  1  -0.00137198  0.37263422  0.88047161  1
  Zn  Zn86  1  0.74477949  0.23862507  0.50070508  1
  Zn  Zn87  1  0.57661719  0.77775413  0.35428640  1
  Zn  Zn88  1  0.75429953  0.87343660  0.12422839  1
  Zn  Zn89  1  0.12602099  0.24916866  0.87664386  1
  Zn  Zn90  1  0.62472689  0.74859508  0.87424414  1
  Zn  Zn91  1  0.24472022  0.50184910  0.25035625  1
  Zn  Zn92  1  0.13077022  0.12373055  0.00295069  1
  Zn  Zn93  1  0.75389618  0.25652890  -0.00278946  1
  Zn  Zn94  1  0.87455320  0.87565238  0.00202782  1
  Zn  Zn95  1  0.88220833  0.74796811  0.12212746  1
  Zn  Zn96  1  0.50107772  0.38998400  0.36466768  1
  Zn  Zn97  1  0.87475961  -0.00031300  0.87643559  1
  Zn  Zn98  1  0.61685220  0.36960355  0.74621306  1
  Zn  Zn99  1  0.37973604  0.01406216  0.39002604  1
  Zn  Zn100  1  0.75317768  0.87278476  0.62182281  1
  Zn  Zn101  1  0.00034170  0.87161286  0.37881332  1
  Zn  Zn102  1  0.62210636  -0.00979707  0.60852538  1
  Zn  Zn103  1  0.74819966  -0.00206585  0.74669377  1
  Zn  Zn104  1  0.24817607  0.25511977  -0.00391808  1
  Zn  Zn105  1  0.49417609  0.49522508  0.00051220  1
  Zn  Zn106  1  0.74830945  0.12891334  0.37118295  1
  Zn  Zn107  1  0.18903980  0.19525197  0.18659319  1
  Zn  Zn108  1  0.19115175  0.19035775  0.68775912  1
  Zn  Zn109  1  0.19344670  0.69267087  0.19198166  1
  Zn  Zn110  1  0.18303537  0.68438169  0.68559980  1
  Zn  Zn111  1  0.68747266  0.18873844  0.19045752  1
  Zn  Zn112  1  0.68704320  0.17871701  0.68229305  1
  Zn  Zn113  1  0.68899713  0.68915304  0.19097565  1
  Zn  Zn114  1  0.68981847  0.69109733  0.68484155  1
  Zn  Zn115  1  0.31379130  0.31814711  0.30410467  1
  Zn  Zn116  1  0.31404610  0.31002006  0.81028390  1
  Zn  Zn117  1  0.35651140  0.78704566  0.34072085  1
  Zn  Zn118  1  0.31286161  0.81225840  0.81612388  1
  Zn  Zn119  1  0.81014851  0.31570717  0.30975623  1
  Zn  Zn120  1  0.81076268  0.30862601  0.81042593  1
  Zn  Zn121  1  0.81471230  0.81247084  0.30792543  1
  Zn  Zn122  1  0.81081032  0.80972642  0.81315586  1
  Zn  Zn123  1  0.19104542  0.43238692  0.43960739  1
  Zn  Zn124  1  0.17956638  0.44123627  0.93398254  1
  Zn  Zn125  1  0.19109404  0.93704766  0.43684988  1
  Zn  Zn126  1  0.18406963  0.94010357  0.93703565  1
  Zn  Zn127  1  0.68665369  0.44439479  0.43917269  1
  Zn  Zn128  1  0.68409988  0.43486033  0.93857248  1
  Zn  Zn129  1  0.70004352  0.83051546  0.44584551  1
  Zn  Zn130  1  0.68435600  0.93776893  0.93594632  1
  Zn  Zn131  1  0.31672076  0.06510347  0.06587210  1
  Zn  Zn132  1  0.31197644  0.06595714  0.57093730  1
  Zn  Zn133  1  0.30904094  0.56509340  0.06230831  1
  Zn  Zn134  1  0.31554724  0.55957702  0.56263339  1
  Zn  Zn135  1  0.81811422  0.06226316  0.06389016  1
  Zn  Zn136  1  0.77773774  0.01254950  0.52560914  1
  Zn  Zn137  1  0.81368697  0.56133542  0.06330398  1
  Zn  Zn138  1  0.82252676  0.55847004  0.56509700  1
  Zn  Zn139  1  0.43110679  0.44151051  0.18311627  1
  Zn  Zn140  1  0.43793864  0.43793978  0.69196099  1
  Zn  Zn141  1  0.47370581  0.97803999  0.23894448  1
  Zn  Zn142  1  0.43699008  0.93997957  0.68658945  1
  Zn  Zn143  1  0.93391957  0.43608144  0.19080397  1
  Zn  Zn144  1  0.93577111  0.43666442  0.68618924  1
  Zn  Zn145  1  0.93689251  0.93456733  0.18588234  1
  Zn  Zn146  1  0.93809055  0.93797520  0.68589226  1
  Zn  Zn147  1  0.06368557  0.06610438  0.31236069  1
  Zn  Zn148  1  0.06534533  0.06184319  0.81430985  1
  Zn  Zn149  1  0.06304306  0.56520487  0.31710075  1
  Zn  Zn150  1  0.06034522  0.56039032  0.81292080  1
  Zn  Zn151  1  0.57121593  -0.04204209  0.39437598  1
  Zn  Zn152  1  0.55976182  0.06124984  0.81350284  1
  Zn  Zn153  1  0.58157533  0.60568305  0.29999094  1
  Zn  Zn154  1  0.56097811  0.55698811  0.81157943  1
  Zn  Zn155  1  0.43890034  0.19767750  0.43514190  1
  Zn  Zn156  1  0.43690961  0.18658498  0.93699705  1
  Zn  Zn157  1  0.44243049  0.68526233  0.44404013  1
  Zn  Zn158  1  0.43604174  0.68655799  0.93816466  1
  Zn  Zn159  1  0.94110966  0.18960525  0.43705311  1
  Zn  Zn160  1  0.93973596  0.18548288  0.93774422  1
  Zn  Zn161  1  0.94099260  0.68467853  0.43231005  1
  Zn  Zn162  1  0.93669212  0.68249851  0.93634201  1
  Zn  Zn163  1  0.06558448  0.30916581  0.06134388  1
  Zn  Zn164  1  0.07086154  0.32283221  0.56050519  1
  Zn  Zn165  1  0.06442893  0.81369776  0.06384533  1
  Zn  Zn166  1  0.06015813  0.80996768  0.56270676  1
  Zn  Zn167  1  0.56433675  0.31611899  0.05685241  1
  Zn  Zn168  1  0.56062249  0.31242418  0.55770703  1
  Zn  Zn169  1  0.56876430  0.81232829  0.05733039  1
  Zn  Zn170  1  0.56293800  0.80601800  0.55668619  1
  O  O171  1  0.11207013  0.13080242  0.12750975  1
  O  O172  1  0.12106004  0.12370791  0.61904810  1
  O  O173  1  0.12939961  0.62826285  0.11419152  1
  O  O174  1  0.10881864  0.62473609  0.62637415  1
  O  O175  1  0.61996935  0.12289806  0.11775178  1
  O  O176  1  0.61510356  0.12689500  0.61016659  1
  O  O177  1  0.61660205  0.61554276  0.11681693  1
  O  O178  1  0.61652007  0.61811065  0.63054431  1
  O  O179  1  0.37541319  0.37327826  0.38543802  1
  O  O180  1  0.38035045  0.38190521  0.87122342  1
  O  O181  1  0.36121277  0.88516805  0.39777874  1
  O  O182  1  0.38783238  0.87435371  0.87940800  1
  O  O183  1  0.87793786  0.38021823  0.38276411  1
  O  O184  1  0.87375542  0.38720740  0.86932282  1
  O  O185  1  0.88064450  0.88895797  0.36775263  1
  O  O186  1  0.88755047  0.87445079  0.87484232  1
  O  O187  1  0.25568401  0.00192203  0.36241138  1
  O  O188  1  0.24714799  0.00404483  0.86237735  1
  O  O189  1  0.24011689  0.51375271  0.37817509  1
  O  O190  1  0.25411656  0.50413932  0.86626503  1
  O  O191  1  0.76060251  0.00799372  0.35900447  1
  O  O192  1  0.75042988  0.01188258  0.87224389  1
  O  O193  1  0.76217382  0.49815070  0.36934097  1
  O  O194  1  0.75518371  0.50294883  0.87130980  1
  O  O195  1  0.24795990  0.48928073  0.12512964  1
  O  O196  1  0.25771402  0.49094141  0.63836785  1
  O  O197  1  0.25068515  0.99072271  0.12493914  1
  O  O198  1  0.24293536  0.99586937  0.63681135  1
  O  O199  1  0.74382240  0.49658473  0.13192741  1
  O  O200  1  0.74490385  0.49352234  0.62879974  1
  O  O201  1  0.74512335  1.00198498  0.13255148  1
  O  O202  1  0.73741101  0.99750390  0.63230781  1
  O  O203  1  0.00778374  0.36496232  0.24513977  1
  O  O204  1  0.00671362  0.36794146  0.74827527  1
  O  O205  1  0.01065461  0.86929365  0.25289450  1
  O  O206  1  0.00555723  0.86987524  0.75702364  1
  O  O207  1  0.49264463  0.36817268  0.24743608  1
  O  O208  1  0.50252434  0.37937860  0.76643576  1
  O  O209  1  0.47867012  0.86204085  0.22868735  1
  O  O210  1  0.50220076  0.87116330  0.75690726  1
  O  O211  1  0.48913387  0.14218375  0.23485513  1
  O  O212  1  0.49066761  0.12189257  0.74327719  1
  O  O213  1  0.48715425  0.61915297  0.23411731  1
  O  O214  1  0.49474938  0.62848338  0.74336401  1
  O  O215  1  0.99559703  0.13635072  0.24534804  1
  O  O216  1  0.99596266  0.13135998  0.74576796  1
  O  O217  1  0.99221399  0.63365456  0.25817083  1
  O  O218  1  0.99216906  0.62923979  0.74682209  1
  O  O219  1  0.37375062  0.24932387  0.01088881  1
  O  O220  1  0.38014292  0.26422636  0.51025176  1
  O  O221  1  0.36111938  0.75662671  -0.00773984  1
  O  O222  1  0.36364741  0.76062196  0.51064266  1
  O  O223  1  0.87435117  0.24516985  0.01368932  1
  O  O224  1  0.86303576  0.24695494  0.50593351  1
  O  O225  1  0.86647532  0.74626941  0.00133409  1
  O  O226  1  0.88485069  0.75278456  0.50946428  1
  O  O227  1  0.12409387  0.24643053  0.48389166  1
  O  O228  1  0.12819886  0.24237253  0.99437327  1
  O  O229  1  0.13785011  0.75717642  0.49337349  1
  O  O230  1  0.12628684  0.73915218  0.99495192  1
  O  O231  1  0.62547236  0.24499999  0.48904919  1
  O  O232  1  0.62747568  0.23802965  0.99353194  1
  O  O233  1  0.61210406  0.75974721  0.47042941  1
  O  O234  1  0.63136064  0.73625308  0.99712419  1
  O  O235  1  0.49612248  0.25043297  0.12618826  1
  O  O236  1  0.49190593  0.24403152  0.62563227  1
  O  O237  1  0.49296746  0.74478289  0.11700749  1
  O  O238  1  0.49408571  0.74191168  0.63184851  1
  O  O239  1  0.99296812  0.24565583  0.13293968  1
  O  O240  1  0.99767826  0.24740090  0.63427795  1
  O  O241  1  1.00448391  0.75002851  0.13924927  1
  O  O242  1  0.99232232  0.74168270  0.63046412  1
  O  O243  1  0.00773683  0.26512772  0.36963432  1
  O  O244  1  -0.00197179  0.25219316  0.86238879  1
  O  O245  1  0.01208357  0.75255576  0.36851413  1
  O  O246  1  0.00427654  0.75497643  0.86891214  1
  O  O247  1  0.50652025  0.25921247  0.36227489  1
  O  O248  1  0.50888963  0.25478340  0.87835134  1
  O  O249  1  0.46544261  0.75529261  0.36410923  1
  O  O250  1  0.50045454  0.75607665  0.86798305  1
  O  O251  1  0.23741746  0.12418010  0.50621064  1
  O  O252  1  0.25269601  0.12158342  0.98903295  1
  O  O253  1  0.25655797  0.63398499  0.49612706  1
  O  O254  1  0.23809650  0.63184868  0.99597485  1
  O  O255  1  0.72899641  0.11892554  0.49175846  1
  O  O256  1  0.74344699  0.12568357  0.99367510  1
  O  O257  1  0.76713425  0.62340888  0.48965134  1
  O  O258  1  0.74245232  0.62754450  0.99561702  1
  O  O259  1  0.24102213  0.37831296  0.01026815  1
  O  O260  1  0.26345890  0.38380742  0.51338861  1
  O  O261  1  0.25147192  0.87090261  0.00280607  1
  O  O262  1  0.25232425  0.86970171  0.51234839  1
  O  O263  1  0.74561362  0.37482566  0.01586195  1
  O  O264  1  0.75450966  0.37316009  0.51077504  1
  O  O265  1  0.75013231  0.86399930  -0.00250515  1
  O  O266  1  0.75627331  0.89911857  0.51007673  1
  O  O267  1  0.12122382  0.48744187  0.25316347  1
  O  O268  1  0.13416597  0.49247026  0.75415979  1
  O  O269  1  0.13181504  0.99194564  0.25620069  1
  O  O270  1  0.13120107  0.99418558  0.74331348  1
  O  O271  1  0.63439361  0.51123890  0.24181047  1
  O  O272  1  0.63235728  0.49685781  0.73994082  1
  O  O273  1  0.64108553  1.00732636  0.24085414  1
  O  O274  1  0.62145679  0.98481044  0.75323995  1
  O  O275  1  0.36334537  0.01967430  0.24037101  1
  O  O276  1  0.36579023  0.01212629  0.74323128  1
  O  O277  1  0.36785126  0.51056196  0.25129181  1
  O  O278  1  0.36642409  0.50590464  0.75937097  1
  O  O279  1  0.87137073  0.00908217  0.25291974  1
  O  O280  1  0.87721419  0.01229376  0.75233376  1
  O  O281  1  0.87048784  0.50530321  0.25893992  1
  O  O282  1  0.86952675  0.50853833  0.75540596  1
  O  O283  1  0.12622796  0.36363220  0.36030851  1
  O  O284  1  0.12242985  0.37172755  0.86150599  1
  O  O285  1  0.12922634  0.86545359  0.36652261  1
  O  O286  1  0.11467939  0.86843845  0.87094197  1
  O  O287  1  0.62301920  0.36809988  0.37852099  1
  O  O288  1  0.62115237  0.36326614  0.87133031  1
  O  O289  1  0.63513930  0.87684425  0.36034930  1
  O  O290  1  0.61185343  0.87149877  0.87062755  1
  O  O291  1  0.38367844  0.13780923  0.12771055  1
  O  O292  1  0.38364363  0.13427674  0.62979342  1
  O  O293  1  0.38151043  0.62138015  0.13061765  1
  O  O294  1  0.38054095  0.63003517  0.63411853  1
  O  O295  1  0.88309610  0.13336196  0.13566960  1
  O  O296  1  0.88516201  0.13322095  0.63422617  1
  O  O297  1  0.87077796  0.62620915  0.14077756  1
  O  O298  1  0.88333344  0.63436167  0.63150248  1
  O  O299  1  0.25812654  0.26145065  0.12052733  1
  O  O300  1  0.26306560  0.26261831  0.63033574  1
  O  O301  1  0.24083797  0.76156014  0.11055828  1
  O  O302  1  0.25243899  0.75419314  0.62197267  1
  O  O303  1  0.75745745  0.25908301  0.12716836  1
  O  O304  1  0.75401465  0.25619676  0.62483413  1
  O  O305  1  0.74777306  0.74870983  0.11268567  1
  O  O306  1  0.76795043  0.74891144  0.62382222  1
  O  O307  1  0.23827477  0.25316101  0.36713835  1
  O  O308  1  0.25085916  0.24035352  0.87645788  1
  O  O309  1  0.24863708  0.74235192  0.38597762  1
  O  O310  1  0.24114414  0.74633759  0.88359832  1
  O  O311  1  0.74000092  0.24862582  0.37209597  1
  O  O312  1  0.74369979  0.23965522  0.87753207  1
  O  O313  1  0.75905887  0.74225786  0.37857417  1
  O  O314  1  0.74841789  0.73970871  0.88544415  1
  O  O315  1  0.00068115  0.11851877  0.00995418  1
  O  O316  1  0.01031441  0.11977427  0.50490622  1
  O  O317  1  0.01112188  0.61889461  -0.00020742  1
  O  O318  1  -0.00066137  0.62336194  0.50963015  1
  O  O319  1  0.50527728  0.11951072  0.00882660  1
  O  O320  1  0.50634643  0.13415836  0.50624890  1
  O  O321  1  0.50536752  0.62282258  0.00780928  1
  O  O322  1  0.49150121  0.61678588  0.51720842  1
  O  O323  1  0.49286862  0.38547244  0.49594640  1
  O  O324  1  0.50604047  0.38002042  0.98236377  1
  O  O325  1  0.48228797  0.87917641  0.50730379  1
  O  O326  1  0.49717347  0.88108734  0.99424758  1
  O  O327  1  0.97252495  0.34719666  0.50138179  1
  O  O328  1  1.00752689  0.39023578  0.99914581  1
  O  O329  1  1.00816690  0.89306245  0.49930365  1
  O  O330  1  1.00106554  0.88041597  0.99249895  1
  O  O331  1  0.50973230  0.50830960  0.38878016  1
  O  O332  1  0.48807016  0.49435607  0.87626753  1
  O  O333  1  0.48498721  1.00478657  0.34789791  1
  O  O334  1  0.50332360  0.99274858  0.88915930  1
  O  O335  1  0.99140287  0.48722920  0.37002660  1
  O  O336  1  0.99125750  0.49721095  0.88228858  1
  O  O337  1  0.99549151  1.00062095  0.38021720  1
  O  O338  1  0.99924525  0.99110339  0.87999240  1
  O  O339  1  -0.00473067  0.01113254  0.11879457  1
  O  O340  1  0.00524906  0.00744732  0.61807613  1
  O  O341  1  -0.00635648  0.49832472  0.11247627  1
  O  O342  1  -0.00781768  0.51398611  0.62633976  1
  O  O343  1  0.51162169  0.01283548  0.12802147  1
  O  O344  1  0.50255899  0.01477175  0.62720611  1
  O  O345  1  0.50539516  0.50610935  0.12066602  1
  O  O346  1  0.50806570  0.50717201  0.62518379  1
  O  O347  1  0.24135996  0.38027008  0.23903416  1
  O  O348  1  0.24495795  0.38181150  0.74531716  1
  O  O349  1  0.24209182  0.88845833  0.23855587  1
  O  O350  1  0.24705436  0.88191972  0.74665446  1
  O  O351  1  0.75323634  0.39094088  0.24001730  1
  O  O352  1  0.74911865  0.37905386  0.73852603  1
  O  O353  1  0.75793416  0.89041421  0.24328581  1
  O  O354  1  0.73944352  0.87395177  0.74974673  1
  O  O355  1  0.25660975  0.11925537  0.23958234  1
  O  O356  1  0.25901824  0.11864566  0.75422685  1
  O  O357  1  0.25463923  0.62211888  0.25814701  1
  O  O358  1  0.25211124  0.61818691  0.75430584  1
  O  O359  1  0.75984763  0.11738562  0.24796129  1
  O  O360  1  0.75946472  0.12422688  0.75686810  1
  O  O361  1  0.76166253  0.61513782  0.26104655  1
  O  O362  1  0.75709772  0.61971598  0.75436299  1
  O  O363  1  0.37456634  0.13521205  0.36093627  1
  O  O364  1  0.36714168  0.12787140  0.86525556  1
  O  O365  1  0.36275260  0.63024223  0.36504203  1
  O  O366  1  0.36602599  0.61924898  0.86945361  1
  O  O367  1  0.87841633  0.12377209  0.36046255  1
  O  O368  1  0.86712755  0.12614093  0.86709539  1
  O  O369  1  0.87111596  0.61501684  0.36906948  1
  O  O370  1  0.86971073  0.61387490  0.86658023  1
  O  O371  1  0.13825652  0.36691757  0.13227077  1
  O  O372  1  0.13869203  0.36916482  0.63988266  1
  O  O373  1  0.13154124  0.87511702  0.13517928  1
  O  O374  1  0.12968489  0.87976861  0.63151164  1
  O  O375  1  0.62905977  0.38960487  0.12267312  1
  O  O376  1  0.63108747  0.37920959  0.62696968  1
  O  O377  1  0.62778657  0.89023560  0.11852054  1
  O  O378  1  0.61954752  0.87234436  0.63402477  1
  O  O379  1  0.11749784  0.25463767  0.25873133  1
  O  O380  1  0.11682006  0.25571580  0.75156451  1
  O  O381  1  0.12292934  0.75932633  0.25726577  1
  O  O382  1  0.11956471  0.75618578  0.75551765  1
  O  O383  1  0.61446441  0.24781717  0.25735943  1
  O  O384  1  0.62925749  0.24554585  0.76088868  1
  O  O385  1  0.61346871  0.71270716  0.26596033  1
  O  O386  1  0.61810047  0.75865560  0.75191239  1
  O  O387  1  0.37979290  0.24936997  0.23651958  1
  O  O388  1  0.37300571  0.23840404  0.74023445  1
  O  O389  1  0.36277536  0.74140559  0.23316280  1
  O  O390  1  0.37944595  0.74454899  0.74614962  1
  O  O391  1  0.88275727  0.24616004  0.24522216  1
  O  O392  1  0.88180751  0.24133057  0.74434508  1
  O  O393  1  0.88692110  0.74148899  0.25082665  1
  O  O394  1  0.87996549  0.73615810  0.75213768  1
  O  O395  1  0.38826456  0.48919698  0.50739591  1
  O  O396  1  0.37147344  0.50605844  0.98513942  1
  O  O397  1  0.36869525  0.99121136  0.50627874  1
  O  O398  1  0.39003623  0.99229450  1.01020020  1
  O  O399  1  0.87402621  0.48557437  0.49065157  1
  O  O400  1  0.88940078  0.50832096  0.99247275  1
  O  O401  1  0.88686148  1.01532796  0.48223608  1
  O  O402  1  0.88763334  0.99877674  0.99573043  1
  O  O403  1  0.11021210  0.00496675  -0.00394603  1
  O  O404  1  0.12154357  0.00940332  0.50342756  1
  O  O405  1  0.11214668  0.51414171  -0.00327295  1
  O  O406  1  0.08877948  0.42562592  0.48689283  1
  O  O407  1  0.61750566  0.01077857  0.00700208  1
  O  O408  1  0.61031912  0.01514694  0.49035902  1
  O  O409  1  0.62432496  0.51030380  0.00648048  1
  O  O410  1  0.61652401  0.49449215  0.51609758  1
  O  O411  1  0.35845667  0.37242706  0.12472041  1
  O  O412  1  0.37296397  0.36868484  0.62385144  1
  O  O413  1  0.36383813  0.86381505  0.11539973  1
  O  O414  1  0.36700750  0.87081519  0.62198031  1
  O  O415  1  0.86577661  0.36568596  0.12964658  1
  O  O416  1  0.86531061  0.36778909  0.62024996  1
  O  O417  1  0.87346693  0.86679915  0.11980787  1
  O  O418  1  0.87941087  0.85541860  0.63374805  1
  O  O419  1  0.12238999  0.13992766  0.38033068  1
  O  O420  1  0.14128804  0.12598652  0.87167947  1
  O  O421  1  0.13471366  0.64007800  0.37087218  1
  O  O422  1  0.12977167  0.63052095  0.87888759  1
  O  O423  1  0.61849912  0.13929460  0.38299921  1
  O  O424  1  0.63016368  0.12900309  0.88158897  1
  O  O425  1  0.65280382  0.60878845  0.38997213  1
  O  O426  1  0.62983626  0.62184625  0.88215071  1
