# generated using pymatgen
data_V85Zn86O256
_symmetry_space_group_name_H-M   'P 1'
_cell_length_a   16.91562656
_cell_length_b   16.91434267
_cell_length_c   16.91244169
_cell_angle_alpha   90.03457105
_cell_angle_beta   90.01994207
_cell_angle_gamma   90.00305936
_symmetry_Int_Tables_number   1
_chemical_formula_structural   V85Zn86O256
_chemical_formula_sum   'V85 Zn86 O256'
_cell_volume   4838.93089560
_cell_formula_units_Z   1
loop_
 _symmetry_equiv_pos_site_id
 _symmetry_equiv_pos_as_xyz
  1  'x, y, z'
loop_
 _atom_site_type_symbol
 _atom_site_label
 _atom_site_symmetry_multiplicity
 _atom_site_fract_x
 _atom_site_fract_y
 _atom_site_fract_z
 _atom_site_occupancy
  V  V0  1  0.49911890  0.00147655  0.50017313  1
  V  V1  1  0.25648574  0.00026332  0.75398644  1
  V  V2  1  0.00359542  0.75061767  0.75556888  1
  V  V3  1  0.24996680  0.38143990  0.12854841  1
  V  V4  1  0.37362516  0.12388846  0.25029386  1
  V  V5  1  0.74969709  0.25560157  0.00643939  1
  V  V6  1  0.74811952  0.75958403  -0.00030579  1
  V  V7  1  0.86429488  0.37906737  0.50548565  1
  V  V8  1  0.56341948  0.56809087  0.59072494  1
  V  V9  1  0.75394922  0.11973088  0.87792944  1
  V  V10  1  0.62196521  0.24744432  0.87223216  1
  V  V11  1  0.00170804  0.87733085  0.36505509  1
  V  V12  1  0.11557870  0.50023291  0.11805642  1
  V  V13  1  0.37326848  0.24977881  0.12444580  1
  V  V14  1  0.87500573  0.74854574  0.62299226  1
  V  V15  1  0.37734591  0.50619417  0.87216657  1
  V  V16  1  0.11609930  0.62850998  -0.00844244  1
  V  V17  1  0.87189126  0.25292142  0.13478314  1
  V  V18  1  -0.00325890  0.12916074  0.13521335  1
  V  V19  1  0.25066796  0.12454703  0.37407437  1
  V  V20  1  0.12864125  0.87295145  0.76122779  1
  V  V21  1  0.49216490  0.61944531  0.13382718  1
  V  V22  1  0.87568010  0.87637889  0.49346820  1
  V  V23  1  0.63000003  0.36787300  0.74102244  1
  V  V24  1  0.23934198  -0.00656409  0.25060613  1
  V  V25  1  0.12765149  0.75506786  0.36494673  1
  V  V26  1  0.86570201  0.12595450  0.26579820  1
  V  V27  1  0.88050418  0.37693561  0.00753533  1
  V  V28  1  -0.00397920  0.00045996  0.49747341  1
  V  V29  1  0.62705378  0.49414678  0.12122306  1
  V  V30  1  0.75300626  -0.00221561  0.75409897  1
  V  V31  1  0.75000347  -0.00758551  0.26417009  1
  V  V32  1  0.25227185  0.50578778  0.74676289  1
  V  V33  1  0.12758626  -0.00159393  0.62563137  1
  V  V34  1  0.61924202  0.12265684  0.00057933  1
  V  V35  1  0.38511971  0.87666491  0.00293821  1
  V  V36  1  0.50051049  0.37094436  0.86824115  1
  V  V37  1  0.75091415  0.87433941  0.62611440  1
  V  V38  1  0.87471798  0.62378169  0.75011351  1
  V  V39  1  0.23917644  0.87201869  0.12495214  1
  V  V40  1  0.12573668  0.37428865  0.75924363  1
  V  V41  1  0.12403924  0.12657915  0.50069263  1
  V  V42  1  0.00401742  0.25044384  0.75805680  1
  V  V43  1  0.12817494  0.62819461  0.49652532  1
  V  V44  1  0.12666082  0.38369181  0.25197820  1
  V  V45  1  0.25185999  0.25146307  0.50076957  1
  V  V46  1  0.12467428  0.49925057  0.62317234  1
  V  V47  1  0.24477724  0.25286000  -0.00376840  1
  V  V48  1  0.37423978  0.38395229  0.50116485  1
  V  V49  1  0.51251401  0.86741304  0.36910966  1
  V  V50  1  0.49923576  0.37770705  0.37809036  1
  V  V51  1  0.37134941  0.74232819  0.13078257  1
  V  V52  1  0.87347152  0.50816733  0.37678720  1
  V  V53  1  0.24632816  0.12679970  0.87589160  1
  V  V54  1  0.37588846  -0.00516777  0.37342195  1
  V  V55  1  0.61362510  0.74709462  0.87486116  1
  V  V56  1  0.12187535  0.12817963  0.00262835  1
  V  V57  1  0.38551627  0.74582811  0.62847724  1
  V  V58  1  0.73883739  0.74822561  0.49505202  1
  V  V59  1  -0.00219964  0.50171864  0.50022775  1
  V  V60  1  0.75296197  0.48743923  0.74228646  1
  V  V61  1  -0.00869228  0.00441554  -0.00265893  1
  V  V62  1  0.49756827  0.11320413  0.12334525  1
  V  V63  1  0.49942212  0.13703616  0.62963784  1
  V  V64  1  0.25378535  0.62399912  0.36088536  1
  V  V65  1  0.63477721  0.12573856  0.49554235  1
  V  V66  1  0.63604967  -0.00605698  0.12752827  1
  V  V67  1  0.62477439  0.00020528  0.62622276  1
  V  V68  1  0.74877087  0.62204234  0.87611250  1
  V  V69  1  0.73200376  0.63120122  0.37300336  1
  V  V70  1  0.62854698  0.37308922  0.24813975  1
  V  V71  1  0.87819350  0.11914010  0.75382464  1
  V  V72  1  0.74980643  0.49937843  0.24495720  1
  V  V73  1  0.87244705  0.75792749  0.12419755  1
  V  V74  1  -0.00320466  0.37394513  0.37184638  1
  V  V75  1  0.61444756  0.87042825  0.74989107  1
  V  V76  1  0.88251153  0.49755890  0.88176138  1
  V  V77  1  0.50062868  0.49942637  -0.00442699  1
  V  V78  1  0.12046595  0.25097307  0.36924366  1
  V  V79  1  0.50042930  0.24828678  0.24960171  1
  V  V80  1  -0.01128239  0.88180602  0.87364787  1
  V  V81  1  0.87090804  0.25376183  0.62857389  1
  V  V82  1  0.63248412  0.24758347  0.37832170  1
  V  V83  1  0.25070170  0.63389805  0.87330099  1
  V  V84  1  0.37379791  0.50606390  0.36203724  1
  Zn  Zn85  1  0.86742211  0.88493798  -0.00093445  1
  Zn  Zn86  1  0.37812135  0.25389514  0.63021885  1
  Zn  Zn87  1  0.38294453  0.13336058  0.75822489  1
  Zn  Zn88  1  0.62455916  0.62348411  -0.00026557  1
  Zn  Zn89  1  0.00002586  0.62679471  0.62391668  1
  Zn  Zn90  1  0.37350673  0.87142737  0.50204491  1
  Zn  Zn91  1  0.25322507  0.75310171  0.50041388  1
  Zn  Zn92  1  0.38412757  0.00481125  0.88637726  1
  Zn  Zn93  1  0.87728288  0.62754750  0.24582330  1
  Zn  Zn94  1  0.41720866  0.62361301  0.73081058  1
  Zn  Zn95  1  0.11680506  -0.00483158  0.13021062  1
  Zn  Zn96  1  -0.00364665  0.62401041  0.12217722  1
  Zn  Zn97  1  0.00154134  0.75051887  0.24413161  1
  Zn  Zn98  1  0.24509450  0.75401917  -0.00546195  1
  Zn  Zn99  1  0.74635960  0.25392921  0.50548009  1
  Zn  Zn100  1  0.50030069  0.88037516  0.88030251  1
  Zn  Zn101  1  0.24955172  0.37348986  0.62627368  1
  Zn  Zn102  1  0.50806873  0.74304440  0.26051015  1
  Zn  Zn103  1  0.00109192  0.12686390  0.62682825  1
  Zn  Zn104  1  0.00601511  0.37497642  0.88400950  1
  Zn  Zn105  1  0.37282809  0.37528602  -0.00239533  1
  Zn  Zn106  1  0.25252792  0.87202611  0.62440594  1
  Zn  Zn107  1  0.18538985  0.19024843  0.18773661  1
  Zn  Zn108  1  0.18933128  0.18769745  0.68933582  1
  Zn  Zn109  1  0.18419206  0.68499659  0.18397906  1
  Zn  Zn110  1  0.19089066  0.68942315  0.68358557  1
  Zn  Zn111  1  0.68897610  0.18401872  0.18873619  1
  Zn  Zn112  1  0.68722301  0.18742305  0.68635595  1
  Zn  Zn113  1  0.68680132  0.68504660  0.18618893  1
  Zn  Zn114  1  0.68192544  0.68538804  0.69031604  1
  Zn  Zn115  1  0.31098513  0.31442772  0.31292678  1
  Zn  Zn116  1  0.31290474  0.31358381  0.81159363  1
  Zn  Zn117  1  0.31545059  0.81084979  0.30998830  1
  Zn  Zn118  1  0.32329852  0.81013519  0.80748939  1
  Zn  Zn119  1  0.81156379  0.31532941  0.31409337  1
  Zn  Zn120  1  0.81582389  0.30804116  0.81969663  1
  Zn  Zn121  1  0.81161591  0.81316372  0.31123177  1
  Zn  Zn122  1  0.80913455  0.80985838  0.81332614  1
  Zn  Zn123  1  0.19093220  0.44107061  0.43550491  1
  Zn  Zn124  1  0.18970980  0.44422980  0.93873329  1
  Zn  Zn125  1  0.18690640  0.93534038  0.43867545  1
  Zn  Zn126  1  0.18556899  0.94103576  0.94171132  1
  Zn  Zn127  1  0.68248186  0.44949625  0.43996556  1
  Zn  Zn128  1  0.69159890  0.43428563  0.93380415  1
  Zn  Zn129  1  0.68708726  0.93611073  0.43842385  1
  Zn  Zn130  1  0.67813643  0.93934140  0.93782483  1
  Zn  Zn131  1  0.30856517  0.05834188  0.06417144  1
  Zn  Zn132  1  0.31371378  0.06220253  0.56333223  1
  Zn  Zn133  1  0.30752608  0.56106265  0.05913505  1
  Zn  Zn134  1  0.31335930  0.56571055  0.55824446  1
  Zn  Zn135  1  0.81146685  0.06808683  0.06629200  1
  Zn  Zn136  1  0.81503488  0.06301683  0.56610034  1
  Zn  Zn137  1  0.81304665  0.56624064  0.06245249  1
  Zn  Zn138  1  0.79454340  0.56838134  0.56467046  1
  Zn  Zn139  1  0.43826910  0.43523804  0.18756965  1
  Zn  Zn140  1  0.43508617  0.43326710  0.69097712  1
  Zn  Zn141  1  0.43363695  0.93269704  0.18766424  1
  Zn  Zn142  1  0.43520647  0.93827317  0.68606493  1
  Zn  Zn143  1  0.93773650  0.43646848  0.19049287  1
  Zn  Zn144  1  0.93903094  0.43700898  0.68924844  1
  Zn  Zn145  1  0.92749675  0.94278893  0.18555821  1
  Zn  Zn146  1  0.93932245  0.93764193  0.68417823  1
  Zn  Zn147  1  0.05694276  0.06470894  0.31454533  1
  Zn  Zn148  1  0.06635493  0.06242994  0.81547991  1
  Zn  Zn149  1  0.06189365  0.56580881  0.30861812  1
  Zn  Zn150  1  0.06245448  0.56284851  0.81183493  1
  Zn  Zn151  1  0.56520300  0.06016203  0.31108525  1
  Zn  Zn152  1  0.56061438  0.05710482  0.81301086  1
  Zn  Zn153  1  0.55820181  0.55714234  0.31304702  1
  Zn  Zn154  1  0.56917675  0.56061872  0.79851176  1
  Zn  Zn155  1  0.44117452  0.18942214  0.44036770  1
  Zn  Zn156  1  0.43496827  0.18825155  0.93926226  1
  Zn  Zn157  1  0.44442050  0.68221526  0.45144913  1
  Zn  Zn158  1  0.43327412  0.68835521  0.94651662  1
  Zn  Zn159  1  0.93718406  0.19174598  0.44183376  1
  Zn  Zn160  1  0.93620662  0.19035598  0.93902385  1
  Zn  Zn161  1  0.93956814  0.69040895  0.43509525  1
  Zn  Zn162  1  0.93573073  0.69149519  0.93679339  1
  Zn  Zn163  1  0.05958118  0.30869110  0.06847709  1
  Zn  Zn164  1  0.05802051  0.31410874  0.56417876  1
  Zn  Zn165  1  0.05905046  0.81139345  0.05701502  1
  Zn  Zn166  1  0.06413604  0.81361746  0.56258767  1
  Zn  Zn167  1  0.55945997  0.31119986  0.06069870  1
  Zn  Zn168  1  0.56773073  0.39736814  0.56089597  1
  Zn  Zn169  1  0.57797127  0.79355410  0.09548656  1
  Zn  Zn170  1  0.55868314  0.81577956  0.55995227  1
  O  O171  1  0.11394647  0.12489830  0.12294867  1
  O  O172  1  0.12391628  0.11394776  0.62188551  1
  O  O173  1  0.12354724  0.61640743  0.11253991  1
  O  O174  1  0.12367845  0.61569701  0.61621488  1
  O  O175  1  0.61666170  0.12134076  0.11898774  1
  O  O176  1  0.61700164  0.12042718  0.61815219  1
  O  O177  1  0.61453425  0.60643118  0.12071610  1
  O  O178  1  0.65668265  0.61096748  0.61101509  1
  O  O179  1  0.37930858  0.38344718  0.37762427  1
  O  O180  1  0.38327823  0.38745148  0.87231966  1
  O  O181  1  0.37850578  0.88710252  0.37622692  1
  O  O182  1  0.37694721  0.87183662  0.89061789  1
  O  O183  1  0.88019042  0.38611101  0.38005474  1
  O  O184  1  0.87760718  0.38085230  0.88735829  1
  O  O185  1  0.88303167  0.86854517  0.38786329  1
  O  O186  1  0.88515368  0.87515182  0.87420519  1
  O  O187  1  0.25621119  0.00420246  0.36927990  1
  O  O188  1  0.25180326  0.00841548  0.87016869  1
  O  O189  1  0.26331527  0.50751933  0.37503507  1
  O  O190  1  0.26101697  0.50683749  0.86751492  1
  O  O191  1  0.74300667  0.00202005  0.36385445  1
  O  O192  1  0.74421975  0.01291463  0.87316493  1
  O  O193  1  0.75275433  0.51184228  0.36777316  1
  O  O194  1  0.76083316  0.50474355  0.86990793  1
  O  O195  1  0.23961975  0.48628572  0.11888527  1
  O  O196  1  0.24304577  0.50046990  0.63071166  1
  O  O197  1  0.24443316  0.99167022  0.13462345  1
  O  O198  1  0.24387196  1.00021493  0.63436194  1
  O  O199  1  0.74210013  0.50491927  0.13630322  1
  O  O200  1  0.76548463  0.49152462  0.64383452  1
  O  O201  1  0.74015465  1.00680551  0.13270110  1
  O  O202  1  0.74454191  0.99340946  0.63080398  1
  O  O203  1  0.00689516  0.37798795  0.26451583  1
  O  O204  1  0.00866454  0.36840650  0.75355997  1
  O  O205  1  -0.00867748  0.88042220  0.26257512  1
  O  O206  1  0.00590809  0.87192317  0.75564064  1
  O  O207  1  0.50887674  0.37013461  0.25773343  1
  O  O208  1  0.51194676  0.37845544  0.76223517  1
  O  O209  1  0.49632358  0.87769120  0.26718397  1
  O  O210  1  0.51213851  0.87851430  0.75085691  1
  O  O211  1  0.49377734  0.12940074  0.24344049  1
  O  O212  1  0.50257290  0.12046934  0.73409965  1
  O  O213  1  0.49873456  0.62115634  0.23742358  1
  O  O214  1  0.52818100  0.60345670  0.70202930  1
  O  O215  1  0.98360644  0.11857442  0.24454321  1
  O  O216  1  0.99528991  0.13060408  0.75194613  1
  O  O217  1  0.99594458  0.62979206  0.24362527  1
  O  O218  1  0.99462388  0.63415423  0.74828904  1
  O  O219  1  0.36469489  0.25364944  0.00801926  1
  O  O220  1  0.36573378  0.25866295  0.49824754  1
  O  O221  1  0.36467542  0.75873443  0.00900281  1
  O  O222  1  0.37379899  0.75100048  0.50988748  1
  O  O223  1  0.86737004  0.25468626  0.01009322  1
  O  O224  1  0.87264150  0.26030389  0.50903419  1
  O  O225  1  0.86712509  0.75452669  0.00531194  1
  O  O226  1  0.87091905  0.75614878  0.50676313  1
  O  O227  1  0.12926074  0.24721563  0.49213477  1
  O  O228  1  0.12986124  0.23810744  1.00722520  1
  O  O229  1  0.12440625  0.74203975  0.49133629  1
  O  O230  1  0.12758552  0.73351819  1.00163822  1
  O  O231  1  0.62678660  0.24037205  0.49140260  1
  O  O232  1  0.63135374  0.24342847  0.99529317  1
  O  O233  1  0.64026763  0.75738132  0.50472240  1
  O  O234  1  0.63287548  0.74523407  0.99577706  1
  O  O235  1  0.49345138  0.24314834  0.13093976  1
  O  O236  1  0.50112492  0.23476769  0.61992763  1
  O  O237  1  0.48350267  0.72789309  0.10608916  1
  O  O238  1  0.48591936  0.75585034  0.62207863  1
  O  O239  1  0.98919878  0.23772428  0.12688848  1
  O  O240  1  0.99107132  0.24862517  0.63564032  1
  O  O241  1  0.98638264  0.75046569  0.12269874  1
  O  O242  1  0.98916230  0.75166608  0.63270689  1
  O  O243  1  0.00876747  0.26159897  0.38255107  1
  O  O244  1  -0.00231681  0.25270855  0.86252393  1
  O  O245  1  0.00796368  0.75981437  0.37170216  1
  O  O246  1  -0.00426748  0.75960580  0.86164963  1
  O  O247  1  0.50634230  0.25667302  0.36693778  1
  O  O248  1  0.50858506  0.25870173  0.88216922  1
  O  O249  1  0.49492761  0.76233136  0.37747202  1
  O  O250  1  0.51128912  0.74824366  0.88182110  1
  O  O251  1  0.24461880  0.13043932  0.49325927  1
  O  O252  1  0.24147420  0.13089059  0.99915390  1
  O  O253  1  0.23729710  0.62428759  0.49001932  1
  O  O254  1  0.24126139  0.62579651  0.98817753  1
  O  O255  1  0.73808457  0.12449076  0.50528534  1
  O  O256  1  0.74392357  0.13429904  0.99490809  1
  O  O257  1  0.75526992  0.63381383  0.48044375  1
  O  O258  1  0.74785619  0.62854497  0.98641152  1
  O  O259  1  0.24821514  0.36788634  0.00601887  1
  O  O260  1  0.25587564  0.36745511  0.49879037  1
  O  O261  1  0.25189759  0.87364064  0.00896613  1
  O  O262  1  0.25401971  0.87419142  0.50429728  1
  O  O263  1  0.75858055  0.36140758  -0.00372957  1
  O  O264  1  0.76171079  0.37810513  0.49377529  1
  O  O265  1  0.74991271  0.86366269  -0.01061803  1
  O  O266  1  0.75876462  0.86979897  0.50339540  1
  O  O267  1  0.12414204  0.48910129  0.24318552  1
  O  O268  1  0.12924309  0.49475287  0.74122880  1
  O  O269  1  0.13596710  1.00561713  0.25212967  1
  O  O270  1  0.13403579  0.99403428  0.74479578  1
  O  O271  1  0.62921454  0.49219564  0.24326293  1
  O  O272  1  0.64536370  0.48309430  0.75550055  1
  O  O273  1  0.63787689  1.00768759  0.23850291  1
  O  O274  1  0.63353840  0.99189210  0.74436716  1
  O  O275  1  0.36610384  0.00523299  0.25616937  1
  O  O276  1  0.36369827  0.00526301  0.75147952  1
  O  O277  1  0.37575577  0.49659306  0.26296231  1
  O  O278  1  0.36981974  0.50903108  0.75284090  1
  O  O279  1  0.86060257  0.01425249  0.24800697  1
  O  O280  1  0.87171495  0.01141231  0.74474342  1
  O  O281  1  0.86454820  0.49893767  0.25770857  1
  O  O282  1  0.86939484  0.50142595  0.75974538  1
  O  O283  1  0.11927204  0.37268917  0.37027992  1
  O  O284  1  0.12444623  0.38377554  0.86355713  1
  O  O285  1  0.11542747  0.86610764  0.37940418  1
  O  O286  1  0.11620863  0.88073536  0.86445876  1
  O  O287  1  0.61614635  0.37235416  0.37018641  1
  O  O288  1  0.61989508  0.36499598  0.87085404  1
  O  O289  1  0.61118700  0.87595188  0.37619336  1
  O  O290  1  0.62286343  0.86518341  0.86799822  1
  O  O291  1  0.38027289  0.12788381  0.12840258  1
  O  O292  1  0.39079976  0.12543073  0.62198074  1
  O  O293  1  0.37758670  0.62804056  0.11997267  1
  O  O294  1  0.37130691  0.63805817  0.62268974  1
  O  O295  1  0.87900182  0.13559368  0.13425117  1
  O  O296  1  0.87934766  0.13230948  0.63622198  1
  O  O297  1  0.87767080  0.63715549  0.12344200  1
  O  O298  1  0.87405809  0.63283078  0.62998239  1
  O  O299  1  0.25191596  0.25878271  0.11686580  1
  O  O300  1  0.24652035  0.24990910  0.60960959  1
  O  O301  1  0.25424911  0.75604737  0.12553973  1
  O  O302  1  0.25927422  0.75332634  0.62186712  1
  O  O303  1  0.75725129  0.24534072  0.11764867  1
  O  O304  1  0.76606002  0.24566484  0.62600777  1
  O  O305  1  0.76123141  0.74199989  0.11118813  1
  O  O306  1  0.76054091  0.75467521  0.61990581  1
  O  O307  1  0.24288170  0.24607366  0.38376518  1
  O  O308  1  0.25101636  0.24620522  0.88967200  1
  O  O309  1  0.24534123  0.74387601  0.37578142  1
  O  O310  1  0.25496457  0.73664036  0.86984102  1
  O  O311  1  0.73566547  0.25598143  0.37798449  1
  O  O312  1  0.74332623  0.23891910  0.88425579  1
  O  O313  1  0.75204562  0.73881579  0.37796639  1
  O  O314  1  0.74363935  0.73955706  0.88084291  1
  O  O315  1  0.00420918  0.12321332  0.00671257  1
  O  O316  1  0.00558976  0.11807919  0.50179846  1
  O  O317  1  0.01234545  0.62692805  -0.00353519  1
  O  O318  1  0.01092539  0.61990948  0.49848300  1
  O  O319  1  0.50824395  0.13202300  0.01086391  1
  O  O320  1  0.50796572  0.11593225  0.50611230  1
  O  O321  1  0.50134915  0.60853985  0.00178454  1
  O  O322  1  0.51412216  0.62127599  0.52136901  1
  O  O323  1  0.48835183  0.36393113  0.48448154  1
  O  O324  1  0.49898263  0.38392682  0.98842427  1
  O  O325  1  0.49782188  0.88785265  0.48920958  1
  O  O326  1  0.48448922  0.86745931  1.00846305  1
  O  O327  1  0.99213029  0.38282844  0.49054158  1
  O  O328  1  0.98626342  0.36725645  1.00096485  1
  O  O329  1  0.99380522  0.88154634  0.49495184  1
  O  O330  1  0.99950034  0.88610579  0.98986359  1
  O  O331  1  0.48749097  0.49121234  0.37431813  1
  O  O332  1  0.49682629  0.49662454  0.87626607  1
  O  O333  1  0.49395437  0.99564898  0.38007872  1
  O  O334  1  0.49781245  0.99574547  0.87945789  1
  O  O335  1  0.99138799  0.49618447  0.37973510  1
  O  O336  1  0.98609608  0.49832457  0.87123346  1
  O  O337  1  1.00666019  0.99268029  0.38936666  1
  O  O338  1  1.00223139  0.99460109  0.88354948  1
  O  O339  1  -0.00180484  0.01076348  0.11941468  1
  O  O340  1  0.00900566  0.00131906  0.61510002  1
  O  O341  1  0.01163727  0.49839974  0.12649304  1
  O  O342  1  0.00716773  0.50338261  0.61928229  1
  O  O343  1  0.50797763  0.01047489  0.13501620  1
  O  O344  1  0.50603048  0.00274949  0.61584717  1
  O  O345  1  0.50293174  0.50008978  0.11471408  1
  O  O346  1  0.50661652  0.47957886  0.61711869  1
  O  O347  1  0.23950063  0.36960217  0.24089441  1
  O  O348  1  0.24337671  0.38890432  0.74940043  1
  O  O349  1  0.25489047  0.88391423  0.24096811  1
  O  O350  1  0.24419715  0.88251114  0.75287349  1
  O  O351  1  0.73660719  0.38446018  0.25631541  1
  O  O352  1  0.74813437  0.38059624  0.75939923  1
  O  O353  1  0.75574685  0.89280705  0.25218544  1
  O  O354  1  0.74566891  0.88052200  0.74587900  1
  O  O355  1  0.25464441  0.12022395  0.25542451  1
  O  O356  1  0.24611065  0.11760493  0.76143503  1
  O  O357  1  0.24728139  0.62635204  0.26147898  1
  O  O358  1  0.23862297  0.61256938  0.75761080  1
  O  O359  1  0.76040597  0.11992712  0.25231659  1
  O  O360  1  0.75752592  0.11940760  0.75807132  1
  O  O361  1  0.75140291  0.61930060  0.25891153  1
  O  O362  1  0.75514271  0.61294294  0.75966851  1
  O  O363  1  0.37167447  0.11535265  0.37183670  1
  O  O364  1  0.36155540  0.12356947  0.87875699  1
  O  O365  1  0.37175925  0.61279198  0.38249950  1
  O  O366  1  0.37206127  0.61692052  0.87201238  1
  O  O367  1  0.87723164  0.13169281  0.36443964  1
  O  O368  1  0.86588087  0.13120715  0.86656684  1
  O  O369  1  0.87292426  0.61526898  0.37233293  1
  O  O370  1  0.86864311  0.61882707  0.87063706  1
  O  O371  1  0.12811636  0.37932350  0.13221753  1
  O  O372  1  0.12562173  0.38717992  0.62982424  1
  O  O373  1  0.13428997  0.87453034  0.12126026  1
  O  O374  1  0.12444473  0.88698394  0.63439420  1
  O  O375  1  0.61762171  0.38416596  0.13307590  1
  O  O376  1  0.63007822  0.34922330  0.64284543  1
  O  O377  1  0.62336408  0.89786469  0.11146409  1
  O  O378  1  0.63087701  0.87857261  0.63169916  1
  O  O379  1  0.12776471  0.25962579  0.26348284  1
  O  O380  1  0.11836444  0.26252210  0.74276876  1
  O  O381  1  0.12283552  0.74850304  0.26090206  1
  O  O382  1  0.11485004  0.76079786  0.74132886  1
  O  O383  1  0.62165613  0.25623982  0.25440127  1
  O  O384  1  0.63303518  0.25074762  0.76644310  1
  O  O385  1  0.60549899  0.75684666  0.20418413  1
  O  O386  1  0.63238636  0.75862990  0.76107903  1
  O  O387  1  0.37824501  0.24385544  0.24535009  1
  O  O388  1  0.36519172  0.24469941  0.74304404  1
  O  O389  1  0.38439877  0.75450075  0.23401158  1
  O  O390  1  0.37843941  0.73826129  0.73726038  1
  O  O391  1  0.86668798  0.24084853  0.24584926  1
  O  O392  1  0.88244231  0.24339221  0.74665173  1
  O  O393  1  0.87327506  0.75080458  0.23506902  1
  O  O394  1  0.87971504  0.74500383  0.74252704  1
  O  O395  1  0.36907384  0.48738342  0.49069621  1
  O  O396  1  0.38192653  0.49682189  0.98940545  1
  O  O397  1  0.38335281  1.00141754  0.49121036  1
  O  O398  1  0.37032907  0.98234411  1.00486300  1
  O  O399  1  0.87544903  0.49786742  0.49475925  1
  O  O400  1  0.86728343  0.48831588  0.99599037  1
  O  O401  1  0.88456810  0.99099886  0.50695507  1
  O  O402  1  0.88578558  1.00401494  1.00423536  1
  O  O403  1  0.11438981  0.01304462  0.00540944  1
  O  O404  1  0.12050423  0.00636805  0.50815341  1
  O  O405  1  0.12654155  0.51175846  0.00666768  1
  O  O406  1  0.12041743  0.50520045  0.50510085  1
  O  O407  1  0.63148170  0.01616556  0.01109556  1
  O  O408  1  0.61869750  0.00558155  0.50508631  1
  O  O409  1  0.62027899  0.49549219  0.00484689  1
  O  O410  1  0.61833807  0.49387115  0.52070866  1
  O  O411  1  0.36614870  0.36999591  0.12421303  1
  O  O412  1  0.36988131  0.37275808  0.61530261  1
  O  O413  1  0.36530666  0.86758162  0.11796132  1
  O  O414  1  0.37290810  0.86450741  0.62576821  1
  O  O415  1  0.87778573  0.36313507  0.12384716  1
  O  O416  1  0.88245835  0.36804937  0.61601157  1
  O  O417  1  0.87502346  0.86342630  0.11845620  1
  O  O418  1  0.87120298  0.86803926  0.61678027  1
  O  O419  1  0.12862975  0.13436556  0.37878192  1
  O  O420  1  0.13668534  0.12371732  0.88651505  1
  O  O421  1  0.13247060  0.63066870  0.37911581  1
  O  O422  1  0.13291939  0.61773100  0.88494984  1
  O  O423  1  0.61662162  0.13470549  0.38375883  1
  O  O424  1  0.62898472  0.13037431  0.88287117  1
  O  O425  1  0.63301641  0.62409595  0.37023292  1
  O  O426  1  0.63165176  0.62886809  0.87249645  1
