# generated using pymatgen
data_V85Zn86O256
_symmetry_space_group_name_H-M   'P 1'
_cell_length_a   16.96302856
_cell_length_b   16.97219966
_cell_length_c   16.96124625
_cell_angle_alpha   90.04106626
_cell_angle_beta   89.95617834
_cell_angle_gamma   89.89932350
_symmetry_Int_Tables_number   1
_chemical_formula_structural   V85Zn86O256
_chemical_formula_sum   'V85 Zn86 O256'
_cell_volume   4883.13100099
_cell_formula_units_Z   1
loop_
 _symmetry_equiv_pos_site_id
 _symmetry_equiv_pos_as_xyz
  1  'x, y, z'
loop_
 _atom_site_type_symbol
 _atom_site_label
 _atom_site_symmetry_multiplicity
 _atom_site_fract_x
 _atom_site_fract_y
 _atom_site_fract_z
 _atom_site_occupancy
  V  V0  1  0.49386645  0.88967956  0.38394583  1
  V  V1  1  0.87493522  0.62597677  0.25394799  1
  V  V2  1  0.50553779  0.10962029  0.62418739  1
  V  V3  1  0.24998127  0.49075462  0.24072983  1
  V  V4  1  0.12830488  0.74845113  0.37887915  1
  V  V5  1  0.62819478  0.87615203  0.74498128  1
  V  V6  1  0.87130899  0.50163887  0.37779661  1
  V  V7  1  0.12743347  0.00193717  0.12972432  1
  V  V8  1  0.49935192  0.75836533  0.24911291  1
  V  V9  1  0.68486464  0.83219123  0.19381563  1
  V  V10  1  0.74717268  0.25170220  0.50596025  1
  V  V11  1  0.49564905  0.38251719  0.87279682  1
  V  V12  1  0.25594773  0.36626714  0.62088146  1
  V  V13  1  0.12280185  0.62647573  0.00131490  1
  V  V14  1  0.12925935  0.49408999  0.61647373  1
  V  V15  1  -0.00151592  0.37440680  0.37096096  1
  V  V16  1  -0.00069385  0.87477236  0.86356372  1
  V  V17  1  0.87603758  0.25712882  0.62835463  1
  V  V18  1  0.62330050  0.76063731  0.38241657  1
  V  V19  1  0.50052061  0.25712816  0.25824664  1
  V  V20  1  0.75011793  0.12817563  0.37241464  1
  V  V21  1  0.25386772  0.62478709  0.36907865  1
  V  V22  1  0.13410047  0.87761498  0.25196862  1
  V  V23  1  0.50089752  0.86722564  0.87492700  1
  V  V24  1  0.18225939  0.82784640  0.69290307  1
  V  V25  1  0.73536034  0.49960669  0.24847445  1
  V  V26  1  0.25162002  0.11141216  0.37071224  1
  V  V27  1  0.24890592  0.87787214  0.12825641  1
  V  V28  1  0.12437140  0.37476960  0.75005546  1
  V  V29  1  0.86458667  0.86824002  0.00450198  1
  V  V30  1  0.13613413  0.12773077  0.50050553  1
  V  V31  1  0.87158017  0.38289023  0.00174920  1
  V  V32  1  0.37850446  0.24660040  0.61717313  1
  V  V33  1  0.49271068  0.48913239  0.50587299  1
  V  V34  1  0.13294783  0.62173391  0.49671474  1
  V  V35  1  0.12714385  0.25033858  0.37471785  1
  V  V36  1  0.24981395  0.62166267  0.87121069  1
  V  V37  1  0.11874044  0.75826123  0.87853176  1
  V  V38  1  -0.01189184  0.12429909  0.13068258  1
  V  V39  1  0.75505647  0.00674381  0.24365616  1
  V  V40  1  0.24934153  0.75112019  0.00102465  1
  V  V41  1  0.49798222  0.12834236  0.12652214  1
  V  V42  1  -0.00066590  -0.00190220  -0.00029493  1
  V  V43  1  0.62565604  0.11164921  0.50497803  1
  V  V44  1  0.00107061  -0.00023184  0.50056571  1
  V  V45  1  0.87763130  0.00741880  0.37017238  1
  V  V46  1  0.25640322  0.50086355  0.75185156  1
  V  V47  1  0.37642860  0.62127333  0.25158283  1
  V  V48  1  0.50321516  0.62024917  0.12109719  1
  V  V49  1  0.00411177  0.49947813  0.49710707  1
  V  V50  1  -0.00063784  0.12867214  0.62571365  1
  V  V51  1  0.77620578  0.59997055  0.87041409  1
  V  V52  1  -0.00791566  0.37767598  0.87553958  1
  V  V53  1  0.37373838  0.75061255  0.12497785  1
  V  V54  1  0.37103089  0.11287990  0.25209038  1
  V  V55  1  0.51354110  0.49870774  -0.00003969  1
  V  V56  1  -0.00537465  0.62778841  0.12409308  1
  V  V57  1  0.24826229  0.25357490  0.00983393  1
  V  V58  1  0.12145187  0.12612907  0.00141331  1
  V  V59  1  0.37456848  -0.00131338  0.87559261  1
  V  V60  1  -0.01527721  0.24696448  0.25387395  1
  V  V61  1  0.12451529  -0.00059987  0.63088622  1
  V  V62  1  0.12317147  0.49343276  0.12254572  1
  V  V63  1  0.73466831  0.38276130  0.12518194  1
  V  V64  1  0.94215934  0.66625523  0.68248481  1
  V  V65  1  0.74138789  0.62587760  0.38491481  1
  V  V66  1  0.37717615  0.12364641  0.74907822  1
  V  V67  1  0.87155464  -0.00142822  0.87358321  1
  V  V68  1  0.62683400  0.00112125  0.12859983  1
  V  V69  1  0.36667707  0.38554523  0.00067933  1
  V  V70  1  0.64615869  0.74833391  0.88074611  1
  V  V71  1  0.24878582  0.12640388  0.87598266  1
  V  V72  1  -0.00072550  0.75180967  0.25235643  1
  V  V73  1  0.35727198  0.87465477  0.50827183  1
  V  V74  1  0.12376404  0.25066461  0.87594726  1
  V  V75  1  0.00076920  0.87555652  0.37415233  1
  V  V76  1  0.50183665  0.25094291  0.75070330  1
  V  V77  1  0.24999564  -0.00072193  0.74635000  1
  V  V78  1  0.37263009  0.87537404  0.00167598  1
  V  V79  1  0.74717483  0.12640612  0.87441071  1
  V  V80  1  0.87396787  0.87471712  0.50709199  1
  V  V81  1  0.74844806  0.25048949  0.00249128  1
  V  V82  1  0.63132240  0.51595669  0.62254203  1
  V  V83  1  0.75030700  0.75071090  0.51023304  1
  V  V84  1  0.49916057  0.00148645  0.00119949  1
  Zn  Zn85  1  0.74919676  0.38333446  0.63435192  1
  Zn  Zn86  1  0.86669046  0.25106746  0.13320942  1
  Zn  Zn87  1  0.50097022  0.74110034  0.73644561  1
  Zn  Zn88  1  0.64002533  0.62814643  0.00098558  1
  Zn  Zn89  1  0.38403796  0.46785946  0.37424353  1
  Zn  Zn90  1  0.37217349  0.25203054  0.12428762  1
  Zn  Zn91  1  0.85741614  0.75385228  0.12647964  1
  Zn  Zn92  1  0.12263527  0.37034170  0.24201661  1
  Zn  Zn93  1  0.87278816  0.12517776  0.74901183  1
  Zn  Zn94  1  0.62976370  0.38434842  0.74898007  1
  Zn  Zn95  1  0.35478580  0.75633123  0.62701007  1
  Zn  Zn96  1  0.74355261  0.00513291  0.74353193  1
  Zn  Zn97  1  0.62269418  0.12652441  -0.00091970  1
  Zn  Zn98  1  0.38558544  0.62294313  0.72857328  1
  Zn  Zn99  1  0.62365850  0.25230568  0.87447473  1
  Zn  Zn100  1  0.57168627  0.42235801  0.31575429  1
  Zn  Zn101  1  0.30213643  0.29207036  0.45698268  1
  Zn  Zn102  1  0.74737009  0.88116850  0.62399862  1
  Zn  Zn103  1  0.87556177  0.37904210  0.50564375  1
  Zn  Zn104  1  -0.00140116  0.25198606  0.75091449  1
  Zn  Zn105  1  -0.00748711  0.50516615  -0.00344149  1
  Zn  Zn106  1  0.61642719  0.25700456  0.38259253  1
  Zn  Zn107  1  0.18226709  0.18482507  0.19134131  1
  Zn  Zn108  1  0.18901911  0.18772523  0.68823045  1
  Zn  Zn109  1  0.18618858  0.68651252  0.18757668  1
  Zn  Zn110  1  0.13191099  0.66405329  0.70298418  1
  Zn  Zn111  1  0.68362849  0.18946060  0.18789827  1
  Zn  Zn112  1  0.68642309  0.18955680  0.68800405  1
  Zn  Zn113  1  0.67713086  0.66622102  0.19946455  1
  Zn  Zn114  1  0.68807425  0.68712086  0.69678221  1
  Zn  Zn115  1  0.30514280  0.30546601  0.29265913  1
  Zn  Zn116  1  0.31466314  0.31224131  0.81358755  1
  Zn  Zn117  1  0.31730519  0.81101343  0.31974172  1
  Zn  Zn118  1  0.31899194  0.80238743  0.81656937  1
  Zn  Zn119  1  0.78053496  0.33138956  0.32878102  1
  Zn  Zn120  1  0.81104837  0.31388497  0.81249791  1
  Zn  Zn121  1  0.81866295  0.81208060  0.32425757  1
  Zn  Zn122  1  0.82178153  0.80238306  0.79985650  1
  Zn  Zn123  1  0.20389429  0.43070288  0.42500133  1
  Zn  Zn124  1  0.18392760  0.43858038  0.93731945  1
  Zn  Zn125  1  0.18884446  0.93747954  0.44156591  1
  Zn  Zn126  1  0.18628630  0.93924654  0.93785032  1
  Zn  Zn127  1  0.68475452  0.43791007  0.45263742  1
  Zn  Zn128  1  0.68749347  0.43582934  0.92926524  1
  Zn  Zn129  1  0.68945631  0.93569759  0.43130398  1
  Zn  Zn130  1  0.68554681  0.93818142  0.93688521  1
  Zn  Zn131  1  0.31052800  0.06451832  0.06493663  1
  Zn  Zn132  1  0.31856040  0.05400311  0.56165593  1
  Zn  Zn133  1  0.31244490  0.56468832  0.06176199  1
  Zn  Zn134  1  0.31453451  0.55693759  0.55625207  1
  Zn  Zn135  1  0.81149704  0.06054265  0.05787891  1
  Zn  Zn136  1  0.81231708  0.06308334  0.56284908  1
  Zn  Zn137  1  0.80875359  0.56577587  0.06155743  1
  Zn  Zn138  1  0.82820064  0.56393638  0.59868140  1
  Zn  Zn139  1  0.43534946  0.43667484  0.17944679  1
  Zn  Zn140  1  0.43877813  0.43693356  0.68222307  1
  Zn  Zn141  1  0.43972745  0.93786171  0.18869312  1
  Zn  Zn142  1  0.43623976  0.92811056  0.68759410  1
  Zn  Zn143  1  0.93060564  0.43759072  0.18758282  1
  Zn  Zn144  1  0.93847731  0.45167711  0.68924742  1
  Zn  Zn145  1  0.93666635  0.93645915  0.18665923  1
  Zn  Zn146  1  0.93192709  0.94039574  0.68626762  1
  Zn  Zn147  1  0.06328023  0.06431375  0.31121797  1
  Zn  Zn148  1  0.05999694  0.06162955  0.81149707  1
  Zn  Zn149  1  0.06290773  0.56147704  0.31056303  1
  Zn  Zn150  1  0.06030710  0.55568640  0.81750928  1
  Zn  Zn151  1  0.56777796  0.06615559  0.30981970  1
  Zn  Zn152  1  0.56254993  0.06030097  0.81372358  1
  Zn  Zn153  1  0.52702474  0.59971399  0.36408198  1
  Zn  Zn154  1  0.56948560  0.56425327  0.80786077  1
  Zn  Zn155  1  0.44413581  0.17154261  0.43374266  1
  Zn  Zn156  1  0.43465260  0.19128868  0.93724767  1
  Zn  Zn157  1  0.45578392  0.67598845  0.54146721  1
  Zn  Zn158  1  0.45789300  0.65830108  0.90224840  1
  Zn  Zn159  1  0.93766602  0.18817930  0.44289770  1
  Zn  Zn160  1  0.93295812  0.19029535  0.93960021  1
  Zn  Zn161  1  0.92200910  0.67108359  0.47396575  1
  Zn  Zn162  1  0.93223725  0.69078108  0.93461664  1
  Zn  Zn163  1  0.05407286  0.30957403  0.06241186  1
  Zn  Zn164  1  0.06395612  0.31314422  0.55867204  1
  Zn  Zn165  1  0.05570208  0.81517262  0.06221080  1
  Zn  Zn166  1  0.05190300  0.80235003  0.56119129  1
  Zn  Zn167  1  0.55969420  0.31161862  0.06086260  1
  Zn  Zn168  1  0.56447103  0.31683269  0.56503657  1
  Zn  Zn169  1  0.55878441  0.80793121  0.05485923  1
  Zn  Zn170  1  0.55808360  0.81757618  0.56271740  1
  O  O171  1  0.11594084  0.11750218  0.12205700  1
  O  O172  1  0.12153615  0.12020725  0.61874154  1
  O  O173  1  0.11618203  0.62210748  0.11547262  1
  O  O174  1  0.13901065  0.60658745  0.60517780  1
  O  O175  1  0.61501544  0.11782591  0.12281514  1
  O  O176  1  0.62016539  0.12588038  0.61402530  1
  O  O177  1  0.60802291  0.63147729  0.11711150  1
  O  O178  1  0.62877015  0.61591635  0.62852870  1
  O  O179  1  0.31889527  0.37556466  0.38074781  1
  O  O180  1  0.38286060  0.36901569  0.88891003  1
  O  O181  1  0.38881759  0.87124884  0.38331047  1
  O  O182  1  0.38037232  0.88061076  0.88089014  1
  O  O183  1  0.87447434  0.38963438  0.37919365  1
  O  O184  1  0.88342288  0.36515524  0.88612444  1
  O  O185  1  0.88366251  0.89037844  0.37934686  1
  O  O186  1  0.88019735  0.87879635  0.88073025  1
  O  O187  1  0.23637375  0.01272163  0.37051499  1
  O  O188  1  0.25147724  0.00537395  0.86552940  1
  O  O189  1  0.24322467  0.51439218  0.35460483  1
  O  O190  1  0.23778090  0.50776102  0.86311971  1
  O  O191  1  0.75733626  0.00963681  0.36644064  1
  O  O192  1  0.75667098  0.00873038  0.87546342  1
  O  O193  1  0.75466392  0.50890691  0.37472445  1
  O  O194  1  0.75761950  0.50085514  0.86907750  1
  O  O195  1  0.23564873  0.51003642  0.12929837  1
  O  O196  1  0.24414804  0.48633076  0.62863104  1
  O  O197  1  0.23468668  0.99579781  0.12046573  1
  O  O198  1  0.24181871  1.00535979  0.63882838  1
  O  O199  1  0.75094037  0.49689605  0.13571547  1
  O  O200  1  0.73777030  0.50092662  0.61378630  1
  O  O201  1  0.74424010  1.00635071  0.13447338  1
  O  O202  1  0.76464322  0.99365002  0.63322173  1
  O  O203  1  0.00027420  0.36717258  0.25452047  1
  O  O204  1  0.00556434  0.37745223  0.75675913  1
  O  O205  1  0.00878043  0.86878148  0.25320055  1
  O  O206  1  -0.00525963  0.88209449  0.76427481  1
  O  O207  1  0.49702033  0.36156220  0.24501028  1
  O  O208  1  0.49366446  0.36745431  0.75853852  1
  O  O209  1  0.49141691  0.86248878  0.25737128  1
  O  O210  1  0.50960207  0.87173544  0.75998102  1
  O  O211  1  0.48890979  0.12949458  0.24528995  1
  O  O212  1  0.49607738  0.13013968  0.74599358  1
  O  O213  1  0.49282014  0.63664642  0.24462746  1
  O  O214  1  0.48463157  0.63497611  0.78798419  1
  O  O215  1  1.00157303  0.13304493  0.24188164  1
  O  O216  1  1.00172375  0.12792691  0.73629343  1
  O  O217  1  0.99477569  0.63304877  0.24504949  1
  O  O218  1  1.02769534  0.62918198  0.74234201  1
  O  O219  1  0.36254768  0.25638166  0.00198735  1
  O  O220  1  0.38208249  0.23573342  0.51165801  1
  O  O221  1  0.36457203  0.75926446  0.00934528  1
  O  O222  1  0.38463980  0.77050651  0.50665742  1
  O  O223  1  0.86107912  0.25675727  0.00521854  1
  O  O224  1  0.87005959  0.25161796  0.51283322  1
  O  O225  1  0.87651623  0.76398406  0.00472893  1
  O  O226  1  0.85997382  0.76766893  0.47608814  1
  O  O227  1  0.11909009  0.23935830  0.48681358  1
  O  O228  1  0.12906174  0.24639525  0.99604397  1
  O  O229  1  0.11917129  0.73843046  0.48519618  1
  O  O230  1  0.12781344  0.74612933  0.99691461  1
  O  O231  1  0.63374732  0.24148656  0.50083566  1
  O  O232  1  0.63606769  0.24880253  0.99862280  1
  O  O233  1  0.63293899  0.75853244  0.48661420  1
  O  O234  1  0.62734047  0.75094175  0.98535910  1
  O  O235  1  0.49927416  0.23866759  0.13096630  1
  O  O236  1  0.49369288  0.24287797  0.63248052  1
  O  O237  1  0.49264273  0.74614008  0.12990236  1
  O  O238  1  0.50080798  0.74405676  0.62187229  1
  O  O239  1  0.99676119  0.24062581  0.13561770  1
  O  O240  1  0.99497731  0.24468511  0.62423223  1
  O  O241  1  1.00276649  0.74128016  0.13665452  1
  O  O242  1  1.01535002  0.72665906  0.63432177  1
  O  O243  1  0.00304057  0.25405422  0.37056319  1
  O  O244  1  0.00655014  0.25761784  0.87463626  1
  O  O245  1  0.00886457  0.75455013  0.36241616  1
  O  O246  1  0.01124276  0.75881823  0.88141488  1
  O  O247  1  0.49633702  0.24875375  0.36254026  1
  O  O248  1  0.49905699  0.25705661  0.86755779  1
  O  O249  1  0.51618219  0.75450916  0.36465016  1
  O  O250  1  0.49933373  0.76607915  0.88665167  1
  O  O251  1  0.24056034  0.11916650  0.49487561  1
  O  O252  1  0.24234844  0.13256304  0.99497314  1
  O  O253  1  0.24180796  0.61529594  0.48179431  1
  O  O254  1  0.23868542  0.63098925  0.99696051  1
  O  O255  1  0.74355016  0.13213379  0.49556054  1
  O  O256  1  0.74873390  0.13292672  0.99283220  1
  O  O257  1  0.75240418  0.63598427  0.48686891  1
  O  O258  1  0.75325750  0.61965447  0.97873655  1
  O  O259  1  0.25840271  0.36883898  -0.00708903  1
  O  O260  1  0.23703409  0.36709005  0.51868433  1
  O  O261  1  0.25293776  0.87194137  0.00683419  1
  O  O262  1  0.25736580  0.86667258  0.49395558  1
  O  O263  1  0.75377172  0.37027581  0.00467304  1
  O  O264  1  0.75547425  0.36027604  0.50694267  1
  O  O265  1  0.76662347  0.88277805  -0.00191008  1
  O  O266  1  0.75692821  0.87037586  0.50020516  1
  O  O267  1  0.12988941  0.50041820  0.23781633  1
  O  O268  1  0.13058633  0.48675133  0.73844085  1
  O  O269  1  0.11836177  0.98980529  0.24103126  1
  O  O270  1  0.13080606  1.00342246  0.73889503  1
  O  O271  1  0.63624393  0.50378043  0.25608615  1
  O  O272  1  0.61370353  0.49968889  0.72951247  1
  O  O273  1  0.63471221  1.00186238  0.23704556  1
  O  O274  1  0.62786665  0.98037585  0.76264012  1
  O  O275  1  0.37430297  0.01429759  0.24405535  1
  O  O276  1  0.36697095  0.00243598  0.75586455  1
  O  O277  1  0.36638577  0.50333200  0.24662982  1
  O  O278  1  0.35975129  0.50446815  0.74129323  1
  O  O279  1  0.86758206  -0.00159291  0.25677789  1
  O  O280  1  0.87499914  0.00348441  0.76506962  1
  O  O281  1  0.87148693  0.50871690  0.26157882  1
  O  O282  1  0.90069765  0.55826110  0.69279381  1
  O  O283  1  0.12061921  0.36456641  0.37007800  1
  O  O284  1  0.11821383  0.36898291  0.86811138  1
  O  O285  1  0.12106798  0.86869737  0.36991616  1
  O  O286  1  0.11403880  0.86916693  0.88339199  1
  O  O287  1  0.65569949  0.36545888  0.36775495  1
  O  O288  1  0.61057188  0.37165656  0.87124111  1
  O  O289  1  0.61814790  0.86727004  0.37038143  1
  O  O290  1  0.61952449  0.86602205  0.87282025  1
  O  O291  1  0.38041920  0.12663149  0.13370168  1
  O  O292  1  0.38214739  0.12737942  0.63111100  1
  O  O293  1  0.38264839  0.63041155  0.13171028  1
  O  O294  1  0.36802746  0.63614361  0.61472495  1
  O  O295  1  0.88561166  0.12589235  0.12076443  1
  O  O296  1  0.88647352  0.13322922  0.62439804  1
  O  O297  1  0.87976690  0.63286352  0.13082406  1
  O  O298  1  0.88816816  0.65811541  0.58592290  1
  O  O299  1  0.24466089  0.24574790  0.11262582  1
  O  O300  1  0.26427166  0.25325125  0.63259213  1
  O  O301  1  0.25239461  0.75729907  0.12160926  1
  O  O302  1  0.22886574  0.75962767  0.63902605  1
  O  O303  1  0.74792706  0.25771787  0.12063432  1
  O  O304  1  0.76042250  0.24576261  0.61909729  1
  O  O305  1  0.73977794  0.75714169  0.14584623  1
  O  O306  1  0.74183949  0.75351307  0.61220864  1
  O  O307  1  0.24024123  0.23521481  0.37217098  1
  O  O308  1  0.24261173  0.24470890  0.88235972  1
  O  O309  1  0.24095644  0.73582238  0.36447738  1
  O  O310  1  0.23564957  0.74666543  0.88164207  1
  O  O311  1  0.75698017  0.23623798  0.38593286  1
  O  O312  1  0.74884597  0.24139440  0.88459718  1
  O  O313  1  0.73844519  0.74777338  0.37696801  1
  O  O314  1  0.74522199  0.75578553  0.87642647  1
  O  O315  1  0.00394472  0.12045449  0.00739116  1
  O  O316  1  0.01034908  0.11975075  0.50982106  1
  O  O317  1  0.00373554  0.62720612  0.00840624  1
  O  O318  1  0.01850944  0.60654891  0.48536106  1
  O  O319  1  0.49689575  0.12037759  0.00929476  1
  O  O320  1  0.51652662  0.12218517  0.50738270  1
  O  O321  1  0.49459719  0.61202842  0.00374540  1
  O  O322  1  0.50162028  0.59825893  0.47722605  1
  O  O323  1  0.50805792  0.38787563  0.49341097  1
  O  O324  1  0.49103795  0.38151460  0.99442347  1
  O  O325  1  0.50590943  0.88288500  0.48457274  1
  O  O326  1  0.49142448  0.88421123  0.99721132  1
  O  O327  1  1.00082238  0.38334732  0.48854399  1
  O  O328  1  0.98870179  0.37405460  0.99336934  1
  O  O329  1  0.99546454  0.87820597  0.49274554  1
  O  O330  1  0.99133242  0.88359123  0.99326727  1
  O  O331  1  0.49694679  0.48906763  0.37043714  1
  O  O332  1  0.50058877  0.48927991  0.88311839  1
  O  O333  1  0.50468596  0.98612560  0.36275234  1
  O  O334  1  0.49447358  0.99070226  0.88200099  1
  O  O335  1  0.99326810  0.49299439  0.37595197  1
  O  O336  1  1.00397250  0.48309780  0.88046549  1
  O  O337  1  0.99557017  0.99783047  0.37960920  1
  O  O338  1  0.99318621  0.99577774  0.88111236  1
  O  O339  1  0.00691246  0.00625433  0.12110772  1
  O  O340  1  0.00592315  0.00779388  0.62167084  1
  O  O341  1  0.00326945  0.51491260  0.12652508  1
  O  O342  1  0.02230471  0.48501929  0.60920923  1
  O  O343  1  0.50665134  0.00941040  0.12355398  1
  O  O344  1  0.49812244  0.01156709  0.63606816  1
  O  O345  1  0.49517911  0.50952852  0.11441824  1
  O  O346  1  0.50110194  0.50132975  0.61189108  1
  O  O347  1  0.24266074  0.38726747  0.23646231  1
  O  O348  1  0.24339539  0.37960179  0.74588172  1
  O  O349  1  0.23928006  0.86986241  0.24892884  1
  O  O350  1  0.24990412  0.88172823  0.75266389  1
  O  O351  1  0.75897660  0.38944954  0.23555804  1
  O  O352  1  0.74300372  0.36719966  0.74703395  1
  O  O353  1  0.75172505  0.88528009  0.25484690  1
  O  O354  1  0.73899981  0.86982652  0.74948312  1
  O  O355  1  0.26281414  0.12908405  0.25410507  1
  O  O356  1  0.25497176  0.11782995  0.75700972  1
  O  O357  1  0.25787002  0.61827365  0.24784095  1
  O  O358  1  0.23236234  0.61348378  0.75799395  1
  O  O359  1  0.74596926  0.11900831  0.25976277  1
  O  O360  1  0.75051958  0.12590595  0.76236096  1
  O  O361  1  0.75801822  0.61748945  0.26207195  1
  O  O362  1  0.74853851  0.63278534  0.77651285  1
  O  O363  1  0.36725056  0.12463190  0.36190430  1
  O  O364  1  0.36914171  0.11814026  0.86999233  1
  O  O365  1  0.36769431  0.62275350  0.35638622  1
  O  O366  1  0.34909551  0.62936769  0.87931540  1
  O  O367  1  0.86961256  0.11335099  0.38345069  1
  O  O368  1  0.86716794  0.11683797  0.87626576  1
  O  O369  1  0.86830617  0.61599560  0.37658812  1
  O  O370  1  0.87671558  0.61378094  0.87518853  1
  O  O371  1  0.11344548  0.39047335  0.12041107  1
  O  O372  1  0.13267550  0.37206795  0.63372413  1
  O  O373  1  0.12716252  0.88187720  0.13269081  1
  O  O374  1  0.11971186  0.88088105  0.62636222  1
  O  O375  1  0.63546479  0.37597551  0.11942698  1
  O  O376  1  0.62744782  0.38604503  0.62867545  1
  O  O377  1  0.62163703  0.88130982  0.12476972  1
  O  O378  1  0.62357196  0.87298679  0.64247768  1
  O  O379  1  0.11500573  0.24919608  0.26089387  1
  O  O380  1  0.12388236  0.26059983  0.75501725  1
  O  O381  1  0.11920327  0.75659854  0.25678132  1
  O  O382  1  0.13056851  0.76787478  0.76042497  1
  O  O383  1  0.60350325  0.24010508  0.25428139  1
  O  O384  1  0.60884817  0.24855660  0.75066598  1
  O  O385  1  0.62064436  0.76096285  0.24980937  1
  O  O386  1  0.62110139  0.75981237  0.76519227  1
  O  O387  1  0.38544522  0.24139345  0.24294416  1
  O  O388  1  0.38411982  0.24167784  0.74466640  1
  O  O389  1  0.38094368  0.74326917  0.24416216  1
  O  O390  1  0.37739042  0.74466969  0.74235693  1
  O  O391  1  0.88406289  0.25423029  0.25400360  1
  O  O392  1  0.87925619  0.24584316  0.73923079  1
  O  O393  1  0.88369602  0.74709235  0.25058059  1
  O  O394  1  0.88905351  0.73053794  0.73991300  1
  O  O395  1  0.38602610  0.49082971  0.49417903  1
  O  O396  1  0.37486237  0.48764325  1.00102959  1
  O  O397  1  0.37151530  0.97855141  0.49873701  1
  O  O398  1  0.37723745  0.99584460  0.99560534  1
  O  O399  1  0.88895837  0.50184064  0.49631014  1
  O  O400  1  0.87558502  0.48642526  1.00661215  1
  O  O401  1  0.88333126  0.99369476  0.49195197  1
  O  O402  1  0.88005575  0.99319898  0.99030651  1
  O  O403  1  0.11808986  0.00652190  0.00757200  1
  O  O404  1  0.12077377  0.00517000  0.51199665  1
  O  O405  1  0.11991239  0.51017380  0.00576751  1
  O  O406  1  0.12682436  0.49991430  0.49821860  1
  O  O407  1  0.61898867  0.00102816  0.01166089  1
  O  O408  1  0.63648883  0.01374355  0.49786406  1
  O  O409  1  0.61558545  0.50296413  -0.00419218  1
  O  O410  1  0.61464067  0.50104151  0.51389508  1
  O  O411  1  0.37635328  0.36957864  0.10531635  1
  O  O412  1  0.36713588  0.36053699  0.62901366  1
  O  O413  1  0.36712899  0.87287451  0.12294391  1
  O  O414  1  0.36714039  0.87519057  0.61644073  1
  O  O415  1  0.86809070  0.37121954  0.11566150  1
  O  O416  1  0.87722185  0.36999409  0.62650529  1
  O  O417  1  0.87911525  0.87294854  0.11041944  1
  O  O418  1  0.88087539  0.87192710  0.60984410  1
  O  O419  1  0.12865422  0.12998100  0.38199962  1
  O  O420  1  0.12742837  0.13044177  0.88070629  1
  O  O421  1  0.13205284  0.63189357  0.37396634  1
  O  O422  1  0.12536864  0.63326186  0.88831672  1
  O  O423  1  0.63335683  0.12824685  0.38594166  1
  O  O424  1  0.63310648  0.12646030  0.87901582  1
  O  O425  1  0.63315130  0.64720394  0.36265565  1
  O  O426  1  0.62423812  0.64283794  0.87960304  1
