# generated using pymatgen
data_V85Zn86O256
_symmetry_space_group_name_H-M   'P 1'
_cell_length_a   16.93608542
_cell_length_b   16.93179636
_cell_length_c   16.92416481
_cell_angle_alpha   90.05635745
_cell_angle_beta   90.01608780
_cell_angle_gamma   89.94653955
_symmetry_Int_Tables_number   1
_chemical_formula_structural   V85Zn86O256
_chemical_formula_sum   'V85 Zn86 O256'
_cell_volume   4853.14091932
_cell_formula_units_Z   1
loop_
 _symmetry_equiv_pos_site_id
 _symmetry_equiv_pos_as_xyz
  1  'x, y, z'
loop_
 _atom_site_type_symbol
 _atom_site_label
 _atom_site_symmetry_multiplicity
 _atom_site_fract_x
 _atom_site_fract_y
 _atom_site_fract_z
 _atom_site_occupancy
  V  V0  1  0.62107998  0.61577060  0.49744064  1
  V  V1  1  0.12398492  0.75819712  0.87037936  1
  V  V2  1  0.75261990  0.62459594  0.36954878  1
  V  V3  1  0.12084441  0.86262739  0.25029538  1
  V  V4  1  0.62513480  0.74823382  0.87279692  1
  V  V5  1  0.13051499  -0.01321152  0.62132606  1
  V  V6  1  0.37699371  0.62316237  0.25242562  1
  V  V7  1  0.38168757  0.24006990  0.62087796  1
  V  V8  1  0.23631964  0.37594846  0.62497700  1
  V  V9  1  0.62572951  0.62197803  -0.00084048  1
  V  V10  1  0.36992454  0.25375056  0.12976030  1
  V  V11  1  0.24555394  0.25269296  0.48992468  1
  V  V12  1  0.12787988  0.12614357  0.50152198  1
  V  V13  1  -0.00856839  0.23273641  0.74559238  1
  V  V14  1  0.37919588  -0.00213705  0.86705538  1
  V  V15  1  0.49642390  0.24907974  0.25506348  1
  V  V16  1  0.75048336  0.37422324  0.12610467  1
  V  V17  1  0.49839280  0.74882872  0.74641936  1
  V  V18  1  0.74747562  0.00347666  0.24919953  1
  V  V19  1  0.74727078  0.24964333  -0.00454291  1
  V  V20  1  0.87727420  0.37384741  0.00148467  1
  V  V21  1  0.50130884  0.75076353  0.25006152  1
  V  V22  1  0.87373204  0.49966212  0.87452815  1
  V  V23  1  0.25158787  0.74453730  0.00162208  1
  V  V24  1  0.62316752  0.24754455  0.37523619  1
  V  V25  1  0.87672146  0.00680163  0.87047449  1
  V  V26  1  0.74830878  0.49512236  0.74604710  1
  V  V27  1  0.62092875  0.12576866  0.49948458  1
  V  V28  1  0.74947316  0.75009686  0.50026929  1
  V  V29  1  0.36493186  0.75312492  0.62297017  1
  V  V30  1  0.88031936  0.87699254  0.49973027  1
  V  V31  1  0.87619200  0.74758826  0.62717121  1
  V  V32  1  0.75254504  0.74939421  0.00179262  1
  V  V33  1  0.89323142  0.62898259  0.24489793  1
  V  V34  1  0.49642670  0.61862185  0.61886432  1
  V  V35  1  0.75151389  0.01059820  0.74789152  1
  V  V36  1  0.75001568  0.24702295  0.49587328  1
  V  V37  1  0.49392590  0.00312791  0.49976273  1
  V  V38  1  0.50054224  0.62210616  0.12258753  1
  V  V39  1  0.74699287  0.87281338  0.62592571  1
  V  V40  1  0.62697577  0.87880065  0.24062599  1
  V  V41  1  0.00331144  0.86132524  0.37328802  1
  V  V42  1  0.12528566  0.25135606  0.86420216  1
  V  V43  1  0.06694445  0.67054670  0.05863383  1
  V  V44  1  0.62073549  0.37537108  0.25555985  1
  V  V45  1  0.24935631  0.12665952  0.86245222  1
  V  V46  1  0.12383318  0.62423015  0.50180234  1
  V  V47  1  0.00325579  0.76100223  0.75171295  1
  V  V48  1  0.00545011  0.49531663  0.00336263  1
  V  V49  1  0.00119346  0.25253979  0.25185790  1
  V  V50  1  0.18341746  0.04056275  0.18566811  1
  V  V51  1  0.13069787  0.12118750  -0.00168895  1
  V  V52  1  0.24664374  0.63206012  0.37670776  1
  V  V53  1  0.62484939  0.75450450  0.37587218  1
  V  V54  1  0.87331366  0.37611295  0.50247543  1
  V  V55  1  0.36415424  0.87866874  0.50130247  1
  V  V56  1  -0.04270069  0.06152608  0.55847878  1
  V  V57  1  0.51035103  -0.00141953  0.00099779  1
  V  V58  1  0.38774496  0.49727961  0.37917120  1
  V  V59  1  0.87913864  0.00158528  0.37392211  1
  V  V60  1  0.24654593  -0.01522889  0.74724270  1
  V  V61  1  0.00309332  0.61630726  0.62919446  1
  V  V62  1  0.12903605  0.48967586  0.12097344  1
  V  V63  1  0.00237345  0.11766775  0.12950855  1
  V  V64  1  0.37440055  0.37628207  -0.00240679  1
  V  V65  1  0.86945827  0.12748849  0.25361852  1
  V  V66  1  0.25037274  0.87804815  0.13267587  1
  V  V67  1  0.62437749  0.49793266  0.12381444  1
  V  V68  1  0.00577685  0.37585292  0.86272686  1
  V  V69  1  0.37657247  0.74886118  0.12507037  1
  V  V70  1  0.37606266  0.87606005  0.00093719  1
  V  V71  1  0.43314104  0.18107613  0.79333745  1
  V  V72  1  0.23378121  0.49761332  0.74652336  1
  V  V73  1  0.87722289  0.87746888  -0.00394360  1
  V  V74  1  0.24410294  0.62120973  0.87821670  1
  V  V75  1  0.38032758  0.49713812  0.87011393  1
  V  V76  1  0.25384931  0.49514944  0.24945092  1
  V  V77  1  0.00197052  0.00099020  -0.00621782  1
  V  V78  1  0.50432636  0.12057451  0.13232182  1
  V  V79  1  0.00439642  0.37653752  0.37791908  1
  V  V80  1  0.60658044  0.37013921  0.75284718  1
  V  V81  1  0.36697837  0.00633922  0.36089600  1
  V  V82  1  0.38700277  0.37968298  0.50120018  1
  V  V83  1  0.12933860  0.37475507  0.25599250  1
  V  V84  1  0.61631630  0.00224776  0.62528738  1
  Zn  Zn85  1  0.24736243  0.25506716  -0.00041562  1
  Zn  Zn86  1  0.87417002  0.62435131  0.74897558  1
  Zn  Zn87  1  0.74726874  0.37078950  0.62542357  1
  Zn  Zn88  1  0.87672270  0.25024910  0.12481425  1
  Zn  Zn89  1  0.75365175  0.87904123  0.12396954  1
  Zn  Zn90  1  0.75324877  0.50017022  0.25047647  1
  Zn  Zn91  1  0.50067776  0.87222616  0.87463614  1
  Zn  Zn92  1  0.75031521  0.13063410  0.87051269  1
  Zn  Zn93  1  0.62094547  0.49508668  0.62139125  1
  Zn  Zn94  1  0.62933158  0.12359111  -0.00001475  1
  Zn  Zn95  1  0.24069237  0.75663222  0.49962876  1
  Zn  Zn96  1  0.49765526  0.87796187  0.37437524  1
  Zn  Zn97  1  0.37003350  0.62257749  0.74629509  1
  Zn  Zn98  1  0.00493219  0.49509427  0.50559038  1
  Zn  Zn99  1  0.75012748  0.62245367  0.87316378  1
  Zn  Zn100  1  0.62441845  0.87355724  0.74885039  1
  Zn  Zn101  1  0.88564112  0.74906308  0.12596862  1
  Zn  Zn102  1  0.24538888  0.12388168  0.36377265  1
  Zn  Zn103  1  0.61280960  0.24988909  0.87174681  1
  Zn  Zn104  1  0.87607736  0.50112649  0.37527728  1
  Zn  Zn105  1  0.50410065  0.49006941  -0.00821574  1
  Zn  Zn106  1  0.87406399  0.23719747  0.62625128  1
  Zn  Zn107  1  0.18581154  0.20393485  0.18753430  1
  Zn  Zn108  1  0.18562176  0.18502990  0.68006162  1
  Zn  Zn109  1  0.19320328  0.68726111  0.19331995  1
  Zn  Zn110  1  0.18432600  0.68578715  0.68860682  1
  Zn  Zn111  1  0.68649875  0.18771483  0.18594290  1
  Zn  Zn112  1  0.68089524  0.19030482  0.68324297  1
  Zn  Zn113  1  0.68996769  0.68949495  0.18585467  1
  Zn  Zn114  1  0.68658063  0.68136981  0.68690460  1
  Zn  Zn115  1  0.31579799  0.31456194  0.31596020  1
  Zn  Zn116  1  0.30782705  0.32075259  0.81080868  1
  Zn  Zn117  1  0.31324502  0.81697044  0.31374407  1
  Zn  Zn118  1  0.31356041  0.80899300  0.81394125  1
  Zn  Zn119  1  0.81112981  0.31250916  0.31567419  1
  Zn  Zn120  1  0.81518916  0.31492143  0.81093486  1
  Zn  Zn121  1  0.81592816  0.81139789  0.30970921  1
  Zn  Zn122  1  0.81428342  0.81598077  0.81334611  1
  Zn  Zn123  1  0.19096526  0.44325331  0.43858920  1
  Zn  Zn124  1  0.19162101  0.43458475  0.93721872  1
  Zn  Zn125  1  0.18302888  0.94100329  0.43451968  1
  Zn  Zn126  1  0.19384826  0.93938598  0.94003466  1
  Zn  Zn127  1  0.68848293  0.43523114  0.43437505  1
  Zn  Zn128  1  0.68563104  0.43147944  0.93280675  1
  Zn  Zn129  1  0.68995398  0.93993576  0.43398626  1
  Zn  Zn130  1  0.69105030  0.93416005  0.93332309  1
  Zn  Zn131  1  0.32259971  0.06915520  0.05654920  1
  Zn  Zn132  1  0.30623643  0.06278023  0.56255108  1
  Zn  Zn133  1  0.31192154  0.55847697  0.06197035  1
  Zn  Zn134  1  0.30862417  0.56009131  0.56284110  1
  Zn  Zn135  1  0.81376429  0.06387456  0.06689108  1
  Zn  Zn136  1  0.79237065  0.06211643  0.55705277  1
  Zn  Zn137  1  0.81514476  0.56287974  0.06458356  1
  Zn  Zn138  1  0.81271603  0.56042719  0.56158442  1
  Zn  Zn139  1  0.43945529  0.43393482  0.18603226  1
  Zn  Zn140  1  0.42868143  0.43776128  0.68376753  1
  Zn  Zn141  1  0.44047830  0.93730825  0.18734509  1
  Zn  Zn142  1  0.43604673  0.93517199  0.68670254  1
  Zn  Zn143  1  0.93825378  0.44320162  0.18840045  1
  Zn  Zn144  1  0.93552252  0.43392951  0.68645527  1
  Zn  Zn145  1  0.93905993  0.93617977  0.18755682  1
  Zn  Zn146  1  0.93474928  0.93447448  0.69215370  1
  Zn  Zn147  1  0.05704671  0.06197764  0.32370677  1
  Zn  Zn148  1  0.06570926  0.05682977  0.80854842  1
  Zn  Zn149  1  0.06656008  0.55977377  0.31697182  1
  Zn  Zn150  1  0.06166382  0.56957745  0.81628286  1
  Zn  Zn151  1  0.55990758  0.06235845  0.31525509  1
  Zn  Zn152  1  0.57146646  0.06132187  0.81676551  1
  Zn  Zn153  1  0.56567204  0.56331754  0.31121339  1
  Zn  Zn154  1  0.56260748  0.56317807  0.80673545  1
  Zn  Zn155  1  0.43341769  0.18509529  0.43681725  1
  Zn  Zn156  1  0.43740220  0.18564696  0.95662337  1
  Zn  Zn157  1  0.43530741  0.68932277  0.43825643  1
  Zn  Zn158  1  0.43625984  0.68171999  0.93510768  1
  Zn  Zn159  1  0.93470526  0.19557132  0.42969974  1
  Zn  Zn160  1  0.93737652  0.18700559  0.93716137  1
  Zn  Zn161  1  0.93757976  0.68556366  0.43968350  1
  Zn  Zn162  1  0.93410829  0.69047884  0.92946446  1
  Zn  Zn163  1  0.06424352  0.30954971  0.06175505  1
  Zn  Zn164  1  0.06064243  0.30541508  0.56391672  1
  Zn  Zn165  1  0.07015091  0.83487971  0.05907252  1
  Zn  Zn166  1  0.06023180  0.80708149  0.55855612  1
  Zn  Zn167  1  0.55991684  0.31139651  0.06255668  1
  Zn  Zn168  1  0.56169079  0.31208799  0.56817595  1
  Zn  Zn169  1  0.56359718  0.81121853  0.06108042  1
  Zn  Zn170  1  0.55656855  0.81305063  0.56048472  1
  O  O171  1  0.12539948  0.11715911  0.12218870  1
  O  O172  1  0.12435371  0.11362597  0.61167650  1
  O  O173  1  0.12546732  0.61709659  0.12508666  1
  O  O174  1  0.11648846  0.62643547  0.61483773  1
  O  O175  1  0.60859578  0.13002962  0.12192571  1
  O  O176  1  0.62646633  0.11415609  0.61372078  1
  O  O177  1  0.62260044  0.61752528  0.12005340  1
  O  O178  1  0.61661063  0.62415015  0.61328445  1
  O  O179  1  0.37132420  0.38254643  0.39133995  1
  O  O180  1  0.37166108  0.38528475  0.88101644  1
  O  O181  1  0.37677062  0.88606427  0.38272664  1
  O  O182  1  0.37706543  0.88184616  0.88248968  1
  O  O183  1  0.88220001  0.37450906  0.38518219  1
  O  O184  1  0.88480641  0.38487528  0.88025649  1
  O  O185  1  0.88225438  0.87988788  0.37937506  1
  O  O186  1  0.87035600  0.88699485  0.88811345  1
  O  O187  1  0.26327183  0.00061211  0.37563999  1
  O  O188  1  0.25907588  0.00720920  0.86977613  1
  O  O189  1  0.25904511  0.50944642  0.36509203  1
  O  O190  1  0.25525474  0.50498670  0.86865406  1
  O  O191  1  0.76587517  -0.00631850  0.36484165  1
  O  O192  1  0.75514228  0.00066026  0.86327350  1
  O  O193  1  0.75234711  0.51011154  0.37230656  1
  O  O194  1  0.75941693  0.49764394  0.86926087  1
  O  O195  1  0.24306773  0.50444865  0.13926602  1
  O  O196  1  0.25214828  0.48630988  0.63167674  1
  O  O197  1  0.25655527  0.99551919  0.12154769  1
  O  O198  1  0.24025860  0.99753038  0.63233537  1
  O  O199  1  0.74418254  0.48863113  0.12524174  1
  O  O200  1  0.74584204  0.49729217  0.63228073  1
  O  O201  1  0.75588035  0.99758786  0.14252774  1
  O  O202  1  0.73860885  0.99094946  0.62888573  1
  O  O203  1  0.00516759  0.37094898  0.25508210  1
  O  O204  1  -0.00182608  0.36901956  0.76076491  1
  O  O205  1  0.00564169  0.87555856  0.26040749  1
  O  O206  1  -0.00173938  0.86080335  0.74962221  1
  O  O207  1  0.51331818  0.36483609  0.24426258  1
  O  O208  1  0.50823952  0.37931830  0.74535344  1
  O  O209  1  0.50927093  0.86962850  0.25228547  1
  O  O210  1  0.50209134  0.86081601  0.75021580  1
  O  O211  1  0.50204157  0.13026083  0.23944246  1
  O  O212  1  0.49488578  0.11978969  0.74630831  1
  O  O213  1  0.49661827  0.63101361  0.24356054  1
  O  O214  1  0.49718703  0.63520116  0.74001368  1
  O  O215  1  0.99788103  0.13266117  0.24670420  1
  O  O216  1  0.99764567  0.13462730  0.75531194  1
  O  O217  1  0.99167424  0.62256940  0.25346430  1
  O  O218  1  0.99760367  0.63188663  0.74284143  1
  O  O219  1  0.37144631  0.25737399  0.01079492  1
  O  O220  1  0.36861409  0.25843558  0.50584793  1
  O  O221  1  0.37274794  0.75494906  0.00596243  1
  O  O222  1  0.37333953  0.76070146  0.50616801  1
  O  O223  1  0.87055822  0.25711907  0.00397445  1
  O  O224  1  0.86528818  0.25424672  0.49942439  1
  O  O225  1  0.86959573  0.75716356  -0.00150415  1
  O  O226  1  0.86716335  0.75441975  0.50669587  1
  O  O227  1  0.13443047  0.24126406  0.50377558  1
  O  O228  1  0.12600338  0.23664946  0.99271811  1
  O  O229  1  0.12644047  0.73361005  0.50021471  1
  O  O230  1  0.12647268  0.73983902  1.00306329  1
  O  O231  1  0.62550133  0.24513710  0.49508722  1
  O  O232  1  0.63306845  0.25307341  0.99440589  1
  O  O233  1  0.62969922  0.74508841  0.49221695  1
  O  O234  1  0.63185513  0.74435353  0.99256205  1
  O  O235  1  0.49435939  0.24221304  0.13494798  1
  O  O236  1  0.48131344  0.24946548  0.62187146  1
  O  O237  1  0.49616375  0.74327182  0.12986480  1
  O  O238  1  0.49209992  0.74252427  0.62980441  1
  O  O239  1  1.00270358  0.23881605  0.13489180  1
  O  O240  1  0.99732868  0.24918084  0.64180957  1
  O  O241  1  1.01052262  0.73997000  0.10751318  1
  O  O242  1  0.99458650  0.74141343  0.63217379  1
  O  O243  1  -0.00088734  0.26140502  0.36048721  1
  O  O244  1  0.00461776  0.25512121  0.86671967  1
  O  O245  1  -0.00665968  0.76258347  0.37358764  1
  O  O246  1  0.01118125  0.74309275  0.86502462  1
  O  O247  1  0.50128249  0.24531557  0.36186253  1
  O  O248  1  0.48796341  0.23420280  0.86205084  1
  O  O249  1  0.50851863  0.75172346  0.36865311  1
  O  O250  1  0.50647012  0.74739294  0.86603567  1
  O  O251  1  0.24337027  0.13640065  0.49951407  1
  O  O252  1  0.24569407  0.12566933  0.98626024  1
  O  O253  1  0.24103482  0.62534233  0.49419745  1
  O  O254  1  0.25500261  0.63211188  0.99303732  1
  O  O255  1  0.73199875  0.13175968  0.49300431  1
  O  O256  1  0.74893590  0.13686223  1.00612698  1
  O  O257  1  0.74451768  0.63064977  0.48886692  1
  O  O258  1  0.74478257  0.63116552  0.99773650  1
  O  O259  1  0.26518988  0.37204514  -0.00065599  1
  O  O260  1  0.25410274  0.37026662  0.50724420  1
  O  O261  1  0.25584114  0.86879040  0.01308409  1
  O  O262  1  0.25988895  0.87421725  0.49382201  1
  O  O263  1  0.75612595  0.36997174  0.00692780  1
  O  O264  1  0.75649777  0.36733663  0.50073555  1
  O  O265  1  0.75796830  0.86854176  0.00254491  1
  O  O266  1  0.75595585  0.87259255  0.50953086  1
  O  O267  1  0.13150454  0.49202691  0.24380631  1
  O  O268  1  0.13467571  0.50066119  0.75901402  1
  O  O269  1  0.11950608  0.99182943  0.25016093  1
  O  O270  1  0.13243917  1.00112924  0.73473551  1
  O  O271  1  0.62748150  0.49094480  0.24447379  1
  O  O272  1  0.63099930  0.48956545  0.74896097  1
  O  O273  1  0.63398869  0.99045595  0.26173384  1
  O  O274  1  0.63148460  0.99496092  0.74131938  1
  O  O275  1  0.37722692  -0.00338344  0.26249755  1
  O  O276  1  0.36937770  -0.00519530  0.76048606  1
  O  O277  1  0.36990853  0.50083641  0.25478964  1
  O  O278  1  0.36332043  0.50045816  0.75642300  1
  O  O279  1  0.87081981  0.00754664  0.25597253  1
  O  O280  1  0.86502543  -0.00447472  0.75827728  1
  O  O281  1  0.87276699  0.51410673  0.25201208  1
  O  O282  1  0.86811203  0.49851439  0.75794573  1
  O  O283  1  0.11795622  0.38208907  0.36807248  1
  O  O284  1  0.11748071  0.36230099  0.88228125  1
  O  O285  1  0.11096778  0.87803229  0.36844889  1
  O  O286  1  0.13131176  0.85635282  0.89210085  1
  O  O287  1  0.62615465  0.36355667  0.36682135  1
  O  O288  1  0.62192638  0.37082481  0.85943052  1
  O  O289  1  0.62533613  0.86429978  0.37040015  1
  O  O290  1  0.62344729  0.85977051  0.87256127  1
  O  O291  1  0.39007689  0.14084321  0.11824879  1
  O  O292  1  0.36761835  0.14098388  0.62093048  1
  O  O293  1  0.38010554  0.62794426  0.13216754  1
  O  O294  1  0.38062624  0.63268324  0.62161935  1
  O  O295  1  0.88537607  0.12795354  0.13721893  1
  O  O296  1  0.88319160  0.11576308  0.60883499  1
  O  O297  1  0.87492243  0.62726926  0.13931098  1
  O  O298  1  0.88202962  0.63227367  0.62444845  1
  O  O299  1  0.26636848  0.24580359  0.12184134  1
  O  O300  1  0.25580459  0.26090598  0.61836082  1
  O  O301  1  0.25691100  0.75665793  0.12152019  1
  O  O302  1  0.26187504  0.74508296  0.62405138  1
  O  O303  1  0.74980147  0.26160441  0.11745963  1
  O  O304  1  0.75261735  0.24779191  0.61070121  1
  O  O305  1  0.75116944  0.75224032  0.11037458  1
  O  O306  1  0.75346331  0.75505949  0.62166488  1
  O  O307  1  0.25516048  0.24619109  0.38613285  1
  O  O308  1  0.24239725  0.24420239  0.87184462  1
  O  O309  1  0.25919301  0.73550999  0.37588250  1
  O  O310  1  0.24581500  0.74167070  0.88162241  1
  O  O311  1  0.73932278  0.25302942  0.38637956  1
  O  O312  1  0.75564700  0.25228155  0.88750422  1
  O  O313  1  0.74345520  0.74565103  0.37940352  1
  O  O314  1  0.74413763  0.74815163  0.88350429  1
  O  O315  1  0.00788495  0.12009009  0.00867897  1
  O  O316  1  0.00569976  0.12884626  0.49471096  1
  O  O317  1  0.00333938  0.61720248  -0.00340002  1
  O  O318  1  0.00807246  0.62314597  0.50685506  1
  O  O319  1  0.50568219  0.11533906  0.01100518  1
  O  O320  1  0.50621373  0.11295334  0.49663124  1
  O  O321  1  0.50867047  0.62329467  0.00642046  1
  O  O322  1  0.50972305  0.63205046  0.50594245  1
  O  O323  1  0.48581372  0.37441109  0.50420691  1
  O  O324  1  0.48434603  0.37436983  1.00265306  1
  O  O325  1  0.49233012  0.88751843  0.49629925  1
  O  O326  1  0.49374264  0.88143835  1.00095971  1
  O  O327  1  0.99443002  0.37141891  0.49350234  1
  O  O328  1  0.99630052  0.37931064  0.99326460  1
  O  O329  1  0.99325125  0.87066312  0.48657739  1
  O  O330  1  0.99462828  0.89287665  1.00000613  1
  O  O331  1  0.48707363  0.50435837  0.36942567  1
  O  O332  1  0.48409083  0.51059219  0.87340450  1
  O  O333  1  0.48746021  0.99998729  0.38266448  1
  O  O334  1  0.49532741  0.99674967  0.88059109  1
  O  O335  1  0.99721718  0.48675514  0.37620782  1
  O  O336  1  0.99818950  0.49344227  0.88363198  1
  O  O337  1  0.98460860  0.98784386  0.37294093  1
  O  O338  1  0.99220353  1.00686701  0.88227088  1
  O  O339  1  -0.00333831  0.01243420  0.11780139  1
  O  O340  1  0.00671295  -0.00072103  0.62636846  1
  O  O341  1  0.00975383  0.49648223  0.11166494  1
  O  O342  1  -0.00457185  0.51224427  0.62677870  1
  O  O343  1  0.49322849  0.01268356  0.11823175  1
  O  O344  1  0.51028931  -0.00603094  0.61828717  1
  O  O345  1  0.50832634  0.50497390  0.12308068  1
  O  O346  1  0.49852106  0.51508921  0.62916694  1
  O  O347  1  0.24241587  0.38302597  0.25689485  1
  O  O348  1  0.24877732  0.38074090  0.73396266  1
  O  O349  1  0.24400799  0.87450025  0.24015178  1
  O  O350  1  0.24944963  0.88564386  0.75809808  1
  O  O351  1  0.74062417  0.37378430  0.24300615  1
  O  O352  1  0.74820549  0.38457889  0.74756547  1
  O  O353  1  0.74394664  0.88119542  0.24828391  1
  O  O354  1  0.74903753  0.87970862  0.73684248  1
  O  O355  1  0.23249207  0.11488641  0.24364756  1
  O  O356  1  0.24468084  0.11649785  0.75916519  1
  O  O357  1  0.25775406  0.61753987  0.25763693  1
  O  O358  1  0.24968696  0.61573991  0.75627755  1
  O  O359  1  0.75870636  0.12014506  0.24652926  1
  O  O360  1  0.74653890  0.11362804  0.74478058  1
  O  O361  1  0.74927236  0.62542643  0.26146896  1
  O  O362  1  0.75064580  0.61040988  0.75232046  1
  O  O363  1  0.36887820  0.11122536  0.37587009  1
  O  O364  1  0.37342612  0.12353164  0.86627649  1
  O  O365  1  0.37075406  0.61743719  0.37086894  1
  O  O366  1  0.36203702  0.61754207  0.87214920  1
  O  O367  1  0.88096778  0.11834272  0.36190818  1
  O  O368  1  0.86838821  0.11139740  0.88221628  1
  O  O369  1  0.86865890  0.62593990  0.36535260  1
  O  O370  1  0.87391387  0.61018910  0.87357708  1
  O  O371  1  0.12342720  0.38362115  0.13293675  1
  O  O372  1  0.13740315  0.37327447  0.61875140  1
  O  O373  1  0.13659410  0.88366924  0.13490373  1
  O  O374  1  0.12058832  0.88791057  0.61602319  1
  O  O375  1  0.63130929  0.37912981  0.13111506  1
  O  O376  1  0.62639818  0.37709405  0.63593875  1
  O  O377  1  0.62721074  0.87130668  0.13754033  1
  O  O378  1  0.63168673  0.88013001  0.62270505  1
  O  O379  1  0.11682972  0.26612307  0.24898142  1
  O  O380  1  0.11505389  0.24276089  0.75913581  1
  O  O381  1  0.12679735  0.76273478  0.24619944  1
  O  O382  1  0.11785287  0.74882236  0.75873040  1
  O  O383  1  0.61915934  0.25451289  0.25707448  1
  O  O384  1  0.62543380  0.26475803  0.75025202  1
  O  O385  1  0.62258975  0.75712170  0.25710568  1
  O  O386  1  0.61866319  0.74798081  0.75606888  1
  O  O387  1  0.38169402  0.25641821  0.24044212  1
  O  O388  1  0.37264140  0.24880640  0.73972509  1
  O  O389  1  0.38150908  0.74552216  0.24488669  1
  O  O390  1  0.38131556  0.74733503  0.74198411  1
  O  O391  1  0.88115580  0.24448470  0.24882275  1
  O  O392  1  0.88628535  0.24826617  0.74871062  1
  O  O393  1  0.87321946  0.73502407  0.24507271  1
  O  O394  1  0.88061303  0.74755737  0.74571640  1
  O  O395  1  0.37173784  0.48809115  0.49451643  1
  O  O396  1  0.37625890  0.49282608  0.99162583  1
  O  O397  1  0.37929691  0.99556908  0.49978529  1
  O  O398  1  0.38516456  0.99770159  0.98658682  1
  O  O399  1  0.87949571  0.49040706  0.49681827  1
  O  O400  1  0.88394868  0.49501113  0.99508876  1
  O  O401  1  0.88170670  1.00180902  0.49830237  1
  O  O402  1  0.88147124  0.99608042  0.99555907  1
  O  O403  1  0.11853007  0.01233050  -0.00804184  1
  O  O404  1  0.12843526  0.00547715  0.51326016  1
  O  O405  1  0.12079426  0.49502185  0.00873204  1
  O  O406  1  0.12258848  0.51576273  0.49728018  1
  O  O407  1  0.61367979  -0.00393271  -0.00497614  1
  O  O408  1  0.61857591  0.00612305  0.50234938  1
  O  O409  1  0.62431493  0.50327834  0.00343558  1
  O  O410  1  0.62765738  0.51246081  0.49738039  1
  O  O411  1  0.37888249  0.36098857  0.11975477  1
  O  O412  1  0.36632963  0.36853545  0.61341039  1
  O  O413  1  0.36999932  0.87012395  0.12188719  1
  O  O414  1  0.37911079  0.86608743  0.61389077  1
  O  O415  1  0.86736738  0.37513303  0.12208860  1
  O  O416  1  0.87417584  0.36941284  0.61195509  1
  O  O417  1  0.87802813  0.86998880  0.11247094  1
  O  O418  1  0.86803000  0.86914481  0.61856683  1
  O  O419  1  0.12975225  0.11371938  0.39270567  1
  O  O420  1  0.13237430  0.12997309  0.87997347  1
  O  O421  1  0.13477739  0.62255710  0.38385786  1
  O  O422  1  0.13798601  0.63401493  0.87658242  1
  O  O423  1  0.61826435  0.13901660  0.38103382  1
  O  O424  1  0.63246600  0.13242228  0.87988831  1
  O  O425  1  0.63074984  0.63546808  0.37859234  1
  O  O426  1  0.62605847  0.63362567  0.87922829  1
