# generated using pymatgen
data_V85Zn86O256
_symmetry_space_group_name_H-M   'P 1'
_cell_length_a   16.93309989
_cell_length_b   16.94223013
_cell_length_c   16.94442028
_cell_angle_alpha   89.92996519
_cell_angle_beta   89.99516602
_cell_angle_gamma   90.07520956
_symmetry_Int_Tables_number   1
_chemical_formula_structural   V85Zn86O256
_chemical_formula_sum   'V85 Zn86 O256'
_cell_volume   4861.08328265
_cell_formula_units_Z   1
loop_
 _symmetry_equiv_pos_site_id
 _symmetry_equiv_pos_as_xyz
  1  'x, y, z'
loop_
 _atom_site_type_symbol
 _atom_site_label
 _atom_site_symmetry_multiplicity
 _atom_site_fract_x
 _atom_site_fract_y
 _atom_site_fract_z
 _atom_site_occupancy
  V  V0  1  0.00735922  0.50002811  0.00730806  1
  V  V1  1  0.25076821  0.62297989  0.38717884  1
  V  V2  1  0.75133437  0.24368861  0.00420301  1
  V  V3  1  0.87810514  0.74887774  0.12733308  1
  V  V4  1  0.12862540  0.74689748  0.87733501  1
  V  V5  1  0.87188338  0.12250448  0.26743013  1
  V  V6  1  0.62290804  0.74886088  0.87047837  1
  V  V7  1  0.74701810  0.63311628  0.37272810  1
  V  V8  1  0.74960334  0.24285426  0.49674247  1
  V  V9  1  0.74638574  -0.00114064  0.74622781  1
  V  V10  1  0.37993519  0.75495460  0.63080533  1
  V  V11  1  0.75213783  0.50046908  0.75158893  1
  V  V12  1  0.61924032  0.63396078  0.49522303  1
  V  V13  1  -0.00559487  0.00226264  0.49509128  1
  V  V14  1  0.26333350  0.00484090  0.75373610  1
  V  V15  1  0.87698554  0.37066756  0.00227344  1
  V  V16  1  0.24898801  0.26257204  0.50511709  1
  V  V17  1  0.38142250  0.89324486  0.00293921  1
  V  V18  1  0.00144565  0.87350028  0.87704696  1
  V  V19  1  -0.00248450  0.37804770  0.37282361  1
  V  V20  1  0.61392180  0.12327877  0.49790156  1
  V  V21  1  0.87170843  0.37729557  0.49913967  1
  V  V22  1  0.13051381  0.62278999  0.01055135  1
  V  V23  1  0.87416712  -0.00313237  0.87498836  1
  V  V24  1  0.37541225  0.24824181  0.12735323  1
  V  V25  1  -0.00047163  0.25044669  0.75035506  1
  V  V26  1  -0.00136801  0.12557032  0.62554872  1
  V  V27  1  0.49996433  0.50609835  0.00133615  1
  V  V28  1  0.62746182  0.24546743  0.37359694  1
  V  V29  1  -0.00471152  0.25079495  0.24297494  1
  V  V30  1  0.74805145  0.12361787  0.87715466  1
  V  V31  1  0.87384224  0.12427318  0.74964082  1
  V  V32  1  0.24757356  0.37991002  0.12414538  1
  V  V33  1  0.62623461  0.24405506  0.87924321  1
  V  V34  1  0.87437083  0.50943570  0.37281562  1
  V  V35  1  0.51457317  0.86725558  0.38086211  1
  V  V36  1  0.49322818  0.88509270  0.86718635  1
  V  V37  1  0.00924212  0.88052467  0.36690135  1
  V  V38  1  0.74788114  0.87329730  0.62242205  1
  V  V39  1  0.69632401  0.83177618  0.18301192  1
  V  V40  1  0.12465762  0.24844439  0.87570581  1
  V  V41  1  0.12547166  0.12164900  0.00362120  1
  V  V42  1  0.87684342  0.62593310  0.74917024  1
  V  V43  1  0.12433820  0.25295482  0.37276341  1
  V  V44  1  0.74381447  0.00865602  0.26116383  1
  V  V45  1  0.25121803  0.87602167  0.61774592  1
  V  V46  1  0.87244227  0.25140785  0.62473241  1
  V  V47  1  0.75482806  0.49987395  0.25013756  1
  V  V48  1  0.86188418  0.86908004  0.00274172  1
  V  V49  1  0.26186820  0.62440731  0.87117621  1
  V  V50  1  0.12291887  0.12903833  0.50015723  1
  V  V51  1  0.62397730  0.50143881  0.62255973  1
  V  V52  1  0.87632140  0.87767188  0.49386382  1
  V  V53  1  0.37230926  0.25396911  0.63421147  1
  V  V54  1  0.25009524  0.24988099  0.00227550  1
  V  V55  1  0.25874565  0.49715691  0.74615932  1
  V  V56  1  0.38011362  -0.00902510  0.39496915  1
  V  V57  1  0.62450271  0.37154317  0.74828243  1
  V  V58  1  0.62546266  0.49736396  0.12060378  1
  V  V59  1  0.26276860  0.12200129  0.87389751  1
  V  V60  1  0.01018692  0.63017713  0.62212566  1
  V  V61  1  0.49148957  0.37461862  0.37443672  1
  V  V62  1  0.49496413  0.62658585  0.63939244  1
  V  V63  1  0.01052812  0.74731435  0.24845881  1
  V  V64  1  0.00442162  0.50735216  0.49885517  1
  V  V65  1  0.12316485  0.38702141  0.24546948  1
  V  V66  1  0.49324934  0.50133028  0.49530830  1
  V  V67  1  0.12416473  0.00222596  0.62884312  1
  V  V68  1  0.61572454  0.00023942  0.61928067  1
  V  V69  1  0.00125725  0.37788502  0.87435245  1
  V  V70  1  0.49999583  0.37469664  0.87730873  1
  V  V71  1  0.37667725  0.11436323  0.25159480  1
  V  V72  1  0.12802582  0.87756868  0.75350742  1
  V  V73  1  0.24967146  0.87323120  0.13293274  1
  V  V74  1  0.25189585  0.12667779  0.37430330  1
  V  V75  1  0.63161274  0.00979298  0.11108922  1
  V  V76  1  0.26804711  0.74985313  0.00160120  1
  V  V77  1  0.49946095  0.24823019  0.24940278  1
  V  V78  1  0.12728196  0.49551276  0.62623019  1
  V  V79  1  0.50553757  0.11763071  0.11375636  1
  V  V80  1  0.26387287  0.50509093  0.25098096  1
  V  V81  1  -0.00053963  -0.00368268  0.00142078  1
  V  V82  1  -0.01275083  0.12427994  0.12396410  1
  V  V83  1  0.87554582  0.75040919  0.62313636  1
  V  V84  1  0.75557326  0.36968808  0.12658654  1
  Zn  Zn85  1  0.37580696  0.37657894  0.00103682  1
  Zn  Zn86  1  0.24305313  -0.00847311  0.25768121  1
  Zn  Zn87  1  0.36914899  0.37976408  0.50144378  1
  Zn  Zn88  1  0.49258354  0.24220553  0.75420679  1
  Zn  Zn89  1  0.87554018  0.50463327  0.87809070  1
  Zn  Zn90  1  0.24223913  0.74601295  0.50695802  1
  Zn  Zn91  1  0.12484668  0.74594255  0.38522846  1
  Zn  Zn92  1  0.74686542  0.75256090  0.49447757  1
  Zn  Zn93  1  0.62478200  0.37201891  0.25068901  1
  Zn  Zn94  1  0.61230693  0.86612907  0.74182674  1
  Zn  Zn95  1  0.38041456  0.50301768  0.87169864  1
  Zn  Zn96  1  0.56162881  0.71935840  0.30471535  1
  Zn  Zn97  1  0.00166676  0.75059710  0.75158104  1
  Zn  Zn98  1  0.75707880  0.64072251  0.88147554  1
  Zn  Zn99  1  0.38691541  0.63982239  0.25197252  1
  Zn  Zn100  1  0.48797235  0.12061677  0.62975059  1
  Zn  Zn101  1  0.49936465  0.64778948  0.13396539  1
  Zn  Zn102  1  0.12762316  0.37385161  0.74631048  1
  Zn  Zn103  1  0.74796231  0.37521061  0.62284574  1
  Zn  Zn104  1  0.12161170  -0.00717392  0.13440819  1
  Zn  Zn105  1  -0.00195934  0.62006204  0.13052055  1
  Zn  Zn106  1  0.63476647  0.63321943  0.00075057  1
  Zn  Zn107  1  0.18366133  0.18633038  0.18857763  1
  Zn  Zn108  1  0.19067125  0.18932818  0.68862553  1
  Zn  Zn109  1  0.19537142  0.69288475  0.18875215  1
  Zn  Zn110  1  0.19149144  0.68703272  0.69108490  1
  Zn  Zn111  1  0.68911758  0.18528634  0.18815162  1
  Zn  Zn112  1  0.68291707  0.18594143  0.68583288  1
  Zn  Zn113  1  0.69815637  0.66887287  0.17663687  1
  Zn  Zn114  1  0.68509856  0.68814589  0.68888513  1
  Zn  Zn115  1  0.31183604  0.31187597  0.31094290  1
  Zn  Zn116  1  0.31005381  0.31622191  0.81486534  1
  Zn  Zn117  1  0.31489783  0.80819760  0.32177848  1
  Zn  Zn118  1  0.31763864  0.81427938  0.81017836  1
  Zn  Zn119  1  0.81345796  0.31086813  0.31299584  1
  Zn  Zn120  1  0.81239739  0.31486674  0.81366633  1
  Zn  Zn121  1  0.82484602  0.81327695  0.31231947  1
  Zn  Zn122  1  0.81086382  0.81296462  0.81022563  1
  Zn  Zn123  1  0.18395168  0.44383584  0.43303667  1
  Zn  Zn124  1  0.18879693  0.43966892  0.93548269  1
  Zn  Zn125  1  0.18416376  0.94212702  0.43757866  1
  Zn  Zn126  1  0.19256412  0.93797436  0.94060948  1
  Zn  Zn127  1  0.68231479  0.43562719  0.43711622  1
  Zn  Zn128  1  0.68957311  0.43843192  0.93678292  1
  Zn  Zn129  1  0.68361289  0.93776105  0.43628713  1
  Zn  Zn130  1  0.68166561  0.93213917  0.93223122  1
  Zn  Zn131  1  0.31216616  0.06059242  0.06743741  1
  Zn  Zn132  1  0.30726220  0.07104229  0.56529518  1
  Zn  Zn133  1  0.32101983  0.56476355  0.06697402  1
  Zn  Zn134  1  0.31726950  0.56329418  0.56765088  1
  Zn  Zn135  1  0.81059952  0.05749751  0.06418456  1
  Zn  Zn136  1  0.80896950  0.06308282  0.55907072  1
  Zn  Zn137  1  0.81658149  0.56160618  0.05989372  1
  Zn  Zn138  1  0.81145365  0.56519618  0.56163217  1
  Zn  Zn139  1  0.43581053  0.44149737  0.18483446  1
  Zn  Zn140  1  0.43818585  0.43207457  0.68379926  1
  Zn  Zn141  1  0.43937739  0.82146801  0.19102565  1
  Zn  Zn142  1  0.43447659  0.93697319  0.68412296  1
  Zn  Zn143  1  0.93505929  0.43830483  0.18602427  1
  Zn  Zn144  1  0.93890922  0.43919862  0.68581358  1
  Zn  Zn145  1  0.93139683  0.93749181  0.18820708  1
  Zn  Zn146  1  0.93776844  0.93565874  0.68656637  1
  Zn  Zn147  1  0.06289157  0.06284607  0.31185346  1
  Zn  Zn148  1  0.06531581  0.06267602  0.81523983  1
  Zn  Zn149  1  0.06521415  0.56804076  0.31139647  1
  Zn  Zn150  1  0.06699151  0.56335758  0.81361347  1
  Zn  Zn151  1  0.55771734  0.05728262  0.31113365  1
  Zn  Zn152  1  0.55955053  0.06178211  0.80992841  1
  Zn  Zn153  1  0.56463348  0.55160592  0.31017088  1
  Zn  Zn154  1  0.56783619  0.56018613  0.81470858  1
  Zn  Zn155  1  0.43418737  0.19054736  0.44072000  1
  Zn  Zn156  1  0.43788744  0.18993594  0.93940243  1
  Zn  Zn157  1  0.42443704  0.68873740  0.44264635  1
  Zn  Zn158  1  0.44712562  0.69013426  0.93203931  1
  Zn  Zn159  1  0.93800444  0.19140580  0.43618304  1
  Zn  Zn160  1  0.93558132  0.18703343  0.93774767  1
  Zn  Zn161  1  0.93929463  0.69138903  0.43614574  1
  Zn  Zn162  1  0.93980160  0.68731077  0.94050905  1
  Zn  Zn163  1  0.06421763  0.31077093  0.06419681  1
  Zn  Zn164  1  0.05976308  0.31626897  0.56100114  1
  Zn  Zn165  1  0.06627749  0.81035039  0.06146224  1
  Zn  Zn166  1  0.06636373  0.81455181  0.56077718  1
  Zn  Zn167  1  0.56521902  0.31214914  0.06205694  1
  Zn  Zn168  1  0.55747870  0.31099573  0.56262910  1
  Zn  Zn169  1  0.56286642  0.81411674  0.04830892  1
  Zn  Zn170  1  0.55393748  0.81493340  0.55335081  1
  O  O171  1  0.11548450  0.12676458  0.11325525  1
  O  O172  1  0.11806149  0.12322657  0.61968414  1
  O  O173  1  0.12484313  0.63252538  0.11227989  1
  O  O174  1  0.11366726  0.61733566  0.63190682  1
  O  O175  1  0.62036837  0.11972056  0.12282756  1
  O  O176  1  0.62779904  0.11558177  0.61466822  1
  O  O177  1  0.62058032  0.60984077  0.11985206  1
  O  O178  1  0.61435210  0.62133858  0.61812067  1
  O  O179  1  0.38771035  0.36685371  0.37905326  1
  O  O180  1  0.39004720  0.37389202  0.87616602  1
  O  O181  1  0.36260401  0.89143411  0.38555885  1
  O  O182  1  0.38533905  0.87170827  0.88403812  1
  O  O183  1  0.87927827  0.38481406  0.38031901  1
  O  O184  1  0.88767328  0.37575905  0.88141252  1
  O  O185  1  0.88608825  0.87334833  0.38892500  1
  O  O186  1  0.88183662  0.87843390  0.87952834  1
  O  O187  1  0.25539161  0.01233096  0.37868982  1
  O  O188  1  0.24411371  0.01063205  0.86636694  1
  O  O189  1  0.24313151  0.50813259  0.35924707  1
  O  O190  1  0.25355162  0.50741579  0.86587099  1
  O  O191  1  0.74854899  -0.00205391  0.35991037  1
  O  O192  1  0.75303319  0.00228545  0.86484369  1
  O  O193  1  0.75529036  0.50390948  0.36932154  1
  O  O194  1  0.75461917  0.49476501  0.85921091  1
  O  O195  1  0.25308107  0.48929494  0.13710816  1
  O  O196  1  0.24228872  0.50712346  0.63730030  1
  O  O197  1  0.24880811  0.98539101  0.12567033  1
  O  O198  1  0.24281355  0.99826810  0.63286510  1
  O  O199  1  0.74834066  0.49268112  0.13270204  1
  O  O200  1  0.74359253  0.50019674  0.63416827  1
  O  O201  1  0.73917569  1.00705696  0.13667852  1
  O  O202  1  0.74518392  0.99334135  0.62944043  1
  O  O203  1  0.00377382  0.36862549  0.25056242  1
  O  O204  1  0.00012124  0.37028925  0.75894886  1
  O  O205  1  -0.00736312  0.86749713  0.25864057  1
  O  O206  1  0.00885256  0.87484236  0.75782088  1
  O  O207  1  0.50097870  0.36742089  0.25628362  1
  O  O208  1  0.50926603  0.37169046  0.75798911  1
  O  O209  1  0.48803931  0.87628954  0.28027211  1
  O  O210  1  0.49492403  0.87791695  0.76140985  1
  O  O211  1  0.49198470  0.12979149  0.24372854  1
  O  O212  1  0.51086823  0.13192960  0.74142418  1
  O  O213  1  0.50760880  0.63127532  0.25549878  1
  O  O214  1  0.50453321  0.61884283  0.73696664  1
  O  O215  1  0.98911368  0.13048323  0.24463304  1
  O  O216  1  0.99387495  0.12992746  0.74636688  1
  O  O217  1  1.00067847  0.64114380  0.24831629  1
  O  O218  1  0.99367188  0.62543206  0.74207528  1
  O  O219  1  0.36759096  0.25348414  0.00930798  1
  O  O220  1  0.36264556  0.25495625  0.50630504  1
  O  O221  1  0.36929708  0.74939319  -0.00292244  1
  O  O222  1  0.35936399  0.73813228  0.52434072  1
  O  O223  1  0.86897903  0.26284592  -0.00511096  1
  O  O224  1  0.86792298  0.25600805  0.50227990  1
  O  O225  1  0.88270373  0.75920053  0.01020833  1
  O  O226  1  0.87369158  0.75949075  0.50640139  1
  O  O227  1  0.12742384  0.24830777  0.49471064  1
  O  O228  1  0.12974037  0.24214820  0.99572066  1
  O  O229  1  0.12789989  0.74650596  0.50081868  1
  O  O230  1  0.13457691  0.74340263  0.98951897  1
  O  O231  1  0.63126529  0.24426355  0.49529659  1
  O  O232  1  0.63846625  0.25632615  0.98962848  1
  O  O233  1  0.62788633  0.73675148  0.50639440  1
  O  O234  1  0.62735385  0.75019338  0.98058688  1
  O  O235  1  0.49708528  0.24488301  0.13188291  1
  O  O236  1  0.48455735  0.25118040  0.62786543  1
  O  O237  1  0.51149462  0.76000022  0.12953617  1
  O  O238  1  0.49015470  0.74064566  0.62181861  1
  O  O239  1  1.00251898  0.24272849  0.13662031  1
  O  O240  1  0.99333318  0.24530983  0.62941510  1
  O  O241  1  0.99638590  0.75038469  0.13406159  1
  O  O242  1  0.99474797  0.74429383  0.62773262  1
  O  O243  1  0.00347134  0.25765885  0.36484115  1
  O  O244  1  0.00453865  0.25598755  0.87079620  1
  O  O245  1  0.00062330  0.75689440  0.36216217  1
  O  O246  1  0.01151205  0.75470033  0.87491036  1
  O  O247  1  0.50531406  0.25425237  0.36883109  1
  O  O248  1  0.50966791  0.25609609  0.87595921  1
  O  O249  1  0.49721308  0.75951253  0.38808397  1
  O  O250  1  0.51120894  0.76375993  0.87454704  1
  O  O251  1  0.24170122  0.13785319  0.49049031  1
  O  O252  1  0.24176282  0.12767154  0.99663909  1
  O  O253  1  0.24882050  0.61123020  0.48820932  1
  O  O254  1  0.24843722  0.62987570  0.99605636  1
  O  O255  1  0.74446458  0.13842406  0.50034461  1
  O  O256  1  0.76138516  0.13702819  0.99350957  1
  O  O257  1  0.73997431  0.62389285  0.48972571  1
  O  O258  1  0.74627137  0.60927402  0.98937864  1
  O  O259  1  0.24925594  0.37071380  0.00837453  1
  O  O260  1  0.24581931  0.36607174  0.49173354  1
  O  O261  1  0.26439782  0.86708240  -0.00200459  1
  O  O262  1  0.24201284  0.88041579  0.51656132  1
  O  O263  1  0.75966746  0.36871189  0.00503170  1
  O  O264  1  0.75556632  0.36774125  0.50122011  1
  O  O265  1  0.76375766  0.87911896  -0.00592412  1
  O  O266  1  0.75793276  0.87632459  0.50687428  1
  O  O267  1  0.12479335  0.48900361  0.24795663  1
  O  O268  1  0.13130113  0.49766053  0.74190053  1
  O  O269  1  0.13238439  1.00973565  0.24593514  1
  O  O270  1  0.12786419  0.99508120  0.74525751  1
  O  O271  1  0.63617542  0.49171234  0.24002294  1
  O  O272  1  0.63263612  0.48982516  0.74547839  1
  O  O273  1  0.64006824  1.01014084  0.24485249  1
  O  O274  1  0.63691953  0.99538510  0.73994500  1
  O  O275  1  0.36395307  0.01418238  0.26260763  1
  O  O276  1  0.36224219  0.00359270  0.74420285  1
  O  O277  1  0.36238040  0.49059699  0.25900053  1
  O  O278  1  0.36257214  0.49548713  0.74898677  1
  O  O279  1  0.86468542  0.01610903  0.24384784  1
  O  O280  1  0.86501324  0.00289414  0.75244837  1
  O  O281  1  0.86851881  0.49514866  0.26070091  1
  O  O282  1  0.86948335  0.50813549  0.74900332  1
  O  O283  1  0.11579480  0.37274180  0.36515066  1
  O  O284  1  0.11375538  0.36779819  0.87683069  1
  O  O285  1  0.11221418  0.87271297  0.38001603  1
  O  O286  1  0.12316557  0.86784309  0.87282669  1
  O  O287  1  0.61553518  0.36132585  0.37466334  1
  O  O288  1  0.61868795  0.36764970  0.86827499  1
  O  O289  1  0.61670620  0.87077904  0.37498001  1
  O  O290  1  0.61342338  0.86881979  0.86824470  1
  O  O291  1  0.38205980  0.12716692  0.13376139  1
  O  O292  1  0.37269884  0.14571178  0.61948104  1
  O  O293  1  0.39548632  0.60010454  0.14108311  1
  O  O294  1  0.38985044  0.62890242  0.62886718  1
  O  O295  1  0.88540455  0.12535597  0.12656008  1
  O  O296  1  0.87897160  0.13089044  0.62994697  1
  O  O297  1  0.87717679  0.64280224  0.11782891  1
  O  O298  1  0.88281926  0.62972892  0.63240555  1
  O  O299  1  0.25452124  0.25421988  0.12110466  1
  O  O300  1  0.25582231  0.25058420  0.61657537  1
  O  O301  1  0.24751836  0.76169172  0.11213662  1
  O  O302  1  0.25212692  0.76179723  0.62928587  1
  O  O303  1  0.74672549  0.25667997  0.11598857  1
  O  O304  1  0.75603648  0.25188417  0.61689003  1
  O  O305  1  0.75641279  0.76244376  0.13174462  1
  O  O306  1  0.75602778  0.75808203  0.62191931  1
  O  O307  1  0.24327624  0.24641308  0.38132017  1
  O  O308  1  0.24264934  0.24496042  0.88178134  1
  O  O309  1  0.24645425  0.73643989  0.38288512  1
  O  O310  1  0.24716905  0.74328377  0.88014060  1
  O  O311  1  0.74009953  0.25541686  0.38342916  1
  O  O312  1  0.74541403  0.24616778  0.88207967  1
  O  O313  1  0.76146494  0.73601294  0.37341222  1
  O  O314  1  0.73379420  0.75510883  0.86749757  1
  O  O315  1  0.00367147  0.11986724  0.00645013  1
  O  O316  1  0.00200322  0.12088734  0.50402241  1
  O  O317  1  0.01065046  0.61550619  0.00053041  1
  O  O318  1  -0.00735842  0.61747956  0.50924285  1
  O  O319  1  0.49590126  0.12864091  0.01523634  1
  O  O320  1  0.51142157  0.13248081  0.50656529  1
  O  O321  1  0.50569690  0.61202865  -0.00192616  1
  O  O322  1  0.50441363  0.61788319  0.50206511  1
  O  O323  1  0.50090392  0.38350156  0.49216266  1
  O  O324  1  0.50168746  0.38130883  0.99154060  1
  O  O325  1  0.49898148  0.88313151  0.48357862  1
  O  O326  1  0.48565683  0.87813037  0.99044594  1
  O  O327  1  0.99139103  0.38375111  0.49213735  1
  O  O328  1  0.99677638  0.37841802  0.99618585  1
  O  O329  1  0.99415979  0.88529066  0.49611780  1
  O  O330  1  0.99769441  0.88070531  0.99373733  1
  O  O331  1  0.50739994  0.48692646  0.38422147  1
  O  O332  1  0.50213809  0.49211496  0.88186804  1
  O  O333  1  0.48401886  0.99800460  0.37598809  1
  O  O334  1  0.50904540  0.98407279  0.87612589  1
  O  O335  1  0.99368579  0.50063769  0.37997076  1
  O  O336  1  1.00092567  0.49200057  0.88361893  1
  O  O337  1  1.00183146  0.99449195  0.38457770  1
  O  O338  1  0.99315839  0.99540078  0.88080713  1
  O  O339  1  0.00019653  0.00710408  0.11905411  1
  O  O340  1  0.00427679  0.00700265  0.61963480  1
  O  O341  1  -0.00282393  0.50097888  0.11258831  1
  O  O342  1  0.00526384  0.50866811  0.61729141  1
  O  O343  1  0.52361067  0.01096953  0.12951301  1
  O  O344  1  0.51253448  -0.00080000  0.62606297  1
  O  O345  1  0.51539241  0.48451022  0.11505188  1
  O  O346  1  0.50442193  0.50961808  0.61956644  1
  O  O347  1  0.24151300  0.38222649  0.24625408  1
  O  O348  1  0.24394573  0.39249131  0.75800325  1
  O  O349  1  0.25364838  0.87253923  0.23496086  1
  O  O350  1  0.24423167  0.88616626  0.74730170  1
  O  O351  1  0.75179958  0.38044425  0.24263474  1
  O  O352  1  0.74471933  0.38157343  0.74569092  1
  O  O353  1  0.75714150  0.88710547  0.24657410  1
  O  O354  1  0.75262591  0.88276491  0.73422013  1
  O  O355  1  0.25625509  0.13353039  0.26388570  1
  O  O356  1  0.24040989  0.11673022  0.76288688  1
  O  O357  1  0.25155345  0.60990453  0.24543834  1
  O  O358  1  0.24410501  0.61076431  0.76056263  1
  O  O359  1  0.76227910  0.12111994  0.25230293  1
  O  O360  1  0.75446067  0.11756381  0.75430832  1
  O  O361  1  0.74988410  0.60855147  0.25820395  1
  O  O362  1  0.75975470  0.61758796  0.75069411  1
  O  O363  1  0.36778129  0.12369995  0.37178148  1
  O  O364  1  0.36165740  0.13186992  0.87825030  1
  O  O365  1  0.35712067  0.62592101  0.36944620  1
  O  O366  1  0.36543406  0.62504622  0.87744645  1
  O  O367  1  0.87938465  0.12162828  0.36569532  1
  O  O368  1  0.86945869  0.11712265  0.86864632  1
  O  O369  1  0.86807612  0.61352722  0.38225698  1
  O  O370  1  0.87787326  0.62589384  0.86160874  1
  O  O371  1  0.13706760  0.36742399  0.13338029  1
  O  O372  1  0.11716434  0.39095170  0.62633535  1
  O  O373  1  0.14471297  0.87682932  0.11247349  1
  O  O374  1  0.12999350  0.88239884  0.63583707  1
  O  O375  1  0.64023908  0.37995631  0.12474456  1
  O  O376  1  0.62381624  0.38036446  0.63276775  1
  O  O377  1  0.63302445  0.88630277  0.12307129  1
  O  O378  1  0.63165216  0.88047837  0.62156385  1
  O  O379  1  0.11528287  0.25695183  0.25540395  1
  O  O380  1  0.11750561  0.25241433  0.75606517  1
  O  O381  1  0.11269629  0.75282597  0.24850088  1
  O  O382  1  0.12725315  0.75661575  0.76311978  1
  O  O383  1  0.62010034  0.24950414  0.25760086  1
  O  O384  1  0.63140599  0.26230476  0.75754469  1
  O  O385  1  0.64766473  0.76143690  0.23995488  1
  O  O386  1  0.62432105  0.75265165  0.75900981  1
  O  O387  1  0.37972130  0.24134776  0.24502189  1
  O  O388  1  0.37028832  0.25551656  0.73852631  1
  O  O389  1  0.36569992  0.75144583  0.24277369  1
  O  O390  1  0.36545783  0.74596068  0.73128710  1
  O  O391  1  0.88189218  0.23624559  0.25497340  1
  O  O392  1  0.87966268  0.24546553  0.74565782  1
  O  O393  1  0.88634353  0.75432393  0.23527186  1
  O  O394  1  0.87764264  0.74323709  0.74203706  1
  O  O395  1  0.38883794  0.49807512  0.50461149  1
  O  O396  1  0.38579580  0.49519278  0.99534129  1
  O  O397  1  0.37145104  1.01052043  0.49211827  1
  O  O398  1  0.37193587  0.99113558  0.99710035  1
  O  O399  1  0.88206700  0.49558844  0.49485303  1
  O  O400  1  0.88503359  0.48655888  0.99709213  1
  O  O401  1  0.88645780  0.99466079  0.50681941  1
  O  O402  1  0.88120876  0.99212338  0.99525664  1
  O  O403  1  0.11706898  0.00764848  0.00077839  1
  O  O404  1  0.11364142  0.00880351  0.50735373  1
  O  O405  1  0.11935282  0.50943555  -0.00392929  1
  O  O406  1  0.11113408  0.49727221  0.50608764  1
  O  O407  1  0.63815580  0.00319068  0.01210409  1
  O  O408  1  0.63465567  0.01302621  0.50721234  1
  O  O409  1  0.61927087  0.49517133  0.00683427  1
  O  O410  1  0.61742447  0.50886129  0.50523189  1
  O  O411  1  0.36315727  0.36706234  0.12671306  1
  O  O412  1  0.37446366  0.36192409  0.61885555  1
  O  O413  1  0.36526609  0.87635965  0.10863524  1
  O  O414  1  0.36712567  0.86457383  0.62599063  1
  O  O415  1  0.86464391  0.37584963  0.11747350  1
  O  O416  1  0.87523865  0.36930385  0.61653307  1
  O  O417  1  0.87924597  0.86454089  0.11396438  1
  O  O418  1  0.86983494  0.87070360  0.61541789  1
  O  O419  1  0.13018390  0.13379719  0.38121739  1
  O  O420  1  0.12579550  0.13166450  0.88861879  1
  O  O421  1  0.14410950  0.62763535  0.36520726  1
  O  O422  1  0.13525457  0.63207171  0.88271378  1
  O  O423  1  0.61761870  0.13664364  0.38172819  1
  O  O424  1  0.63248776  0.13725691  0.87137327  1
  O  O425  1  0.63153787  0.62833227  0.37874057  1
  O  O426  1  0.62515574  0.63809563  0.87293780  1
