# generated using pymatgen
data_V85Zn86O256
_symmetry_space_group_name_H-M   'P 1'
_cell_length_a   16.91764615
_cell_length_b   16.92656772
_cell_length_c   16.92746534
_cell_angle_alpha   89.99079446
_cell_angle_beta   89.98125042
_cell_angle_gamma   89.99226129
_symmetry_Int_Tables_number   1
_chemical_formula_structural   V85Zn86O256
_chemical_formula_sum   'V85 Zn86 O256'
_cell_volume   4847.30939131
_cell_formula_units_Z   1
loop_
 _symmetry_equiv_pos_site_id
 _symmetry_equiv_pos_as_xyz
  1  'x, y, z'
loop_
 _atom_site_type_symbol
 _atom_site_label
 _atom_site_symmetry_multiplicity
 _atom_site_fract_x
 _atom_site_fract_y
 _atom_site_fract_z
 _atom_site_occupancy
  V  V0  1  -0.00213675  -0.00231314  0.50202244  1
  V  V1  1  0.12528746  0.50147681  0.12529816  1
  V  V2  1  0.75157293  -0.00469639  0.24704676  1
  V  V3  1  0.37359340  0.86739462  0.00047040  1
  V  V4  1  0.74307609  0.73959024  -0.00816370  1
  V  V5  1  0.62574371  0.12425151  0.00030942  1
  V  V6  1  0.87926136  0.12879900  0.25272116  1
  V  V7  1  0.37623865  -0.00116220  0.87861189  1
  V  V8  1  0.63032204  0.37448791  0.74036085  1
  V  V9  1  0.87307032  0.37556470  0.00033157  1
  V  V10  1  0.37328766  0.50956156  0.87450396  1
  V  V11  1  0.25452459  0.51094416  0.75280061  1
  V  V12  1  0.12328125  0.12499205  0.49907779  1
  V  V13  1  0.38323903  0.51031381  0.36668451  1
  V  V14  1  0.74727469  -0.00173225  0.74890467  1
  V  V15  1  0.37575571  0.37786272  -0.00102032  1
  V  V16  1  0.12803395  0.25106350  0.88402802  1
  V  V17  1  0.11357382  0.37208778  0.25231100  1
  V  V18  1  0.50413405  0.49999259  0.49763298  1
  V  V19  1  0.25041231  0.12781866  0.88288929  1
  V  V20  1  0.25125695  0.50469447  0.25066038  1
  V  V21  1  0.50548544  0.87076117  0.87403173  1
  V  V22  1  0.49772445  0.74090416  0.25918875  1
  V  V23  1  0.37202345  0.74365051  0.12686052  1
  V  V24  1  -0.00061450  0.75755066  0.75332942  1
  V  V25  1  0.25078581  0.37187357  0.62623294  1
  V  V26  1  0.62461935  0.86981543  0.25557884  1
  V  V27  1  0.25671666  -0.00282694  0.25023030  1
  V  V28  1  0.12197878  -0.00512114  0.63174069  1
  V  V29  1  0.87400675  0.62687285  0.25620950  1
  V  V30  1  0.87179304  0.86692543  0.49995174  1
  V  V31  1  0.74555344  0.87152308  0.62492819  1
  V  V32  1  0.74989169  0.12634653  0.87519040  1
  V  V33  1  0.37394227  0.12519611  0.75159416  1
  V  V34  1  0.37966353  0.36994744  0.48233210  1
  V  V35  1  0.50372694  0.62387366  0.11157176  1
  V  V36  1  0.50183539  0.37995417  0.87721117  1
  V  V37  1  0.73836621  0.63129008  0.38239000  1
  V  V38  1  0.31021436  0.70492436  0.55594565  1
  V  V39  1  0.13616805  0.75567295  0.87509916  1
  V  V40  1  0.50051067  0.24890916  0.74762378  1
  V  V41  1  0.12852699  0.37508764  0.75295585  1
  V  V42  1  0.24850840  0.25033360  0.49551078  1
  V  V43  1  -0.00041374  0.62770571  0.12334105  1
  V  V44  1  0.13358134  0.75176769  0.37483339  1
  V  V45  1  -0.00565007  0.12433893  0.62656955  1
  V  V46  1  0.50108069  0.25698945  0.25297279  1
  V  V47  1  0.75130020  0.26399383  0.50041057  1
  V  V48  1  0.74859026  0.37593784  0.12848831  1
  V  V49  1  0.87161501  0.26711768  0.62310722  1
  V  V50  1  0.11130860  0.25241835  0.37121950  1
  V  V51  1  0.37159183  0.24713069  0.11927493  1
  V  V52  1  0.86831780  0.87442457  0.00394407  1
  V  V53  1  0.88097267  0.25167193  0.13002162  1
  V  V54  1  -0.00241458  0.62491690  0.62745317  1
  V  V55  1  0.62568266  0.25249243  0.87399226  1
  V  V56  1  0.37470701  0.25060957  0.62376612  1
  V  V57  1  -0.00061988  0.25102703  0.75136352  1
  V  V58  1  0.48645887  0.74163396  0.74197094  1
  V  V59  1  0.12444363  0.88050525  0.24490261  1
  V  V60  1  0.37436007  0.89610613  0.49452700  1
  V  V61  1  0.74815354  0.50656165  0.75226462  1
  V  V62  1  0.12334550  0.63017125  0.49930969  1
  V  V63  1  -0.00040899  0.37624103  0.87727397  1
  V  V64  1  0.24720234  0.37103923  0.12030646  1
  V  V65  1  0.63151170  0.50783807  0.61774712  1
  V  V66  1  0.00266303  0.11943531  0.12832768  1
  V  V67  1  0.13898430  0.63011051  -0.00448002  1
  V  V68  1  0.24635700  -0.00577966  0.75358765  1
  V  V69  1  0.87770644  0.49032227  0.37865410  1
  V  V70  1  0.62722006  -0.00612939  0.12638593  1
  V  V71  1  0.87575560  -0.00080240  0.87727283  1
  V  V72  1  0.25416157  0.12109866  0.37330256  1
  V  V73  1  0.87453919  -0.00135216  0.37514903  1
  V  V74  1  0.00138519  0.87300868  0.37518925  1
  V  V75  1  0.12534614  0.11826934  0.00519471  1
  V  V76  1  0.25333556  0.87575612  0.62065039  1
  V  V77  1  0.86449743  0.75413270  0.12763879  1
  V  V78  1  0.00100327  0.49060568  0.49659990  1
  V  V79  1  0.87174958  0.50850035  0.87655248  1
  V  V80  1  0.62534929  0.11839455  0.49972706  1
  V  V81  1  0.24635860  0.87545425  0.12028583  1
  V  V82  1  0.50052094  0.12418142  0.12545215  1
  V  V83  1  0.49597859  0.89257204  0.37530613  1
  V  V84  1  0.62364947  0.50234572  0.11441076  1
  Zn  Zn85  1  0.87151187  0.62775907  0.75414813  1
  Zn  Zn86  1  0.75058239  0.24968040  0.00119037  1
  Zn  Zn87  1  0.62261746  0.73107074  0.87028755  1
  Zn  Zn88  1  0.72729222  0.74616788  0.50321443  1
  Zn  Zn89  1  0.62138542  0.37890067  0.25417470  1
  Zn  Zn90  1  0.00029728  0.75194825  0.24897496  1
  Zn  Zn91  1  0.12552322  0.50042629  0.62453439  1
  Zn  Zn92  1  0.00241934  -0.00587467  0.00409176  1
  Zn  Zn93  1  0.74665728  0.50143359  0.25259720  1
  Zn  Zn94  1  0.75038527  0.12733885  0.37645644  1
  Zn  Zn95  1  0.00152799  0.50248234  -0.00130157  1
  Zn  Zn96  1  0.37726854  0.12074584  0.25235337  1
  Zn  Zn97  1  0.87061553  0.74597802  0.62743020  1
  Zn  Zn98  1  0.25512109  0.62920475  0.37174558  1
  Zn  Zn99  1  0.61677590  -0.00071440  0.62353290  1
  Zn  Zn100  1  0.00195425  0.87489346  0.87553493  1
  Zn  Zn101  1  0.62174041  0.86997713  0.74974022  1
  Zn  Zn102  1  0.50149402  -0.00410165  0.00085236  1
  Zn  Zn103  1  0.87226612  0.12784568  0.75055445  1
  Zn  Zn104  1  0.62008749  0.25576096  0.37967968  1
  Zn  Zn105  1  0.49314689  0.63114985  0.61664231  1
  Zn  Zn106  1  0.49473718  0.11823390  0.61536726  1
  Zn  Zn107  1  0.18641860  0.18811130  0.18929042  1
  Zn  Zn108  1  0.18554311  0.18510575  0.69131090  1
  Zn  Zn109  1  0.18740875  0.69084047  0.18769637  1
  Zn  Zn110  1  0.18058260  0.68836954  0.69244529  1
  Zn  Zn111  1  0.69046941  0.18667911  0.18844819  1
  Zn  Zn112  1  0.68917392  0.18582924  0.68309351  1
  Zn  Zn113  1  0.68506312  0.68558942  0.18949388  1
  Zn  Zn114  1  0.68079872  0.68869139  0.68955877  1
  Zn  Zn115  1  0.30623582  0.30896091  0.30427302  1
  Zn  Zn116  1  0.31286102  0.31307113  0.81504800  1
  Zn  Zn117  1  0.31734190  0.81320975  0.31332673  1
  Zn  Zn118  1  0.31305179  0.81386518  0.81175551  1
  Zn  Zn119  1  0.81253411  0.31206840  0.31342503  1
  Zn  Zn120  1  0.80969830  0.31820549  0.81115543  1
  Zn  Zn121  1  0.80836988  0.81099353  0.31375577  1
  Zn  Zn122  1  0.81303720  0.81160866  0.81407994  1
  Zn  Zn123  1  0.18744612  0.43809826  0.43425570  1
  Zn  Zn124  1  0.19012962  0.44153430  0.93995705  1
  Zn  Zn125  1  0.18821009  0.93877507  0.43850169  1
  Zn  Zn126  1  0.18792613  0.93536805  0.94025043  1
  Zn  Zn127  1  0.68914710  0.43634697  0.43239606  1
  Zn  Zn128  1  0.68618444  0.55844363  0.93615056  1
  Zn  Zn129  1  0.68746830  0.93437884  0.43377388  1
  Zn  Zn130  1  0.69020625  0.93357179  0.94050235  1
  Zn  Zn131  1  0.31175108  0.05654774  0.06405157  1
  Zn  Zn132  1  0.30964590  0.06445032  0.56506425  1
  Zn  Zn133  1  0.31708724  0.56080767  0.06353893  1
  Zn  Zn134  1  0.31223583  0.54299631  0.55708142  1
  Zn  Zn135  1  0.81205300  0.06292697  0.06450681  1
  Zn  Zn136  1  0.80830911  0.06270575  0.56151570  1
  Zn  Zn137  1  0.81488280  0.56175080  0.06697026  1
  Zn  Zn138  1  0.81299689  0.55918150  0.56026402  1
  Zn  Zn139  1  0.43742033  0.44007948  0.18288989  1
  Zn  Zn140  1  0.43850060  0.43796824  0.68429223  1
  Zn  Zn141  1  0.43855764  0.93415450  0.18783547  1
  Zn  Zn142  1  0.43609579  0.93610466  0.68822487  1
  Zn  Zn143  1  0.93657400  0.44251724  0.18981307  1
  Zn  Zn144  1  0.94029965  0.44291636  0.69043804  1
  Zn  Zn145  1  0.93729177  0.93693223  0.18603742  1
  Zn  Zn146  1  0.93131450  0.93503754  0.68932911  1
  Zn  Zn147  1  0.06494068  0.06080115  0.31177293  1
  Zn  Zn148  1  0.06093978  0.06329855  0.81420994  1
  Zn  Zn149  1  0.06270394  0.56329551  0.31213287  1
  Zn  Zn150  1  0.06395759  0.56441429  0.81333055  1
  Zn  Zn151  1  0.56685644  0.06928250  0.31272174  1
  Zn  Zn152  1  0.56149054  0.06056514  0.81018154  1
  Zn  Zn153  1  0.56158579  0.55567513  0.30360136  1
  Zn  Zn154  1  0.55425528  0.56298216  0.80291696  1
  Zn  Zn155  1  0.43792184  0.18260485  0.43525735  1
  Zn  Zn156  1  0.43885561  0.19045057  0.94012058  1
  Zn  Zn157  1  0.55617674  0.68587613  0.43577535  1
  Zn  Zn158  1  0.43766514  0.69069177  0.93639524  1
  Zn  Zn159  1  0.93282576  0.18872670  0.44081475  1
  Zn  Zn160  1  0.93854038  0.18696498  0.94136496  1
  Zn  Zn161  1  0.94143447  0.68671795  0.43670478  1
  Zn  Zn162  1  0.94000123  0.69083952  0.94043285  1
  Zn  Zn163  1  0.06000561  0.30951682  0.06420779  1
  Zn  Zn164  1  0.06369379  0.31052947  0.56323669  1
  Zn  Zn165  1  0.05844686  0.81011399  0.06036177  1
  Zn  Zn166  1  0.06400015  0.81065730  0.56474873  1
  Zn  Zn167  1  0.56314831  0.31434468  0.06126479  1
  Zn  Zn168  1  0.56184596  0.31265375  0.56023281  1
  Zn  Zn169  1  0.56180119  0.81042731  0.06558186  1
  Zn  Zn170  1  0.55350975  0.82084965  0.56398273  1
  O  O171  1  0.11660038  0.13235996  0.11677479  1
  O  O172  1  0.11312299  0.11976657  0.62177662  1
  O  O173  1  0.11797278  0.62606455  0.11691338  1
  O  O174  1  0.11588879  0.62516301  0.61721323  1
  O  O175  1  0.61967282  0.11595636  0.12196395  1
  O  O176  1  0.62534594  0.12292955  0.61172366  1
  O  O177  1  0.61284590  0.61912423  0.12722158  1
  O  O178  1  0.62027282  0.60951892  0.62467510  1
  O  O179  1  0.36686675  0.37513862  0.38077512  1
  O  O180  1  0.38015971  0.37689725  0.88312400  1
  O  O181  1  0.37841381  0.87789049  0.38651055  1
  O  O182  1  0.38201475  0.87753334  0.88356702  1
  O  O183  1  0.87409660  0.39183097  0.37066783  1
  O  O184  1  0.87925780  0.38112459  0.88358591  1
  O  O185  1  0.87948780  0.87809036  0.38133869  1
  O  O186  1  0.87542033  0.88355924  0.88310775  1
  O  O187  1  0.24103343  0.00969091  0.36447197  1
  O  O188  1  0.25332329  0.00467148  0.86929194  1
  O  O189  1  0.26067974  0.50132455  0.36729798  1
  O  O190  1  0.25739992  0.49369441  0.86097517  1
  O  O191  1  0.75661906  0.00137454  0.36389362  1
  O  O192  1  0.75839227  0.00391727  0.87082259  1
  O  O193  1  0.76296278  0.51179923  0.37620118  1
  O  O194  1  0.75980547  0.49903391  0.86634908  1
  O  O195  1  0.24538690  0.49326195  0.13070715  1
  O  O196  1  0.24823901  0.48920320  0.63465081  1
  O  O197  1  0.25006628  0.98515109  0.13254900  1
  O  O198  1  0.24086748  0.99637301  0.63291646  1
  O  O199  1  0.74513858  0.49314943  0.12822651  1
  O  O200  1  0.73773395  0.49996294  0.62751706  1
  O  O201  1  0.74269115  1.00393037  0.13801191  1
  O  O202  1  0.74931155  0.99294770  0.63451827  1
  O  O203  1  0.01428019  0.37835114  0.24365494  1
  O  O204  1  0.00845982  0.37087202  0.75617366  1
  O  O205  1  0.00756275  0.87559448  0.25543576  1
  O  O206  1  -0.00331655  0.86205081  0.75042884  1
  O  O207  1  0.49915351  0.35933066  0.23905586  1
  O  O208  1  0.50201799  0.36314342  0.75308539  1
  O  O209  1  0.50445893  0.86769725  0.25700514  1
  O  O210  1  0.49796178  0.86667624  0.75959258  1
  O  O211  1  0.49784169  0.13177861  0.23865662  1
  O  O212  1  0.49418792  0.13861538  0.75512932  1
  O  O213  1  0.50291020  0.63870179  0.24489057  1
  O  O214  1  0.49214867  0.63619992  0.73917400  1
  O  O215  1  0.98884614  0.11829313  0.24448582  1
  O  O216  1  0.99765450  0.13299348  0.74338487  1
  O  O217  1  0.99438685  0.62814282  0.24072675  1
  O  O218  1  0.99942412  0.63123577  0.74186480  1
  O  O219  1  0.37742960  0.25942413  0.01121335  1
  O  O220  1  0.36975626  0.25395449  0.50248343  1
  O  O221  1  0.37753496  0.75964848  0.00932701  1
  O  O222  1  0.36603745  0.76298251  0.50031236  1
  O  O223  1  0.87462212  0.25765438  0.00858185  1
  O  O224  1  0.86652660  0.24746261  0.51438885  1
  O  O225  1  0.86560683  0.75426521  0.00640556  1
  O  O226  1  0.87831022  0.76168074  0.50130428  1
  O  O227  1  0.13045254  0.24383329  0.49455353  1
  O  O228  1  0.12010672  0.24012483  0.98920283  1
  O  O229  1  0.12170927  0.73912095  0.49196591  1
  O  O230  1  0.12088996  0.73890257  0.98953434  1
  O  O231  1  0.63939255  0.24567890  0.50369974  1
  O  O232  1  0.62733837  0.24392758  0.99297717  1
  O  O233  1  0.61531142  0.75368241  0.49970291  1
  O  O234  1  0.64180163  0.75510304  1.00203938  1
  O  O235  1  0.49401828  0.24169500  0.12886020  1
  O  O236  1  0.49241986  0.24664674  0.63210935  1
  O  O237  1  0.49383355  0.74089165  0.13165963  1
  O  O238  1  0.49567771  0.75243158  0.63765587  1
  O  O239  1  0.98786247  0.23904918  0.12258981  1
  O  O240  1  0.99076851  0.24339108  0.62768600  1
  O  O241  1  0.98697149  0.74290616  0.12623743  1
  O  O242  1  0.99997524  0.74303074  0.63429132  1
  O  O243  1  0.01202403  0.24575308  0.38214173  1
  O  O244  1  0.00586834  0.25550310  0.87086644  1
  O  O245  1  0.01179339  0.75626911  0.37262711  1
  O  O246  1  0.00643859  0.75079535  0.86816794  1
  O  O247  1  0.49591039  0.24522133  0.35565626  1
  O  O248  1  0.50386045  0.25734831  0.86757653  1
  O  O249  1  0.49644797  0.75523448  0.36077109  1
  O  O250  1  0.50100212  0.75627927  0.86707112  1
  O  O251  1  0.24203323  0.12863163  0.49296998  1
  O  O252  1  0.24408878  0.11952262  0.99029883  1
  O  O253  1  0.24827195  0.63278954  0.50151193  1
  O  O254  1  0.23713645  0.62556604  1.00697242  1
  O  O255  1  0.74138535  0.13354062  0.49934279  1
  O  O256  1  0.74432428  0.12655785  0.99283199  1
  O  O257  1  0.75442121  0.62744292  0.48579687  1
  O  O258  1  0.75435647  0.63501954  0.99990543  1
  O  O259  1  0.25507392  0.37658127  0.01247351  1
  O  O260  1  0.25616343  0.37078803  0.50681692  1
  O  O261  1  0.25828246  0.87696940  0.00952346  1
  O  O262  1  0.26060331  0.88090961  0.50608988  1
  O  O263  1  0.76645837  0.37157529  0.01404418  1
  O  O264  1  0.75074606  0.36257846  0.50293476  1
  O  O265  1  0.76137228  0.86303544  -0.00075591  1
  O  O266  1  0.75605855  0.87173985  0.50502153  1
  O  O267  1  0.13123863  0.49340729  0.24513424  1
  O  O268  1  0.13672762  0.49323317  0.75091037  1
  O  O269  1  0.13247885  0.98624337  0.25119707  1
  O  O270  1  0.13007753  1.00460257  0.74032094  1
  O  O271  1  0.62874960  0.49574260  0.23564929  1
  O  O272  1  0.62895805  0.49316455  0.73743805  1
  O  O273  1  0.63297252  0.99670516  0.24511334  1
  O  O274  1  0.63873434  0.99548961  0.75398892  1
  O  O275  1  0.36138313  0.00029882  0.24503288  1
  O  O276  1  0.36533268  0.00695918  0.75869945  1
  O  O277  1  0.36868441  0.49119873  0.26065088  1
  O  O278  1  0.36181371  0.49246249  0.75605017  1
  O  O279  1  0.86844726  0.00378914  0.25390291  1
  O  O280  1  0.86411976  0.00125338  0.75884020  1
  O  O281  1  0.87400713  0.50983233  0.26120359  1
  O  O282  1  0.86644059  0.49939528  0.75870233  1
  O  O283  1  0.13084327  0.36565286  0.36451230  1
  O  O284  1  0.12186524  0.36789268  0.87580164  1
  O  O285  1  0.12136192  0.86950102  0.37003448  1
  O  O286  1  0.12131851  0.86050854  0.88305233  1
  O  O287  1  0.63297594  0.36737525  0.36635890  1
  O  O288  1  0.61331465  0.36587631  0.85979652  1
  O  O289  1  0.61402544  0.87980721  0.36323819  1
  O  O290  1  0.61170229  0.87564085  0.87744580  1
  O  O291  1  0.38191128  0.13072334  0.12277558  1
  O  O292  1  0.37241335  0.13313518  0.63326978  1
  O  O293  1  0.38621538  0.63298720  0.12161700  1
  O  O294  1  0.36810458  0.63541500  0.60500199  1
  O  O295  1  0.88040105  0.13226311  0.13191366  1
  O  O296  1  0.88581020  0.12574208  0.62673344  1
  O  O297  1  0.88052238  0.62872746  0.13774195  1
  O  O298  1  0.88704646  0.62469304  0.62422395  1
  O  O299  1  0.25946593  0.25792303  0.13082934  1
  O  O300  1  0.25284319  0.25345741  0.61879438  1
  O  O301  1  0.26365555  0.75962022  0.13452017  1
  O  O302  1  0.24910701  0.75741696  0.62561509  1
  O  O303  1  0.76193167  0.25536526  0.12468570  1
  O  O304  1  0.76471766  0.24854857  0.61882284  1
  O  O305  1  0.76034930  0.74163544  0.11732489  1
  O  O306  1  0.75083951  0.75662781  0.62258291  1
  O  O307  1  0.24192349  0.24228351  0.37875212  1
  O  O308  1  0.24055047  0.23980168  0.87060301  1
  O  O309  1  0.23846643  0.74831338  0.36748628  1
  O  O310  1  0.23548746  0.75231301  0.87030754  1
  O  O311  1  0.75859017  0.24759804  0.39233078  1
  O  O312  1  0.74368688  0.24469195  0.87442690  1
  O  O313  1  0.75024232  0.73483202  0.37829982  1
  O  O314  1  0.74676969  0.74992265  0.88790257  1
  O  O315  1  0.00768604  0.12171758  0.00851889  1
  O  O316  1  0.00274742  0.11795637  0.50827622  1
  O  O317  1  0.00382288  0.62443819  0.01311279  1
  O  O318  1  0.00810729  0.61970459  0.50668584  1
  O  O319  1  0.50596822  0.12281221  0.01001597  1
  O  O320  1  0.51875690  0.13510666  0.49928417  1
  O  O321  1  0.50226914  0.63113273  0.01311278  1
  O  O322  1  0.49891227  0.60527432  0.49753682  1
  O  O323  1  0.48807369  0.38168345  0.50244869  1
  O  O324  1  0.49102848  0.37082442  0.98857957  1
  O  O325  1  0.48300573  0.87939790  0.49130014  1
  O  O326  1  0.49274991  0.87374949  0.99398540  1
  O  O327  1  1.01181827  0.39154082  0.50309825  1
  O  O328  1  0.99074472  0.37696480  0.99654228  1
  O  O329  1  0.99329038  0.87986908  0.49759241  1
  O  O330  1  0.98604086  0.87599887  0.99855473  1
  O  O331  1  0.48976333  0.49783897  0.37595873  1
  O  O332  1  0.48811739  0.48428670  0.86040971  1
  O  O333  1  0.49828000  0.99189221  0.36362828  1
  O  O334  1  0.49248611  0.99187697  0.87592699  1
  O  O335  1  0.98770221  0.50767933  0.38186553  1
  O  O336  1  0.99422443  0.49153603  0.87525542  1
  O  O337  1  0.99569070  0.99281927  0.38177010  1
  O  O338  1  0.98651601  0.99933574  0.87524916  1
  O  O339  1  -0.00507597  0.01442318  0.12259128  1
  O  O340  1  0.00413822  0.00401637  0.62515407  1
  O  O341  1  0.00747180  0.51009719  0.12438827  1
  O  O342  1  0.00438034  0.50770399  0.61852864  1
  O  O343  1  0.50702864  0.00823428  0.12557004  1
  O  O344  1  0.50421134  0.00795847  0.63866713  1
  O  O345  1  0.50437675  0.51563291  0.12802400  1
  O  O346  1  0.50666231  0.50209238  0.61550510  1
  O  O347  1  0.24327405  0.38385908  0.23771199  1
  O  O348  1  0.24600785  0.37620819  0.74212462  1
  O  O349  1  0.24455854  0.88055983  0.24527803  1
  O  O350  1  0.25482994  0.88819739  0.74188405  1
  O  O351  1  0.75493460  0.37634760  0.23689471  1
  O  O352  1  0.73884133  0.38691976  0.75150381  1
  O  O353  1  0.73901200  0.88209070  0.25496458  1
  O  O354  1  0.74898395  0.88001318  0.74262438  1
  O  O355  1  0.24892213  0.11529347  0.25538389  1
  O  O356  1  0.25211119  0.11560147  0.76084942  1
  O  O357  1  0.24436629  0.60905946  0.24800911  1
  O  O358  1  0.24819018  0.60915578  0.74337717  1
  O  O359  1  0.76237943  0.11809848  0.25253423  1
  O  O360  1  0.75077357  0.11743887  0.75702176  1
  O  O361  1  0.75715167  0.62512527  0.26125571  1
  O  O362  1  0.75183106  0.61156439  0.74275028  1
  O  O363  1  0.35898652  0.12893224  0.37202493  1
  O  O364  1  0.36716989  0.12235644  0.87392244  1
  O  O365  1  0.37365990  0.60828255  0.37313790  1
  O  O366  1  0.37872617  0.60864209  0.88425183  1
  O  O367  1  0.87622723  0.11721745  0.36875295  1
  O  O368  1  0.86816901  0.11872922  0.87534876  1
  O  O369  1  0.87190962  0.62395029  0.36571460  1
  O  O370  1  0.88304946  0.61145112  0.87641801  1
  O  O371  1  0.13082490  0.37813114  0.12762475  1
  O  O372  1  0.13734097  0.37368345  0.63017881  1
  O  O373  1  0.13359243  0.86519691  0.13159636  1
  O  O374  1  0.13740852  0.88440526  0.61802681  1
  O  O375  1  0.63417980  0.37938143  0.12623130  1
  O  O376  1  0.61630877  0.38305498  0.63603466  1
  O  O377  1  0.61642809  0.88818475  0.13588094  1
  O  O378  1  0.63585270  0.88047126  0.62517945  1
  O  O379  1  0.12765412  0.25906148  0.25916343  1
  O  O380  1  0.11949040  0.25458972  0.76085731  1
  O  O381  1  0.12275523  0.76128461  0.25648416  1
  O  O382  1  0.11612946  0.74448601  0.76704584  1
  O  O383  1  0.60979422  0.24780434  0.24567054  1
  O  O384  1  0.61939737  0.25471139  0.75022194  1
  O  O385  1  0.61155743  0.75981545  0.24195657  1
  O  O386  1  0.61113106  0.75254377  0.75319132  1
  O  O387  1  0.38354537  0.24716484  0.23682152  1
  O  O388  1  0.38093859  0.24567571  0.74589006  1
  O  O389  1  0.38928027  0.75598835  0.24109041  1
  O  O390  1  0.38713847  0.75189833  0.75357959  1
  O  O391  1  0.87342563  0.23999260  0.24453306  1
  O  O392  1  0.87878887  0.25105090  0.73879290  1
  O  O393  1  0.87546555  0.74507966  0.24428539  1
  O  O394  1  0.88260738  0.74557512  0.74965199  1
  O  O395  1  0.38122843  0.48857215  0.48422748  1
  O  O396  1  0.36926173  0.48625906  0.99138537  1
  O  O397  1  0.37125508  0.99559622  0.49712640  1
  O  O398  1  0.37747048  0.98805077  0.99542656  1
  O  O399  1  0.88488287  0.50377192  0.48721659  1
  O  O400  1  0.87713148  0.49282240  0.99453548  1
  O  O401  1  0.87810741  0.98975323  0.49593571  1
  O  O402  1  0.87251903  0.99241688  0.99436753  1
  O  O403  1  0.12152493  0.01369670  -0.00638512  1
  O  O404  1  0.11848629  0.00583173  0.51118859  1
  O  O405  1  0.12401102  0.51278784  0.00575980  1
  O  O406  1  0.12267162  0.51352464  0.49823472  1
  O  O407  1  0.62588652  0.00375476  0.00977439  1
  O  O408  1  0.63221228  0.01515008  0.49780877  1
  O  O409  1  0.63087654  0.49479752  0.01445760  1
  O  O410  1  0.61993239  0.48902832  0.51140614  1
  O  O411  1  0.36903928  0.36987026  0.11735903  1
  O  O412  1  0.36471399  0.37011076  0.61707898  1
  O  O413  1  0.37045987  0.86742617  0.11804210  1
  O  O414  1  0.36202465  0.88362670  0.61256276  1
  O  O415  1  0.87442474  0.36943976  0.12148378  1
  O  O416  1  0.88187534  0.36497120  0.62603055  1
  O  O417  1  0.87615310  0.86505966  0.11939441  1
  O  O418  1  0.86263514  0.87383403  0.61695721  1
  O  O419  1  0.13125284  0.13141362  0.37888508  1
  O  O420  1  0.13097219  0.13148896  0.88133255  1
  O  O421  1  0.12946768  0.63271026  0.38083604  1
  O  O422  1  0.12224980  0.63158169  0.88981136  1
  O  O423  1  0.62956105  0.13481031  0.38470670  1
  O  O424  1  0.62957644  0.13100066  0.87932332  1
  O  O425  1  0.63510252  0.61860146  0.37233100  1
  O  O426  1  0.61892671  0.61839756  0.87296600  1
