# generated using pymatgen
data_V85Zn86O256
_symmetry_space_group_name_H-M   'P 1'
_cell_length_a   16.97105542
_cell_length_b   16.94323884
_cell_length_c   16.96369830
_cell_angle_alpha   89.99580868
_cell_angle_beta   90.07573776
_cell_angle_gamma   89.92898886
_symmetry_Int_Tables_number   1
_chemical_formula_structural   V85Zn86O256
_chemical_formula_sum   'V85 Zn86 O256'
_cell_volume   4877.81258967
_cell_formula_units_Z   1
loop_
 _symmetry_equiv_pos_site_id
 _symmetry_equiv_pos_as_xyz
  1  'x, y, z'
loop_
 _atom_site_type_symbol
 _atom_site_label
 _atom_site_symmetry_multiplicity
 _atom_site_fract_x
 _atom_site_fract_y
 _atom_site_fract_z
 _atom_site_occupancy
  V  V0  1  0.49800941  0.00104881  0.51150159  1
  V  V1  1  0.49878687  0.12713605  0.12751457  1
  V  V2  1  0.87250579  0.12680049  0.24546271  1
  V  V3  1  0.62384884  0.49048957  0.62076145  1
  V  V4  1  0.86202474  0.87728492  0.50067838  1
  V  V5  1  0.25132597  0.75135531  0.00262188  1
  V  V6  1  0.25191896  0.12814001  0.37280529  1
  V  V7  1  0.25013443  0.25738060  0.50594133  1
  V  V8  1  0.50132091  0.86719565  0.37923877  1
  V  V9  1  0.61780892  0.37734007  0.25366556  1
  V  V10  1  0.13025932  0.00264056  0.13238088  1
  V  V11  1  0.62481897  0.86343777  0.25565866  1
  V  V12  1  0.36395163  0.50281715  0.36518139  1
  V  V13  1  -0.00081053  0.00310829  0.49710578  1
  V  V14  1  0.87721432  0.36803485  0.50487010  1
  V  V15  1  0.12445325  0.37827654  0.24815996  1
  V  V16  1  0.63060248  0.00421741  0.62298542  1
  V  V17  1  0.37845389  0.75768823  0.63124391  1
  V  V18  1  -0.00436441  0.37892069  0.37235446  1
  V  V19  1  0.24936791  0.12710310  0.87306622  1
  V  V20  1  0.00296645  0.25187879  0.74709749  1
  V  V21  1  0.62147900  0.12742272  0.50012338  1
  V  V22  1  0.37347695  0.37688722  0.00099570  1
  V  V23  1  0.54028951  0.72327206  0.77410729  1
  V  V24  1  -0.00989471  0.13101337  0.62505419  1
  V  V25  1  0.37595469  -0.00028367  0.37501326  1
  V  V26  1  0.50198274  0.49619641  0.49259229  1
  V  V27  1  0.75520285  0.36354799  0.62706878  1
  V  V28  1  0.62340433  0.87777703  0.74155193  1
  V  V29  1  0.00208711  0.74986695  0.74987284  1
  V  V30  1  0.86535389  0.62884137  0.74683864  1
  V  V31  1  0.11990579  0.62730860  0.00415186  1
  V  V32  1  0.49837306  0.62104766  0.13799105  1
  V  V33  1  0.37895158  0.37630252  0.49778655  1
  V  V34  1  0.37564787  0.62448662  0.74340815  1
  V  V35  1  0.63287785  0.49913256  0.12226447  1
  V  V36  1  0.75131087  0.49821706  0.25688840  1
  V  V37  1  0.12552548  0.12955212  0.50041956  1
  V  V38  1  0.12327453  0.12917606  -0.00642445  1
  V  V39  1  0.86034300  0.25781081  0.11521607  1
  V  V40  1  0.36927640  0.12167603  0.25035518  1
  V  V41  1  0.12972967  0.49343510  0.62294100  1
  V  V42  1  0.49932969  0.50695180  0.00121728  1
  V  V43  1  0.37177521  0.25062645  0.12677808  1
  V  V44  1  0.24778988  0.38151386  0.12993889  1
  V  V45  1  0.12624813  0.87507226  0.75664175  1
  V  V46  1  0.50386448  0.24625490  0.75382380  1
  V  V47  1  0.87516045  0.00002347  0.37076657  1
  V  V48  1  0.37765240  -0.00596896  0.87381123  1
  V  V49  1  0.52358053  0.64147415  0.60751603  1
  V  V50  1  0.62318282  0.00114549  0.12701168  1
  V  V51  1  0.24480929  0.25312505  -0.00545830  1
  V  V52  1  0.74619957  0.12919707  0.88249750  1
  V  V53  1  -0.00429998  0.50457549  0.00183114  1
  V  V54  1  -0.00350087  0.25196121  0.24563446  1
  V  V55  1  0.87739896  0.86830939  -0.00029091  1
  V  V56  1  0.75302455  0.86298904  0.12499699  1
  V  V57  1  0.00631637  0.36895662  0.87734011  1
  V  V58  1  0.37620387  0.25448915  0.62680388  1
  V  V59  1  0.12041849  0.75314823  0.87828131  1
  V  V60  1  0.25149271  0.49112836  0.74403877  1
  V  V61  1  0.74722839  -0.00100507  0.24834338  1
  V  V62  1  0.37996559  0.12232322  0.74253176  1
  V  V63  1  -0.00103487  0.12651139  0.12176213  1
  V  V64  1  0.24813615  0.64268624  0.37201579  1
  V  V65  1  0.75497790  -0.00242071  0.74794726  1
  V  V66  1  0.20024664  0.81644486  0.57090811  1
  V  V67  1  0.25061749  -0.00247626  0.74804864  1
  V  V68  1  0.88009715  -0.00301894  0.87400938  1
  V  V69  1  0.12904693  0.00403171  0.62432295  1
  V  V70  1  0.87075695  0.75338702  0.61430228  1
  V  V71  1  0.37515534  0.74485327  0.13455073  1
  V  V72  1  0.62032073  0.25606360  0.37712129  1
  V  V73  1  0.87500081  0.50624698  0.86947357  1
  V  V74  1  0.37567114  0.49812100  0.87336644  1
  V  V75  1  0.12346974  0.50683610  0.13031420  1
  V  V76  1  0.74288252  0.64345664  0.39018579  1
  V  V77  1  0.00470521  -0.00700094  -0.00385468  1
  V  V78  1  0.25396897  0.88009140  0.13347492  1
  V  V79  1  0.12500797  0.25195506  0.37300677  1
  V  V80  1  0.54959535  0.82855044  0.91381964  1
  V  V81  1  0.00184054  0.50595683  0.49876675  1
  V  V82  1  0.50309414  0.00518427  -0.00400891  1
  V  V83  1  0.62892316  0.36675937  0.76049228  1
  V  V84  1  0.00878900  0.74092874  0.25138356  1
  Zn  Zn85  1  0.87319875  0.62787146  0.24561620  1
  Zn  Zn86  1  0.74888451  0.50387936  0.74245212  1
  Zn  Zn87  1  0.37730379  0.87334125  -0.00110731  1
  Zn  Zn88  1  0.50754468  0.36898633  0.88225896  1
  Zn  Zn89  1  0.87292306  0.13060037  0.74949064  1
  Zn  Zn90  1  0.86422830  0.37920170  -0.00148536  1
  Zn  Zn91  1  0.69549443  0.30452975  0.94821872  1
  Zn  Zn92  1  0.24883259  0.62385047  0.87438216  1
  Zn  Zn93  1  0.62580884  0.13645355  0.00022731  1
  Zn  Zn94  1  0.49544889  0.25428357  0.25768342  1
  Zn  Zn95  1  0.49844839  0.74059079  0.26279083  1
  Zn  Zn96  1  0.68868036  0.68870970  -0.08331076  1
  Zn  Zn97  1  0.87377486  0.50643456  0.37655767  1
  Zn  Zn98  1  0.13687106  0.63188411  0.50054978  1
  Zn  Zn99  1  0.00789594  0.86931482  0.37398048  1
  Zn  Zn100  1  0.13147118  0.36833403  0.75151901  1
  Zn  Zn101  1  0.75372420  0.24691874  0.49979855  1
  Zn  Zn102  1  0.00256035  0.62410708  0.62283839  1
  Zn  Zn103  1  0.88617665  0.74403866  0.12390340  1
  Zn  Zn104  1  0.37282086  0.87290234  0.50493459  1
  Zn  Zn105  1  0.74659218  0.12794949  0.37321155  1
  Zn  Zn106  1  0.12758938  -0.12872723  0.25658519  1
  Zn  Zn107  1  0.18725167  0.18986934  0.18429820  1
  Zn  Zn108  1  0.18651155  0.18923109  0.68824837  1
  Zn  Zn109  1  0.19062312  0.68539068  0.19375001  1
  Zn  Zn110  1  0.18493472  0.67426615  0.69189267  1
  Zn  Zn111  1  0.68457157  0.19002801  0.18890535  1
  Zn  Zn112  1  0.68857684  0.18294668  0.68800705  1
  Zn  Zn113  1  0.68706242  0.67962113  0.18851247  1
  Zn  Zn114  1  0.68613136  0.69079198  0.65000570  1
  Zn  Zn115  1  0.31418949  0.31661882  0.31415095  1
  Zn  Zn116  1  0.31636533  0.31243848  0.81389460  1
  Zn  Zn117  1  0.31472694  0.81564796  0.31277899  1
  Zn  Zn118  1  0.30762656  0.81155504  0.81190764  1
  Zn  Zn119  1  0.80676540  0.31461233  0.31076148  1
  Zn  Zn120  1  0.82205687  0.31364730  0.81137842  1
  Zn  Zn121  1  0.81964026  0.80968989  0.31261397  1
  Zn  Zn122  1  0.81381213  0.80994473  0.80465277  1
  Zn  Zn123  1  0.18801813  0.43840194  0.43788111  1
  Zn  Zn124  1  0.18686859  0.44187413  0.93765232  1
  Zn  Zn125  1  0.18985918  0.94384855  0.43065679  1
  Zn  Zn126  1  0.19001745  0.93747346  0.93931728  1
  Zn  Zn127  1  0.68945836  0.43570775  0.43862590  1
  Zn  Zn128  1  0.71138657  0.49185840  0.95534212  1
  Zn  Zn129  1  0.68485160  0.93864231  0.43428772  1
  Zn  Zn130  1  0.72047201  0.89041555  0.91411829  1
  Zn  Zn131  1  0.31351795  0.06238116  0.05944836  1
  Zn  Zn132  1  0.31185018  0.06489507  0.56142650  1
  Zn  Zn133  1  0.31033384  0.56570124  0.06540158  1
  Zn  Zn134  1  0.31435835  0.56514779  0.55991559  1
  Zn  Zn135  1  0.81401951  0.05705812  0.06143581  1
  Zn  Zn136  1  0.80854136  0.06324345  0.56018517  1
  Zn  Zn137  1  0.80511726  0.58874633  0.05486032  1
  Zn  Zn138  1  0.81410539  0.55824525  0.56142767  1
  Zn  Zn139  1  0.43920645  0.43616991  0.18873563  1
  Zn  Zn140  1  0.44258959  0.43446402  0.68262582  1
  Zn  Zn141  1  0.43704506  0.93639351  0.19055304  1
  Zn  Zn142  1  0.44658249  0.93128329  0.69566928  1
  Zn  Zn143  1  0.93463937  0.44085728  0.18261389  1
  Zn  Zn144  1  0.94107304  0.43702035  0.68617212  1
  Zn  Zn145  1  0.94254657  0.93127082  0.18700511  1
  Zn  Zn146  1  0.94091238  0.93677982  0.68713542  1
  Zn  Zn147  1  0.06216290  0.06297088  0.31182462  1
  Zn  Zn148  1  0.06182056  0.06482004  0.81204180  1
  Zn  Zn149  1  0.07011953  0.56926048  0.31601513  1
  Zn  Zn150  1  0.06310181  0.56364562  0.81291948  1
  Zn  Zn151  1  0.55893038  0.06140734  0.31616900  1
  Zn  Zn152  1  0.56466290  0.06263862  0.81224999  1
  Zn  Zn153  1  0.56743591  0.56409147  0.31993500  1
  Zn  Zn154  1  0.56424500  0.55345631  0.80844911  1
  Zn  Zn155  1  0.44089192  0.18744696  0.43990165  1
  Zn  Zn156  1  0.43473395  0.18665005  0.93570202  1
  Zn  Zn157  1  0.42567863  0.68480685  0.44225651  1
  Zn  Zn158  1  0.43202402  0.68030740  0.94202982  1
  Zn  Zn159  1  0.93645965  0.18721396  0.43269439  1
  Zn  Zn160  1  0.93395952  0.18719335  0.93537379  1
  Zn  Zn161  1  0.93419413  0.68636713  0.42707909  1
  Zn  Zn162  1  0.93912180  0.68721444  0.93296080  1
  Zn  Zn163  1  0.05890722  0.31448445  0.06047549  1
  Zn  Zn164  1  0.06216679  0.31605812  0.56404426  1
  Zn  Zn165  1  0.06458795  0.81426294  0.07126047  1
  Zn  Zn166  1  0.03854129  0.81721163  0.56202792  1
  Zn  Zn167  1  0.56030069  0.31660137  0.06844685  1
  Zn  Zn168  1  0.55939796  0.31031033  0.56679918  1
  Zn  Zn169  1  0.56379754  0.80970876  0.07783536  1
  Zn  Zn170  1  0.55938375  0.81539145  0.56829086  1
  O  O171  1  0.12227695  0.12112107  0.11299875  1
  O  O172  1  0.11759455  0.11917945  0.61861267  1
  O  O173  1  0.13184603  0.61707729  0.11701968  1
  O  O174  1  0.12254392  0.61290664  0.61813207  1
  O  O175  1  0.61352659  0.12031408  0.12768290  1
  O  O176  1  0.62594167  0.11378024  0.61677074  1
  O  O177  1  0.61362674  0.60964421  0.12906453  1
  O  O178  1  0.62176650  0.59568133  0.64619456  1
  O  O179  1  0.37193165  0.38311274  0.38863327  1
  O  O180  1  0.37698528  0.38646439  0.88103695  1
  O  O181  1  0.38076803  0.88492640  0.38028669  1
  O  O182  1  0.36722366  0.88970821  0.87495391  1
  O  O183  1  0.88635381  0.37597299  0.37779105  1
  O  O184  1  0.89132501  0.38598158  0.87342551  1
  O  O185  1  0.87731342  0.88943764  0.38043722  1
  O  O186  1  0.87422457  0.88889505  0.88362456  1
  O  O187  1  0.26840370  0.01360735  0.38561404  1
  O  O188  1  0.25616628  0.00623057  0.86889428  1
  O  O189  1  0.26211860  0.49641035  0.37418649  1
  O  O190  1  0.25984690  0.50211706  0.86951894  1
  O  O191  1  0.75576686  0.00108128  0.36187705  1
  O  O192  1  0.76159195  0.00349626  0.86658980  1
  O  O193  1  0.75178472  0.50008518  0.36517273  1
  O  O194  1  0.77259028  0.49748507  0.85575392  1
  O  O195  1  0.23911602  0.49057256  0.11832169  1
  O  O196  1  0.24439972  0.50322245  0.63282896  1
  O  O197  1  0.24288570  0.99222497  0.11598206  1
  O  O198  1  0.23632211  1.00776407  0.63027326  1
  O  O199  1  0.73451572  0.50537730  0.13358123  1
  O  O200  1  0.74389335  0.48581003  0.62497614  1
  O  O201  1  0.74609107  0.99520954  0.13653114  1
  O  O202  1  0.74341721  1.00510786  0.63447811  1
  O  O203  1  0.00280041  0.37259736  0.25555374  1
  O  O204  1  0.00413244  0.36984092  0.75973240  1
  O  O205  1  0.00675626  0.86906504  0.25391475  1
  O  O206  1  0.01571359  0.86380549  0.74213626  1
  O  O207  1  0.51210349  0.37319123  0.25057721  1
  O  O208  1  0.51017395  0.36540514  0.75103950  1
  O  O209  1  0.50845824  0.87502851  0.26105211  1
  O  O210  1  0.51869975  0.86366608  0.75600864  1
  O  O211  1  0.48848095  0.12531864  0.24339833  1
  O  O212  1  0.49067057  0.13105668  0.75393086  1
  O  O213  1  0.50198666  0.62339537  0.24286357  1
  O  O214  1  0.49345456  0.62649129  0.73801526  1
  O  O215  1  0.99232617  0.13139847  0.24259705  1
  O  O216  1  1.00049941  0.13129485  0.74046130  1
  O  O217  1  0.99868674  0.63578193  0.25573432  1
  O  O218  1  0.99832692  0.63899574  0.74810650  1
  O  O219  1  0.36701666  0.25599834  0.00677031  1
  O  O220  1  0.37077661  0.25393273  0.50648502  1
  O  O221  1  0.36603811  0.75129141  0.00784155  1
  O  O222  1  0.37986111  0.75351416  0.52563802  1
  O  O223  1  0.87704940  0.25190321  0.01216962  1
  O  O224  1  0.87679044  0.26326577  0.49361856  1
  O  O225  1  0.88801108  0.76525148  -0.00005434  1
  O  O226  1  0.88888770  0.76181154  0.50794459  1
  O  O227  1  0.13196494  0.24827838  0.49635668  1
  O  O228  1  0.13287272  0.24202323  1.00476848  1
  O  O229  1  0.13380364  0.76090064  0.51771956  1
  O  O230  1  0.12838007  0.74663773  0.99663384  1
  O  O231  1  0.62312060  0.24313853  0.49575015  1
  O  O232  1  0.61560575  0.24896462  1.00015027  1
  O  O233  1  0.60037372  0.71162246  0.56549759  1
  O  O234  1  0.60627967  0.76896549  0.97754727  1
  O  O235  1  0.49024388  0.23932932  0.12935803  1
  O  O236  1  0.48470239  0.25047923  0.63591809  1
  O  O237  1  0.49225255  0.73787749  0.12662912  1
  O  O238  1  0.48571277  0.74613094  0.64851185  1
  O  O239  1  0.99431189  0.24442451  0.12924909  1
  O  O240  1  1.00502386  0.24122423  0.63084431  1
  O  O241  1  1.00165633  0.75536804  0.14220205  1
  O  O242  1  0.99384574  0.74457189  0.63399721  1
  O  O243  1  0.00579192  0.25698847  0.36695889  1
  O  O244  1  -0.00127909  0.26401622  0.87307223  1
  O  O245  1  -0.00235918  0.75364748  0.36061429  1
  O  O246  1  0.01331249  0.75095539  0.86768369  1
  O  O247  1  0.51428965  0.24523050  0.37429301  1
  O  O248  1  0.48829368  0.25309833  0.85929520  1
  O  O249  1  0.48832848  0.76238889  0.38013203  1
  O  O250  1  0.48223593  0.75793992  0.86720349  1
  O  O251  1  0.24609658  0.13758717  0.49416020  1
  O  O252  1  0.24370350  0.13374930  0.99507740  1
  O  O253  1  0.25196611  0.61983529  0.48420256  1
  O  O254  1  0.24090353  0.63711503  0.99986729  1
  O  O255  1  0.73667058  0.12648614  0.49644248  1
  O  O256  1  0.74904318  0.11630680  0.98588656  1
  O  O257  1  0.75543559  0.62453130  0.48964777  1
  O  O258  1  0.72766887  0.60367216  0.97850381  1
  O  O259  1  0.25232588  0.37006283  0.00630671  1
  O  O260  1  0.25553262  0.36182780  0.49731079  1
  O  O261  1  0.24993568  0.86341454  0.00864181  1
  O  O262  1  0.25275998  0.87878222  0.50912897  1
  O  O263  1  0.75280178  0.39088513  -0.01516091  1
  O  O264  1  0.76103309  0.37261352  0.50747416  1
  O  O265  1  0.76719519  0.89160467  0.01655278  1
  O  O266  1  0.76297730  0.88492830  0.49783135  1
  O  O267  1  0.11629916  0.49513076  0.23662198  1
  O  O268  1  0.13540278  0.50152400  0.74296643  1
  O  O269  1  0.12484740  1.00866245  0.23405298  1
  O  O270  1  0.12599361  0.99273722  0.74254499  1
  O  O271  1  0.63032891  0.49464694  0.24653598  1
  O  O272  1  0.62747387  0.48093131  0.74498771  1
  O  O273  1  0.63093480  0.99381694  0.24715998  1
  O  O274  1  0.63112226  0.99797890  0.74078023  1
  O  O275  1  0.37958365  0.00939268  0.26177599  1
  O  O276  1  0.37401741  0.00442794  0.75409475  1
  O  O277  1  0.37850562  0.49079805  0.26804051  1
  O  O278  1  0.37314136  0.50340619  0.75349910  1
  O  O279  1  0.86904059  0.00334069  0.25414403  1
  O  O280  1  0.87207369  -0.00079107  0.75589306  1
  O  O281  1  0.86014896  0.49650966  0.24934111  1
  O  O282  1  0.88283991  0.51441130  0.75034606  1
  O  O283  1  0.11478573  0.37141575  0.36924453  1
  O  O284  1  0.11002680  0.38345093  0.87393239  1
  O  O285  1  0.11999886  0.89181549  0.36817561  1
  O  O286  1  0.12854382  0.86772741  0.86815789  1
  O  O287  1  0.62714758  0.36732998  0.36851926  1
  O  O288  1  0.62674212  0.36841096  0.86295505  1
  O  O289  1  0.61428587  0.87867843  0.36780667  1
  O  O290  1  0.61696316  0.89230218  0.86486866  1
  O  O291  1  0.37789359  0.12811705  0.13248985  1
  O  O292  1  0.37116700  0.12963539  0.63807966  1
  O  O293  1  0.38258411  0.63316736  0.12315227  1
  O  O294  1  0.38065426  0.63257284  0.63265845  1
  O  O295  1  0.87936529  0.13224891  0.12732730  1
  O  O296  1  0.88761572  0.11927146  0.62503391  1
  O  O297  1  0.86888834  0.63159924  0.12940854  1
  O  O298  1  0.88057660  0.63659525  0.62636379  1
  O  O299  1  0.25339083  0.25816050  0.11388742  1
  O  O300  1  0.26162102  0.24395601  0.61746303  1
  O  O301  1  0.25679643  0.75561163  0.12071286  1
  O  O302  1  0.25417333  0.75112228  0.63005975  1
  O  O303  1  0.76205366  0.24657442  0.12534428  1
  O  O304  1  0.74776894  0.25912264  0.62152616  1
  O  O305  1  0.74476989  0.76132278  0.12587642  1
  O  O306  1  0.77232971  0.75711305  0.62113869  1
  O  O307  1  0.24394358  0.24696510  0.38169565  1
  O  O308  1  0.25572213  0.24659385  0.88783553  1
  O  O309  1  0.26199214  0.74234689  0.38016857  1
  O  O310  1  0.24010968  0.74835131  0.88476606  1
  O  O311  1  0.73734779  0.24823267  0.37756472  1
  O  O312  1  0.75846761  0.23331316  0.87294519  1
  O  O313  1  0.75165373  0.74365749  0.37682141  1
  O  O314  1  0.74716732  0.77881212  0.88600099  1
  O  O315  1  0.00776177  0.12019318  0.00223064  1
  O  O316  1  0.00293975  0.11981711  0.50507648  1
  O  O317  1  0.01210525  0.61962933  -0.00407120  1
  O  O318  1  0.00158933  0.61302329  0.49487531  1
  O  O319  1  0.49509470  0.12043147  0.01027089  1
  O  O320  1  0.51146425  0.11519975  0.49788227  1
  O  O321  1  0.49595186  0.61166649  0.00913244  1
  O  O322  1  0.49008372  0.61471968  0.51131801  1
  O  O323  1  0.49032777  0.38201444  0.50451193  1
  O  O324  1  0.48772812  0.38590829  1.00263478  1
  O  O325  1  0.49885164  0.88228258  0.49624858  1
  O  O326  1  0.49968079  0.88264668  0.99543514  1
  O  O327  1  0.99639159  0.38179733  0.49125120  1
  O  O328  1  0.99719755  0.38384483  0.98928993  1
  O  O329  1  0.99105866  0.89317316  0.49455366  1
  O  O330  1  0.99709514  0.88822730  1.00675107  1
  O  O331  1  0.49112298  0.50787612  0.38894736  1
  O  O332  1  0.49457561  0.49595017  0.88373685  1
  O  O333  1  0.49141734  0.99285723  0.38687421  1
  O  O334  1  0.49037456  1.00908152  0.88389354  1
  O  O335  1  1.00014689  0.49329095  0.37974903  1
  O  O336  1  0.99644294  0.49529669  0.88213364  1
  O  O337  1  0.98989687  1.00826317  0.38294131  1
  O  O338  1  0.99450344  1.00549539  0.88459348  1
  O  O339  1  0.00846385  0.00802006  0.11634513  1
  O  O340  1  0.01021377  0.00684866  0.61833980  1
  O  O341  1  0.00810284  0.49396203  0.10933447  1
  O  O342  1  0.00802416  0.50153607  0.61494971  1
  O  O343  1  0.49912971  0.01010478  0.12039269  1
  O  O344  1  0.50488349  -0.00395436  0.61605236  1
  O  O345  1  0.50158642  0.50610436  0.12080931  1
  O  O346  1  0.50798662  0.50397715  0.61463958  1
  O  O347  1  0.24176532  0.36785228  0.23679058  1
  O  O348  1  0.25040598  0.38634768  0.75565309  1
  O  O349  1  0.25055535  0.87480593  0.23711398  1
  O  O350  1  0.23638633  0.88209353  0.75044497  1
  O  O351  1  0.73793387  0.38980643  0.25282988  1
  O  O352  1  0.74555891  0.36967210  0.74313057  1
  O  O353  1  0.74396590  0.88040558  0.24542310  1
  O  O354  1  0.74055957  0.88987842  0.75191795  1
  O  O355  1  0.26151552  0.13164779  0.25426889  1
  O  O356  1  0.25543945  0.11858241  0.75523713  1
  O  O357  1  0.24967466  0.62606775  0.27010168  1
  O  O358  1  0.26006065  0.61085319  0.75310981  1
  O  O359  1  0.75500956  0.11604866  0.24897223  1
  O  O360  1  0.75336737  0.11468093  0.75883035  1
  O  O361  1  0.74691594  0.61014648  0.25730273  1
  O  O362  1  0.76404155  0.62855447  0.73619170  1
  O  O363  1  0.37358377  0.12192074  0.36836464  1
  O  O364  1  0.36720288  0.11589158  0.86562204  1
  O  O365  1  0.36524862  0.61056813  0.37862306  1
  O  O366  1  0.37564855  0.61271323  0.86507943  1
  O  O367  1  0.87096635  0.11627483  0.36650861  1
  O  O368  1  0.86741162  0.11345743  0.87426437  1
  O  O369  1  0.85967279  0.62252812  0.36776489  1
  O  O370  1  0.88247311  0.62047967  0.85991439  1
  O  O371  1  0.13025879  0.38253973  0.12735823  1
  O  O372  1  0.12248065  0.38825723  0.63016088  1
  O  O373  1  0.13623795  0.88706462  0.12740148  1
  O  O374  1  0.13084811  0.87784312  0.62593348  1
  O  O375  1  0.61846853  0.39060520  0.13726868  1
  O  O376  1  0.63256875  0.37671439  0.63219177  1
  O  O377  1  0.63212458  0.88293772  0.13380790  1
  O  O378  1  0.62229073  0.89187854  0.62977426  1
  O  O379  1  0.11716307  0.25681462  0.25230603  1
  O  O380  1  0.11308795  0.25096328  0.74986591  1
  O  O381  1  0.11470085  0.75131800  0.24692631  1
  O  O382  1  0.12302169  0.75364807  0.75783392  1
  O  O383  1  0.62343986  0.25952086  0.25743573  1
  O  O384  1  0.61378132  0.25255180  0.74167609  1
  O  O385  1  0.62004325  0.76127016  0.24367973  1
  O  O386  1  0.63073779  0.76187710  0.73197645  1
  O  O387  1  0.37553921  0.24430177  0.24475860  1
  O  O388  1  0.37736290  0.24264867  0.74305625  1
  O  O389  1  0.38061068  0.75642380  0.23754716  1
  O  O390  1  0.36242760  0.73557843  0.74424116  1
  O  O391  1  0.87724218  0.24709023  0.24096523  1
  O  O392  1  0.89498623  0.24606084  0.75423521  1
  O  O393  1  0.88835730  0.75110147  0.24528536  1
  O  O394  1  0.88453477  0.74883208  0.73991340  1
  O  O395  1  0.38158194  0.49032227  0.49681742  1
  O  O396  1  0.37760499  0.49804805  0.99200071  1
  O  O397  1  0.38358525  0.99898114  0.49857011  1
  O  O398  1  0.38440727  0.99876816  0.99193875  1
  O  O399  1  0.88560679  0.48832360  0.49752855  1
  O  O400  1  0.88439057  0.50674046  0.98823381  1
  O  O401  1  0.88055270  0.99947964  0.49208001  1
  O  O402  1  0.88760741  0.99502348  0.99431764  1
  O  O403  1  0.12041565  0.00735035  0.00561511  1
  O  O404  1  0.11805813  0.00880402  0.50663898  1
  O  O405  1  0.11962745  0.51013285  0.00655304  1
  O  O406  1  0.11737874  0.49647986  0.50644395  1
  O  O407  1  0.60813890  0.00774794  0.01037842  1
  O  O408  1  0.61920737  0.00587639  0.50486447  1
  O  O409  1  0.61120373  0.49011313  0.01676316  1
  O  O410  1  0.61552807  0.48925279  0.50914722  1
  O  O411  1  0.36513540  0.37296530  0.12142248  1
  O  O412  1  0.37472055  0.36619031  0.61390937  1
  O  O413  1  0.37040439  0.86971141  0.12085744  1
  O  O414  1  0.37610239  0.86151556  0.63499782  1
  O  O415  1  0.87696758  0.36121061  0.12055622  1
  O  O416  1  0.86871651  0.37740337  0.61701121  1
  O  O417  1  0.86842946  0.87283848  0.11854886  1
  O  O418  1  0.88610274  0.86476526  0.61470338  1
  O  O419  1  0.13016331  0.13171089  0.38035337  1
  O  O420  1  0.13199415  0.12051600  0.88674976  1
  O  O421  1  0.14165241  0.62567007  0.38374337  1
  O  O422  1  0.12805644  0.63346631  0.88423041  1
  O  O423  1  0.62570532  0.13017514  0.38234859  1
  O  O424  1  0.64316922  0.11831810  0.87626982  1
  O  O425  1  0.64315756  0.62561085  0.37580533  1
  O  O426  1  0.59940547  0.65708053  0.84150686  1
