# generated using pymatgen
data_V85Zn86O256
_symmetry_space_group_name_H-M   'P 1'
_cell_length_a   16.92244989
_cell_length_b   16.92315307
_cell_length_c   16.92644504
_cell_angle_alpha   90.01588562
_cell_angle_beta   89.97289110
_cell_angle_gamma   90.05222255
_symmetry_Int_Tables_number   1
_chemical_formula_structural   V85Zn86O256
_chemical_formula_sum   'V85 Zn86 O256'
_cell_volume   4847.41306691
_cell_formula_units_Z   1
loop_
 _symmetry_equiv_pos_site_id
 _symmetry_equiv_pos_as_xyz
  1  'x, y, z'
loop_
 _atom_site_type_symbol
 _atom_site_label
 _atom_site_symmetry_multiplicity
 _atom_site_fract_x
 _atom_site_fract_y
 _atom_site_fract_z
 _atom_site_occupancy
  V  V0  1  0.00260254  0.62649268  0.13143190  1
  V  V1  1  0.75362806  0.12273308  0.87762010  1
  V  V2  1  0.48863715  0.63030820  0.12276278  1
  V  V3  1  0.87229635  0.50093735  0.87316407  1
  V  V4  1  0.74995877  0.49362640  0.75197459  1
  V  V5  1  0.12597666  0.50528458  0.63462944  1
  V  V6  1  0.25486769  0.75152342  0.49316236  1
  V  V7  1  0.50024604  0.87859926  0.87828491  1
  V  V8  1  0.11442716  0.87315557  0.75024171  1
  V  V9  1  -0.00269023  -0.01452708  -0.00111277  1
  V  V10  1  0.25108127  0.62463035  0.86319672  1
  V  V11  1  -0.00576786  0.12097528  0.12736245  1
  V  V12  1  0.48180818  0.74664416  0.25068048  1
  V  V13  1  0.87753070  0.00426307  0.36773909  1
  V  V14  1  0.12694813  0.74202746  0.37087858  1
  V  V15  1  0.63118687  0.50332121  0.12991323  1
  V  V16  1  0.36918672  0.49391434  0.87429771  1
  V  V17  1  0.00362998  0.13212746  0.62807137  1
  V  V18  1  0.62449024  0.87638610  0.74908596  1
  V  V19  1  0.11326045  0.75377176  0.87089134  1
  V  V20  1  0.87943115  -0.01173224  0.87809284  1
  V  V21  1  0.87174993  0.24502114  0.13182230  1
  V  V22  1  0.56773038  0.17418186  0.55961554  1
  V  V23  1  0.37838488  0.74364946  0.62167966  1
  V  V24  1  0.00214743  0.00156299  0.50020102  1
  V  V25  1  0.62035007  -0.00281116  0.12784065  1
  V  V26  1  0.87780000  0.86798782  0.50141730  1
  V  V27  1  0.25297069  0.25384122  -0.00105112  1
  V  V28  1  0.24857345  0.12576180  0.87453406  1
  V  V29  1  0.12628500  0.62440349  0.50006270  1
  V  V30  1  0.12768621  0.24883932  0.37573553  1
  V  V31  1  0.75366194  0.24487536  0.50370198  1
  V  V32  1  -0.01200805  0.63748861  0.63571159  1
  V  V33  1  0.74115275  0.62593849  0.37078063  1
  V  V34  1  0.49715658  0.37333097  0.88454393  1
  V  V35  1  0.12822420  0.37500162  0.24497133  1
  V  V36  1  0.87332038  0.62789284  0.24979287  1
  V  V37  1  0.25599366  0.87334295  0.62165691  1
  V  V38  1  0.12322971  0.86883315  0.24857656  1
  V  V39  1  0.88277851  0.13222246  0.75435724  1
  V  V40  1  0.63226152  0.38013659  0.25294774  1
  V  V41  1  0.87400766  0.37404444  0.00337039  1
  V  V42  1  0.37880847  0.00091188  0.87735411  1
  V  V43  1  0.49690276  0.37860958  0.37200320  1
  V  V44  1  0.00052585  0.49718177  -0.00029688  1
  V  V45  1  0.62230642  0.74995782  0.87890179  1
  V  V46  1  0.63142901  0.62378608  -0.00003193  1
  V  V47  1  0.62356409  0.51364534  0.62808077  1
  V  V48  1  0.12607519  0.62399192  -0.00316420  1
  V  V49  1  0.62715379  0.86318650  0.25731911  1
  V  V50  1  0.25446391  0.38066912  0.63386509  1
  V  V51  1  0.49298213  -0.01180621  0.50267406  1
  V  V52  1  0.50202993  0.73989060  0.74546556  1
  V  V53  1  0.26340715  0.37675621  0.12256939  1
  V  V54  1  0.25220318  0.25075305  0.50597322  1
  V  V55  1  0.38489946  0.13981480  0.73996535  1
  V  V56  1  0.49830939  0.51122574  0.50486306  1
  V  V57  1  0.75327197  0.87579150  0.12103514  1
  V  V58  1  0.25311050  0.51158613  0.25128410  1
  V  V59  1  0.86917954  0.50035507  0.36878612  1
  V  V60  1  0.87524759  0.37660840  0.50179167  1
  V  V61  1  0.25260222  -0.00296654  0.74926612  1
  V  V62  1  0.37280357  0.37466588  0.50309481  1
  V  V63  1  -0.00022846  0.37589754  0.37409644  1
  V  V64  1  0.12610720  -0.00124025  0.12305398  1
  V  V65  1  0.25627169  0.74879225  -0.00015029  1
  V  V66  1  0.25054901  -0.00022641  0.25117728  1
  V  V67  1  0.37868678  0.87408687  0.00517115  1
  V  V68  1  0.62137013  0.24333395  0.37435192  1
  V  V69  1  0.76930897  0.64997399  0.84717752  1
  V  V70  1  0.88134076  0.75434787  0.12262889  1
  V  V71  1  0.49751540  0.12219626  0.12136306  1
  V  V72  1  0.37014895  0.51318721  0.37181814  1
  V  V73  1  0.37548764  0.12605636  0.25039787  1
  V  V74  1  0.61901565  0.11771512  -0.00112071  1
  V  V75  1  0.61431875  0.37062134  0.74878980  1
  V  V76  1  0.61808739  0.24704575  0.87257265  1
  V  V77  1  0.11592415  0.36697925  0.74869511  1
  V  V78  1  0.62436287  0.00006633  0.61873402  1
  V  V79  1  0.74300416  0.75164847  0.49279448  1
  V  V80  1  0.00020052  0.86663574  0.37269218  1
  V  V81  1  0.75527436  0.87397854  0.62294391  1
  V  V82  1  -0.00092993  0.24626369  0.24869896  1
  V  V83  1  0.74828436  0.24983879  0.00424028  1
  V  V84  1  0.75379919  0.12593380  0.36991172  1
  Zn  Zn85  1  0.75086992  0.37459649  0.62571397  1
  Zn  Zn86  1  0.49726893  0.49677529  0.00319666  1
  Zn  Zn87  1  0.37932447  0.25256551  0.11867851  1
  Zn  Zn88  1  0.62193346  0.63111694  0.49951587  1
  Zn  Zn89  1  0.75050761  0.00259081  0.24991966  1
  Zn  Zn90  1  0.12357022  0.12392210  -0.00175174  1
  Zn  Zn91  1  0.12761630  0.49927985  0.12324592  1
  Zn  Zn92  1  0.75375728  0.75296313  0.00365218  1
  Zn  Zn93  1  0.11802541  0.24577447  0.87336138  1
  Zn  Zn94  1  0.25694510  0.86916316  0.12622619  1
  Zn  Zn95  1  0.49805388  0.25086897  0.24784371  1
  Zn  Zn96  1  -0.00727883  0.36597533  0.86706424  1
  Zn  Zn97  1  0.75209557  0.00168045  0.74715625  1
  Zn  Zn98  1  0.37472998  -0.00437994  0.37972718  1
  Zn  Zn99  1  0.12770764  0.12473221  0.50209527  1
  Zn  Zn100  1  0.75193349  0.38044909  0.13071812  1
  Zn  Zn101  1  -0.00025864  0.50373429  0.50118602  1
  Zn  Zn102  1  0.88021368  0.25638686  0.63440863  1
  Zn  Zn103  1  0.25142329  0.12428637  0.37721887  1
  Zn  Zn104  1  0.12644485  -0.00065105  0.62459612  1
  Zn  Zn105  1  0.49775199  0.86554289  0.37925003  1
  Zn  Zn106  1  0.37732084  0.61804847  0.74441481  1
  Zn  Zn107  1  0.18887155  0.18691860  0.18411851  1
  Zn  Zn108  1  0.19221883  0.18692310  0.68617961  1
  Zn  Zn109  1  0.18889277  0.68862537  0.18296027  1
  Zn  Zn110  1  0.18481239  0.69097566  0.68542682  1
  Zn  Zn111  1  0.68419153  0.18764845  0.19078093  1
  Zn  Zn112  1  0.69661109  0.19057422  0.69432489  1
  Zn  Zn113  1  0.69071939  0.68685519  0.18684098  1
  Zn  Zn114  1  0.70758804  0.69421483  0.69082843  1
  Zn  Zn115  1  0.31253656  0.31466799  0.31185491  1
  Zn  Zn116  1  0.30984448  0.31330125  0.81269211  1
  Zn  Zn117  1  0.31297188  0.81674589  0.31595648  1
  Zn  Zn118  1  0.31324245  0.80995696  0.81117206  1
  Zn  Zn119  1  0.81151373  0.31087874  0.31395108  1
  Zn  Zn120  1  0.80883137  0.31237678  0.81739586  1
  Zn  Zn121  1  0.81408141  0.80966547  0.30888193  1
  Zn  Zn122  1  0.81117021  0.81627912  0.80972856  1
  Zn  Zn123  1  0.18833738  0.43963395  0.43793172  1
  Zn  Zn124  1  0.18846643  0.43563061  0.93454434  1
  Zn  Zn125  1  0.18777614  0.93392728  0.43619263  1
  Zn  Zn126  1  0.18863524  0.93456830  0.93664694  1
  Zn  Zn127  1  0.68778344  0.43907612  0.43881129  1
  Zn  Zn128  1  0.68714383  0.43773317  0.93971179  1
  Zn  Zn129  1  0.68511978  0.94067951  0.43767796  1
  Zn  Zn130  1  0.68879511  0.93859047  0.93933009  1
  Zn  Zn131  1  0.31238149  0.06065171  0.06027210  1
  Zn  Zn132  1  0.31381848  0.06489817  0.56515522  1
  Zn  Zn133  1  0.31126709  0.55827138  0.05461101  1
  Zn  Zn134  1  0.30866699  0.56470920  0.56028349  1
  Zn  Zn135  1  0.81210100  0.05911708  0.06185344  1
  Zn  Zn136  1  0.81729486  0.06280632  0.56081534  1
  Zn  Zn137  1  0.81207331  0.56559399  0.06084163  1
  Zn  Zn138  1  0.81053673  0.56286379  0.56149736  1
  Zn  Zn139  1  0.44105504  0.44503945  0.18947984  1
  Zn  Zn140  1  0.43858428  0.43737576  0.69104646  1
  Zn  Zn141  1  0.43974890  0.93668641  0.19286708  1
  Zn  Zn142  1  0.43751314  0.93556783  0.68803218  1
  Zn  Zn143  1  0.93782705  0.43867864  0.18752994  1
  Zn  Zn144  1  0.93864454  0.44751104  0.68477556  1
  Zn  Zn145  1  0.93944532  0.93503988  0.18963954  1
  Zn  Zn146  1  0.93616690  0.94509752  0.68682882  1
  Zn  Zn147  1  0.06334319  0.06217345  0.31114633  1
  Zn  Zn148  1  0.06302949  0.05876200  0.81170545  1
  Zn  Zn149  1  0.06134625  0.55963669  0.31202162  1
  Zn  Zn150  1  0.05958602  0.56276588  0.81079719  1
  Zn  Zn151  1  0.56196922  0.05968450  0.31388512  1
  Zn  Zn152  1  0.56124638  0.06170397  0.80720124  1
  Zn  Zn153  1  0.55743821  0.56572208  0.30953360  1
  Zn  Zn154  1  0.56496024  0.56001888  0.81718297  1
  Zn  Zn155  1  0.43099437  0.18828457  0.43429504  1
  Zn  Zn156  1  0.43478233  0.18563248  0.93601453  1
  Zn  Zn157  1  0.43612726  0.69082048  0.43489570  1
  Zn  Zn158  1  0.43753507  0.68407275  0.93705316  1
  Zn  Zn159  1  0.93825432  0.18757472  0.43884938  1
  Zn  Zn160  1  0.94085580  0.18508461  0.94343114  1
  Zn  Zn161  1  0.93787477  0.68606834  0.44107516  1
  Zn  Zn162  1  0.93870358  0.68717694  0.94321572  1
  Zn  Zn163  1  0.06487526  0.30959866  0.05887345  1
  Zn  Zn164  1  0.06378419  0.31482732  0.56262013  1
  Zn  Zn165  1  0.06608026  0.80898311  0.06150779  1
  Zn  Zn166  1  0.06562741  0.81084187  0.56422825  1
  Zn  Zn167  1  0.56465559  0.30979739  0.06507927  1
  Zn  Zn168  1  0.56360175  0.33720268  0.56002161  1
  Zn  Zn169  1  0.56107072  0.81152901  0.06487463  1
  Zn  Zn170  1  0.56483602  0.81164359  0.56482707  1
  O  O171  1  0.11925810  0.11106794  0.12544861  1
  O  O172  1  0.11900304  0.12097185  0.62412367  1
  O  O173  1  0.11777909  0.62312707  0.11595505  1
  O  O174  1  0.12150810  0.62002684  0.61897159  1
  O  O175  1  0.61845759  0.11833340  0.11996736  1
  O  O176  1  0.62793722  0.12061849  0.62666410  1
  O  O177  1  0.62158397  0.62061111  0.11861771  1
  O  O178  1  0.63382317  0.61584027  0.62345676  1
  O  O179  1  0.38201560  0.38150934  0.38102387  1
  O  O180  1  0.38133751  0.38414173  0.87061345  1
  O  O181  1  0.38606237  0.88438077  0.36412832  1
  O  O182  1  0.38241428  0.88116119  0.87920117  1
  O  O183  1  0.87778498  0.38204309  0.37862939  1
  O  O184  1  0.87380567  0.38239483  0.88444873  1
  O  O185  1  0.88349259  0.87958691  0.37898244  1
  O  O186  1  0.87368597  0.88886139  0.86880395  1
  O  O187  1  0.24737854  0.00157494  0.36239252  1
  O  O188  1  0.25618401  0.00507249  0.86800309  1
  O  O189  1  0.25923886  0.49300916  0.36484666  1
  O  O190  1  0.26124215  0.50647882  0.87709226  1
  O  O191  1  0.75810952  0.00915444  0.37758500  1
  O  O192  1  0.76100200  0.00604203  0.87637837  1
  O  O193  1  0.76231688  0.50784617  0.38046974  1
  O  O194  1  0.75890170  0.50264498  0.87081428  1
  O  O195  1  0.24922145  0.49273570  0.12913965  1
  O  O196  1  0.23943998  0.49221495  0.61896762  1
  O  O197  1  0.24209372  0.99752331  0.13304908  1
  O  O198  1  0.25038158  0.99145753  0.63141309  1
  O  O199  1  0.73627587  0.50032248  0.12133867  1
  O  O200  1  0.74379088  0.49656416  0.63340266  1
  O  O201  1  0.74124542  0.99547931  0.12938515  1
  O  O202  1  0.74378553  0.99304373  0.62078253  1
  O  O203  1  0.00885320  0.36899311  0.25372913  1
  O  O204  1  0.01212360  0.37751640  0.74631526  1
  O  O205  1  0.01378355  0.87919265  0.25924633  1
  O  O206  1  0.01508234  0.88353645  0.74249348  1
  O  O207  1  0.50597482  0.37516416  0.26095948  1
  O  O208  1  0.50963098  0.37348615  0.76120604  1
  O  O209  1  0.51050945  0.85962580  0.24346702  1
  O  O210  1  0.50529179  0.86669266  0.76031434  1
  O  O211  1  0.49276387  0.12408236  0.24220557  1
  O  O212  1  0.48400337  0.12427553  0.75476793  1
  O  O213  1  0.50155719  0.63697382  0.23655206  1
  O  O214  1  0.50405452  0.63730881  0.75459090  1
  O  O215  1  1.00473392  0.13008375  0.23705353  1
  O  O216  1  0.99406793  0.12015617  0.74207266  1
  O  O217  1  0.99524797  0.61955393  0.23721478  1
  O  O218  1  1.00047226  0.62377111  0.73564317  1
  O  O219  1  0.35956340  0.24497751  0.00012241  1
  O  O220  1  0.36768569  0.26528446  0.49433757  1
  O  O221  1  0.36799553  0.75979604  -0.00959537  1
  O  O222  1  0.36571073  0.74688716  0.50582108  1
  O  O223  1  0.86868293  0.25333206  0.01277904  1
  O  O224  1  0.86892806  0.26176816  0.49817208  1
  O  O225  1  0.87323230  0.74584415  0.01671971  1
  O  O226  1  0.86777299  0.76388882  0.49413279  1
  O  O227  1  0.13254946  0.25208334  0.49104713  1
  O  O228  1  0.13810499  0.24394258  0.99993360  1
  O  O229  1  0.13242653  0.74520409  0.49088327  1
  O  O230  1  0.13165944  0.74566030  0.98708034  1
  O  O231  1  0.62794933  0.24431138  0.49915151  1
  O  O232  1  0.63018122  0.23725451  0.99639846  1
  O  O233  1  0.63725725  0.75043991  0.49930038  1
  O  O234  1  0.62419732  0.74335742  0.99394141  1
  O  O235  1  0.49872153  0.23824635  0.12766951  1
  O  O236  1  0.51568913  0.24124339  0.60972150  1
  O  O237  1  0.50256246  0.73773788  0.13298325  1
  O  O238  1  0.49183732  0.75546573  0.63297256  1
  O  O239  1  0.99315492  0.24118535  0.12733482  1
  O  O240  1  0.99776034  0.23668291  0.61743956  1
  O  O241  1  0.99548923  0.73934430  0.12082560  1
  O  O242  1  1.00216548  0.73758094  0.62305640  1
  O  O243  1  0.00669222  0.25507331  0.36913064  1
  O  O244  1  0.00554041  0.25508494  0.88682563  1
  O  O245  1  0.00660545  0.76112469  0.37961562  1
  O  O246  1  0.01423936  0.74450718  0.87870640  1
  O  O247  1  0.50625733  0.25861583  0.37625449  1
  O  O248  1  0.51132118  0.25370554  0.88086861  1
  O  O249  1  0.49893745  0.74595183  0.35591073  1
  O  O250  1  0.50900562  0.75454196  0.86914027  1
  O  O251  1  0.24946242  0.13494344  0.49854507  1
  O  O252  1  0.24783503  0.12874789  0.99061930  1
  O  O253  1  0.23572042  0.63632260  0.50293290  1
  O  O254  1  0.24486496  0.63039026  0.98963312  1
  O  O255  1  0.75755369  0.13796325  0.49147526  1
  O  O256  1  0.74361382  0.12764422  0.99173834  1
  O  O257  1  0.75063279  0.63513136  0.49104183  1
  O  O258  1  0.73936684  0.62893355  0.99525851  1
  O  O259  1  0.24411935  0.36836724  0.01081431  1
  O  O260  1  0.25635436  0.37190932  0.50765840  1
  O  O261  1  0.26034140  0.86705434  -0.00135331  1
  O  O262  1  0.24505782  0.86487583  0.50904562  1
  O  O263  1  0.75409372  0.36696424  0.00462383  1
  O  O264  1  0.75581436  0.36339345  0.49913598  1
  O  O265  1  0.74533226  0.87565863  0.01700762  1
  O  O266  1  0.75739851  0.87142808  0.50085660  1
  O  O267  1  0.13212227  0.48985622  0.25007846  1
  O  O268  1  0.12344011  0.49266438  0.73898389  1
  O  O269  1  0.13135492  0.99321949  0.24342961  1
  O  O270  1  0.13803551  0.99176977  0.75081261  1
  O  O271  1  0.61875845  0.49244398  0.24288581  1
  O  O272  1  0.62474158  0.48871262  0.74526245  1
  O  O273  1  0.62612029  0.98959473  0.24319533  1
  O  O274  1  0.62641609  0.99518235  0.73734611  1
  O  O275  1  0.36637526  0.00988668  0.24571264  1
  O  O276  1  0.36617364  0.00031466  0.75882142  1
  O  O277  1  0.36681023  0.49661909  0.26036191  1
  O  O278  1  0.38285164  0.50334351  0.76660861  1
  O  O279  1  0.87274149  -0.00513251  0.26407277  1
  O  O280  1  0.87464210  0.01137974  0.76297549  1
  O  O281  1  0.87826694  0.51088976  0.25768621  1
  O  O282  1  0.86425234  0.49371194  0.76107017  1
  O  O283  1  0.12258429  0.36625016  0.36589939  1
  O  O284  1  0.12561152  0.37847242  0.85562126  1
  O  O285  1  0.11910622  0.86505617  0.36820141  1
  O  O286  1  0.12858083  0.86159953  0.86777902  1
  O  O287  1  0.61785910  0.36829951  0.37265439  1
  O  O288  1  0.61849783  0.36627263  0.87127499  1
  O  O289  1  0.62142442  0.87907939  0.35986655  1
  O  O290  1  0.61916062  0.87145741  0.87247852  1
  O  O291  1  0.38391701  0.12306781  0.12905098  1
  O  O292  1  0.37208817  0.12530871  0.64109329  1
  O  O293  1  0.39052750  0.62035142  0.11524657  1
  O  O294  1  0.36986544  0.63764273  0.62687852  1
  O  O295  1  0.88123927  0.13164108  0.12305392  1
  O  O296  1  0.88289301  0.12496950  0.63671466  1
  O  O297  1  0.88122869  0.62876054  0.13187235  1
  O  O298  1  0.88928160  0.62175297  0.61846195  1
  O  O299  1  0.25336140  0.25848313  0.11864650  1
  O  O300  1  0.24439346  0.26143131  0.61189710  1
  O  O301  1  0.24496083  0.75182838  0.10581771  1
  O  O302  1  0.25595705  0.75559746  0.61703420  1
  O  O303  1  0.75604413  0.24950710  0.12349689  1
  O  O304  1  0.75642763  0.25220978  0.61756258  1
  O  O305  1  0.75933519  0.75824263  0.12552774  1
  O  O306  1  0.74957886  0.76688025  0.61209552  1
  O  O307  1  0.24321005  0.25209684  0.38444306  1
  O  O308  1  0.24509994  0.24281534  0.88031502  1
  O  O309  1  0.24128703  0.75460635  0.38306697  1
  O  O310  1  0.24451856  0.74213503  0.88153696  1
  O  O311  1  0.74203511  0.24534388  0.38257092  1
  O  O312  1  0.73973755  0.24128733  0.88308347  1
  O  O313  1  0.75556461  0.74018555  0.38097370  1
  O  O314  1  0.73666643  0.75562072  0.88647323  1
  O  O315  1  0.00310129  0.11357356  0.01417180  1
  O  O316  1  0.00166460  0.11710304  0.50595340  1
  O  O317  1  0.00400468  0.61322468  0.00815359  1
  O  O318  1  0.01211137  0.62608569  0.50624134  1
  O  O319  1  0.50655804  0.12623592  0.00839994  1
  O  O320  1  0.50187762  0.12054021  0.50233248  1
  O  O321  1  0.51145524  0.62709302  0.00948574  1
  O  O322  1  0.50229305  0.61507476  0.49534234  1
  O  O323  1  0.49198834  0.38753185  0.48892986  1
  O  O324  1  0.50541950  0.37348117  0.98868390  1
  O  O325  1  0.50361998  0.88441025  0.49840720  1
  O  O326  1  0.49511250  0.86872685  0.98697247  1
  O  O327  1  0.99201925  0.37621715  0.49246338  1
  O  O328  1  0.99547437  0.38678934  1.00372273  1
  O  O329  1  0.99602328  0.88029286  0.49437155  1
  O  O330  1  1.00127522  0.88601136  1.00602352  1
  O  O331  1  0.49175879  0.49581305  0.37953761  1
  O  O332  1  0.49444767  0.49028785  0.87917805  1
  O  O333  1  0.50465865  1.00136324  0.39471683  1
  O  O334  1  0.49224891  0.99032186  0.86997403  1
  O  O335  1  0.98916788  0.49386402  0.37770039  1
  O  O336  1  0.98891018  0.49791780  0.88133655  1
  O  O337  1  0.99614814  0.99262740  0.37973354  1
  O  O338  1  0.98798371  1.00445275  0.88385388  1
  O  O339  1  0.00454475  0.00348455  0.12142224  1
  O  O340  1  0.00184386  0.01040927  0.61520220  1
  O  O341  1  0.00272482  0.50665147  0.11713318  1
  O  O342  1  0.01041005  0.51030543  0.61998677  1
  O  O343  1  0.51218467  0.00681588  0.12865101  1
  O  O344  1  0.50742215  -0.00556067  0.61422586  1
  O  O345  1  0.50951253  0.51281041  0.12386984  1
  O  O346  1  0.50873048  0.49462683  0.61615034  1
  O  O347  1  0.24404953  0.37972877  0.24130596  1
  O  O348  1  0.24202277  0.37331741  0.73753908  1
  O  O349  1  0.24067939  0.88180586  0.24575425  1
  O  O350  1  0.24541699  0.88102469  0.74491037  1
  O  O351  1  0.73631672  0.37309397  0.25203833  1
  O  O352  1  0.73851245  0.38141240  0.75334572  1
  O  O353  1  0.73926957  0.87526667  0.24336354  1
  O  O354  1  0.74441763  0.88116224  0.73897904  1
  O  O355  1  0.25652149  0.11749689  0.24970882  1
  O  O356  1  0.25673720  0.11670363  0.75598225  1
  O  O357  1  0.24454769  0.61065642  0.24404624  1
  O  O358  1  0.25061834  0.62993484  0.76050761  1
  O  O359  1  0.74703341  0.12482703  0.26507199  1
  O  O360  1  0.75676189  0.12118374  0.76454556  1
  O  O361  1  0.75987082  0.62749178  0.25808368  1
  O  O362  1  0.72480358  0.59896378  0.75764137  1
  O  O363  1  0.37234263  0.11763850  0.36507880  1
  O  O364  1  0.36557989  0.11723953  0.86871540  1
  O  O365  1  0.37312940  0.61222573  0.37878482  1
  O  O366  1  0.36780244  0.61666026  0.87127432  1
  O  O367  1  0.86862126  0.11677198  0.37847866  1
  O  O368  1  0.86867901  0.11962973  0.87380124  1
  O  O369  1  0.87183213  0.61900712  0.36831358  1
  O  O370  1  0.86664949  0.61706639  0.88396884  1
  O  O371  1  0.13048812  0.37430621  0.13563071  1
  O  O372  1  0.12914892  0.38285347  0.63305198  1
  O  O373  1  0.12571805  0.88308448  0.13195069  1
  O  O374  1  0.13709320  0.87468803  0.63298641  1
  O  O375  1  0.62352430  0.38301007  0.13568040  1
  O  O376  1  0.63031211  0.38469136  0.63573573  1
  O  O377  1  0.62955529  0.88135997  0.13247677  1
  O  O378  1  0.63345669  0.88328053  0.62819798  1
  O  O379  1  0.12225982  0.25629062  0.25506160  1
  O  O380  1  0.12794795  0.26425227  0.74782834  1
  O  O381  1  0.13133160  0.75777658  0.25651570  1
  O  O382  1  0.12962102  0.75779641  0.76279418  1
  O  O383  1  0.62009161  0.25854282  0.25955132  1
  O  O384  1  0.63066973  0.25663265  0.76151202  1
  O  O385  1  0.62284858  0.76161015  0.24525172  1
  O  O386  1  0.62212558  0.75683990  0.75711382  1
  O  O387  1  0.37520581  0.23762326  0.24825892  1
  O  O388  1  0.37174551  0.23890549  0.75319385  1
  O  O389  1  0.38344708  0.75307857  0.24401889  1
  O  O390  1  0.38544866  0.74648919  0.74315433  1
  O  O391  1  0.88058018  0.25462329  0.23917630  1
  O  O392  1  0.86910827  0.23721207  0.75329153  1
  O  O393  1  0.87665020  0.73688769  0.24080570  1
  O  O394  1  0.80866559  0.71307319  0.76615458  1
  O  O395  1  0.37906343  0.49394861  0.49400788  1
  O  O396  1  0.38075865  0.50277119  0.98136702  1
  O  O397  1  0.39000361  1.00346142  0.50301561  1
  O  O398  1  0.36972533  0.99241377  0.98434721  1
  O  O399  1  0.87396297  0.48871586  0.49263354  1
  O  O400  1  0.88034047  0.49522025  0.99497149  1
  O  O401  1  0.88625802  0.99224176  0.49012958  1
  O  O402  1  0.88120375  1.00155188  0.98733710  1
  O  O403  1  0.11920878  -0.00163956  0.00739743  1
  O  O404  1  0.11323356  0.00018294  0.49801694  1
  O  O405  1  0.11672633  0.50466039  -0.00213236  1
  O  O406  1  0.12427123  0.50895626  0.50521389  1
  O  O407  1  0.62851858  0.01141264  0.00779147  1
  O  O408  1  0.61681367  0.00081339  0.51145786  1
  O  O409  1  0.62141288  0.50826932  0.00592826  1
  O  O410  1  0.61650207  0.50000629  0.50966660  1
  O  O411  1  0.36710862  0.37500890  0.12999066  1
  O  O412  1  0.36730403  0.38287218  0.61646731  1
  O  O413  1  0.37806061  0.88372799  0.10880617  1
  O  O414  1  0.36290483  0.86319299  0.63215608  1
  O  O415  1  0.87258351  0.36763442  0.12112006  1
  O  O416  1  0.87464925  0.37560546  0.61623159  1
  O  O417  1  0.86701979  0.86636038  0.13531133  1
  O  O418  1  0.86792247  0.88544363  0.61428420  1
  O  O419  1  0.12617968  0.13850966  0.37513987  1
  O  O420  1  0.13770800  0.12281304  0.87347559  1
  O  O421  1  0.11705044  0.63620449  0.37980693  1
  O  O422  1  0.13090768  0.63176936  0.87683881  1
  O  O423  1  0.63010497  0.13761537  0.37240309  1
  O  O424  1  0.62967812  0.12678756  0.88053974  1
  O  O425  1  0.63811024  0.61635257  0.37589733  1
  O  O426  1  0.63227338  0.63536269  0.88106757  1
