# generated using pymatgen
data_V85Zn86O256
_symmetry_space_group_name_H-M   'P 1'
_cell_length_a   16.94396886
_cell_length_b   16.93213023
_cell_length_c   16.93660710
_cell_angle_alpha   90.07903869
_cell_angle_beta   89.98019058
_cell_angle_gamma   90.02323590
_symmetry_Int_Tables_number   1
_chemical_formula_structural   V85Zn86O256
_chemical_formula_sum   'V85 Zn86 O256'
_cell_volume   4859.06470605
_cell_formula_units_Z   1
loop_
 _symmetry_equiv_pos_site_id
 _symmetry_equiv_pos_as_xyz
  1  'x, y, z'
loop_
 _atom_site_type_symbol
 _atom_site_label
 _atom_site_symmetry_multiplicity
 _atom_site_fract_x
 _atom_site_fract_y
 _atom_site_fract_z
 _atom_site_occupancy
  V  V0  1  -0.00611066  0.87450678  0.38171526  1
  V  V1  1  0.00003848  0.37430635  0.87427425  1
  V  V2  1  0.50672660  0.62336728  0.11400415  1
  V  V3  1  0.12626500  0.23967389  0.37478255  1
  V  V4  1  0.87751217  0.36306136  0.50413746  1
  V  V5  1  0.75531185  0.37207227  0.63035004  1
  V  V6  1  0.25302018  0.24457518  0.49254190  1
  V  V7  1  0.87105822  0.12234386  0.25307357  1
  V  V8  1  0.37485516  0.12367105  0.74681774  1
  V  V9  1  0.00294153  0.37428106  0.37566243  1
  V  V10  1  0.49797322  0.87412186  0.37314335  1
  V  V11  1  0.85753128  0.50293484  0.87391495  1
  V  V12  1  0.75494527  0.75586292  0.50489406  1
  V  V13  1  0.25299740  0.37777641  0.62531794  1
  V  V14  1  0.62124680  0.00037815  0.11666354  1
  V  V15  1  0.49849749  0.75014432  0.75155996  1
  V  V16  1  0.86735516  0.24692458  0.12014060  1
  V  V17  1  0.50523586  0.87894991  0.87764337  1
  V  V18  1  0.63673577  0.49885707  0.12226455  1
  V  V19  1  0.36338970  0.50106588  0.87252532  1
  V  V20  1  0.50271360  0.37368340  0.87547473  1
  V  V21  1  -0.00037042  0.50422708  -0.00367265  1
  V  V22  1  0.00041614  0.12122148  0.12439867  1
  V  V23  1  0.86588563  0.12884315  0.74907789  1
  V  V24  1  0.12347158  0.49903329  0.12420772  1
  V  V25  1  0.51069732  0.24865717  0.24965317  1
  V  V26  1  0.87060548  0.76126480  0.62582233  1
  V  V27  1  -0.00210588  0.87580275  0.88151879  1
  V  V28  1  0.62590367  0.74574450  0.37184211  1
  V  V29  1  0.24960626  0.62516363  0.37648011  1
  V  V30  1  0.49369351  0.12910944  0.11392502  1
  V  V31  1  0.12327731  0.87699060  0.75344188  1
  V  V32  1  0.12243154  0.75014043  0.37610560  1
  V  V33  1  0.36975387  0.00235724  0.37422282  1
  V  V34  1  0.25261448  0.13363421  0.88110193  1
  V  V35  1  0.49893125  0.74962925  0.24617708  1
  V  V36  1  0.24851597  0.87974155  0.62632663  1
  V  V37  1  0.62719669  0.62454051  0.50034027  1
  V  V38  1  0.37736402  0.87844253  0.50145214  1
  V  V39  1  -0.00247274  0.74905472  0.75371252  1
  V  V40  1  0.12490715  0.87616035  0.25161153  1
  V  V41  1  0.36224115  0.62122358  0.75104276  1
  V  V42  1  0.50577403  0.24981313  0.75003072  1
  V  V43  1  0.63853536  0.24854851  0.87891558  1
  V  V44  1  0.37410047  0.87795632  -0.00114497  1
  V  V45  1  0.74470909  -0.00010233  0.74551789  1
  V  V46  1  0.37848855  0.00286504  0.88012225  1
  V  V47  1  0.73345108  0.25233387  0.49195824  1
  V  V48  1  0.24768596  0.49859099  0.24805457  1
  V  V49  1  0.86556495  0.37134812  -0.00038592  1
  V  V50  1  0.24966746  0.75273160  0.50001493  1
  V  V51  1  -0.00259266  0.24699110  0.25147594  1
  V  V52  1  0.49820222  0.62374876  0.62504994  1
  V  V53  1  0.37506097  0.49453572  0.37397101  1
  V  V54  1  0.37617916  0.24883821  0.62260386  1
  V  V55  1  0.75088360  0.62048941  0.36737906  1
  V  V56  1  0.85915767  0.61967404  0.75227281  1
  V  V57  1  0.51474046  0.12077175  0.61783230  1
  V  V58  1  0.87170489  0.49546002  0.37035467  1
  V  V59  1  0.24794949  0.87153379  0.12071027  1
  V  V60  1  0.12964288  0.37648204  0.75146501  1
  V  V61  1  0.14206071  0.62652020  -0.00405528  1
  V  V62  1  0.69028394  0.07836868  0.43493614  1
  V  V63  1  0.00137344  0.24148600  0.73770801  1
  V  V64  1  0.62785668  0.87865324  0.73401054  1
  V  V65  1  0.50878499  0.37111639  0.37307929  1
  V  V66  1  0.64240182  0.12563773  -0.00512800  1
  V  V67  1  0.37142128  0.74635601  0.11413228  1
  V  V68  1  0.37201507  0.36335254  0.00398535  1
  V  V69  1  0.87412546  0.00174900  0.38279039  1
  V  V70  1  0.37223894  0.12876890  0.25156942  1
  V  V71  1  -0.00412831  0.00252575  0.50949842  1
  V  V72  1  0.63119451  0.49772130  0.63101665  1
  V  V73  1  0.12816689  0.50149438  0.63049448  1
  V  V74  1  0.37507366  0.62540132  0.24750801  1
  V  V75  1  0.62704225  0.87408234  0.23962371  1
  V  V76  1  -0.00322616  0.62399134  0.62869839  1
  V  V77  1  0.74648673  0.00262524  0.24555846  1
  V  V78  1  0.49968789  0.49985373  0.49913636  1
  V  V79  1  0.12222798  0.12490875  0.50975599  1
  V  V80  1  0.86321506  0.87648685  0.00420692  1
  V  V81  1  0.12449397  0.62430232  0.50247460  1
  V  V82  1  0.13773450  0.74759702  0.88053453  1
  V  V83  1  0.13014113  0.12985591  0.00266730  1
  V  V84  1  0.86845943  0.75100413  0.12776570  1
  Zn  Zn85  1  0.37536214  0.37283552  0.49711134  1
  Zn  Zn86  1  0.87684654  0.61945887  0.24870612  1
  Zn  Zn87  1  0.63695023  0.37863147  0.25278009  1
  Zn  Zn88  1  0.00139517  -0.00089110  0.00089050  1
  Zn  Zn89  1  0.63042401  0.73624017  0.87999593  1
  Zn  Zn90  1  0.37365239  0.74998959  0.62657188  1
  Zn  Zn91  1  0.12606574  0.36889005  0.24430801  1
  Zn  Zn92  1  0.00099235  0.62839630  0.12720917  1
  Zn  Zn93  1  0.51300159  0.00284817  0.50014594  1
  Zn  Zn94  1  -0.00325178  0.74942913  0.25014716  1
  Zn  Zn95  1  -0.00192266  0.49808302  0.50212122  1
  Zn  Zn96  1  0.12684997  -0.00184524  0.12463286  1
  Zn  Zn97  1  0.24537013  0.36115132  0.10983712  1
  Zn  Zn98  1  0.63689944  0.37817556  0.75783503  1
  Zn  Zn99  1  0.86777782  0.00832225  0.87915173  1
  Zn  Zn100  1  0.50306512  0.50100988  -0.00420490  1
  Zn  Zn101  1  0.74402301  0.73765105  -0.00588700  1
  Zn  Zn102  1  0.75157239  0.37394466  0.12956437  1
  Zn  Zn103  1  0.11989679  0.00496051  0.63062363  1
  Zn  Zn104  1  0.24789023  0.00308249  0.75146455  1
  Zn  Zn105  1  0.12895032  0.25307414  0.88056371  1
  Zn  Zn106  1  0.24997219  0.00113780  0.25159104  1
  Zn  Zn107  1  0.18817997  0.18707168  0.18506948  1
  Zn  Zn108  1  0.18945736  0.19208614  0.68931478  1
  Zn  Zn109  1  0.18557292  0.68766018  0.18561911  1
  Zn  Zn110  1  0.18569568  0.69412675  0.68846365  1
  Zn  Zn111  1  0.68598207  0.18470519  0.18728667  1
  Zn  Zn112  1  0.69339956  0.19348477  0.68502648  1
  Zn  Zn113  1  0.69002187  0.68590937  0.18120304  1
  Zn  Zn114  1  0.68414693  0.69093186  0.69113868  1
  Zn  Zn115  1  0.29745655  0.29693127  0.28357426  1
  Zn  Zn116  1  0.31501810  0.31329500  0.81208662  1
  Zn  Zn117  1  0.31127653  0.81268530  0.30955927  1
  Zn  Zn118  1  0.31401160  0.81373967  0.81160114  1
  Zn  Zn119  1  0.81011332  0.30992823  0.31287074  1
  Zn  Zn120  1  0.81860513  0.31123310  0.81229389  1
  Zn  Zn121  1  0.81014278  0.81540337  0.31370667  1
  Zn  Zn122  1  0.80917790  0.81479941  0.81362126  1
  Zn  Zn123  1  0.18698674  0.43479073  0.43928696  1
  Zn  Zn124  1  0.18950089  0.43860503  0.93753564  1
  Zn  Zn125  1  0.18566796  0.94083217  0.43797815  1
  Zn  Zn126  1  0.18998200  0.94327046  0.93906714  1
  Zn  Zn127  1  0.68958862  0.43859379  0.44099568  1
  Zn  Zn128  1  0.68225550  0.57187754  0.94115052  1
  Zn  Zn129  1  0.68945532  0.91696381  0.43275257  1
  Zn  Zn130  1  0.68852060  0.94051075  0.93126876  1
  Zn  Zn131  1  0.31198475  0.05977132  0.06410235  1
  Zn  Zn132  1  0.31188277  0.06333746  0.56132876  1
  Zn  Zn133  1  0.31684378  0.55322355  0.06126741  1
  Zn  Zn134  1  0.31281651  0.56151974  0.56306423  1
  Zn  Zn135  1  0.81197164  0.05681843  0.06542192  1
  Zn  Zn136  1  0.82011780  0.06798530  0.57464347  1
  Zn  Zn137  1  0.81832894  0.56214677  0.06503354  1
  Zn  Zn138  1  0.81321507  0.55978505  0.55705305  1
  Zn  Zn139  1  0.44181233  0.43613380  0.18541024  1
  Zn  Zn140  1  0.43859502  0.43735796  0.68944819  1
  Zn  Zn141  1  0.43941175  0.94041631  0.18372106  1
  Zn  Zn142  1  0.44075193  0.94159540  0.68675185  1
  Zn  Zn143  1  0.93866098  0.43477906  0.18745512  1
  Zn  Zn144  1  0.93812597  0.43786678  0.68967761  1
  Zn  Zn145  1  0.93642437  0.93486360  0.18967135  1
  Zn  Zn146  1  0.93416518  0.94231242  0.69367688  1
  Zn  Zn147  1  0.06075571  0.06057695  0.31563171  1
  Zn  Zn148  1  0.06211175  0.06244355  0.81859972  1
  Zn  Zn149  1  0.05833026  0.56290703  0.31170380  1
  Zn  Zn150  1  0.06359993  0.56289272  0.81408063  1
  Zn  Zn151  1  0.55340256  0.05807957  0.30755101  1
  Zn  Zn152  1  0.56412228  0.06221455  0.81249686  1
  Zn  Zn153  1  0.56301114  0.56026628  0.30544282  1
  Zn  Zn154  1  0.55295955  0.55794939  0.80706144  1
  Zn  Zn155  1  0.44258372  0.18798591  0.43439386  1
  Zn  Zn156  1  0.44040803  0.18915279  0.93588371  1
  Zn  Zn157  1  0.43664000  0.68735991  0.43674893  1
  Zn  Zn158  1  0.43688474  0.68765623  0.93248553  1
  Zn  Zn159  1  0.93655482  0.18372800  0.44027267  1
  Zn  Zn160  1  0.94014557  0.18799189  0.93497339  1
  Zn  Zn161  1  0.93548359  0.68534907  0.43978982  1
  Zn  Zn162  1  0.93069619  0.68802906  0.93827832  1
  Zn  Zn163  1  0.05708771  0.31139793  0.06133154  1
  Zn  Zn164  1  0.06547773  0.31328811  0.56151523  1
  Zn  Zn165  1  0.05945209  0.80817749  0.06211727  1
  Zn  Zn166  1  0.05897253  0.81402055  0.56447584  1
  Zn  Zn167  1  0.56431300  0.31219810  0.06023199  1
  Zn  Zn168  1  0.56277656  0.31508628  0.56361313  1
  Zn  Zn169  1  0.56198232  0.81069009  0.05643450  1
  Zn  Zn170  1  0.56038809  0.80861120  0.56057682  1
  O  O171  1  0.11959037  0.12273192  0.12160441  1
  O  O172  1  0.13114772  0.12438758  0.61422790  1
  O  O173  1  0.12385094  0.61565487  0.11613280  1
  O  O174  1  0.12002533  0.61967886  0.62406783  1
  O  O175  1  0.61782681  0.12102752  0.11152729  1
  O  O176  1  0.61233332  0.13041061  0.62793702  1
  O  O177  1  0.61550501  0.61562204  0.13098951  1
  O  O178  1  0.61872032  0.61802039  0.62206453  1
  O  O179  1  0.38232968  0.38914175  0.37199425  1
  O  O180  1  0.38149487  0.38147615  0.87798728  1
  O  O181  1  0.37978402  0.87860184  0.38092235  1
  O  O182  1  0.37939417  0.88322902  0.87953422  1
  O  O183  1  0.88599338  0.37665927  0.38189849  1
  O  O184  1  0.88265282  0.38226261  0.87965554  1
  O  O185  1  0.88122059  0.88880283  0.37258959  1
  O  O186  1  0.88259455  0.87444508  0.88780650  1
  O  O187  1  0.26534362  -0.00609906  0.37299361  1
  O  O188  1  0.26206530  0.01007556  0.87204885  1
  O  O189  1  0.25616048  0.50879436  0.37573800  1
  O  O190  1  0.26445307  0.49525157  0.87012370  1
  O  O191  1  0.75074717  0.00784655  0.37689950  1
  O  O192  1  0.75326251  -0.00373781  0.85671301  1
  O  O193  1  0.75873771  0.50785888  0.38018680  1
  O  O194  1  0.75988731  0.49430826  0.87602378  1
  O  O195  1  0.24296152  0.49497538  0.13391563  1
  O  O196  1  0.24446591  0.48603872  0.61971189  1
  O  O197  1  0.24953372  0.98475354  0.12934632  1
  O  O198  1  0.24642377  0.98974158  0.62599459  1
  O  O199  1  0.73964266  0.50209249  0.12568036  1
  O  O200  1  0.74042339  0.48917601  0.61444523  1
  O  O201  1  0.73490043  1.00177673  0.13364043  1
  O  O202  1  0.75511865  1.00511251  0.64359774  1
  O  O203  1  0.00350219  0.36569064  0.25859776  1
  O  O204  1  0.00920376  0.36970411  0.75529735  1
  O  O205  1  0.00714225  0.87508630  0.26323561  1
  O  O206  1  0.00600874  0.86996073  0.75794308  1
  O  O207  1  0.49893914  0.36476613  0.25604352  1
  O  O208  1  0.49862315  0.36078285  0.75437613  1
  O  O209  1  0.50528699  0.86913732  0.25259055  1
  O  O210  1  0.50482794  0.87004017  0.75394925  1
  O  O211  1  0.49521381  0.13041856  0.24003069  1
  O  O212  1  0.49532961  0.13273518  0.74117916  1
  O  O213  1  0.49201316  0.63157936  0.24130150  1
  O  O214  1  0.49026735  0.63399701  0.74158538  1
  O  O215  1  0.99405741  0.12758833  0.24479025  1
  O  O216  1  1.00847885  0.13963140  0.75176507  1
  O  O217  1  0.99557338  0.63112610  0.24822147  1
  O  O218  1  0.99974241  0.63036818  0.74011409  1
  O  O219  1  0.37662965  0.26409564  -0.00449673  1
  O  O220  1  0.36818590  0.25040572  0.50181173  1
  O  O221  1  0.37521905  0.75516205  0.00931763  1
  O  O222  1  0.37037751  0.76268767  0.50024247  1
  O  O223  1  0.88689241  0.25833553  0.00879093  1
  O  O224  1  0.87446813  0.26024691  0.49989181  1
  O  O225  1  0.87555205  0.76176344  0.00974546  1
  O  O226  1  0.86680870  0.74076549  0.51368438  1
  O  O227  1  0.13084941  0.24302374  0.49497839  1
  O  O228  1  0.12148205  0.23678506  1.00034602  1
  O  O229  1  0.12928551  0.74519448  0.49601306  1
  O  O230  1  0.12165297  0.73861455  0.99265726  1
  O  O231  1  0.63409735  0.25524816  0.49455290  1
  O  O232  1  0.62182182  0.23492559  0.99354234  1
  O  O233  1  0.63030611  0.74297762  0.49355587  1
  O  O234  1  0.62854799  0.74967884  0.99622605  1
  O  O235  1  0.50304642  0.23584855  0.13078372  1
  O  O236  1  0.49526344  0.24362045  0.62992146  1
  O  O237  1  0.49067091  0.74316533  0.12875782  1
  O  O238  1  0.49673257  0.74436741  0.63460884  1
  O  O239  1  0.99524922  0.23817862  0.13290014  1
  O  O240  1  1.00423707  0.25571880  0.63975877  1
  O  O241  1  0.98660373  0.74925092  0.12791661  1
  O  O242  1  0.99275717  0.74228494  0.63118164  1
  O  O243  1  0.00464091  0.25447424  0.37159173  1
  O  O244  1  0.00469446  0.26499309  0.86931501  1
  O  O245  1  0.00262216  0.75800325  0.37718356  1
  O  O246  1  0.00444382  0.75984615  0.87134394  1
  O  O247  1  0.49901790  0.26138462  0.36677422  1
  O  O248  1  0.50476987  0.25304638  0.86497662  1
  O  O249  1  0.50572790  0.75260185  0.36719343  1
  O  O250  1  0.49617329  0.76021211  0.86270589  1
  O  O251  1  0.24405544  0.13757056  0.50150019  1
  O  O252  1  0.24497838  0.12293133  0.99426334  1
  O  O253  1  0.24510745  0.63269385  0.49732806  1
  O  O254  1  0.24097108  0.61825085  1.00229740  1
  O  O255  1  0.74765685  0.13427796  0.50398516  1
  O  O256  1  0.74092722  0.12332020  1.00031053  1
  O  O257  1  0.74365040  0.63019019  0.48996846  1
  O  O258  1  0.76766226  0.62413548  0.98969711  1
  O  O259  1  0.26461771  0.37521359  -0.00371782  1
  O  O260  1  0.25131599  0.36361710  0.50674588  1
  O  O261  1  0.26115980  0.87729847  0.00688093  1
  O  O262  1  0.25545591  0.87252632  0.50622621  1
  O  O263  1  0.76746054  0.37513027  0.00844912  1
  O  O264  1  0.75694493  0.36550652  0.50392636  1
  O  O265  1  0.76285318  0.87982276  -0.00062326  1
  O  O266  1  0.75240751  0.85625771  0.50029611  1
  O  O267  1  0.12927396  0.50236259  0.23895827  1
  O  O268  1  0.12269803  0.49326923  0.73866779  1
  O  O269  1  0.12696491  0.98785692  0.25216509  1
  O  O270  1  0.12548789  0.98896396  0.75085468  1
  O  O271  1  0.61486332  0.49482974  0.22946607  1
  O  O272  1  0.61673104  0.49361346  0.73426820  1
  O  O273  1  0.62820107  0.99379202  0.24319640  1
  O  O274  1  0.62783785  0.98795418  0.75069771  1
  O  O275  1  0.37873385  0.00815166  0.25752418  1
  O  O276  1  0.37451320  0.01239767  0.75440713  1
  O  O277  1  0.36743396  0.50537046  0.25451851  1
  O  O278  1  0.37936554  0.50701970  0.76064150  1
  O  O279  1  0.86415308  0.00144960  0.25653028  1
  O  O280  1  0.86878992  0.01147276  0.75536172  1
  O  O281  1  0.88199972  0.49786926  0.26534749  1
  O  O282  1  0.87857350  0.51191542  0.75760671  1
  O  O283  1  0.11300082  0.36496911  0.37927060  1
  O  O284  1  0.12064339  0.37668766  0.86677566  1
  O  O285  1  0.11911596  0.87001544  0.36995254  1
  O  O286  1  0.12055527  0.87075868  0.87139076  1
  O  O287  1  0.61163705  0.38766859  0.37212315  1
  O  O288  1  0.61008533  0.36390508  0.87303163  1
  O  O289  1  0.61609693  0.86571214  0.36231638  1
  O  O290  1  0.60909192  0.88017187  0.86888797  1
  O  O291  1  0.38766737  0.11683402  0.13462132  1
  O  O292  1  0.37888913  0.13034078  0.63182842  1
  O  O293  1  0.37756627  0.63090928  0.12817155  1
  O  O294  1  0.38193856  0.62491184  0.63043121  1
  O  O295  1  0.88251296  0.12758656  0.12991845  1
  O  O296  1  0.88565354  0.12580368  0.64929873  1
  O  O297  1  0.87849640  0.63781397  0.12953197  1
  O  O298  1  0.88184743  0.62331700  0.63540630  1
  O  O299  1  0.25594376  0.27295869  0.17580075  1
  O  O300  1  0.25595845  0.25911607  0.61690564  1
  O  O301  1  0.25819474  0.76126348  0.13036590  1
  O  O302  1  0.25108002  0.76351875  0.61867122  1
  O  O303  1  0.76514800  0.24386021  0.12541503  1
  O  O304  1  0.74869561  0.26022516  0.60942063  1
  O  O305  1  0.76415634  0.74935688  0.12008906  1
  O  O306  1  0.75854991  0.74104844  0.61742961  1
  O  O307  1  0.23876216  0.25571025  0.38034392  1
  O  O308  1  0.24998570  0.23736325  0.87021778  1
  O  O309  1  0.24462355  0.74496635  0.38054499  1
  O  O310  1  0.23672255  0.75473376  0.87179828  1
  O  O311  1  0.75699864  0.24739015  0.39372226  1
  O  O312  1  0.73751997  0.25677760  0.87173333  1
  O  O313  1  0.74474669  0.74353877  0.38174411  1
  O  O314  1  0.74356400  0.75589244  0.87850717  1
  O  O315  1  0.00697722  0.12245440  0.00932363  1
  O  O316  1  0.00915753  0.11557064  0.49925439  1
  O  O317  1  0.00184002  0.61207677  -0.00152616  1
  O  O318  1  0.00552847  0.62393817  0.51360557  1
  O  O319  1  0.49832288  0.12547675  0.01249783  1
  O  O320  1  0.49913522  0.12512472  0.51341967  1
  O  O321  1  0.49191539  0.62573265  0.01181935  1
  O  O322  1  0.50557895  0.62170242  0.50565376  1
  O  O323  1  0.49672764  0.38039498  0.49128164  1
  O  O324  1  0.49042142  0.37369535  0.99021227  1
  O  O325  1  0.49315622  0.87809782  0.49510911  1
  O  O326  1  0.48487553  0.87210505  0.99058795  1
  O  O327  1  0.99452435  0.37446744  0.49443724  1
  O  O328  1  0.99819987  0.38520910  0.99117054  1
  O  O329  1  1.00546094  0.88323141  0.48801724  1
  O  O330  1  0.99365066  0.87698053  0.99459399  1
  O  O331  1  0.49225675  0.49810651  0.37906012  1
  O  O332  1  0.49121902  0.48588564  0.87398791  1
  O  O333  1  0.49042796  0.99179884  0.37980751  1
  O  O334  1  0.48644508  0.99423362  0.86807405  1
  O  O335  1  0.99716867  0.48917530  0.37938495  1
  O  O336  1  0.99716418  0.49053472  0.87935933  1
  O  O337  1  0.99146598  0.99366731  0.38455654  1
  O  O338  1  0.99892152  0.98514928  0.87636488  1
  O  O339  1  0.00168200  0.01143304  0.12864133  1
  O  O340  1  0.00122076  -0.00883255  0.61304708  1
  O  O341  1  0.00738083  0.50074728  0.11602486  1
  O  O342  1  0.00892053  0.50746916  0.62464490  1
  O  O343  1  0.51242255  0.01482098  0.12983932  1
  O  O344  1  0.49951461  0.01599421  0.62080294  1
  O  O345  1  0.50009263  0.51127768  0.12084936  1
  O  O346  1  0.50462739  0.50325503  0.61691066  1
  O  O347  1  0.24026165  0.39741044  0.27116554  1
  O  O348  1  0.23819951  0.36687859  0.74098153  1
  O  O349  1  0.24123650  0.87628742  0.24343129  1
  O  O350  1  0.24267043  0.87724722  0.74277113  1
  O  O351  1  0.74974169  0.36888582  0.24345275  1
  O  O352  1  0.75419311  0.36864126  0.73514799  1
  O  O353  1  0.73709313  0.88936891  0.25941465  1
  O  O354  1  0.73383658  0.88028056  0.74777185  1
  O  O355  1  0.26862704  0.11952225  0.24436557  1
  O  O356  1  0.25894684  0.12464573  0.75565165  1
  O  O357  1  0.25309642  0.61695346  0.25523432  1
  O  O358  1  0.26319992  0.62953480  0.74104742  1
  O  O359  1  0.75337145  0.11197700  0.24841730  1
  O  O360  1  0.76016302  0.12505373  0.75075149  1
  O  O361  1  0.75362281  0.63139863  0.26407465  1
  O  O362  1  0.76101056  0.62281506  0.74597184  1
  O  O363  1  0.38385301  0.11553785  0.36226996  1
  O  O364  1  0.37230060  0.12048467  0.86921399  1
  O  O365  1  0.37038323  0.61665582  0.36898512  1
  O  O366  1  0.37913179  0.61038585  0.86673432  1
  O  O367  1  0.88042649  0.11153106  0.36684653  1
  O  O368  1  0.88934437  0.12278557  0.85760906  1
  O  O369  1  0.86793336  0.61458386  0.37634997  1
  O  O370  1  0.88305917  0.61724751  0.85881374  1
  O  O371  1  0.12541129  0.38562243  0.12347242  1
  O  O372  1  0.13183737  0.38241137  0.63038779  1
  O  O373  1  0.13130765  0.87275064  0.13214403  1
  O  O374  1  0.13126414  0.87518704  0.63520935  1
  O  O375  1  0.62627001  0.38711956  0.12220485  1
  O  O376  1  0.63477293  0.38155608  0.62592759  1
  O  O377  1  0.61362128  0.88385861  0.13348195  1
  O  O378  1  0.61738740  0.87537981  0.63578007  1
  O  O379  1  0.11366276  0.24686811  0.26028434  1
  O  O380  1  0.11689457  0.25883617  0.75322432  1
  O  O381  1  0.12395220  0.75998790  0.25743804  1
  O  O382  1  0.11835508  0.76046438  0.75714145  1
  O  O383  1  0.61442028  0.25160400  0.24669752  1
  O  O384  1  0.61929985  0.25032396  0.75754650  1
  O  O385  1  0.62164286  0.75723358  0.24941502  1
  O  O386  1  0.61574977  0.76301255  0.75124122  1
  O  O387  1  0.39021682  0.23225865  0.25794286  1
  O  O388  1  0.38294250  0.23971771  0.74571067  1
  O  O389  1  0.37847108  0.74515058  0.23986018  1
  O  O390  1  0.38146568  0.74331010  0.74866108  1
  O  O391  1  0.88170981  0.24092824  0.24438919  1
  O  O392  1  0.89089731  0.24150216  0.75514416  1
  O  O393  1  0.87356959  0.75694015  0.23747494  1
  O  O394  1  0.87809944  0.73804870  0.74515040  1
  O  O395  1  0.38093817  0.49913608  0.49090111  1
  O  O396  1  0.37909959  0.49296977  0.98432506  1
  O  O397  1  0.37509656  0.99045483  0.49389389  1
  O  O398  1  0.37346100  0.99221342  0.99130947  1
  O  O399  1  0.87776674  0.48877019  0.48829242  1
  O  O400  1  0.88461603  0.49188592  0.99297595  1
  O  O401  1  0.88157948  1.00911174  0.49453796  1
  O  O402  1  0.87872091  0.98933272  1.00007784  1
  O  O403  1  0.12275955  0.01238495  0.00393361  1
  O  O404  1  0.11729524  0.00927670  0.50078043  1
  O  O405  1  0.12002725  0.50570205  0.00436290  1
  O  O406  1  0.12447353  0.50565642  0.51231506  1
  O  O407  1  0.62782223  0.01162093  0.00468223  1
  O  O408  1  0.63510008  0.00761961  0.48592732  1
  O  O409  1  0.61898141  0.50454590  0.01666582  1
  O  O410  1  0.61818002  0.50599550  0.50805130  1
  O  O411  1  0.37517622  0.38311870  0.10608831  1
  O  O412  1  0.36811193  0.36922286  0.62394147  1
  O  O413  1  0.37111557  0.86889634  0.11754853  1
  O  O414  1  0.36832002  0.87676399  0.61788975  1
  O  O415  1  0.88132512  0.36340370  0.11700871  1
  O  O416  1  0.86835026  0.38390024  0.61511138  1
  O  O417  1  0.87850409  0.86807198  0.11348610  1
  O  O418  1  0.87925424  0.85989223  0.63395355  1
  O  O419  1  0.12086268  0.13468151  0.38490717  1
  O  O420  1  0.13562801  0.12583689  0.88392003  1
  O  O421  1  0.12903426  0.62981421  0.38229401  1
  O  O422  1  0.12194788  0.63438318  0.88299511  1
  O  O423  1  0.62692308  0.12357299  0.37441830  1
  O  O424  1  0.61857116  0.13059331  0.88898548  1
  O  O425  1  0.63061450  0.62716279  0.37717952  1
  O  O426  1  0.61400426  0.62306706  0.86991427  1
