# generated using pymatgen
data_V85Zn86O256
_symmetry_space_group_name_H-M   'P 1'
_cell_length_a   16.92293433
_cell_length_b   16.91700325
_cell_length_c   16.91752819
_cell_angle_alpha   90.03566043
_cell_angle_beta   89.97564470
_cell_angle_gamma   90.01150118
_symmetry_Int_Tables_number   1
_chemical_formula_structural   V85Zn86O256
_chemical_formula_sum   'V85 Zn86 O256'
_cell_volume   4843.23875360
_cell_formula_units_Z   1
loop_
 _symmetry_equiv_pos_site_id
 _symmetry_equiv_pos_as_xyz
  1  'x, y, z'
loop_
 _atom_site_type_symbol
 _atom_site_label
 _atom_site_symmetry_multiplicity
 _atom_site_fract_x
 _atom_site_fract_y
 _atom_site_fract_z
 _atom_site_occupancy
  V  V0  1  0.37684100  0.25650415  0.12599156  1
  V  V1  1  0.24601294  0.12700419  0.37583340  1
  V  V2  1  0.49850630  0.62478720  0.62440328  1
  V  V3  1  0.75345221  0.87306018  0.62322980  1
  V  V4  1  0.13359574  0.36929196  0.25092403  1
  V  V5  1  0.36709275  0.74951608  0.62100901  1
  V  V6  1  0.75473407  0.62279908  0.37763481  1
  V  V7  1  0.25043078  0.87595315  0.12517972  1
  V  V8  1  0.74659304  0.62473554  0.88208709  1
  V  V9  1  0.75168199  0.01135752  0.75807294  1
  V  V10  1  0.13662515  0.74866360  0.37966874  1
  V  V11  1  0.37500106  0.75060605  0.12767566  1
  V  V12  1  0.87841493  0.63214461  0.75373894  1
  V  V13  1  0.75525709  0.37543730  0.62525679  1
  V  V14  1  0.11040410  0.75310909  0.87556325  1
  V  V15  1  0.68419060  0.19658837  0.93596975  1
  V  V16  1  0.37713693  0.87670882  -0.00632569  1
  V  V17  1  0.36852919  0.62308348  0.74879149  1
  V  V18  1  0.11863190  0.87539057  0.25182191  1
  V  V19  1  0.62528266  -0.00183990  0.62632654  1
  V  V20  1  0.87849456  0.50183801  0.88100025  1
  V  V21  1  0.13086761  0.49479744  0.63894688  1
  V  V22  1  0.13010905  0.62702463  0.50182086  1
  V  V23  1  0.49877241  -0.00037908  0.49957910  1
  V  V24  1  0.88200683  0.00596068  0.87175091  1
  V  V25  1  0.25007281  0.00025825  0.24967619  1
  V  V26  1  0.75005553  0.36999057  0.12041728  1
  V  V27  1  0.00160521  0.12969030  0.12831655  1
  V  V28  1  0.36594539  0.87100458  0.49808045  1
  V  V29  1  0.74674144  0.75692141  0.00836402  1
  V  V30  1  0.62470123  0.87367664  0.75527959  1
  V  V31  1  0.75277946  0.49813366  0.24925925  1
  V  V32  1  0.50734055  0.12773026  0.12320460  1
  V  V33  1  0.50770168  0.24990507  0.75327278  1
  V  V34  1  0.25013595  -0.00720095  0.74967588  1
  V  V35  1  0.87051103  -0.01259126  0.37007469  1
  V  V36  1  -0.00129609  0.61492177  0.12416021  1
  V  V37  1  0.62170212  0.74637877  0.87976616  1
  V  V38  1  0.88016961  0.75214708  0.62212068  1
  V  V39  1  0.24668296  0.62503946  0.87453972  1
  V  V40  1  -0.00023594  0.37532175  0.86855351  1
  V  V41  1  0.62518667  0.49822467  0.62623908  1
  V  V42  1  0.37313157  0.61111780  0.25087000  1
  V  V43  1  -0.00914161  0.23545175  0.75322125  1
  V  V44  1  0.37481082  0.25299515  0.62312330  1
  V  V45  1  0.16699501  0.30871395  0.81508873  1
  V  V46  1  0.25586351  0.60898407  0.37583259  1
  V  V47  1  0.37403448  0.50188413  0.87274404  1
  V  V48  1  0.74873767  0.12136778  0.36570037  1
  V  V49  1  0.87882783  0.37246596  -0.00074034  1
  V  V50  1  0.50867920  -0.00008911  -0.00484674  1
  V  V51  1  -0.01247270  -0.00123309  0.50426524  1
  V  V52  1  0.87654095  0.23315786  0.62598260  1
  V  V53  1  0.37569424  0.12193905  0.75003007  1
  V  V54  1  0.12386463  0.00206289  0.12467985  1
  V  V55  1  0.50044323  0.87420303  0.37085236  1
  V  V56  1  0.00118942  -0.00806224  -0.00100363  1
  V  V57  1  0.51063827  0.50597864  -0.00286124  1
  V  V58  1  0.37084678  0.37872587  0.49077180  1
  V  V59  1  0.62587864  0.62506053  0.50123990  1
  V  V60  1  0.63606839  -0.00504338  0.13082655  1
  V  V61  1  0.14447808  0.49477809  0.13012099  1
  V  V62  1  0.62128182  0.37270031  0.24806059  1
  V  V63  1  0.49967627  0.12490626  0.62412956  1
  V  V64  1  0.24305812  0.25238375  0.50052948  1
  V  V65  1  0.50791896  0.62743409  0.12216712  1
  V  V66  1  0.00285935  0.74352970  0.25185203  1
  V  V67  1  0.62573466  0.75049041  0.37648045  1
  V  V68  1  0.50725374  0.37372081  0.87738875  1
  V  V69  1  0.00351865  0.62765181  0.63028703  1
  V  V70  1  0.87604786  0.12103325  0.24981709  1
  V  V71  1  0.88283842  0.37366447  0.50022080  1
  V  V72  1  0.37991481  0.13194700  0.24863374  1
  V  V73  1  0.12213705  0.13247588  -0.00334240  1
  V  V74  1  0.12074783  0.62085990  0.00189865  1
  V  V75  1  0.49738488  0.75511385  0.75399337  1
  V  V76  1  0.25071020  0.25698646  0.00272361  1
  V  V77  1  0.87772911  0.24963686  0.12538019  1
  V  V78  1  0.24786228  0.12414570  0.87436547  1
  V  V79  1  0.62495509  0.12617837  0.49696047  1
  V  V80  1  0.11928982  0.00447663  0.62365771  1
  V  V81  1  0.37447647  0.00043896  0.37385761  1
  V  V82  1  0.61865449  0.24973146  0.36878338  1
  V  V83  1  0.10814845  0.87153271  0.75360658  1
  V  V84  1  0.49659850  0.49851648  0.49026184  1
  Zn  Zn85  1  0.87669739  0.62293104  0.24857871  1
  Zn  Zn86  1  0.49363554  0.37326711  0.36676064  1
  Zn  Zn87  1  0.38008618  -0.00430726  0.87387781  1
  Zn  Zn88  1  0.75588973  0.75399053  0.50036043  1
  Zn  Zn89  1  0.11532710  0.12633710  0.50156290  1
  Zn  Zn90  1  -0.00375591  0.37020025  0.36186044  1
  Zn  Zn91  1  0.50091155  0.74959946  0.24978627  1
  Zn  Zn92  1  0.24690428  0.75253174  -0.00021375  1
  Zn  Zn93  1  0.63057376  0.50464424  0.11985688  1
  Zn  Zn94  1  0.24371099  0.87114058  0.62124370  1
  Zn  Zn95  1  0.00280957  0.49959153  0.49882263  1
  Zn  Zn96  1  0.75131818  0.24968398  0.49785232  1
  Zn  Zn97  1  0.37325434  0.38070963  0.00441363  1
  Zn  Zn98  1  0.11442390  0.24559771  0.36625046  1
  Zn  Zn99  1  0.75178691  0.50157179  0.75131925  1
  Zn  Zn100  1  0.87905639  0.49706406  0.37666421  1
  Zn  Zn101  1  0.87164758  0.87698715  -0.00189520  1
  Zn  Zn102  1  0.87700828  0.75652792  0.12603151  1
  Zn  Zn103  1  0.62954705  0.37234040  0.75143682  1
  Zn  Zn104  1  -0.00216630  0.86836151  0.38330071  1
  Zn  Zn105  1  0.24825405  0.37791570  0.63918521  1
  Zn  Zn106  1  0.64140087  0.87582862  0.24917121  1
  Zn  Zn107  1  0.19156044  0.18982537  0.18528197  1
  Zn  Zn108  1  0.18915586  0.18216485  0.68336178  1
  Zn  Zn109  1  0.18993890  0.68409090  0.18998724  1
  Zn  Zn110  1  0.18565191  0.68944626  0.69038204  1
  Zn  Zn111  1  0.68837079  0.18807870  0.18223420  1
  Zn  Zn112  1  0.68892766  0.18866845  0.68446326  1
  Zn  Zn113  1  0.68748238  0.68883721  0.19322268  1
  Zn  Zn114  1  0.69099523  0.68681726  0.69094125  1
  Zn  Zn115  1  0.30368646  0.31572705  0.30866196  1
  Zn  Zn116  1  0.33203914  0.30964207  0.81659864  1
  Zn  Zn117  1  0.31134385  0.80925314  0.31005293  1
  Zn  Zn118  1  0.30731907  0.80921279  0.81382644  1
  Zn  Zn119  1  0.81173117  0.30724447  0.31143631  1
  Zn  Zn120  1  0.81334130  0.31061780  0.81011459  1
  Zn  Zn121  1  0.81368765  0.80623678  0.31196822  1
  Zn  Zn122  1  0.81492998  0.81684134  0.81580156  1
  Zn  Zn123  1  0.18185776  0.43721103  0.44054382  1
  Zn  Zn124  1  0.18927752  0.44575566  0.94310454  1
  Zn  Zn125  1  0.18338058  0.93965389  0.43854139  1
  Zn  Zn126  1  0.18694627  0.93829701  0.93649870  1
  Zn  Zn127  1  0.68920639  0.43515657  0.43870854  1
  Zn  Zn128  1  0.69131919  0.43234142  0.93752566  1
  Zn  Zn129  1  0.68880390  0.93774192  0.43717887  1
  Zn  Zn130  1  0.68583883  0.93726039  0.93508193  1
  Zn  Zn131  1  0.31554063  0.06545249  0.06128462  1
  Zn  Zn132  1  0.30876505  0.06148371  0.56249493  1
  Zn  Zn133  1  0.31702513  0.56796196  0.05713870  1
  Zn  Zn134  1  0.30771997  0.55994261  0.56075861  1
  Zn  Zn135  1  0.81252063  0.07103525  0.04981050  1
  Zn  Zn136  1  0.80670086  0.05825644  0.55724687  1
  Zn  Zn137  1  0.81450820  0.56409082  0.06133362  1
  Zn  Zn138  1  0.81544917  0.56172697  0.56300388  1
  Zn  Zn139  1  0.44000178  0.44000456  0.18409411  1
  Zn  Zn140  1  0.43774578  0.43707363  0.68620273  1
  Zn  Zn141  1  0.44099427  0.94033571  0.18437634  1
  Zn  Zn142  1  0.43663674  0.93456605  0.68643285  1
  Zn  Zn143  1  0.94208549  0.43720554  0.18860710  1
  Zn  Zn144  1  0.94022188  0.44003890  0.69062412  1
  Zn  Zn145  1  0.81897707  0.93198027  0.17819066  1
  Zn  Zn146  1  0.93267440  0.94182060  0.68731575  1
  Zn  Zn147  1  0.05617620  0.06058877  0.31449316  1
  Zn  Zn148  1  0.06419445  0.06096645  0.81371014  1
  Zn  Zn149  1  0.06469661  0.55361215  0.31264751  1
  Zn  Zn150  1  0.05828363  0.56269677  0.81455589  1
  Zn  Zn151  1  0.56172480  0.06186129  0.30746962  1
  Zn  Zn152  1  0.56702572  0.06507593  0.81592207  1
  Zn  Zn153  1  0.56511805  0.56310580  0.30800782  1
  Zn  Zn154  1  0.56107483  0.56533662  0.81008593  1
  Zn  Zn155  1  0.43577400  0.19062181  0.43634587  1
  Zn  Zn156  1  0.44126216  0.18567783  0.93980066  1
  Zn  Zn157  1  0.43528961  0.68656859  0.43678963  1
  Zn  Zn158  1  0.43704622  0.68964129  0.93939035  1
  Zn  Zn159  1  0.93817787  0.18675072  0.43639865  1
  Zn  Zn160  1  0.93159465  0.18725427  0.93631622  1
  Zn  Zn161  1  0.94250517  0.68567343  0.44083202  1
  Zn  Zn162  1  0.93528088  0.68783179  0.94275127  1
  Zn  Zn163  1  0.06146019  0.31663935  0.06209857  1
  Zn  Zn164  1  0.06019088  0.31073642  0.57111951  1
  Zn  Zn165  1  0.06035840  0.80978513  0.06593410  1
  Zn  Zn166  1  0.06070246  0.81349923  0.56352351  1
  Zn  Zn167  1  0.55986602  0.31528330  0.06338401  1
  Zn  Zn168  1  0.56275650  0.31381952  0.55926918  1
  Zn  Zn169  1  0.56294083  0.81585168  0.06057653  1
  Zn  Zn170  1  0.55905571  0.81276286  0.56266848  1
  O  O171  1  0.12082427  0.12247964  0.11894377  1
  O  O172  1  0.12518010  0.10848195  0.62508491  1
  O  O173  1  0.12372984  0.61745578  0.11943874  1
  O  O174  1  0.12208807  0.62210443  0.62128367  1
  O  O175  1  0.61489415  0.11429256  0.13142755  1
  O  O176  1  0.61939643  0.11836071  0.61799673  1
  O  O177  1  0.61156473  0.62481333  0.13230175  1
  O  O178  1  0.62073648  0.61938580  0.62088343  1
  O  O179  1  0.37545297  0.36618159  0.38642324  1
  O  O180  1  0.38693458  0.38758422  0.87734650  1
  O  O181  1  0.37978812  0.87722542  0.38020829  1
  O  O182  1  0.36965517  0.87258254  0.88984481  1
  O  O183  1  0.87105656  0.37282602  0.38651844  1
  O  O184  1  0.87903188  0.38153081  0.88007297  1
  O  O185  1  0.87635472  0.88438335  0.37310085  1
  O  O186  1  0.86794280  0.89430505  0.88091197  1
  O  O187  1  0.25553175  0.00761295  0.37155605  1
  O  O188  1  0.25482579  0.00675867  0.86753366  1
  O  O189  1  0.25090820  0.51055940  0.37898403  1
  O  O190  1  0.25879406  0.51412101  0.87862795  1
  O  O191  1  0.75854011  0.00847022  0.38053814  1
  O  O192  1  0.75216447  -0.00123973  0.86258859  1
  O  O193  1  0.75001063  0.50711917  0.36869942  1
  O  O194  1  0.75614494  0.50744089  0.87371929  1
  O  O195  1  0.24294887  0.50288428  0.11847129  1
  O  O196  1  0.23696253  0.49844653  0.62773390  1
  O  O197  1  0.24446227  0.99811464  0.12996985  1
  O  O198  1  0.24149725  0.99655131  0.63293053  1
  O  O199  1  0.75111682  0.49241834  0.13112755  1
  O  O200  1  0.74208597  0.49459555  0.62618691  1
  O  O201  1  0.73883552  1.00449687  0.11698494  1
  O  O202  1  0.74486946  0.99284363  0.63481618  1
  O  O203  1  0.02229740  0.38321691  0.24585656  1
  O  O204  1  -0.00296901  0.36537332  0.76241782  1
  O  O205  1  0.01540804  0.86390101  0.25554533  1
  O  O206  1  0.01019590  0.88008110  0.75119574  1
  O  O207  1  0.51625356  0.38365203  0.25024549  1
  O  O208  1  0.49931618  0.36646212  0.75622582  1
  O  O209  1  0.49829921  0.87522540  0.26363306  1
  O  O210  1  0.50587562  0.86273606  0.74589424  1
  O  O211  1  0.48685816  0.12073175  0.24164347  1
  O  O212  1  0.49580460  0.12986757  0.74448763  1
  O  O213  1  0.49171542  0.62687050  0.24375055  1
  O  O214  1  0.48862483  0.63460666  0.74463395  1
  O  O215  1  0.99088563  0.12019963  0.23955662  1
  O  O216  1  0.99985794  0.13651501  0.75638408  1
  O  O217  1  1.00284535  0.62816007  0.24465391  1
  O  O218  1  0.99194096  0.62533354  0.74323362  1
  O  O219  1  0.36833016  0.25070695  0.00626318  1
  O  O220  1  0.36559119  0.25511354  0.50682372  1
  O  O221  1  0.37384524  0.75775388  0.01125252  1
  O  O222  1  0.38134410  0.75903777  0.50893805  1
  O  O223  1  0.87725679  0.25704387  0.01370703  1
  O  O224  1  0.87295705  0.25564073  0.51051327  1
  O  O225  1  0.85752133  0.75170674  -0.00299046  1
  O  O226  1  0.87482414  0.74405281  0.51673216  1
  O  O227  1  0.13488092  0.24642494  0.50780054  1
  O  O228  1  0.13316040  0.23966618  1.00550291  1
  O  O229  1  0.12261596  0.73786334  0.49508654  1
  O  O230  1  0.12634921  0.74288830  0.99286724  1
  O  O231  1  0.62647810  0.24207184  0.49291593  1
  O  O232  1  0.62488584  0.25659360  0.99393635  1
  O  O233  1  0.62414953  0.74460953  0.49115653  1
  O  O234  1  0.63217466  0.75257197  0.99122222  1
  O  O235  1  0.49287945  0.23717532  0.11839343  1
  O  O236  1  0.49117513  0.24615982  0.62768484  1
  O  O237  1  0.49380569  0.74534869  0.12556530  1
  O  O238  1  0.49066661  0.74364314  0.63179484  1
  O  O239  1  0.99511038  0.23834669  0.12006417  1
  O  O240  1  0.98996596  0.25186232  0.64134132  1
  O  O241  1  1.00626464  0.73726852  0.13656964  1
  O  O242  1  0.99512478  0.73881795  0.62469183  1
  O  O243  1  0.00370065  0.25685340  0.38123006  1
  O  O244  1  -0.00644671  0.25573935  0.86246351  1
  O  O245  1  0.01323251  0.74714707  0.36998787  1
  O  O246  1  0.01087898  0.74534792  0.87665709  1
  O  O247  1  0.51351144  0.25102596  0.37718605  1
  O  O248  1  0.48917250  0.26075060  0.86473717  1
  O  O249  1  0.50703741  0.75713264  0.37537871  1
  O  O250  1  0.50749231  0.74457499  0.86611714  1
  O  O251  1  0.24923958  0.13273482  0.49137230  1
  O  O252  1  0.24697413  0.13395029  0.99090151  1
  O  O253  1  0.24650265  0.62538252  0.48720759  1
  O  O254  1  0.24210433  0.62980395  0.99182094  1
  O  O255  1  0.73995638  0.12509517  0.48847797  1
  O  O256  1  0.74201651  0.13909030  0.99791861  1
  O  O257  1  0.74264000  0.62495747  0.49435641  1
  O  O258  1  0.75147142  0.63285161  0.98784068  1
  O  O259  1  0.25318454  0.36115233  -0.01024415  1
  O  O260  1  0.25466318  0.36741529  0.50290373  1
  O  O261  1  0.25671599  0.87616926  0.00828171  1
  O  O262  1  0.26208851  0.87981824  0.50047548  1
  O  O263  1  0.76472609  0.38066436  0.00897585  1
  O  O264  1  0.75833232  0.37358454  0.51123187  1
  O  O265  1  0.74513975  0.86018526  -0.00164866  1
  O  O266  1  0.74188005  0.87444527  0.51828247  1
  O  O267  1  0.13166253  0.49786718  0.23460990  1
  O  O268  1  0.12461717  0.50707775  0.73772520  1
  O  O269  1  0.12841461  0.99223818  0.24689090  1
  O  O270  1  0.13007249  0.98967476  0.74672602  1
  O  O271  1  0.63826805  0.49390067  0.24758473  1
  O  O272  1  0.62337379  0.50013443  0.73569739  1
  O  O273  1  0.62351322  0.99725026  0.23508878  1
  O  O274  1  0.63145571  0.99225359  0.74876284  1
  O  O275  1  0.36971319  0.00703509  0.25500025  1
  O  O276  1  0.36863918  0.00310872  0.75111787  1
  O  O277  1  0.37711649  0.51146301  0.24676808  1
  O  O278  1  0.38201963  0.50986267  0.76101338  1
  O  O279  1  0.87045418  0.01228452  0.25614066  1
  O  O280  1  0.86251944  -0.00068838  0.75889033  1
  O  O281  1  0.86401509  0.49970147  0.25243516  1
  O  O282  1  0.87441410  0.51174603  0.76029408  1
  O  O283  1  0.12863343  0.37405441  0.36114657  1
  O  O284  1  0.11743768  0.37797994  0.87940350  1
  O  O285  1  0.12758473  0.86617536  0.36888761  1
  O  O286  1  0.12928374  0.86819060  0.86288503  1
  O  O287  1  0.62643898  0.36623328  0.36740904  1
  O  O288  1  0.61150685  0.38460077  0.86876845  1
  O  O289  1  0.61736570  0.86839805  0.37602913  1
  O  O290  1  0.62765984  0.86435362  0.86236642  1
  O  O291  1  0.38242443  0.13198899  0.13198197  1
  O  O292  1  0.37888026  0.13191755  0.62880691  1
  O  O293  1  0.38138463  0.63304328  0.13144265  1
  O  O294  1  0.37665458  0.62966856  0.63063899  1
  O  O295  1  0.88161296  0.12967112  0.12830394  1
  O  O296  1  0.86677036  0.13433226  0.61954805  1
  O  O297  1  0.88511376  0.63059513  0.12613804  1
  O  O298  1  0.88288531  0.62891045  0.63411781  1
  O  O299  1  0.26270357  0.24307745  0.11227438  1
  O  O300  1  0.25855970  0.25087642  0.61947183  1
  O  O301  1  0.25766781  0.75617183  0.12458880  1
  O  O302  1  0.26293239  0.75209581  0.62950680  1
  O  O303  1  0.75866255  0.26355920  0.12862404  1
  O  O304  1  0.75872244  0.25826409  0.62434199  1
  O  O305  1  0.74785269  0.74090804  0.11059859  1
  O  O306  1  0.75792061  0.75602279  0.62526363  1
  O  O307  1  0.24414417  0.24273726  0.38365030  1
  O  O308  1  0.24273533  0.24548957  0.87277904  1
  O  O309  1  0.23975233  0.74389082  0.37342478  1
  O  O310  1  0.24124664  0.73814476  0.87650019  1
  O  O311  1  0.73911308  0.23964437  0.37669401  1
  O  O312  1  0.74107199  0.25660000  0.87472570  1
  O  O313  1  0.74350556  0.74159178  0.38068978  1
  O  O314  1  0.74120296  0.74436002  0.88138745  1
  O  O315  1  0.00884903  0.12204512  0.00250936  1
  O  O316  1  -0.00011008  0.10520075  0.49492894  1
  O  O317  1  0.01018546  0.63048226  0.00982147  1
  O  O318  1  0.01057045  0.62196050  0.51036186  1
  O  O319  1  0.49377133  0.11006901  0.00996020  1
  O  O320  1  0.50318211  0.12009020  0.50440061  1
  O  O321  1  0.49513101  0.61886071  0.00948374  1
  O  O322  1  0.50405492  0.61762791  0.50468772  1
  O  O323  1  0.49008768  0.38233817  0.49846762  1
  O  O324  1  0.49662468  0.38593476  0.99266613  1
  O  O325  1  0.49160236  0.88024448  0.48995145  1
  O  O326  1  0.49129137  0.88961790  1.00536255  1
  O  O327  1  0.98852831  0.37624482  0.50754988  1
  O  O328  1  0.98782340  0.36806861  0.98744289  1
  O  O329  1  1.00593070  0.89109671  0.49802022  1
  O  O330  1  1.01006128  0.89035126  1.00038114  1
  O  O331  1  0.50675648  0.49846560  0.38748961  1
  O  O332  1  0.49473276  0.49867354  0.87945837  1
  O  O333  1  0.49407022  0.99414727  0.37872394  1
  O  O334  1  0.49926798  1.00424792  0.89009357  1
  O  O335  1  0.99771349  0.49143030  0.37995587  1
  O  O336  1  0.99079160  0.48967955  0.87161488  1
  O  O337  1  0.98839015  0.99511857  0.38263504  1
  O  O338  1  0.99026151  1.00379384  0.88088633  1
  O  O339  1  0.01038079  0.01589146  0.11282541  1
  O  O340  1  0.00230808  -0.00321086  0.61431294  1
  O  O341  1  0.00820802  0.51250640  0.12654640  1
  O  O342  1  0.01071104  0.51101127  0.62591644  1
  O  O343  1  0.50760552  0.00836041  0.11695212  1
  O  O344  1  0.50541960  0.00416710  0.62088568  1
  O  O345  1  0.50191981  0.50919261  0.11389644  1
  O  O346  1  0.50602999  0.50521953  0.61735935  1
  O  O347  1  0.23562956  0.37964894  0.24417228  1
  O  O348  1  0.24196798  0.35929762  0.75926322  1
  O  O349  1  0.24233259  0.88081095  0.24550824  1
  O  O350  1  0.24807219  0.88525937  0.74856550  1
  O  O351  1  0.74432341  0.38111588  0.24334264  1
  O  O352  1  0.74949701  0.37940560  0.73767956  1
  O  O353  1  0.75368640  0.87386803  0.24874562  1
  O  O354  1  0.74079217  0.88043527  0.74189600  1
  O  O355  1  0.25780130  0.11974506  0.25629248  1
  O  O356  1  0.25299770  0.11342964  0.75521149  1
  O  O357  1  0.25847554  0.62786280  0.26482042  1
  O  O358  1  0.26177234  0.62979277  0.75627600  1
  O  O359  1  0.75498458  0.12760997  0.25935677  1
  O  O360  1  0.74300373  0.10915574  0.74615054  1
  O  O361  1  0.75225025  0.61748615  0.25902536  1
  O  O362  1  0.75787080  0.62377435  0.76245758  1
  O  O363  1  0.36614887  0.12358137  0.36816895  1
  O  O364  1  0.36385710  0.12584653  0.86796255  1
  O  O365  1  0.36384638  0.62897382  0.36782547  1
  O  O366  1  0.36774405  0.62297933  0.86877603  1
  O  O367  1  0.86698379  0.11939340  0.36680687  1
  O  O368  1  0.87001455  0.10696047  0.88075930  1
  O  O369  1  0.86377455  0.62440469  0.37700265  1
  O  O370  1  0.87038059  0.62000483  0.87176584  1
  O  O371  1  0.12526522  0.38954494  0.12532547  1
  O  O372  1  0.12629588  0.39058053  0.62478431  1
  O  O373  1  0.13028072  0.88044223  0.13306174  1
  O  O374  1  0.12513637  0.88108950  0.63754238  1
  O  O375  1  0.63411144  0.37780127  0.13047264  1
  O  O376  1  0.63303740  0.38246434  0.62368294  1
  O  O377  1  0.61963365  0.89078089  0.12885367  1
  O  O378  1  0.62725723  0.87865338  0.63576365  1
  O  O379  1  0.13037347  0.26306528  0.24667602  1
  O  O380  1  0.11527344  0.24622189  0.74815654  1
  O  O381  1  0.12126827  0.75369465  0.25782519  1
  O  O382  1  0.12733885  0.76470137  0.75673642  1
  O  O383  1  0.63027808  0.25983349  0.25592599  1
  O  O384  1  0.61060480  0.25246294  0.73970483  1
  O  O385  1  0.62225826  0.75333485  0.26431859  1
  O  O386  1  0.61708086  0.75521009  0.75453278  1
  O  O387  1  0.36778589  0.24178830  0.24193851  1
  O  O388  1  0.38444862  0.24217670  0.73921397  1
  O  O389  1  0.37746074  0.74579619  0.23831498  1
  O  O390  1  0.38085781  0.74601540  0.74501310  1
  O  O391  1  0.87100496  0.23772558  0.23673186  1
  O  O392  1  0.88312518  0.24773937  0.74259836  1
  O  O393  1  0.89283924  0.74492566  0.25246982  1
  O  O394  1  0.86900735  0.73864901  0.74404309  1
  O  O395  1  0.38288983  0.48947600  0.50670310  1
  O  O396  1  0.38412253  0.50222653  0.98753660  1
  O  O397  1  0.37962069  0.99392720  0.49401166  1
  O  O398  1  0.38385457  0.99271842  1.00014105  1
  O  O399  1  0.87796196  0.48956207  0.49985141  1
  O  O400  1  0.87422460  0.49413106  0.98798061  1
  O  O401  1  0.88144314  0.99881650  0.49164804  1
  O  O402  1  0.88514612  1.00113292  0.99155440  1
  O  O403  1  0.12251048  0.01176413  0.00323941  1
  O  O404  1  0.11685010  0.00193905  0.50874560  1
  O  O405  1  0.12662605  0.51229993  0.01154560  1
  O  O406  1  0.12551043  0.51263625  0.51038265  1
  O  O407  1  0.61382180  -0.00595254  0.00818052  1
  O  O408  1  0.61741855  0.00575112  0.50458912  1
  O  O409  1  0.61482346  0.49903223  -0.00109347  1
  O  O410  1  0.61798783  0.50297236  0.50933700  1
  O  O411  1  0.38323629  0.36116441  0.12352255  1
  O  O412  1  0.37057244  0.36578231  0.61999733  1
  O  O413  1  0.37109883  0.86951464  0.11965436  1
  O  O414  1  0.37433739  0.86698736  0.61520910  1
  O  O415  1  0.87371011  0.36950537  0.11948691  1
  O  O416  1  0.86932441  0.37224683  0.62090480  1
  O  O417  1  0.88436907  0.87020260  0.11178859  1
  O  O418  1  0.86633866  0.86445716  0.63401829  1
  O  O419  1  0.13615454  0.12381421  0.37431665  1
  O  O420  1  0.13810155  0.11947677  0.88257425  1
  O  O421  1  0.13637021  0.62697894  0.38150997  1
  O  O422  1  0.12903749  0.62867930  0.88147100  1
  O  O423  1  0.62902323  0.12861075  0.37532540  1
  O  O424  1  0.62285029  0.13689989  0.87909272  1
  O  O425  1  0.63344365  0.63131233  0.37923093  1
  O  O426  1  0.63242018  0.63668513  0.86766407  1
