# generated using pymatgen
data_V85Zn86O256
_symmetry_space_group_name_H-M   'P 1'
_cell_length_a   16.95711845
_cell_length_b   16.96620954
_cell_length_c   16.94643377
_cell_angle_alpha   89.99808484
_cell_angle_beta   89.91748405
_cell_angle_gamma   90.00271048
_symmetry_Int_Tables_number   1
_chemical_formula_structural   V85Zn86O256
_chemical_formula_sum   'V85 Zn86 O256'
_cell_volume   4875.45046189
_cell_formula_units_Z   1
loop_
 _symmetry_equiv_pos_site_id
 _symmetry_equiv_pos_as_xyz
  1  'x, y, z'
loop_
 _atom_site_type_symbol
 _atom_site_label
 _atom_site_symmetry_multiplicity
 _atom_site_fract_x
 _atom_site_fract_y
 _atom_site_fract_z
 _atom_site_occupancy
  V  V0  1  -0.00351059  0.01312116  0.00577170  1
  V  V1  1  0.24806809  0.25369533  0.01226357  1
  V  V2  1  0.38106110  -0.00008163  0.37609504  1
  V  V3  1  0.86994150  0.12099006  0.74907460  1
  V  V4  1  0.50923701  0.11841864  0.11374953  1
  V  V5  1  0.13067225  0.75572799  0.87635346  1
  V  V6  1  0.37183676  0.51248768  0.87218321  1
  V  V7  1  0.62528593  0.24722908  0.88026621  1
  V  V8  1  0.74934633  0.37447749  0.62114803  1
  V  V9  1  0.24726763  0.12829125  0.87891378  1
  V  V10  1  0.74581983  0.89162465  0.62614857  1
  V  V11  1  -0.00172405  0.75835861  0.74478889  1
  V  V12  1  0.87634101  0.37330881  0.49359140  1
  V  V13  1  0.37038333  0.37926793  0.00399441  1
  V  V14  1  0.00415667  0.25399197  0.75256850  1
  V  V15  1  0.36097604  0.48963300  0.37120241  1
  V  V16  1  0.25115841  0.51499381  0.75252278  1
  V  V17  1  0.12414280  0.25679992  0.87475198  1
  V  V18  1  0.87394995  0.62116522  0.74467581  1
  V  V19  1  0.87826692  0.87388118  0.49353301  1
  V  V20  1  0.62215979  0.12037872  0.50316191  1
  V  V21  1  0.75062128  0.24755252  0.49676642  1
  V  V22  1  0.50166103  0.00011601  0.50383428  1
  V  V23  1  0.12390035  0.25373846  0.36259974  1
  V  V24  1  0.10807893  0.87343080  0.25386186  1
  V  V25  1  0.38565824  0.13133444  0.25152304  1
  V  V26  1  0.37323630  0.00080539  0.88453424  1
  V  V27  1  0.62138859  0.24703944  0.36645842  1
  V  V28  1  -0.05888096  0.82238857  0.92970194  1
  V  V29  1  0.00559408  0.49399641  0.49387018  1
  V  V30  1  0.25008897  0.63423236  0.37328089  1
  V  V31  1  0.12594943  0.49359917  0.62505612  1
  V  V32  1  0.49607853  0.49932982  0.49749458  1
  V  V33  1  0.25109537  0.24978194  0.50538646  1
  V  V34  1  0.00139493  -0.00167856  0.49186450  1
  V  V35  1  0.74957465  0.49751176  0.74669134  1
  V  V36  1  0.74909710  0.62255901  0.37037647  1
  V  V37  1  0.74814960  0.74992325  0.49923744  1
  V  V38  1  0.25257105  0.12651007  0.37454646  1
  V  V39  1  0.37700780  0.36905005  0.50940636  1
  V  V40  1  0.12567994  0.61729381  0.00016465  1
  V  V41  1  0.88069445  -0.00084579  0.87257213  1
  V  V42  1  0.75071825  0.61551711  0.87343088  1
  V  V43  1  0.49549713  0.75082507  0.75416119  1
  V  V44  1  0.62853028  0.62257416  0.00279421  1
  V  V45  1  0.55780926  0.06599741  0.68564885  1
  V  V46  1  0.62286899  0.50080019  0.62229056  1
  V  V47  1  0.00204849  0.12431099  0.62228223  1
  V  V48  1  -0.00003856  0.62350734  0.61933154  1
  V  V49  1  0.00164424  0.63721772  0.12551978  1
  V  V50  1  0.87161676  0.74918409  0.62126655  1
  V  V51  1  0.73247018  -0.00628146  0.23582031  1
  V  V52  1  0.88741440  0.12495768  0.24400534  1
  V  V53  1  0.24954699  0.74678933  -0.00136029  1
  V  V54  1  0.74825473  0.85854133  0.11329646  1
  V  V55  1  0.37838149  0.87564593  0.50626030  1
  V  V56  1  0.50266343  0.62397211  0.12762552  1
  V  V57  1  0.38327686  0.25582621  0.13032211  1
  V  V58  1  0.49618866  0.37476944  0.87419857  1
  V  V59  1  0.37178331  0.12747747  0.73888728  1
  V  V60  1  0.74784868  0.11972201  0.87997308  1
  V  V61  1  0.75017817  0.12245935  0.36954183  1
  V  V62  1  0.24889491  0.75427334  0.50106029  1
  V  V63  1  0.37761648  0.62456349  0.25082157  1
  V  V64  1  0.12105120  0.48852993  0.13280208  1
  V  V65  1  0.25278342  0.87782779  0.13084437  1
  V  V66  1  0.87726371  0.24937986  0.62232000  1
  V  V67  1  0.00216144  0.37127205  0.35548858  1
  V  V68  1  0.61666875  0.76086242  0.37151282  1
  V  V69  1  0.88533777  0.37921737  -0.00595822  1
  V  V70  1  0.62369097  0.37430819  0.74975596  1
  V  V71  1  0.62521540  0.74440551  0.86965537  1
  V  V72  1  0.53216459  0.90574443  0.89448166  1
  V  V73  1  0.88670270  0.24548444  0.12503269  1
  V  V74  1  0.11235917  0.75353841  0.37294625  1
  V  V75  1  0.37816711  0.75150409  0.12269612  1
  V  V76  1  0.87451610  -0.00544823  0.36592998  1
  V  V77  1  0.49592172  0.25081151  0.73661391  1
  V  V78  1  0.24981411  0.37017729  0.63567928  1
  V  V79  1  0.62233314  0.62466137  0.49690009  1
  V  V80  1  0.24411170  -0.00059425  0.75115293  1
  V  V81  1  0.49057177  0.62690717  0.62868297  1
  V  V82  1  0.74937144  0.37201768  0.12299111  1
  V  V83  1  0.87927134  0.63524912  0.24475194  1
  V  V84  1  0.50006979  0.37048425  0.36826257  1
  Zn  Zn85  1  0.12097151  0.00491353  0.13031636  1
  Zn  Zn86  1  0.62408058  0.37360920  0.24616687  1
  Zn  Zn87  1  0.25124043  0.00078562  0.24923137  1
  Zn  Zn88  1  0.12417228  -0.00334833  0.62085979  1
  Zn  Zn89  1  0.06039501  0.42232489  0.81457973  1
  Zn  Zn90  1  0.74875332  0.24559268  0.00204264  1
  Zn  Zn91  1  0.11977110  0.87945800  0.75310722  1
  Zn  Zn92  1  0.87790729  0.49864586  0.36716220  1
  Zn  Zn93  1  0.49944839  0.50012136  0.00014488  1
  Zn  Zn94  1  0.62617525  0.49746590  0.12811334  1
  Zn  Zn95  1  0.24501076  0.87487235  0.62947994  1
  Zn  Zn96  1  0.36971462  0.74778317  0.63207355  1
  Zn  Zn97  1  0.62489645  0.88269638  0.74247911  1
  Zn  Zn98  1  0.89175030  0.48977208  0.87054188  1
  Zn  Zn99  1  0.75040709  0.49876870  0.24603986  1
  Zn  Zn100  1  0.24851294  0.49330149  0.23852421  1
  Zn  Zn101  1  0.12167348  0.12929220  0.01143613  1
  Zn  Zn102  1  0.51612951  0.77436828  0.23969695  1
  Zn  Zn103  1  0.12472956  0.12422406  0.49649255  1
  Zn  Zn104  1  0.12631741  0.62430926  0.49630129  1
  Zn  Zn105  1  0.37690277  0.87793897  -0.00122004  1
  Zn  Zn106  1  0.76681324  0.74412252  -0.00300191  1
  Zn  Zn107  1  0.19015319  0.18444334  0.18850341  1
  Zn  Zn108  1  0.18457761  0.18533605  0.68860428  1
  Zn  Zn109  1  0.18859377  0.68935412  0.18935812  1
  Zn  Zn110  1  0.18232508  0.68942604  0.68263035  1
  Zn  Zn111  1  0.69231278  0.18485406  0.18565755  1
  Zn  Zn112  1  0.69154368  0.19148045  0.69268593  1
  Zn  Zn113  1  0.68994496  0.69032394  0.18870299  1
  Zn  Zn114  1  0.68341144  0.68759495  0.68457647  1
  Zn  Zn115  1  0.31292318  0.31271293  0.31497178  1
  Zn  Zn116  1  0.31316780  0.31233169  0.81488945  1
  Zn  Zn117  1  0.35434756  0.83432412  0.29565150  1
  Zn  Zn118  1  0.31187802  0.81569517  0.81538348  1
  Zn  Zn119  1  0.81367488  0.30988665  0.30667602  1
  Zn  Zn120  1  0.81271718  0.30869305  0.81207083  1
  Zn  Zn121  1  0.80599519  0.81402981  0.30818205  1
  Zn  Zn122  1  0.80357755  0.80761514  0.80345251  1
  Zn  Zn123  1  0.19566609  0.43222050  0.42373566  1
  Zn  Zn124  1  0.19243364  0.44033726  0.94080892  1
  Zn  Zn125  1  0.19052905  0.93622451  0.43390256  1
  Zn  Zn126  1  0.18307235  0.93516014  0.94123192  1
  Zn  Zn127  1  0.68632205  0.43751769  0.43390867  1
  Zn  Zn128  1  0.68986767  0.43470196  0.94111178  1
  Zn  Zn129  1  0.69048382  0.93963451  0.43777160  1
  Zn  Zn130  1  0.70412113  0.93121507  0.93305867  1
  Zn  Zn131  1  0.31014194  0.06833195  0.06775280  1
  Zn  Zn132  1  0.31029923  0.06146124  0.56369476  1
  Zn  Zn133  1  0.30832502  0.56216686  0.06327110  1
  Zn  Zn134  1  0.30959917  0.56124349  0.55824909  1
  Zn  Zn135  1  0.81358221  0.05912438  0.06138075  1
  Zn  Zn136  1  0.81636256  0.06393055  0.55637627  1
  Zn  Zn137  1  0.81723066  0.55775900  0.06365574  1
  Zn  Zn138  1  0.81344860  0.55939768  0.55490000  1
  Zn  Zn139  1  0.44033231  0.43999138  0.18674847  1
  Zn  Zn140  1  0.43354021  0.44058279  0.68864312  1
  Zn  Zn141  1  0.44346253  0.94468640  0.18469663  1
  Zn  Zn142  1  0.43229381  0.92982938  0.70163452  1
  Zn  Zn143  1  0.93441753  0.44575219  0.17982935  1
  Zn  Zn144  1  0.93489489  0.43630056  0.68111268  1
  Zn  Zn145  1  0.93043616  0.93421724  0.18127962  1
  Zn  Zn146  1  0.93366143  0.93904987  0.68154204  1
  Zn  Zn147  1  0.06594224  0.06058324  0.31187034  1
  Zn  Zn148  1  0.06030657  0.06787448  0.81780621  1
  Zn  Zn149  1  0.06332852  0.56391469  0.30784242  1
  Zn  Zn150  1  0.07076821  0.58154398  0.80555637  1
  Zn  Zn151  1  0.55898212  0.06370979  0.31387015  1
  Zn  Zn152  1  0.56216419  0.07511652  0.93433039  1
  Zn  Zn153  1  0.56168712  0.55851513  0.31089010  1
  Zn  Zn154  1  0.55920378  0.56201866  0.81043019  1
  Zn  Zn155  1  0.43918303  0.18666266  0.44586763  1
  Zn  Zn156  1  0.42961005  0.19388889  0.93411009  1
  Zn  Zn157  1  0.43621439  0.68941530  0.43746221  1
  Zn  Zn158  1  0.44155586  0.68897369  0.94177263  1
  Zn  Zn159  1  0.93972957  0.18522443  0.43004608  1
  Zn  Zn160  1  0.93521230  0.19147313  0.93679399  1
  Zn  Zn161  1  0.93549565  0.68360232  0.43401704  1
  Zn  Zn162  1  0.94790511  0.65346457  0.92963836  1
  Zn  Zn163  1  0.06040775  0.31235322  0.06169028  1
  Zn  Zn164  1  0.06731635  0.31158840  0.55776570  1
  Zn  Zn165  1  0.06924444  0.81345091  0.06869722  1
  Zn  Zn166  1  0.06397489  0.81680455  0.56177989  1
  Zn  Zn167  1  0.55968496  0.31180368  0.06162756  1
  Zn  Zn168  1  0.56535660  0.31073024  0.55768060  1
  Zn  Zn169  1  0.57231725  0.81269645  0.05918290  1
  Zn  Zn170  1  0.56243295  0.81288331  0.56232107  1
  O  O171  1  0.13199195  0.11786449  0.12409358  1
  O  O172  1  0.11143897  0.12151106  0.62203010  1
  O  O173  1  0.11636546  0.62470297  0.12174665  1
  O  O174  1  0.11758111  0.61281115  0.61992712  1
  O  O175  1  0.60703495  0.13373240  0.12618781  1
  O  O176  1  0.62396107  0.12264458  0.62512399  1
  O  O177  1  0.62058132  0.62595045  0.11817798  1
  O  O178  1  0.61590932  0.62003431  0.61503364  1
  O  O179  1  0.38878670  0.36922842  0.39233142  1
  O  O180  1  0.38127341  0.38179872  0.88144495  1
  O  O181  1  0.36783357  0.88969583  0.39635924  1
  O  O182  1  0.37067603  0.89420824  0.87911213  1
  O  O183  1  0.88386482  0.37156118  0.37842050  1
  O  O184  1  0.86859607  0.37261032  0.88822328  1
  O  O185  1  0.86730617  0.88344447  0.38070989  1
  O  O186  1  0.87506528  0.87695658  0.87013383  1
  O  O187  1  0.26207754  0.01132600  0.37836582  1
  O  O188  1  0.25301387  0.00905285  0.87319182  1
  O  O189  1  0.25440245  0.53123595  0.40514241  1
  O  O190  1  0.25512464  0.49796074  0.86003872  1
  O  O191  1  0.75799354  0.00484743  0.36812551  1
  O  O192  1  0.76813124  0.00613426  0.87499930  1
  O  O193  1  0.75163643  0.51327635  0.37673651  1
  O  O194  1  0.74785969  0.50646129  0.86673074  1
  O  O195  1  0.23128336  0.50530541  0.12564198  1
  O  O196  1  0.24477342  0.49492107  0.63363693  1
  O  O197  1  0.25057888  0.99056866  0.12676895  1
  O  O198  1  0.24454784  1.00112974  0.63647793  1
  O  O199  1  0.74804503  0.48770186  0.12299017  1
  O  O200  1  0.74301293  0.49439856  0.62497511  1
  O  O201  1  0.74390204  1.00115085  0.13306477  1
  O  O202  1  0.75494468  0.98996429  0.61991454  1
  O  O203  1  -0.00770010  0.37852315  0.25742519  1
  O  O204  1  -0.00344782  0.35948322  0.74134866  1
  O  O205  1  0.00987699  0.87816132  0.24710627  1
  O  O206  1  -0.00458557  0.86177058  0.74276496  1
  O  O207  1  0.49910198  0.37575212  0.26498584  1
  O  O208  1  0.50133115  0.36972520  0.75521291  1
  O  O209  1  0.46113428  0.86824131  0.26134047  1
  O  O210  1  0.50732491  0.87145508  0.77177336  1
  O  O211  1  0.48971515  0.12498258  0.24238561  1
  O  O212  1  0.49429719  0.13061635  0.74255759  1
  O  O213  1  0.49509621  0.62702843  0.23936580  1
  O  O214  1  0.50469593  0.63416063  0.73888258  1
  O  O215  1  0.98646407  0.11877783  0.25342365  1
  O  O216  1  0.99227712  0.13395851  0.74141740  1
  O  O217  1  0.98860375  0.62512410  0.24213571  1
  O  O218  1  0.99392596  0.63789290  0.73773237  1
  O  O219  1  0.36740507  0.26002165  0.00660249  1
  O  O220  1  0.36203793  0.25494957  0.50066583  1
  O  O221  1  0.36843593  0.74875502  0.00882888  1
  O  O222  1  0.36981097  0.76046355  0.50203163  1
  O  O223  1  0.87215170  0.25584225  0.00919060  1
  O  O224  1  0.87125609  0.25245301  0.50252817  1
  O  O225  1  0.88739376  0.75116794  -0.02162396  1
  O  O226  1  0.86997644  0.75687562  0.50035801  1
  O  O227  1  0.13745486  0.24670315  0.49182996  1
  O  O228  1  0.13251768  0.25049407  0.99509945  1
  O  O229  1  0.13233901  0.75209506  0.49191315  1
  O  O230  1  0.13220716  0.74618068  0.99593687  1
  O  O231  1  0.63125174  0.23695809  0.49606653  1
  O  O232  1  0.62500566  0.25594271  0.98343229  1
  O  O233  1  0.62823572  0.74258033  0.49283895  1
  O  O234  1  0.62871307  0.73454421  0.98745122  1
  O  O235  1  0.48702983  0.24356094  0.12141605  1
  O  O236  1  0.50317373  0.25657492  0.63723144  1
  O  O237  1  0.49508956  0.74475700  0.12444639  1
  O  O238  1  0.49888684  0.74397418  0.63332797  1
  O  O239  1  0.98557464  0.25075236  0.12359674  1
  O  O240  1  0.99707751  0.24253800  0.62641806  1
  O  O241  1  1.00455955  0.73666855  0.12591746  1
  O  O242  1  0.99297597  0.74504656  0.62684111  1
  O  O243  1  0.01528680  0.25485024  0.37604781  1
  O  O244  1  0.00985495  0.24469460  0.86510746  1
  O  O245  1  0.01329834  0.74806292  0.38176744  1
  O  O246  1  -0.00020914  0.75437619  0.86934084  1
  O  O247  1  0.51096163  0.25722211  0.38646031  1
  O  O248  1  0.50417022  0.26004546  0.86748558  1
  O  O249  1  0.51483903  0.74563227  0.37496277  1
  O  O250  1  0.51500587  0.73806282  0.86749715  1
  O  O251  1  0.25047762  0.13179166  0.49131930  1
  O  O252  1  0.25117132  0.13709261  0.99336382  1
  O  O253  1  0.24945333  0.64358393  0.50158525  1
  O  O254  1  0.24118422  0.63924729  1.00711650  1
  O  O255  1  0.74339336  0.12777524  0.49246431  1
  O  O256  1  0.75343878  0.12503484  0.98474533  1
  O  O257  1  0.74414354  0.63003253  0.49193153  1
  O  O258  1  0.74864382  0.62375079  0.99047850  1
  O  O259  1  0.26278691  0.36829497  -0.00362518  1
  O  O260  1  0.25858605  0.36811250  0.50815520  1
  O  O261  1  0.24818935  0.86487920  0.01212924  1
  O  O262  1  0.25567023  0.86755581  0.50395227  1
  O  O263  1  0.75683512  0.36967626  0.00877683  1
  O  O264  1  0.75478975  0.36825316  0.50120132  1
  O  O265  1  0.75419094  0.86227778  0.00639541  1
  O  O266  1  0.75910050  0.87115708  0.50725198  1
  O  O267  1  0.12791768  0.49882752  0.23829243  1
  O  O268  1  0.13497948  0.49843478  0.74344064  1
  O  O269  1  0.13098014  0.98536796  0.25373578  1
  O  O270  1  0.13433495  1.00413637  0.75518220  1
  O  O271  1  0.63039054  0.49323142  0.24860402  1
  O  O272  1  0.62904473  0.49345415  0.74185255  1
  O  O273  1  0.63507243  1.00394203  0.25444183  1
  O  O274  1  0.61163545  1.00767108  0.74330766  1
  O  O275  1  0.37400183  0.01281290  0.26172479  1
  O  O276  1  0.36159100  0.00773499  0.76014587  1
  O  O277  1  0.37442454  0.51260264  0.25046130  1
  O  O278  1  0.36056573  0.49969966  0.75621235  1
  O  O279  1  0.86984096  0.00497405  0.25500178  1
  O  O280  1  0.88533997  0.01090307  0.75693735  1
  O  O281  1  0.87030261  0.51293817  0.25026515  1
  O  O282  1  0.86604637  0.50279557  0.74553480  1
  O  O283  1  0.11559703  0.36137528  0.38007789  1
  O  O284  1  0.13289213  0.36247454  0.87788155  1
  O  O285  1  0.12983539  0.86845608  0.36151634  1
  O  O286  1  0.12328436  0.86179388  0.87259198  1
  O  O287  1  0.61682630  0.36452478  0.37779925  1
  O  O288  1  0.61696678  0.37186163  0.86811204  1
  O  O289  1  0.62953353  0.85869157  0.38423292  1
  O  O290  1  0.63391648  0.85859114  0.86424096  1
  O  O291  1  0.38109437  0.13500291  0.13358254  1
  O  O292  1  0.36759604  0.12574420  0.63960913  1
  O  O293  1  0.38368940  0.62979401  0.12782257  1
  O  O294  1  0.38745759  0.62601604  0.61805928  1
  O  O295  1  0.87072508  0.13697425  0.12863595  1
  O  O296  1  0.88312523  0.12841613  0.62921800  1
  O  O297  1  0.88796119  0.62211414  0.13271849  1
  O  O298  1  0.87979640  0.62804226  0.62499609  1
  O  O299  1  0.26053050  0.24857872  0.11564699  1
  O  O300  1  0.24100118  0.25835869  0.61868127  1
  O  O301  1  0.25888485  0.75537808  0.11978519  1
  O  O302  1  0.25131379  0.75368835  0.61833414  1
  O  O303  1  0.75714354  0.25574148  0.12125807  1
  O  O304  1  0.75678561  0.25408441  0.61757476  1
  O  O305  1  0.75281758  0.75251686  0.11693820  1
  O  O306  1  0.75606139  0.75003722  0.61593792  1
  O  O307  1  0.24299564  0.24469936  0.38347147  1
  O  O308  1  0.24559427  0.24462515  0.88319585  1
  O  O309  1  0.24562514  0.74209813  0.38389969  1
  O  O310  1  0.24383346  0.75351429  0.88473927  1
  O  O311  1  0.74398222  0.24313652  0.37941674  1
  O  O312  1  0.74123901  0.24072671  0.87367964  1
  O  O313  1  0.74167103  0.73919953  0.37978949  1
  O  O314  1  0.74267698  0.73308955  0.87014689  1
  O  O315  1  -0.00000858  0.11582337  -0.00152008  1
  O  O316  1  -0.00119901  0.11751115  0.50567925  1
  O  O317  1  0.01069592  0.62453234  0.01590999  1
  O  O318  1  -0.00036715  0.60991550  0.50150321  1
  O  O319  1  0.49653670  0.13281396  0.00708003  1
  O  O320  1  0.50798966  0.11444215  0.50667359  1
  O  O321  1  0.50963083  0.62409586  0.01177420  1
  O  O322  1  0.50370733  0.61860330  0.50432899  1
  O  O323  1  0.49445909  0.38040387  0.49825798  1
  O  O324  1  0.48956840  0.37708034  0.99069955  1
  O  O325  1  0.49469610  0.89064480  0.50896298  1
  O  O326  1  0.49653208  0.85692878  0.97823991  1
  O  O327  1  0.99612572  0.38220476  0.49497397  1
  O  O328  1  0.98426476  0.37106916  0.99763467  1
  O  O329  1  0.98562553  0.88318972  0.50393542  1
  O  O330  1  0.99720452  0.87440122  0.99645157  1
  O  O331  1  0.48875726  0.49088542  0.38013015  1
  O  O332  1  0.49239296  0.48864206  0.87248379  1
  O  O333  1  0.48865782  1.00754259  0.38813874  1
  O  O334  1  0.47901158  1.00628024  0.87040120  1
  O  O335  1  1.00345352  0.48999074  0.37937014  1
  O  O336  1  1.00371904  0.50744762  0.85923925  1
  O  O337  1  0.98992943  1.00482901  0.38462193  1
  O  O338  1  0.98958719  1.00259801  0.88387928  1
  O  O339  1  -0.00149155  -0.00706092  0.10833646  1
  O  O340  1  -0.00312102  0.00831089  0.61123121  1
  O  O341  1  0.01485537  0.51220787  0.12764769  1
  O  O342  1  0.00841597  0.50050282  0.61687353  1
  O  O343  1  0.49577283  0.01837003  0.11822189  1
  O  O344  1  0.49888552  0.00224080  0.62863328  1
  O  O345  1  0.50437730  0.50999216  0.12121063  1
  O  O346  1  0.50397191  0.50715764  0.62082998  1
  O  O347  1  0.26942056  0.41630273  0.31989643  1
  O  O348  1  0.25573367  0.37883357  0.73798153  1
  O  O349  1  0.25941166  0.87576303  0.23821639  1
  O  O350  1  0.24704153  0.88662680  0.75105026  1
  O  O351  1  0.75065218  0.37464286  0.23608971  1
  O  O352  1  0.74521827  0.37775187  0.74184003  1
  O  O353  1  0.74645994  0.89077518  0.24703975  1
  O  O354  1  0.74805562  0.87476983  0.73060618  1
  O  O355  1  0.26186808  0.12497658  0.26325862  1
  O  O356  1  0.25450658  0.12211111  0.75886924  1
  O  O357  1  0.25760070  0.62171976  0.25941121  1
  O  O358  1  0.24653227  0.61334195  0.74453436  1
  O  O359  1  0.75627768  0.11283279  0.25307507  1
  O  O360  1  0.76430203  0.12975626  0.75715343  1
  O  O361  1  0.75856097  0.62333263  0.25527828  1
  O  O362  1  0.75245864  0.61717633  0.75266470  1
  O  O363  1  0.37183431  0.12414052  0.37157811  1
  O  O364  1  0.36344285  0.11959450  0.86910055  1
  O  O365  1  0.37080244  0.62204497  0.36535821  1
  O  O366  1  0.38358664  0.61087075  0.88017800  1
  O  O367  1  0.86874207  0.11733441  0.36616255  1
  O  O368  1  0.87066082  0.11951043  0.86657949  1
  O  O369  1  0.86743009  0.62273143  0.36452526  1
  O  O370  1  0.86631389  0.61515920  0.86271667  1
  O  O371  1  0.12064220  0.39002356  0.11839238  1
  O  O372  1  0.13410437  0.38609964  0.61993740  1
  O  O373  1  0.13364241  0.87767855  0.13989737  1
  O  O374  1  0.12496979  0.87996774  0.63366017  1
  O  O375  1  0.63269182  0.37268239  0.12479459  1
  O  O376  1  0.63098859  0.37969799  0.62826740  1
  O  O377  1  0.64395200  0.87001200  0.12411673  1
  O  O378  1  0.64137585  0.87379010  0.62160930  1
  O  O379  1  0.13942459  0.25549328  0.26449904  1
  O  O380  1  0.11599273  0.24561578  0.75970245  1
  O  O381  1  0.12969029  0.76511274  0.25773397  1
  O  O382  1  0.11408784  0.74759951  0.75831344  1
  O  O383  1  0.62956074  0.24944789  0.26397179  1
  O  O384  1  0.61726867  0.25664012  0.75783033  1
  O  O385  1  0.62586766  0.74808503  0.26570233  1
  O  O386  1  0.61580028  0.75057442  0.75354616  1
  O  O387  1  0.36832629  0.24640641  0.24167978  1
  O  O388  1  0.38526170  0.23930081  0.75908011  1
  O  O389  1  0.37136069  0.73471529  0.23472602  1
  O  O390  1  0.39013212  0.75887124  0.75160606  1
  O  O391  1  0.87083512  0.23951358  0.23486237  1
  O  O392  1  0.88167307  0.24293591  0.74153840  1
  O  O393  1  0.86944310  0.73429136  0.25426233  1
  O  O394  1  0.87945328  0.74169517  0.74190139  1
  O  O395  1  0.37834794  0.48875797  0.49522984  1
  O  O396  1  0.37342236  0.49453091  0.99278991  1
  O  O397  1  0.38307039  0.99799880  0.49885725  1
  O  O398  1  0.36780203  1.00347521  0.98742818  1
  O  O399  1  0.88500178  0.49055179  0.49335911  1
  O  O400  1  0.87411354  0.48397558  0.99478980  1
  O  O401  1  0.87933466  0.99307384  0.48780411  1
  O  O402  1  0.88781112  1.00100264  0.99149091  1
  O  O403  1  0.10663346  0.00055368  -0.00312454  1
  O  O404  1  0.11513396  0.00147210  0.49630093  1
  O  O405  1  0.13206882  0.51381125  0.00546941  1
  O  O406  1  0.11931016  0.49864660  0.50506770  1
  O  O407  1  0.60061134  -0.02777024  -0.04708593  1
  O  O408  1  0.61931959  0.01159107  0.49648385  1
  O  O409  1  0.62323932  0.51234515  -0.00154460  1
  O  O410  1  0.61694256  0.50455834  0.50294009  1
  O  O411  1  0.38067294  0.37029391  0.11680443  1
  O  O412  1  0.36752277  0.37828993  0.61600575  1
  O  O413  1  0.37132162  0.86732690  0.11698734  1
  O  O414  1  0.37179809  0.87514885  0.61739137  1
  O  O415  1  0.87032954  0.36648437  0.11585791  1
  O  O416  1  0.86812984  0.36873916  0.61367322  1
  O  O417  1  0.84745689  0.87872829  0.13249679  1
  O  O418  1  0.86421614  0.86965245  0.61553332  1
  O  O419  1  0.13386435  0.13490552  0.37385254  1
  O  O420  1  0.13569777  0.13573945  0.87975389  1
  O  O421  1  0.13126939  0.63540086  0.37373430  1
  O  O422  1  0.11821211  0.64297717  0.88901752  1
  O  O423  1  0.62782111  0.13057362  0.38413159  1
  O  O424  1  0.63473046  0.13441864  0.86840098  1
  O  O425  1  0.63086563  0.62825381  0.38062962  1
  O  O426  1  0.63268116  0.62479839  0.87852296  1
