# generated using pymatgen
data_V85Zn86O256
_symmetry_space_group_name_H-M   'P 1'
_cell_length_a   16.94889498
_cell_length_b   16.96449254
_cell_length_c   16.95683026
_cell_angle_alpha   89.97140238
_cell_angle_beta   90.03401748
_cell_angle_gamma   90.00555984
_symmetry_Int_Tables_number   1
_chemical_formula_structural   V85Zn86O256
_chemical_formula_sum   'V85 Zn86 O256'
_cell_volume   4875.58578361
_cell_formula_units_Z   1
loop_
 _symmetry_equiv_pos_site_id
 _symmetry_equiv_pos_as_xyz
  1  'x, y, z'
loop_
 _atom_site_type_symbol
 _atom_site_label
 _atom_site_symmetry_multiplicity
 _atom_site_fract_x
 _atom_site_fract_y
 _atom_site_fract_z
 _atom_site_occupancy
  V  V0  1  0.62317134  0.00062867  0.12564076  1
  V  V1  1  0.61006481  0.62029020  0.49884940  1
  V  V2  1  -0.00773772  0.24697473  0.25291777  1
  V  V3  1  0.00357865  0.62626855  0.12696596  1
  V  V4  1  0.37476798  0.74786962  0.63550908  1
  V  V5  1  0.86758329  0.49738323  0.87697858  1
  V  V6  1  0.12471170  0.12436425  0.00381871  1
  V  V7  1  0.24924437  0.37624458  0.12659968  1
  V  V8  1  0.74765303  0.61858824  0.37871098  1
  V  V9  1  0.62559012  0.37583431  0.25049165  1
  V  V10  1  0.25081215  0.12636939  0.87542840  1
  V  V11  1  -0.00988174  0.12323098  0.13024902  1
  V  V12  1  0.25075438  0.12526810  0.37480372  1
  V  V13  1  0.49389943  0.13179418  0.12164018  1
  V  V14  1  0.62775107  0.24678091  0.87462794  1
  V  V15  1  0.87940511  0.63087254  0.25040783  1
  V  V16  1  0.62406267  0.74836247  0.87089785  1
  V  V17  1  0.24614516  -0.00092685  0.25160563  1
  V  V18  1  0.12425157  0.50524981  0.60821030  1
  V  V19  1  0.62884118  0.62442462  -0.00309996  1
  V  V20  1  0.12414644  0.37899794  0.24832490  1
  V  V21  1  0.76035914  0.11440500  0.87455776  1
  V  V22  1  0.37289255  0.50275225  0.87468387  1
  V  V23  1  -0.00182289  0.49173199  0.00159256  1
  V  V24  1  0.61705690  0.49618020  0.62141789  1
  V  V25  1  0.62424115  0.24914682  0.37474007  1
  V  V26  1  0.26206828  0.24949113  0.50487450  1
  V  V27  1  0.24881941  0.50495651  0.75015109  1
  V  V28  1  0.49448145  0.38616334  0.38125095  1
  V  V29  1  0.12173272  0.12594144  0.50796699  1
  V  V30  1  0.37635608  0.62313894  0.26170231  1
  V  V31  1  0.49685170  0.62681127  0.64361247  1
  V  V32  1  0.75209178  0.74587932  -0.00123241  1
  V  V33  1  0.23983865  0.74952656  0.49546798  1
  V  V34  1  0.49980340  0.00061348  -0.00114379  1
  V  V35  1  0.75909169  0.37469584  0.12120124  1
  V  V36  1  0.49836742  0.37266318  0.87561528  1
  V  V37  1  0.76054652  0.25309726  -0.00335083  1
  V  V38  1  0.24607993  0.87512222  0.62514079  1
  V  V39  1  -0.00038113  0.86178493  0.37157693  1
  V  V40  1  0.25314077  0.24954488  0.00563778  1
  V  V41  1  0.62549769  0.37464572  0.74920102  1
  V  V42  1  0.49922590  0.49970809  0.00081257  1
  V  V43  1  0.74935070  0.87320541  0.12905626  1
  V  V44  1  0.62714757  0.49983554  0.12457387  1
  V  V45  1  0.62529380  0.12008950  0.50151909  1
  V  V46  1  0.75779336  0.49857189  0.25307606  1
  V  V47  1  0.75057630  0.74666568  0.50800321  1
  V  V48  1  0.37398945  0.87298564  0.00033409  1
  V  V49  1  0.50289124  0.87082772  0.86895769  1
  V  V50  1  0.87440793  0.63068195  0.74792756  1
  V  V51  1  0.49566205  0.24998320  0.74241619  1
  V  V52  1  -0.00367979  -0.00410817  -0.00363566  1
  V  V53  1  0.49167520  0.25322748  0.24677742  1
  V  V54  1  0.11028766  0.75991447  0.86504309  1
  V  V55  1  -0.00323462  0.37439058  0.38253179  1
  V  V56  1  0.25761225  0.37002605  0.62842051  1
  V  V57  1  0.12304214  0.61873834  0.00106046  1
  V  V58  1  0.93106425  0.55025771  0.43057402  1
  V  V59  1  0.12049706  0.25178697  0.87605801  1
  V  V60  1  0.49790963  0.75832087  0.25209700  1
  V  V61  1  0.38303764  -0.00548098  0.37518314  1
  V  V62  1  0.25166686  0.50251048  0.24793867  1
  V  V63  1  0.24156432  -0.00313250  0.74824465  1
  V  V64  1  0.37062447  0.12979487  0.74098599  1
  V  V65  1  0.86815964  0.87519410  0.49971611  1
  V  V66  1  0.62234642  0.75560281  0.37319584  1
  V  V67  1  -0.00133117  0.00504307  0.49735316  1
  V  V68  1  0.12554415  0.25404372  0.37389519  1
  V  V69  1  0.12142536  0.86031743  0.25275658  1
  V  V70  1  0.74085262  -0.00589197  0.74153445  1
  V  V71  1  0.25075240  0.62723297  0.87143014  1
  V  V72  1  0.23402781  0.62901609  0.37768205  1
  V  V73  1  0.87491773  0.01093690  0.36331730  1
  V  V74  1  0.75781007  0.24928285  0.50401962  1
  V  V75  1  0.49671833  0.62562045  0.12544838  1
  V  V76  1  0.24606403  0.74990862  -0.00152919  1
  V  V77  1  0.87704578  0.87490307  -0.00409085  1
  V  V78  1  0.88063547  0.12603303  0.73614863  1
  V  V79  1  0.12376952  -0.00114215  0.12743994  1
  V  V80  1  0.50256927  0.11558522  0.62360359  1
  V  V81  1  0.75936440  0.37290402  0.62703897  1
  V  V82  1  0.37641745  0.37094212  0.00762850  1
  V  V83  1  0.12134678  0.37811155  0.75194852  1
  V  V84  1  0.37386734  0.00086751  0.87332727  1
  Zn  Zn85  1  0.74904045  0.50264751  0.75380830  1
  Zn  Zn86  1  0.62698534  0.12441527  -0.00191766  1
  Zn  Zn87  1  0.87995410  0.75084365  0.12811817  1
  Zn  Zn88  1  0.93647531  -0.06338873  0.82734526  1
  Zn  Zn89  1  -0.00656315  0.37210042  0.87838265  1
  Zn  Zn90  1  0.56189200  0.81075380  0.70565547  1
  Zn  Zn91  1  0.00290721  0.62011071  0.62690642  1
  Zn  Zn92  1  0.37299566  0.74788905  0.12492838  1
  Zn  Zn93  1  0.75463084  0.01152515  0.24420674  1
  Zn  Zn94  1  0.50657733  -0.01088500  0.49860854  1
  Zn  Zn95  1  0.87968868  0.37532381  0.50190610  1
  Zn  Zn96  1  0.38917227  0.38206171  0.51163477  1
  Zn  Zn97  1  0.37134584  0.12912276  0.24472582  1
  Zn  Zn98  1  0.75644202  0.13161331  0.36788744  1
  Zn  Zn99  1  0.62240989  0.87738884  0.25141914  1
  Zn  Zn100  1  -0.00763040  0.76726432  0.72476561  1
  Zn  Zn101  1  0.73567724  0.87247706  0.62713267  1
  Zn  Zn102  1  0.11298039  -0.00036864  0.63240285  1
  Zn  Zn103  1  0.87307162  0.24818851  0.12716805  1
  Zn  Zn104  1  0.37809369  0.86722459  0.49491735  1
  Zn  Zn105  1  -0.00428768  0.25112224  0.73162410  1
  Zn  Zn106  1  0.24762976  0.87356296  0.12554507  1
  Zn  Zn107  1  0.18539479  0.18925443  0.18711963  1
  Zn  Zn108  1  0.18256835  0.18986396  0.68780278  1
  Zn  Zn109  1  0.18777591  0.68463109  0.18210788  1
  Zn  Zn110  1  0.18300348  0.68895726  0.68799937  1
  Zn  Zn111  1  0.68448113  0.18754606  0.18659975  1
  Zn  Zn112  1  0.68789354  0.18475079  0.68751321  1
  Zn  Zn113  1  0.68791792  0.68650846  0.18719892  1
  Zn  Zn114  1  0.69171573  0.67886503  0.68687229  1
  Zn  Zn115  1  0.31463110  0.31457405  0.31507029  1
  Zn  Zn116  1  0.31066299  0.31358169  0.81602636  1
  Zn  Zn117  1  0.30993335  0.81155221  0.31025518  1
  Zn  Zn118  1  0.30815615  0.81450422  0.81339840  1
  Zn  Zn119  1  0.81443741  0.31271725  0.31650809  1
  Zn  Zn120  1  0.81601170  0.31125242  0.81030335  1
  Zn  Zn121  1  0.81175478  0.81102006  0.31790726  1
  Zn  Zn122  1  0.80776002  0.80744293  0.81235640  1
  Zn  Zn123  1  0.23773994  0.46012457  0.45717858  1
  Zn  Zn124  1  0.18581173  0.43809813  0.93866631  1
  Zn  Zn125  1  0.18523980  0.93553473  0.43715474  1
  Zn  Zn126  1  0.18462838  0.93699647  0.93635251  1
  Zn  Zn127  1  0.68568210  0.43528590  0.44066218  1
  Zn  Zn128  1  0.68850604  0.43493738  0.93781080  1
  Zn  Zn129  1  0.68949273  0.93840639  0.43310495  1
  Zn  Zn130  1  0.68756936  0.93376286  0.93877883  1
  Zn  Zn131  1  0.31242265  0.06046717  0.06379071  1
  Zn  Zn132  1  0.31268616  0.06116483  0.56110061  1
  Zn  Zn133  1  0.31214934  0.56137685  0.06426609  1
  Zn  Zn134  1  0.31829966  0.56711359  0.56427045  1
  Zn  Zn135  1  0.81209135  0.06050113  0.06099764  1
  Zn  Zn136  1  0.80702074  0.05731581  0.55794759  1
  Zn  Zn137  1  0.81668147  0.56212138  0.06296634  1
  Zn  Zn138  1  0.80542049  0.56272493  0.57189940  1
  Zn  Zn139  1  0.43579483  0.43895325  0.18987265  1
  Zn  Zn140  1  0.43558771  0.44145738  0.69062374  1
  Zn  Zn141  1  0.43383919  0.94015831  0.18649526  1
  Zn  Zn142  1  0.42674473  0.93932915  0.68477543  1
  Zn  Zn143  1  0.93998942  0.44081457  0.18849726  1
  Zn  Zn144  1  0.94147696  0.44285021  0.69021267  1
  Zn  Zn145  1  0.93844815  0.93279955  0.18624306  1
  Zn  Zn146  1  0.92554692  0.94396635  0.67152967  1
  Zn  Zn147  1  0.06170803  0.06290433  0.31648511  1
  Zn  Zn148  1  0.06242003  0.06863636  0.81382724  1
  Zn  Zn149  1  0.06850454  0.56181294  0.30504543  1
  Zn  Zn150  1  0.05753506  0.56636958  0.81457577  1
  Zn  Zn151  1  0.56576704  0.06850076  0.30665628  1
  Zn  Zn152  1  0.56310758  0.06286595  0.81221571  1
  Zn  Zn153  1  0.56480936  0.56419389  0.30993012  1
  Zn  Zn154  1  0.56573448  0.55989287  0.81548399  1
  Zn  Zn155  1  0.43873048  0.18671925  0.43481413  1
  Zn  Zn156  1  0.43708497  0.18797122  0.93484372  1
  Zn  Zn157  1  0.43348690  0.69265180  0.44070117  1
  Zn  Zn158  1  0.43716694  0.68775056  0.93474552  1
  Zn  Zn159  1  0.94223632  0.18831329  0.55868384  1
  Zn  Zn160  1  0.93830959  0.18390332  0.93801224  1
  Zn  Zn161  1  0.96514478  0.72154299  0.49572835  1
  Zn  Zn162  1  0.93423386  0.68099207  0.93538075  1
  Zn  Zn163  1  0.06403846  0.31072243  0.06691061  1
  Zn  Zn164  1  0.07556392  0.31897719  0.56006030  1
  Zn  Zn165  1  0.06228577  0.80968883  0.06219824  1
  Zn  Zn166  1  0.06684798  0.82214458  0.56379186  1
  Zn  Zn167  1  0.56909962  0.31152713  0.06213957  1
  Zn  Zn168  1  0.56625697  0.30697441  0.56207367  1
  Zn  Zn169  1  0.56179858  0.81172030  0.06162731  1
  Zn  Zn170  1  0.56090978  0.81476662  0.54567194  1
  O  O171  1  0.11836001  0.11853032  0.12008974  1
  O  O172  1  0.13261834  0.11965214  0.61067223  1
  O  O173  1  0.11801578  0.62508442  0.11379538  1
  O  O174  1  0.12675370  0.60854105  0.62620337  1
  O  O175  1  0.61393926  0.11722074  0.11959762  1
  O  O176  1  0.61497882  0.12878875  0.61505111  1
  O  O177  1  0.61789416  0.61908100  0.11728988  1
  O  O178  1  0.61682761  0.61720335  0.61907706  1
  O  O179  1  0.39241632  0.37432997  0.37446015  1
  O  O180  1  0.37889048  0.38067884  0.88623596  1
  O  O181  1  0.36774533  0.89248133  0.37086129  1
  O  O182  1  0.37873363  0.87893146  0.88440429  1
  O  O183  1  0.88885028  0.37378267  0.37839554  1
  O  O184  1  0.87725542  0.38929489  0.87005755  1
  O  O185  1  0.88400849  0.88124068  0.37806686  1
  O  O186  1  0.86496669  0.87356276  0.89148098  1
  O  O187  1  0.25348520  0.00796513  0.36861307  1
  O  O188  1  0.25313998  0.00583577  0.86864324  1
  O  O189  1  0.24608389  0.52077677  0.36154318  1
  O  O190  1  0.25201931  0.50832340  0.87142980  1
  O  O191  1  0.76492479  -0.00159421  0.36893383  1
  O  O192  1  0.74540069  0.01195276  0.87193923  1
  O  O193  1  0.74072620  0.50968283  0.36752447  1
  O  O194  1  0.76264234  0.49710118  0.87665946  1
  O  O195  1  0.25257431  0.48568055  0.13000725  1
  O  O196  1  0.24189692  0.49516082  0.63622638  1
  O  O197  1  0.24375010  0.99823757  0.13427015  1
  O  O198  1  0.25241255  0.99304199  0.63255802  1
  O  O199  1  0.74695846  0.49339483  0.13058760  1
  O  O200  1  0.73461283  0.48969573  0.62885040  1
  O  O201  1  0.74117226  0.99258526  0.12412406  1
  O  O202  1  0.74733375  0.99892855  0.63736887  1
  O  O203  1  0.00811284  0.37056880  0.25334955  1
  O  O204  1  0.01183300  0.37212903  0.75288632  1
  O  O205  1  0.00513536  0.87344833  0.26207432  1
  O  O206  1  -0.01749135  0.87924565  0.74356596  1
  O  O207  1  0.50587970  0.37097186  0.25532965  1
  O  O208  1  0.50275791  0.36678663  0.75543388  1
  O  O209  1  0.49896264  0.86138271  0.24307680  1
  O  O210  1  0.49009936  0.87985540  0.76437878  1
  O  O211  1  0.49842790  0.13658665  0.23984711  1
  O  O212  1  0.49289971  0.12998176  0.74421981  1
  O  O213  1  0.49278763  0.62899400  0.24389691  1
  O  O214  1  0.50219138  0.62204286  0.74304433  1
  O  O215  1  1.00959631  0.13486193  0.24195071  1
  O  O216  1  0.98410543  0.12529184  0.75232091  1
  O  O217  1  0.99122552  0.61637720  0.24116369  1
  O  O218  1  0.98959807  0.62838763  0.74685656  1
  O  O219  1  0.36591441  0.25966948  -0.00767746  1
  O  O220  1  0.36426737  0.25478660  0.49524955  1
  O  O221  1  0.36604222  0.75715196  -0.00135149  1
  O  O222  1  0.36221948  0.74873523  0.51117280  1
  O  O223  1  0.86404941  0.24767063  0.00149996  1
  O  O224  1  0.86102073  0.25055168  0.50174430  1
  O  O225  1  0.86669858  0.75296505  0.00135320  1
  O  O226  1  0.85926846  0.76100793  0.48590761  1
  O  O227  1  0.13434409  0.24267527  0.48726498  1
  O  O228  1  0.13250962  0.24522838  0.99599568  1
  O  O229  1  0.14044644  0.75429330  0.49949565  1
  O  O230  1  0.13123247  0.74124673  0.99298542  1
  O  O231  1  0.63131982  0.24075918  0.49165016  1
  O  O232  1  0.63344571  0.24861110  0.98659413  1
  O  O233  1  0.63175523  0.73792230  0.48909792  1
  O  O234  1  0.62979242  0.74137254  0.99549371  1
  O  O235  1  0.50779444  0.24308919  0.13200807  1
  O  O236  1  0.50299394  0.24240530  0.63858072  1
  O  O237  1  0.49890279  0.74107185  0.13157284  1
  O  O238  1  0.49198557  0.74311647  0.63061878  1
  O  O239  1  0.99927828  0.24132835  0.13356512  1
  O  O240  1  1.01162155  0.24994678  0.61962200  1
  O  O241  1  0.99761100  0.73262666  0.11887399  1
  O  O242  1  1.00134337  0.73960722  0.60567968  1
  O  O243  1  0.01273204  0.25934037  0.36636910  1
  O  O244  1  0.01206971  0.25163191  0.88016112  1
  O  O245  1  -0.00288543  0.76471861  0.38643806  1
  O  O246  1  0.01166355  0.74789903  0.88147786  1
  O  O247  1  0.50646365  0.25616633  0.36579940  1
  O  O248  1  0.50882269  0.25308986  0.86742092  1
  O  O249  1  0.50936533  0.73975301  0.36386430  1
  O  O250  1  0.50842290  0.75886577  0.87977967  1
  O  O251  1  0.24593162  0.13117663  0.49294342  1
  O  O252  1  0.24617352  0.12984957  0.99677691  1
  O  O253  1  0.24924121  0.63392004  0.48493219  1
  O  O254  1  0.24219797  0.63011415  0.99586630  1
  O  O255  1  0.74252905  0.13189235  0.49513370  1
  O  O256  1  0.74972272  0.12994574  0.98842374  1
  O  O257  1  0.74279105  0.62782052  0.49440939  1
  O  O258  1  0.73970498  0.63226483  1.00854565  1
  O  O259  1  0.25564998  0.37193697  0.00788266  1
  O  O260  1  0.24192006  0.36000242  0.51419118  1
  O  O261  1  0.25598762  0.86705501  -0.00083955  1
  O  O262  1  0.25354044  0.86559447  0.50279807  1
  O  O263  1  0.74515203  0.36508329  0.00919418  1
  O  O264  1  0.75009173  0.36670157  0.50860870  1
  O  O265  1  0.75470915  0.86813697  0.01107844  1
  O  O266  1  0.75177577  0.86426938  0.49517395  1
  O  O267  1  0.13918840  0.49146689  0.24824533  1
  O  O268  1  0.13390020  0.49227122  0.75580456  1
  O  O269  1  0.13385879  0.99609063  0.24771919  1
  O  O270  1  0.13729816  1.01168793  0.74866318  1
  O  O271  1  0.63601316  0.49679086  0.24312422  1
  O  O272  1  0.62702604  0.49114496  0.74573319  1
  O  O273  1  0.62334973  0.99659912  0.23684939  1
  O  O274  1  0.64211959  1.00487519  0.75360064  1
  O  O275  1  0.36280147  0.00275485  0.25652978  1
  O  O276  1  0.36398344  0.01042112  0.75586586  1
  O  O277  1  0.36257341  0.50827655  0.24581383  1
  O  O278  1  0.35831415  0.49345189  0.76006954  1
  O  O279  1  0.87626658  -0.00364004  0.25934340  1
  O  O280  1  0.86635427  0.01318103  0.75227947  1
  O  O281  1  0.86193375  0.50740002  0.24718292  1
  O  O282  1  0.87520406  0.50500371  0.76253681  1
  O  O283  1  0.12201099  0.36706951  0.36164530  1
  O  O284  1  0.12506741  0.36710753  0.86918037  1
  O  O285  1  0.10896118  0.88087393  0.36672632  1
  O  O286  1  0.12687706  0.85782456  0.87812384  1
  O  O287  1  0.61805416  0.36551018  0.37154137  1
  O  O288  1  0.61901850  0.36729503  0.86980974  1
  O  O289  1  0.63091057  0.85952622  0.36991827  1
  O  O290  1  0.61431727  0.86378814  0.88126179  1
  O  O291  1  0.38918269  0.12045882  0.12513255  1
  O  O292  1  0.37909176  0.12504968  0.63612994  1
  O  O293  1  0.38169527  0.62586188  0.13231104  1
  O  O294  1  0.38595594  0.63296054  0.62447919  1
  O  O295  1  0.88665799  0.12571631  0.12272543  1
  O  O296  1  0.87218363  0.12325406  0.63189682  1
  O  O297  1  0.88049343  0.62761451  0.13519598  1
  O  O298  1  0.88108686  0.61223113  0.64195090  1
  O  O299  1  0.24817055  0.26227166  0.11920056  1
  O  O300  1  0.24533556  0.25743089  0.61807321  1
  O  O301  1  0.25120595  0.75148639  0.10984395  1
  O  O302  1  0.25070507  0.75493845  0.61662586  1
  O  O303  1  0.74798677  0.25674912  0.11462067  1
  O  O304  1  0.73930870  0.26109592  0.61664130  1
  O  O305  1  0.74861650  0.75614096  0.11545281  1
  O  O306  1  0.74825270  0.74501867  0.61073614  1
  O  O307  1  0.24594862  0.24425406  0.37953606  1
  O  O308  1  0.23959350  0.24597948  0.88295734  1
  O  O309  1  0.25529603  0.74142589  0.38437177  1
  O  O310  1  0.24308268  0.74407418  0.88212668  1
  O  O311  1  0.74135105  0.25290552  0.38431237  1
  O  O312  1  0.74539483  0.24289793  0.87886966  1
  O  O313  1  0.74076179  0.73476484  0.37706639  1
  O  O314  1  0.73934659  0.75445258  0.89089444  1
  O  O315  1  0.00509376  0.11823981  0.00956813  1
  O  O316  1  0.01060511  0.11927334  0.49259481  1
  O  O317  1  0.00663280  0.61631910  0.00461520  1
  O  O318  1  -0.01096157  0.60898811  0.48862768  1
  O  O319  1  0.50151620  0.11997901  0.00358023  1
  O  O320  1  0.50578258  0.12674658  0.50874052  1
  O  O321  1  0.50464175  0.61966674  0.00690407  1
  O  O322  1  0.50850639  0.62905872  0.50609048  1
  O  O323  1  0.50264516  0.36864421  0.48661365  1
  O  O324  1  0.49384961  0.37712789  0.99700794  1
  O  O325  1  0.49094786  0.87760595  0.48979247  1
  O  O326  1  0.49132489  0.87969496  0.99232111  1
  O  O327  1  1.00419343  0.37407905  0.48573345  1
  O  O328  1  1.00770297  0.38822449  1.00330057  1
  O  O329  1  0.99234681  0.88337062  0.48853725  1
  O  O330  1  0.99042689  0.88331485  1.00738589  1
  O  O331  1  0.50862605  0.48407920  0.37054229  1
  O  O332  1  0.49485085  0.49242951  0.88153544  1
  O  O333  1  0.48402363  1.01012463  0.36820177  1
  O  O334  1  0.49509512  0.99494765  0.88042206  1
  O  O335  1  0.99742038  0.49481607  0.37186424  1
  O  O336  1  0.99275432  0.49660432  0.88528651  1
  O  O337  1  0.99016837  0.99456450  0.37939502  1
  O  O338  1  1.00372151  1.00557758  0.89091926  1
  O  O339  1  0.00514393  0.00620318  0.12032525  1
  O  O340  1  -0.00087195  -0.00017680  0.60343373  1
  O  O341  1  -0.00849875  0.51164469  0.11366028  1
  O  O342  1  0.02014791  0.49695556  0.62458345  1
  O  O343  1  0.50479426  0.00598384  0.11887767  1
  O  O344  1  0.49258576  0.01243215  0.62233069  1
  O  O345  1  0.50578715  0.50486194  0.12016106  1
  O  O346  1  0.50912000  0.50623261  0.63000337  1
  O  O347  1  0.24790280  0.38163515  0.24595750  1
  O  O348  1  0.24068788  0.37892893  0.74765141  1
  O  O349  1  0.24138981  0.88244343  0.24835145  1
  O  O350  1  0.25363783  0.88701694  0.74168174  1
  O  O351  1  0.74542018  0.38094219  0.24646905  1
  O  O352  1  0.74272406  0.37355335  0.74296046  1
  O  O353  1  0.74902042  0.87281267  0.23671824  1
  O  O354  1  0.75694357  0.89019911  0.74973647  1
  O  O355  1  0.24975520  0.11897945  0.25611760  1
  O  O356  1  0.25599353  0.12365606  0.75460363  1
  O  O357  1  0.25604216  0.62205332  0.25329786  1
  O  O358  1  0.24356779  0.61706912  0.76010754  1
  O  O359  1  0.74374651  0.12474397  0.25503304  1
  O  O360  1  0.75793375  0.11864540  0.75711815  1
  O  O361  1  0.75451638  0.61737880  0.25786404  1
  O  O362  1  0.76639643  0.61933168  0.74815819  1
  O  O363  1  0.36320084  0.11990765  0.37086610  1
  O  O364  1  0.36892318  0.11999386  0.86658715  1
  O  O365  1  0.36926275  0.62940132  0.36345346  1
  O  O366  1  0.35964779  0.61933951  0.88264100  1
  O  O367  1  0.87695771  0.10872509  0.37446725  1
  O  O368  1  0.86273732  0.12684375  0.86929760  1
  O  O369  1  0.86918260  0.61254515  0.37109986  1
  O  O370  1  0.87933905  0.60992324  0.86345933  1
  O  O371  1  0.13381717  0.36945164  0.13940796  1
  O  O372  1  0.13666200  0.38646176  0.63530312  1
  O  O373  1  0.12310108  0.88200452  0.13374244  1
  O  O374  1  0.14018452  0.88448936  0.62143162  1
  O  O375  1  0.63492408  0.38135174  0.13074354  1
  O  O376  1  0.62611778  0.38048122  0.63040571  1
  O  O377  1  0.63069746  0.88229543  0.12487117  1
  O  O378  1  0.62311812  0.86009524  0.62681018  1
  O  O379  1  0.12120685  0.25586158  0.25858028  1
  O  O380  1  0.12246220  0.25694258  0.76058499  1
  O  O381  1  0.13208065  0.76182847  0.24588456  1
  O  O382  1  0.11366695  0.74750485  0.76032695  1
  O  O383  1  0.61632017  0.25800980  0.25685935  1
  O  O384  1  0.61871536  0.25297215  0.75932212  1
  O  O385  1  0.61592021  0.74716909  0.25625818  1
  O  O386  1  0.63117663  0.73928684  0.76649385  1
  O  O387  1  0.38773187  0.25055706  0.25101872  1
  O  O388  1  0.38414559  0.24151828  0.76023019  1
  O  O389  1  0.38095389  0.74305200  0.24707090  1
  O  O390  1  0.36263330  0.75189505  0.73524972  1
  O  O391  1  0.88929577  0.25316899  0.24990959  1
  O  O392  1  0.87619069  0.23222575  0.75151155  1
  O  O393  1  0.86855255  0.73365362  0.25240683  1
  O  O394  1  0.87729419  0.73545726  0.75659080  1
  O  O395  1  0.34364395  0.48422815  0.49733669  1
  O  O396  1  0.38006689  0.49225107  0.99526502  1
  O  O397  1  0.37473822  1.00277903  0.48226543  1
  O  O398  1  0.37771376  0.99252609  0.99263879  1
  O  O399  1  0.87086414  0.49836259  0.49510636  1
  O  O400  1  0.88302395  0.50577388  0.98720806  1
  O  O401  1  0.87835805  0.99472998  0.48727433  1
  O  O402  1  0.88465443  0.98983450  1.00598208  1
  O  O403  1  0.11966099  0.00377077  0.00748634  1
  O  O404  1  0.11605275  0.01021632  0.49388452  1
  O  O405  1  0.11693764  0.51192192  -0.00615307  1
  O  O406  1  0.13693177  0.49568766  0.51071352  1
  O  O407  1  0.61885208  0.00014960  0.00939471  1
  O  O408  1  0.62283000  0.01560963  0.48649744  1
  O  O409  1  0.62013736  0.50580357  0.00362303  1
  O  O410  1  0.62717396  0.50823479  0.50956403  1
  O  O411  1  0.37063960  0.37724768  0.11352267  1
  O  O412  1  0.36230439  0.37528928  0.63040660  1
  O  O413  1  0.37270014  0.87447361  0.11096510  1
  O  O414  1  0.36333002  0.86764373  0.62087054  1
  O  O415  1  0.86199153  0.37258307  0.13158092  1
  O  O416  1  0.86275163  0.38366032  0.62500543  1
  O  O417  1  0.86727814  0.86981695  0.11777163  1
  O  O418  1  0.86059176  0.87933564  0.60273974  1
  O  O419  1  0.13629644  0.13220045  0.37927417  1
  O  O420  1  0.13146823  0.13315085  0.88289514  1
  O  O421  1  0.13604307  0.63219563  0.36699034  1
  O  O422  1  0.13380736  0.63321288  0.88203594  1
  O  O423  1  0.62206473  0.13905048  0.37976996  1
  O  O424  1  0.63506463  0.13308878  0.87455761  1
  O  O425  1  0.63050987  0.62812410  0.38197422  1
  O  O426  1  0.61837516  0.63037822  0.89025174  1
