# generated using pymatgen
data_V85Zn86O256
_symmetry_space_group_name_H-M   'P 1'
_cell_length_a   16.94543963
_cell_length_b   16.95246446
_cell_length_c   16.94972452
_cell_angle_alpha   90.07257958
_cell_angle_beta   90.04555869
_cell_angle_gamma   90.00313759
_symmetry_Int_Tables_number   1
_chemical_formula_structural   V85Zn86O256
_chemical_formula_sum   'V85 Zn86 O256'
_cell_volume   4869.09043732
_cell_formula_units_Z   1
loop_
 _symmetry_equiv_pos_site_id
 _symmetry_equiv_pos_as_xyz
  1  'x, y, z'
loop_
 _atom_site_type_symbol
 _atom_site_label
 _atom_site_symmetry_multiplicity
 _atom_site_fract_x
 _atom_site_fract_y
 _atom_site_fract_z
 _atom_site_occupancy
  V  V0  1  0.26044113  0.12368853  0.37246137  1
  V  V1  1  0.62492345  0.87459110  0.74926251  1
  V  V2  1  0.25279433  0.62408282  0.37775266  1
  V  V3  1  0.24753070  0.75426804  0.50608327  1
  V  V4  1  0.49702006  0.62689946  0.12588424  1
  V  V5  1  0.62002870  0.37307266  0.75132055  1
  V  V6  1  0.87371220  0.00479981  0.37288141  1
  V  V7  1  0.13511888  0.12886073  0.00093616  1
  V  V8  1  0.74713381  0.62772702  0.37351131  1
  V  V9  1  0.61349034  0.12175488  -0.00068950  1
  V  V10  1  0.12262400  -0.00453360  0.62952177  1
  V  V11  1  0.49984838  0.62794808  0.62803800  1
  V  V12  1  0.38567404  0.24653787  0.62815599  1
  V  V13  1  0.11545308  0.49141828  0.61604808  1
  V  V14  1  0.24897503  0.25402652  0.50990952  1
  V  V15  1  0.12503092  0.37334520  0.24814412  1
  V  V16  1  0.87204215  0.75122674  0.62689040  1
  V  V17  1  0.87291513  0.13479432  0.24588168  1
  V  V18  1  0.87356491  0.87642937  0.49972487  1
  V  V19  1  0.74971992  0.50049636  0.25036284  1
  V  V20  1  0.76191234  0.37255298  0.12710485  1
  V  V21  1  0.37596052  0.37325821  0.49669019  1
  V  V22  1  0.12214872  0.24833263  0.37379603  1
  V  V23  1  -0.00261878  0.00536694  0.50645032  1
  V  V24  1  0.50521797  0.00257076  0.51203017  1
  V  V25  1  0.37138367  0.88178873  0.49642324  1
  V  V26  1  0.12863631  0.88071245  0.24397354  1
  V  V27  1  0.11435800  0.25377637  0.86835505  1
  V  V28  1  0.25616413  0.37580573  0.11489290  1
  V  V29  1  0.88089670  0.50218132  0.38290530  1
  V  V30  1  0.12289852  0.62080268  -0.00444042  1
  V  V31  1  0.87678146  0.37392227  -0.01905878  1
  V  V32  1  0.12454990  0.75132136  0.37589544  1
  V  V33  1  -0.00738726  0.49737642  -0.00834479  1
  V  V34  1  0.25463775  0.75301793  0.00960586  1
  V  V35  1  0.12175763  0.12573668  0.50489533  1
  V  V36  1  0.49721226  0.88582474  0.37203450  1
  V  V37  1  0.50135643  0.49509797  0.49271595  1
  V  V38  1  0.74973065  0.49913481  0.75918709  1
  V  V39  1  0.87722522  -0.00055719  0.87651314  1
  V  V40  1  0.37657578  0.25022733  0.12402314  1
  V  V41  1  0.61709384  0.74731961  0.87225117  1
  V  V42  1  -0.00115955  0.13591945  0.12378566  1
  V  V43  1  0.74986996  0.00046044  0.74419742  1
  V  V44  1  0.89341002  0.24690937  0.62864842  1
  V  V45  1  0.24967381  0.50035402  0.25030792  1
  V  V46  1  0.74577466  0.75150114  0.49966337  1
  V  V47  1  0.62501293  0.12176224  0.51275223  1
  V  V48  1  0.29443262  0.93140866  0.68029630  1
  V  V49  1  0.49389301  0.88618280  0.88313412  1
  V  V50  1  0.75335217  0.24645134  0.00596651  1
  V  V51  1  0.75068545  0.12351048  0.87622741  1
  V  V52  1  0.48470579  0.37476131  0.87771526  1
  V  V53  1  0.25680514  0.11975103  0.85924478  1
  V  V54  1  0.87916744  0.87087403  0.00900061  1
  V  V55  1  0.00861895  0.00019830  0.00239765  1
  V  V56  1  0.87441846  0.61977748  0.75417870  1
  V  V57  1  0.37723463  0.62046943  0.75456799  1
  V  V58  1  0.12819020  0.74685031  0.87116903  1
  V  V59  1  0.25007515  0.61448154  0.87205979  1
  V  V60  1  0.62506620  0.62103885  -0.00148280  1
  V  V61  1  0.75190838  0.25036710  0.50585612  1
  V  V62  1  0.61382320  0.75081889  0.37217962  1
  V  V63  1  0.00311869  0.87188931  0.87451735  1
  V  V64  1  0.62483246  0.49913178  0.62414279  1
  V  V65  1  0.37765691  0.62961119  0.24926193  1
  V  V66  1  0.62244555  0.24979800  0.87681646  1
  V  V67  1  0.26424380  0.00181718  0.25182547  1
  V  V68  1  -0.00186493  0.75302786  0.24593875  1
  V  V69  1  0.00188288  0.74490053  0.74722398  1
  V  V70  1  0.75558572  0.74824523  0.00282731  1
  V  V71  1  0.87208325  0.63178759  0.24465515  1
  V  V72  1  0.61768251  0.37333032  0.25569893  1
  V  V73  1  0.62402175  0.49515223  0.12226873  1
  V  V74  1  0.25310606  0.48911991  0.73462520  1
  V  V75  1  -0.00067894  0.87643710  0.37355911  1
  V  V76  1  0.61868401  0.25048918  0.37864793  1
  V  V77  1  0.62518411  -0.00130808  0.11973281  1
  V  V78  1  0.62430518  0.87330032  0.24777234  1
  V  V79  1  -0.00440560  0.63036588  0.12245781  1
  V  V80  1  0.49970644  0.12764120  0.13851306  1
  V  V81  1  0.37465222  0.74939822  0.63014687  1
  V  V82  1  0.89061749  0.12628234  0.74986637  1
  V  V83  1  0.12222747  0.49848239  0.12313497  1
  V  V84  1  0.48309629  0.49596372  -0.00433720  1
  Zn  Zn85  1  0.11846330  0.61882186  0.49713343  1
  Zn  Zn86  1  0.00362706  0.38239854  0.37823344  1
  Zn  Zn87  1  0.75180730  0.62360350  0.87665574  1
  Zn  Zn88  1  0.44243843  0.79182414  0.18968480  1
  Zn  Zn89  1  0.75448185  0.87200327  0.12740256  1
  Zn  Zn90  1  0.38444595  0.87884243  0.02183544  1
  Zn  Zn91  1  0.75223791  0.37442158  0.62662612  1
  Zn  Zn92  1  0.74325168  0.87868135  0.62350308  1
  Zn  Zn93  1  0.25624180  0.25510193  -0.00692871  1
  Zn  Zn94  1  0.74910814  0.12665243  0.37478589  1
  Zn  Zn95  1  -0.00251408  0.61931193  0.61533198  1
  Zn  Zn96  1  -0.00614041  0.25618784  0.24653039  1
  Zn  Zn97  1  0.12917233  0.87213965  0.74478466  1
  Zn  Zn98  1  0.11350084  0.36629057  0.74617028  1
  Zn  Zn99  1  0.13172236  0.00319415  0.12843231  1
  Zn  Zn100  1  0.62139842  0.62533583  0.49934569  1
  Zn  Zn101  1  0.37931913  0.49151810  0.37207212  1
  Zn  Zn102  1  0.48840802  0.25359849  0.26023683  1
  Zn  Zn103  1  0.75121157  0.00054155  0.24806476  1
  Zn  Zn104  1  0.38046152  0.10667652  0.74329742  1
  Zn  Zn105  1  0.50221796  0.23548432  0.74971570  1
  Zn  Zn106  1  0.87959317  0.38112922  0.50797154  1
  Zn  Zn107  1  0.19107110  0.18816698  0.18694482  1
  Zn  Zn108  1  0.18551923  0.18677296  0.68673010  1
  Zn  Zn109  1  0.18307230  0.68513427  0.18912969  1
  Zn  Zn110  1  0.18632872  0.67677246  0.68369766  1
  Zn  Zn111  1  0.68675278  0.18819894  0.18904539  1
  Zn  Zn112  1  0.69007910  0.18672161  0.68918808  1
  Zn  Zn113  1  0.68344210  0.68933291  0.18497071  1
  Zn  Zn114  1  0.68712487  0.68705091  0.68867503  1
  Zn  Zn115  1  0.31060447  0.30989174  0.31196681  1
  Zn  Zn116  1  0.30628549  0.30645151  0.81080774  1
  Zn  Zn117  1  0.30927299  0.81566106  0.31602217  1
  Zn  Zn118  1  0.31692446  0.80264854  0.81960639  1
  Zn  Zn119  1  0.80655134  0.31413708  0.31710376  1
  Zn  Zn120  1  0.80850549  0.30748417  0.80803430  1
  Zn  Zn121  1  0.80954374  0.81365757  0.31225036  1
  Zn  Zn122  1  0.81164688  0.81174656  0.81825043  1
  Zn  Zn123  1  0.19065262  0.43405671  0.43692645  1
  Zn  Zn124  1  0.18639498  0.43805426  0.93285705  1
  Zn  Zn125  1  0.18630305  0.94004291  0.43582555  1
  Zn  Zn126  1  0.22889029  0.95752641  0.95900299  1
  Zn  Zn127  1  0.69230566  0.43522164  0.43876987  1
  Zn  Zn128  1  0.68489595  0.43342586  0.93808105  1
  Zn  Zn129  1  0.68640143  0.93857682  0.43578261  1
  Zn  Zn130  1  0.68949006  0.93571807  0.93676180  1
  Zn  Zn131  1  0.32250810  0.06070628  0.06672505  1
  Zn  Zn132  1  0.31556047  0.06878307  0.55461218  1
  Zn  Zn133  1  0.30999309  0.56719488  0.06482011  1
  Zn  Zn134  1  0.31353479  0.56203321  0.56039832  1
  Zn  Zn135  1  0.81338728  0.05993190  0.06439819  1
  Zn  Zn136  1  0.81272744  0.06821068  0.56568391  1
  Zn  Zn137  1  0.81263396  0.55966149  0.06148581  1
  Zn  Zn138  1  0.80830101  0.56726003  0.56547156  1
  Zn  Zn139  1  0.43575162  0.43984799  0.18642220  1
  Zn  Zn140  1  0.43592559  0.43258057  0.68211968  1
  Zn  Zn141  1  0.43994220  0.95381609  0.18790558  1
  Zn  Zn142  1  0.45875806  0.93186325  0.69000476  1
  Zn  Zn143  1  0.93885277  0.44368098  0.19015488  1
  Zn  Zn144  1  0.93859198  0.43003704  0.69433765  1
  Zn  Zn145  1  0.94142979  0.94493205  0.18685209  1
  Zn  Zn146  1  0.93774673  0.93516272  0.68913808  1
  Zn  Zn147  1  0.06121873  0.06594454  0.31354973  1
  Zn  Zn148  1  0.07277795  0.06058420  0.81880249  1
  Zn  Zn149  1  0.06298938  0.56600557  0.31136879  1
  Zn  Zn150  1  0.04913597  0.53167947  0.79428057  1
  Zn  Zn151  1  0.56746347  0.06250759  0.31634784  1
  Zn  Zn152  1  0.56079467  0.05951151  0.81114732  1
  Zn  Zn153  1  0.56222344  0.56268932  0.31020405  1
  Zn  Zn154  1  0.55949968  0.55916947  0.81317124  1
  Zn  Zn155  1  0.43962074  0.18657123  0.44177256  1
  Zn  Zn156  1  0.43285708  0.18791372  0.93737637  1
  Zn  Zn157  1  0.43482628  0.68806528  0.44205108  1
  Zn  Zn158  1  0.43503724  0.68830362  0.94005092  1
  Zn  Zn159  1  0.93873067  0.19111556  0.43811866  1
  Zn  Zn160  1  0.93821318  0.18791157  0.93907725  1
  Zn  Zn161  1  0.93613854  0.68748528  0.43594046  1
  Zn  Zn162  1  0.93727221  0.68542008  0.93449351  1
  Zn  Zn163  1  0.06277446  0.31275839  0.05640982  1
  Zn  Zn164  1  0.06094090  0.32020816  0.55737707  1
  Zn  Zn165  1  0.07129091  0.81098969  0.06059006  1
  Zn  Zn166  1  0.06137873  0.81342847  0.56283353  1
  Zn  Zn167  1  0.56058351  0.31233429  0.06181668  1
  Zn  Zn168  1  0.56187520  0.31423858  0.56105059  1
  Zn  Zn169  1  0.56834201  0.81158076  0.05647155  1
  Zn  Zn170  1  0.55903572  0.81262868  0.56275416  1
  O  O171  1  0.11789974  0.12682767  0.11752199  1
  O  O172  1  0.13106413  0.11682444  0.61089710  1
  O  O173  1  0.11608758  0.61640561  0.11885231  1
  O  O174  1  0.12293016  0.60984223  0.61766986  1
  O  O175  1  0.62171157  0.12000435  0.11819097  1
  O  O176  1  0.62737612  0.12840768  0.61225336  1
  O  O177  1  0.62015239  0.61072720  0.12254584  1
  O  O178  1  0.61662974  0.61942688  0.62474302  1
  O  O179  1  0.37170197  0.37310323  0.38815734  1
  O  O180  1  0.38593666  0.36720681  0.86989784  1
  O  O181  1  0.38601479  0.86792019  0.38605360  1
  O  O182  1  0.39451450  0.86722168  0.87038813  1
  O  O183  1  0.87191479  0.39611963  0.36861682  1
  O  O184  1  0.86870601  0.37369143  0.88292016  1
  O  O185  1  0.87947990  0.88293871  0.37931843  1
  O  O186  1  0.88403053  0.88001655  0.88447953  1
  O  O187  1  0.24533729  0.01648390  0.37083590  1
  O  O188  1  0.22844753  0.02244166  0.86476042  1
  O  O189  1  0.25153150  0.50850692  0.36910421  1
  O  O190  1  0.24472594  0.50999558  0.86270334  1
  O  O191  1  0.76391394  0.00079737  0.37500319  1
  O  O192  1  0.75828141  0.00370215  0.86868075  1
  O  O193  1  0.75421744  0.50931165  0.36839943  1
  O  O194  1  0.74268311  0.50108125  0.86255744  1
  O  O195  1  0.24363916  0.49450533  0.13051244  1
  O  O196  1  0.24840316  0.49844955  0.63101146  1
  O  O197  1  0.24860789  1.01318485  0.14917961  1
  O  O198  1  0.24288716  0.99749543  0.61664126  1
  O  O199  1  0.74248625  0.49266702  0.13037454  1
  O  O200  1  0.73593893  0.50042943  0.62950793  1
  O  O201  1  0.73828323  0.99669799  0.12655717  1
  O  O202  1  0.75618436  0.99746668  0.63981644  1
  O  O203  1  0.01180175  0.37610534  0.25198176  1
  O  O204  1  0.01736587  0.42146564  0.76927707  1
  O  O205  1  0.00500888  0.87200951  0.25373180  1
  O  O206  1  0.00071252  0.86374948  0.75733150  1
  O  O207  1  0.51435015  0.37623941  0.24505707  1
  O  O208  1  0.50980652  0.37616884  0.75675016  1
  O  O209  1  0.50639076  0.87365757  0.25757153  1
  O  O210  1  0.51794308  0.87191853  0.76462134  1
  O  O211  1  0.50962849  0.13032428  0.24160289  1
  O  O212  1  0.49151638  0.12278299  0.75477103  1
  O  O213  1  0.49039519  0.61886613  0.24034712  1
  O  O214  1  0.49174801  0.61645215  0.73768258  1
  O  O215  1  0.99336662  0.12720653  0.23994167  1
  O  O216  1  0.98867090  0.11569004  0.75854201  1
  O  O217  1  0.99242247  0.63144049  0.24238285  1
  O  O218  1  0.99061243  0.62787628  0.74212435  1
  O  O219  1  0.37268136  0.24878504  0.01570437  1
  O  O220  1  0.36933144  0.25339160  0.50659166  1
  O  O221  1  0.35948932  0.75532807  -0.00394332  1
  O  O222  1  0.36976086  0.76063327  0.51058592  1
  O  O223  1  0.86713391  0.26262405  -0.00316678  1
  O  O224  1  0.86884907  0.24453967  0.51442513  1
  O  O225  1  0.86938822  0.75848307  -0.00554356  1
  O  O226  1  0.86521553  0.75626059  0.50544287  1
  O  O227  1  0.13118555  0.24421480  0.49495427  1
  O  O228  1  0.12869505  0.24328505  0.99194291  1
  O  O229  1  0.13398431  0.75504532  0.49294059  1
  O  O230  1  0.12593936  0.73652282  0.98915638  1
  O  O231  1  0.63075623  0.24507784  0.49656456  1
  O  O232  1  0.63337263  0.24256671  0.99634668  1
  O  O233  1  0.63080093  0.75138634  0.49277842  1
  O  O234  1  0.63246685  0.74115294  0.98897855  1
  O  O235  1  0.49541569  0.24495378  0.12857062  1
  O  O236  1  0.48908699  0.25044466  0.62512255  1
  O  O237  1  0.51378693  0.73150787  0.12195420  1
  O  O238  1  0.48877347  0.74064823  0.62047781  1
  O  O239  1  1.00121116  0.23951037  0.12445938  1
  O  O240  1  0.99166861  0.24912873  0.62448700  1
  O  O241  1  1.00717790  0.73797482  0.12959348  1
  O  O242  1  0.99140491  0.75294466  0.63618113  1
  O  O243  1  0.01345677  0.24807991  0.36971164  1
  O  O244  1  0.01510201  0.24651918  0.87850028  1
  O  O245  1  0.00382955  0.75684901  0.36530959  1
  O  O246  1  0.00606290  0.74805480  0.86285334  1
  O  O247  1  0.51341523  0.24765908  0.37700672  1
  O  O248  1  0.50656970  0.25701305  0.87582604  1
  O  O249  1  0.51067800  0.75777316  0.38436150  1
  O  O250  1  0.51489016  0.74986549  0.87940182  1
  O  O251  1  0.24250579  0.13214952  0.48888601  1
  O  O252  1  0.24002356  0.12676572  1.00025086  1
  O  O253  1  0.25021878  0.63367423  0.49119429  1
  O  O254  1  0.24440617  0.62733324  0.98963031  1
  O  O255  1  0.74269899  0.13120368  0.49884917  1
  O  O256  1  0.74734191  0.13253119  0.99748423  1
  O  O257  1  0.74542312  0.63819797  0.49501848  1
  O  O258  1  0.74515163  0.62889178  0.99794977  1
  O  O259  1  0.24542665  0.37749155  0.01199824  1
  O  O260  1  0.25797067  0.36189147  0.49533662  1
  O  O261  1  0.22900717  0.84988499  -0.00061057  1
  O  O262  1  0.26059783  0.86827830  0.49113198  1
  O  O263  1  0.75956035  0.36922833  0.00591456  1
  O  O264  1  0.75912798  0.36689361  0.50487184  1
  O  O265  1  0.76209174  0.86762037  0.00063370  1
  O  O266  1  0.75321185  0.86731693  0.50128196  1
  O  O267  1  0.12893094  0.49433947  0.24441648  1
  O  O268  1  0.14450903  0.50830875  0.73090480  1
  O  O269  1  0.12751340  0.99345343  0.25195273  1
  O  O270  1  0.11819486  0.99921385  0.73303136  1
  O  O271  1  0.63072674  0.49389113  0.24373226  1
  O  O272  1  0.62927691  0.49351898  0.74292536  1
  O  O273  1  0.62708154  0.98868113  0.24501122  1
  O  O274  1  0.63552016  0.98396462  0.75912978  1
  O  O275  1  0.36287682  0.00308968  0.25928946  1
  O  O276  1  0.36654700  -0.01175481  0.73088869  1
  O  O277  1  0.36835159  0.50910785  0.25326877  1
  O  O278  1  0.36433129  0.50687513  0.73993390  1
  O  O279  1  0.87583614  0.00988930  0.25830415  1
  O  O280  1  0.87004909  0.00432249  0.75693504  1
  O  O281  1  0.86855581  0.51340908  0.25631094  1
  O  O282  1  0.85999479  0.50923259  0.73637745  1
  O  O283  1  0.12631250  0.36734436  0.36562579  1
  O  O284  1  0.13177496  0.35638321  0.87581875  1
  O  O285  1  0.11733418  0.87165663  0.36739144  1
  O  O286  1  0.11899405  0.85454583  0.86818804  1
  O  O287  1  0.63229652  0.36653289  0.36638056  1
  O  O288  1  0.62042269  0.36717430  0.86789075  1
  O  O289  1  0.61822628  0.87019111  0.36715179  1
  O  O290  1  0.62026024  0.86401366  0.87274458  1
  O  O291  1  0.38960412  0.13245774  0.12410565  1
  O  O292  1  0.37145609  0.14221087  0.62264404  1
  O  O293  1  0.38475578  0.62225916  0.13457394  1
  O  O294  1  0.38087198  0.63116092  0.62997614  1
  O  O295  1  0.88437214  0.11961351  0.13417605  1
  O  O296  1  0.87455577  0.13710621  0.63551075  1
  O  O297  1  0.88254090  0.62097518  0.13282574  1
  O  O298  1  0.87322327  0.63830071  0.63160226  1
  O  O299  1  0.25652844  0.25946024  0.12325099  1
  O  O300  1  0.25478013  0.24648966  0.61297148  1
  O  O301  1  0.24417628  0.73574133  0.10765365  1
  O  O302  1  0.25555421  0.74328899  0.61215811  1
  O  O303  1  0.74405840  0.25821527  0.11348266  1
  O  O304  1  0.75173799  0.25157182  0.61518068  1
  O  O305  1  0.74164626  0.75251711  0.10811781  1
  O  O306  1  0.75490305  0.75210314  0.61725453  1
  O  O307  1  0.23898794  0.24070491  0.37899865  1
  O  O308  1  0.24285701  0.23672279  0.87624514  1
  O  O309  1  0.24554041  0.74351517  0.38475930  1
  O  O310  1  0.24271043  0.73591358  0.87901039  1
  O  O311  1  0.74321739  0.24954223  0.39014016  1
  O  O312  1  0.74284756  0.24437057  0.88490707  1
  O  O313  1  0.74013584  0.74755901  0.38219283  1
  O  O314  1  0.74132670  0.74825573  0.88689464  1
  O  O315  1  0.00812243  0.11818073  0.00515738  1
  O  O316  1  0.00795805  0.11555077  0.49554206  1
  O  O317  1  0.00045284  0.62132677  0.00841766  1
  O  O318  1  0.00572155  0.63640840  0.50304704  1
  O  O319  1  0.51164412  0.13082144  0.00660967  1
  O  O320  1  0.50643949  0.10907182  0.49520282  1
  O  O321  1  0.50486449  0.61649278  0.00496406  1
  O  O322  1  0.49929935  0.61753101  0.51203329  1
  O  O323  1  0.49316782  0.38502815  0.50169242  1
  O  O324  1  0.50525878  0.38453372  0.99017376  1
  O  O325  1  0.49586214  0.88480852  0.49465048  1
  O  O326  1  0.49953780  0.86985819  0.98797977  1
  O  O327  1  0.98961993  0.36949203  0.48890329  1
  O  O328  1  0.98361843  0.38059687  1.00328089  1
  O  O329  1  0.99184072  0.88175968  0.49311113  1
  O  O330  1  0.99916223  0.87984809  0.99642409  1
  O  O331  1  0.50000427  0.50741585  0.38915568  1
  O  O332  1  0.50377760  0.48917464  0.88493181  1
  O  O333  1  0.50372106  0.98868058  0.38188826  1
  O  O334  1  0.50450918  0.98469201  0.87979939  1
  O  O335  1  0.98381669  0.50550230  0.36941010  1
  O  O336  1  0.99644368  0.51770183  0.89504837  1
  O  O337  1  0.98971220  0.99718910  0.38353566  1
  O  O338  1  1.00116050  0.99440435  0.88749226  1
  O  O339  1  0.00496197  0.00900611  0.11322437  1
  O  O340  1  0.00398402  -0.00590380  0.61259205  1
  O  O341  1  0.00295381  0.51020934  0.11782582  1
  O  O342  1  0.01256208  0.49875733  0.62177604  1
  O  O343  1  0.51535332  0.01356481  0.12684474  1
  O  O344  1  0.50874078  -0.00517335  0.61082211  1
  O  O345  1  0.50699093  0.50499403  0.11660621  1
  O  O346  1  0.50985434  0.50475428  0.61752938  1
  O  O347  1  0.23925756  0.38110392  0.24385266  1
  O  O348  1  0.24783826  0.38924192  0.75321798  1
  O  O349  1  0.24232011  0.89312060  0.26342319  1
  O  O350  1  0.24921920  0.86961842  0.74991081  1
  O  O351  1  0.74143244  0.37879325  0.24236668  1
  O  O352  1  0.73779536  0.38090511  0.74834980  1
  O  O353  1  0.74148437  0.87744965  0.24613057  1
  O  O354  1  0.74254262  0.88130841  0.75287313  1
  O  O355  1  0.24247162  0.11743260  0.26551042  1
  O  O356  1  0.25972120  0.12833184  0.75565474  1
  O  O357  1  0.25463810  0.61971974  0.25671940  1
  O  O358  1  0.25964790  0.61652769  0.75374833  1
  O  O359  1  0.75815061  0.12228351  0.25185027  1
  O  O360  1  0.75452401  0.11652147  0.75782550  1
  O  O361  1  0.75513693  0.62336523  0.25153232  1
  O  O362  1  0.75495223  0.61659585  0.75060899  1
  O  O363  1  0.35904874  0.13280250  0.37874808  1
  O  O364  1  0.35965290  0.12296158  0.87528098  1
  O  O365  1  0.36557455  0.62339837  0.37150969  1
  O  O366  1  0.36924868  0.63017384  0.86154595  1
  O  O367  1  0.87489362  0.11903953  0.36831120  1
  O  O368  1  0.86973234  0.12007784  0.87102659  1
  O  O369  1  0.86678361  0.61936129  0.36723042  1
  O  O370  1  0.87081135  0.62973766  0.85835826  1
  O  O371  1  0.12948738  0.37918016  0.13041306  1
  O  O372  1  0.12476206  0.38577296  0.62837041  1
  O  O373  1  0.12256211  0.87707249  0.14050633  1
  O  O374  1  0.12614269  0.88521860  0.62547934  1
  O  O375  1  0.63228287  0.38348364  0.12868147  1
  O  O376  1  0.62446570  0.38258931  0.63329756  1
  O  O377  1  0.62346363  0.88224725  0.13038217  1
  O  O378  1  0.62467189  0.86478487  0.64472998  1
  O  O379  1  0.12494807  0.25797254  0.25644538  1
  O  O380  1  0.12516501  0.24941225  0.76132680  1
  O  O381  1  0.12130060  0.75794670  0.25682884  1
  O  O382  1  0.11709135  0.74433563  0.75192391  1
  O  O383  1  0.62668880  0.25804312  0.26085328  1
  O  O384  1  0.62362165  0.25719076  0.75591563  1
  O  O385  1  0.62823580  0.76186703  0.25826105  1
  O  O386  1  0.63571211  0.75882463  0.76530006  1
  O  O387  1  0.37547650  0.25555367  0.23568706  1
  O  O388  1  0.37644874  0.25621854  0.73270969  1
  O  O389  1  0.37024572  0.73490393  0.25842715  1
  O  O390  1  0.36882296  0.73842251  0.73650376  1
  O  O391  1  0.87488539  0.23925048  0.25823819  1
  O  O392  1  0.87156203  0.24071946  0.73858704  1
  O  O393  1  0.87824761  0.73890526  0.25414871  1
  O  O394  1  0.87906774  0.74587423  0.74351244  1
  O  O395  1  0.38326132  0.49121037  0.49952862  1
  O  O396  1  0.38436873  0.50404688  1.00267862  1
  O  O397  1  0.38726501  0.99018100  0.50521956  1
  O  O398  1  0.33562682  0.97778998  0.99607195  1
  O  O399  1  0.86570417  0.50460413  0.48574143  1
  O  O400  1  0.87747364  0.48324437  1.00357887  1
  O  O401  1  0.88010177  0.99822416  0.49622114  1
  O  O402  1  0.88579192  0.99390168  0.99496548  1
  O  O403  1  0.12355974  0.00778279  0.00470388  1
  O  O404  1  0.11620761  0.00587768  0.50518405  1
  O  O405  1  0.11526544  0.50188611  0.00419387  1
  O  O406  1  0.13404531  0.49802943  0.51285002  1
  O  O407  1  0.63286833  0.01007679  0.00706591  1
  O  O408  1  0.61547709  0.00643496  0.49557515  1
  O  O409  1  0.62343651  0.50403848  0.00782841  1
  O  O410  1  0.62014429  0.50047620  0.50671164  1
  O  O411  1  0.36438219  0.37089285  0.12864970  1
  O  O412  1  0.37732074  0.36134472  0.61033938  1
  O  O413  1  0.38691358  0.87119091  0.13527483  1
  O  O414  1  0.37083155  0.87008721  0.62375275  1
  O  O415  1  0.86323589  0.37870801  0.12839910  1
  O  O416  1  0.87387846  0.35992410  0.63018462  1
  O  O417  1  0.87766608  0.88094199  0.11250761  1
  O  O418  1  0.87090906  0.86420816  0.62056345  1
  O  O419  1  0.12922156  0.13122993  0.38515611  1
  O  O420  1  0.13135400  0.13652360  0.88268510  1
  O  O421  1  0.13664825  0.63114571  0.37424837  1
  O  O422  1  0.13178001  0.63005223  0.87642314  1
  O  O423  1  0.62946006  0.13393248  0.38402052  1
  O  O424  1  0.63086825  0.12850056  0.88322875  1
  O  O425  1  0.62869783  0.63473914  0.37422211  1
  O  O426  1  0.62591851  0.63328631  0.87689057  1
