# generated using pymatgen
data_V85Zn86O256
_symmetry_space_group_name_H-M   'P 1'
_cell_length_a   16.96758044
_cell_length_b   16.96329247
_cell_length_c   16.97884321
_cell_angle_alpha   89.91844986
_cell_angle_beta   90.08730288
_cell_angle_gamma   89.97694440
_symmetry_Int_Tables_number   1
_chemical_formula_structural   V85Zn86O256
_chemical_formula_sum   'V85 Zn86 O256'
_cell_volume   4886.94200199
_cell_formula_units_Z   1
loop_
 _symmetry_equiv_pos_site_id
 _symmetry_equiv_pos_as_xyz
  1  'x, y, z'
loop_
 _atom_site_type_symbol
 _atom_site_label
 _atom_site_symmetry_multiplicity
 _atom_site_fract_x
 _atom_site_fract_y
 _atom_site_fract_z
 _atom_site_occupancy
  V  V0  1  0.00102745  0.62707951  0.63015473  1
  V  V1  1  0.12395327  0.49453485  0.62387538  1
  V  V2  1  0.74894500  0.12347081  0.37515313  1
  V  V3  1  0.00382607  0.76469895  0.75553890  1
  V  V4  1  0.12586809  0.38094605  0.25551673  1
  V  V5  1  0.74780008  0.74652336  -0.00364764  1
  V  V6  1  0.87154499  0.74711575  0.12262403  1
  V  V7  1  0.00165219  0.25342497  0.24423451  1
  V  V8  1  0.62534410  0.87866281  0.75188582  1
  V  V9  1  0.12924194  0.00072505  0.63104527  1
  V  V10  1  -0.00319703  -0.01944132  0.50107662  1
  V  V11  1  0.61458215  0.12192557  0.00128868  1
  V  V12  1  0.12532526  0.64085184  0.49367968  1
  V  V13  1  -0.01042442  0.38130043  0.37348429  1
  V  V14  1  0.87359226  0.61714431  0.25842459  1
  V  V15  1  0.49339186  0.24699084  0.23339990  1
  V  V16  1  0.87745711  0.25039127  0.62674871  1
  V  V17  1  0.62613589  0.37457689  0.74912126  1
  V  V18  1  0.25507965  0.62124386  0.87410877  1
  V  V19  1  0.24928948  0.49407624  0.74677610  1
  V  V20  1  0.37194106  0.37594230  0.50214873  1
  V  V21  1  0.50006805  0.49997969  0.49996067  1
  V  V22  1  0.88134485  0.37215284  -0.00021078  1
  V  V23  1  -0.00505420  0.50292122  0.49555883  1
  V  V24  1  0.25909952  0.50834473  0.25472510  1
  V  V25  1  0.49173218  0.63125330  0.62252468  1
  V  V26  1  0.24957481  -0.00585473  0.75716102  1
  V  V27  1  0.36694632  0.12468834  0.76648079  1
  V  V28  1  0.49379580  0.61472787  0.11605335  1
  V  V29  1  0.75571112  0.11953132  0.87772205  1
  V  V30  1  0.49827352  0.37348943  0.37585705  1
  V  V31  1  0.49792851  0.73775837  0.24922274  1
  V  V32  1  0.00727608  0.25110968  0.75411294  1
  V  V33  1  0.50251629  0.24829814  0.75181331  1
  V  V34  1  0.25397907  0.36524887  0.12708095  1
  V  V35  1  0.37411921  0.62474574  0.74879550  1
  V  V36  1  0.62425200  0.75002588  0.37487581  1
  V  V37  1  0.62532609  0.49833664  0.11345388  1
  V  V38  1  0.50153317  -0.01412635  0.49487375  1
  V  V39  1  0.75538480  0.75603805  0.50062103  1
  V  V40  1  0.75474155  0.24635438  -0.00167590  1
  V  V41  1  0.11678838  0.12959213  0.49815366  1
  V  V42  1  0.12839186  0.62541788  -0.00234839  1
  V  V43  1  0.62231954  0.24913141  0.37411136  1
  V  V44  1  0.25854672  0.75524541  0.00150902  1
  V  V45  1  0.49453080  0.75433216  0.75116950  1
  V  V46  1  0.14069414  0.24957125  0.87622586  1
  V  V47  1  0.87879742  0.24411669  0.12355582  1
  V  V48  1  0.62368663  0.75371593  0.87288898  1
  V  V49  1  0.43478011  0.93145636  0.93172721  1
  V  V50  1  0.01623045  0.37303636  0.87443285  1
  V  V51  1  0.49157490  0.12244498  0.62500110  1
  V  V52  1  0.87938265  0.49879230  0.87457631  1
  V  V53  1  0.61753231  0.87161414  0.24982897  1
  V  V54  1  0.00178619  0.62810332  0.12674846  1
  V  V55  1  0.62705302  0.62951292  0.49999259  1
  V  V56  1  0.62753935  -0.00186302  0.62728237  1
  V  V57  1  0.37826595  -0.00949626  0.36962661  1
  V  V58  1  0.04084872  -0.02361191  0.02044294  1
  V  V59  1  0.87440249  -0.01439883  0.38072804  1
  V  V60  1  0.12507352  0.24855919  0.37180402  1
  V  V61  1  0.75137651  0.37436060  0.12332954  1
  V  V62  1  0.87198109  0.12479540  0.24958389  1
  V  V63  1  0.75085324  0.25029188  0.50064980  1
  V  V64  1  -0.00450358  0.76196500  0.26156457  1
  V  V65  1  0.14103612  0.12976167  0.00039957  1
  V  V66  1  0.49863065  0.39202647  0.87659862  1
  V  V67  1  0.75118784  0.37476949  0.62454804  1
  V  V68  1  0.12830623  0.50612279  0.12986279  1
  V  V69  1  0.25019482  0.24702262  0.50138992  1
  V  V70  1  0.25446709  0.12308769  0.36857674  1
  V  V71  1  0.60831761  0.00121295  0.12126142  1
  V  V72  1  0.88080400  0.76263536  0.62404240  1
  V  V73  1  0.87435260  0.87673612  -0.00801355  1
  V  V74  1  0.03669151  0.08734312  0.15112752  1
  V  V75  1  0.37901716  0.75650569  0.11953821  1
  V  V76  1  0.75475217  0.50241459  0.74829862  1
  V  V77  1  0.25421885  0.63677385  0.37665286  1
  V  V78  1  0.74551481  -0.00270904  0.24852050  1
  V  V79  1  0.12292117  0.76457017  0.87463386  1
  V  V80  1  0.89283498  -0.00145282  0.87862492  1
  V  V81  1  0.62577053  0.50309866  0.62419553  1
  V  V82  1  0.62383466  0.37636275  0.24784769  1
  V  V83  1  0.62402490  0.12470622  0.50241666  1
  V  V84  1  0.00472832  0.50036433  -0.00104811  1
  Zn  Zn85  1  0.37689988  0.12683316  0.23834677  1
  Zn  Zn86  1  0.87984680  0.62856275  0.75192917  1
  Zn  Zn87  1  0.00008284  0.12812341  0.62672809  1
  Zn  Zn88  1  0.26942342  0.84226607  0.63163591  1
  Zn  Zn89  1  0.24530751  0.37225669  0.62702955  1
  Zn  Zn90  1  0.75497664  0.88087914  0.62215280  1
  Zn  Zn91  1  0.87039728  0.38141483  0.49532913  1
  Zn  Zn92  1  0.37200693  0.24909610  0.62687976  1
  Zn  Zn93  1  0.20480840  0.89229269  0.13579817  1
  Zn  Zn94  1  0.74368866  0.87328553  0.12205877  1
  Zn  Zn95  1  0.75403392  0.61596689  0.38098769  1
  Zn  Zn96  1  0.62229580  0.62042834  -0.00650600  1
  Zn  Zn97  1  0.75740412  -0.00146848  0.75153349  1
  Zn  Zn98  1  0.38277723  0.38015584  0.00203356  1
  Zn  Zn99  1  0.15680644  0.79974880  0.32606059  1
  Zn  Zn100  1  0.37643410  0.50465811  0.37505772  1
  Zn  Zn101  1  0.75331020  0.49634975  0.25454691  1
  Zn  Zn102  1  0.30596007  0.81330208  0.45662159  1
  Zn  Zn103  1  0.75197287  0.62416781  0.87356108  1
  Zn  Zn104  1  0.62923285  0.24910930  0.87453031  1
  Zn  Zn105  1  0.31662527  0.20791857  0.06991560  1
  Zn  Zn106  1  0.87878512  0.12575570  0.75494650  1
  Zn  Zn107  1  0.20017498  0.06491626  0.19024103  1
  Zn  Zn108  1  0.18733404  0.18617054  0.68770409  1
  Zn  Zn109  1  0.19250693  0.70163439  0.19036639  1
  Zn  Zn110  1  0.18327375  0.68377395  0.69120761  1
  Zn  Zn111  1  0.68388724  0.18733415  0.18376240  1
  Zn  Zn112  1  0.68975426  0.18352490  0.68979788  1
  Zn  Zn113  1  0.68619250  0.68215474  0.18420179  1
  Zn  Zn114  1  0.68901998  0.69093940  0.68517455  1
  Zn  Zn115  1  0.31274931  0.31350076  0.31216477  1
  Zn  Zn116  1  0.32011925  0.31416516  0.81220963  1
  Zn  Zn117  1  0.31760184  0.81875884  0.28079485  1
  Zn  Zn118  1  0.30970247  0.81071359  0.81210826  1
  Zn  Zn119  1  0.80984470  0.31238728  0.31130591  1
  Zn  Zn120  1  0.81762173  0.31282645  0.81342328  1
  Zn  Zn121  1  0.80614708  0.80751912  0.31100950  1
  Zn  Zn122  1  0.81229590  0.81439930  0.80975682  1
  Zn  Zn123  1  0.18471368  0.44264196  0.43853629  1
  Zn  Zn124  1  0.22187994  0.44926256  0.95217807  1
  Zn  Zn125  1  0.18656764  0.94880374  0.44366765  1
  Zn  Zn126  1  0.23696871  0.95585087  0.96084005  1
  Zn  Zn127  1  0.68863100  0.43951302  0.43480894  1
  Zn  Zn128  1  0.69074811  0.43285843  0.93319809  1
  Zn  Zn129  1  0.68311087  0.93346445  0.43674111  1
  Zn  Zn130  1  0.68808043  0.93803309  0.93671970  1
  Zn  Zn131  1  0.34240132  0.03590588  0.07548866  1
  Zn  Zn132  1  0.32086153  -0.02303629  0.56500395  1
  Zn  Zn133  1  0.31540153  0.55754176  0.06124930  1
  Zn  Zn134  1  0.31007585  0.56753836  0.55870436  1
  Zn  Zn135  1  0.80995438  0.05962936  0.06347967  1
  Zn  Zn136  1  0.81579698  0.06403129  0.56326823  1
  Zn  Zn137  1  0.81154499  0.56172591  0.06299350  1
  Zn  Zn138  1  0.81689310  0.56773377  0.56456945  1
  Zn  Zn139  1  0.43637082  0.43756806  0.18736005  1
  Zn  Zn140  1  0.43612306  0.44014584  0.68771886  1
  Zn  Zn141  1  0.43798148  0.93404851  0.19274433  1
  Zn  Zn142  1  0.44144385  0.94518431  0.70435070  1
  Zn  Zn143  1  0.93973153  0.43826015  0.18322048  1
  Zn  Zn144  1  0.94166254  0.43357951  0.68834382  1
  Zn  Zn145  1  0.92383127  0.93027795  0.18615154  1
  Zn  Zn146  1  0.94379142  0.94240547  0.68877132  1
  Zn  Zn147  1  0.05835712  -0.04325573  0.30565001  1
  Zn  Zn148  1  0.06669982  0.06608041  0.81942908  1
  Zn  Zn149  1  0.06296752  0.56932004  0.31466094  1
  Zn  Zn150  1  0.06867014  0.56430166  0.81141172  1
  Zn  Zn151  1  0.55861766  0.06350668  0.31154840  1
  Zn  Zn152  1  0.56100482  0.06218579  0.81867747  1
  Zn  Zn153  1  0.56581676  0.56064927  0.31063049  1
  Zn  Zn154  1  0.56780176  0.56905951  0.80804134  1
  Zn  Zn155  1  0.43638949  0.18558776  0.43814729  1
  Zn  Zn156  1  0.43746601  0.19965860  0.93781574  1
  Zn  Zn157  1  0.43955651  0.68864344  0.43480499  1
  Zn  Zn158  1  0.43888506  0.68680649  0.93496465  1
  Zn  Zn159  1  0.93389287  0.18964137  0.43212840  1
  Zn  Zn160  1  0.95624779  0.17345412  0.94979453  1
  Zn  Zn161  1  0.93871399  0.69098462  0.44110896  1
  Zn  Zn162  1  0.93969496  0.68718869  0.93565584  1
  Zn  Zn163  1  0.07663120  0.31467898  0.06391463  1
  Zn  Zn164  1  0.06010020  0.31436916  0.56032111  1
  Zn  Zn165  1  0.05608085  0.80655463  0.05699283  1
  Zn  Zn166  1  0.09752101  0.80105066  0.57998287  1
  Zn  Zn167  1  0.56395598  0.31205500  0.05464624  1
  Zn  Zn168  1  0.56178373  0.31112760  0.56459778  1
  Zn  Zn169  1  0.55884540  0.81296222  0.05935601  1
  Zn  Zn170  1  0.44811007  0.81743241  0.57151783  1
  O  O171  1  0.12895097  0.13083237  0.11865830  1
  O  O172  1  0.12103570  0.12344426  0.61412852  1
  O  O173  1  0.12142067  0.62570500  0.11840389  1
  O  O174  1  0.11340635  0.61742767  0.61386000  1
  O  O175  1  0.62924456  0.11716567  0.11038460  1
  O  O176  1  0.61953999  0.11606473  0.62321058  1
  O  O177  1  0.61903956  0.61326101  0.11925993  1
  O  O178  1  0.61734506  0.62323926  0.61789035  1
  O  O179  1  0.38091827  0.37696310  0.38706282  1
  O  O180  1  0.39799025  0.37816107  0.86460807  1
  O  O181  1  0.35846973  0.88812113  0.36521333  1
  O  O182  1  0.38840870  0.86724533  0.86882039  1
  O  O183  1  0.88602682  0.37151182  0.37420050  1
  O  O184  1  0.88533540  0.38429564  0.88126894  1
  O  O185  1  0.86330520  0.88715611  0.37213187  1
  O  O186  1  0.87003633  0.88434755  0.88176340  1
  O  O187  1  0.26341992  0.01806952  0.38239015  1
  O  O188  1  0.23638960  -0.00180631  0.85392828  1
  O  O189  1  0.25098561  0.50889578  0.36936446  1
  O  O190  1  0.23446292  0.51436568  0.85829180  1
  O  O191  1  0.74991169  0.00380786  0.36683544  1
  O  O192  1  0.75895872  0.00772433  0.87345043  1
  O  O193  1  0.74829367  0.50324069  0.36778375  1
  O  O194  1  0.76132084  0.49892489  0.86628874  1
  O  O195  1  0.24211556  0.50044543  0.13914439  1
  O  O196  1  0.24097598  0.50165480  0.62836263  1
  O  O197  1  0.26042070  0.98839498  0.13873243  1
  O  O198  1  0.23582179  1.01246495  0.63478575  1
  O  O199  1  0.74376480  0.49213265  0.12889537  1
  O  O200  1  0.74855045  0.49589255  0.63071380  1
  O  O201  1  0.74410555  0.99807606  0.13920804  1
  O  O202  1  0.74482364  1.00267069  0.62989957  1
  O  O203  1  0.00497026  0.37518262  0.25649346  1
  O  O204  1  -0.00160758  0.36321070  0.76182551  1
  O  O205  1  -0.00321323  0.86635237  0.24727469  1
  O  O206  1  0.00121113  0.86399868  0.75052423  1
  O  O207  1  0.50545997  0.36840998  0.25511574  1
  O  O208  1  0.50798617  0.36906899  0.75020700  1
  O  O209  1  0.51258331  0.85937197  0.24563594  1
  O  O210  1  0.51462402  0.86646787  0.74496873  1
  O  O211  1  0.50401153  0.14495987  0.25166060  1
  O  O212  1  0.49466427  0.13042004  0.74617273  1
  O  O213  1  0.51175021  0.62916104  0.23256984  1
  O  O214  1  0.49303962  0.62977430  0.74149800  1
  O  O215  1  0.98722408  0.13982181  0.23636864  1
  O  O216  1  0.99847957  0.13851394  0.75223422  1
  O  O217  1  0.98618141  0.62969784  0.24495881  1
  O  O218  1  1.00217478  0.63215429  0.74255841  1
  O  O219  1  0.37141492  0.26725973  -0.00678196  1
  O  O220  1  0.36723856  0.25696124  0.50223786  1
  O  O221  1  0.36990277  0.74703836  0.00397780  1
  O  O222  1  0.38425674  0.75216006  0.50578705  1
  O  O223  1  0.87890563  0.25004719  0.00781680  1
  O  O224  1  0.86816172  0.25333239  0.50701002  1
  O  O225  1  0.86918490  0.75301690  0.00337395  1
  O  O226  1  0.86755331  0.74543862  0.51095022  1
  O  O227  1  0.12991474  0.24908631  0.49294685  1
  O  O228  1  0.11636762  0.23698542  0.99151202  1
  O  O229  1  0.10497364  0.73785268  0.48368276  1
  O  O230  1  0.12898163  0.73897200  0.99352613  1
  O  O231  1  0.63118888  0.24475556  0.49612001  1
  O  O232  1  0.63564409  0.23846875  0.99860848  1
  O  O233  1  0.63193334  0.73704201  0.49115945  1
  O  O234  1  0.63172082  0.74998481  0.99080159  1
  O  O235  1  0.50249150  0.25856640  0.13529519  1
  O  O236  1  0.50123460  0.24185193  0.63579821  1
  O  O237  1  0.49714243  0.73585073  0.12642652  1
  O  O238  1  0.50460504  0.74142250  0.63997716  1
  O  O239  1  0.99390234  0.26146099  0.13559269  1
  O  O240  1  0.99421938  0.25364244  0.63407575  1
  O  O241  1  0.98855785  0.74528181  0.13013222  1
  O  O242  1  1.00047345  0.74499861  0.63434705  1
  O  O243  1  0.00183917  0.25783151  0.36203636  1
  O  O244  1  0.00541062  0.25658353  0.87171475  1
  O  O245  1  -0.01502213  0.75604935  0.35976092  1
  O  O246  1  0.01308671  0.74695189  0.87057295  1
  O  O247  1  0.50755518  0.25792019  0.37498749  1
  O  O248  1  0.50763046  0.25555548  0.85961492  1
  O  O249  1  0.51197821  0.73703297  0.36067184  1
  O  O250  1  0.51015794  0.74118491  0.86005763  1
  O  O251  1  0.24149991  0.14175907  0.49195783  1
  O  O252  1  0.24048711  0.13097522  1.01030085  1
  O  O253  1  0.23904113  0.62470232  0.48744638  1
  O  O254  1  0.24404421  0.62933168  0.98910538  1
  O  O255  1  0.74408167  0.13034170  0.49513830  1
  O  O256  1  0.74761301  0.12900576  0.99155725  1
  O  O257  1  0.74312797  0.63289447  0.50331252  1
  O  O258  1  0.74961781  0.63576824  0.99735903  1
  O  O259  1  0.22083324  0.36527326  0.03009287  1
  O  O260  1  0.25623248  0.36717596  0.49827787  1
  O  O261  1  0.23945671  0.85481105  0.01701285  1
  O  O262  1  0.25368079  0.89313887  0.51548394  1
  O  O263  1  0.76053936  0.36620598  0.00270099  1
  O  O264  1  0.74967669  0.36902905  0.50693937  1
  O  O265  1  0.75592972  0.86179066  -0.00020174  1
  O  O266  1  0.74246732  0.85949936  0.50327287  1
  O  O267  1  0.13036878  0.49770718  0.24913592  1
  O  O268  1  0.13474622  0.50885700  0.73465578  1
  O  O269  1  0.09346327  1.02929353  0.22471492  1
  O  O270  1  0.13336926  1.01575262  0.73895035  1
  O  O271  1  0.62411551  0.48603847  0.23924989  1
  O  O272  1  0.63613032  0.49687680  0.74252542  1
  O  O273  1  0.62687815  0.99179970  0.24583297  1
  O  O274  1  0.62573190  0.99505087  0.74613414  1
  O  O275  1  0.38840372  0.00824850  0.26618409  1
  O  O276  1  0.36199481  0.01528138  0.74935124  1
  O  O277  1  0.36250466  0.49868995  0.25407154  1
  O  O278  1  0.36621492  0.51581575  0.74205425  1
  O  O279  1  0.86423145  0.00337005  0.25716268  1
  O  O280  1  0.87981979  0.00406211  0.76307192  1
  O  O281  1  0.87563840  0.51456266  0.24153358  1
  O  O282  1  0.87147414  0.49894144  0.75697962  1
  O  O283  1  0.11668238  0.37261612  0.36829501  1
  O  O284  1  0.11709301  0.37024520  0.88453295  1
  O  O285  1  0.12729070  0.89582315  0.36765137  1
  O  O286  1  0.13104109  0.85957660  0.88508673  1
  O  O287  1  0.61945710  0.36949772  0.36521738  1
  O  O288  1  0.61990557  0.37230746  0.86468679  1
  O  O289  1  0.62867169  0.85822100  0.36649483  1
  O  O290  1  0.63109844  0.86308638  0.86747519  1
  O  O291  1  0.37349742  0.12823466  0.12553000  1
  O  O292  1  0.38997552  0.12520883  0.63110642  1
  O  O293  1  0.39147515  0.62226616  0.12019051  1
  O  O294  1  0.38665764  0.62276646  0.62762135  1
  O  O295  1  0.86794321  0.13738873  0.12997288  1
  O  O296  1  0.87734097  0.13988549  0.62746607  1
  O  O297  1  0.87954444  0.63384175  0.12870357  1
  O  O298  1  0.89014872  0.63343212  0.62764217  1
  O  O299  1  0.24897064  0.26812661  0.14559964  1
  O  O300  1  0.25074001  0.25382437  0.61669911  1
  O  O301  1  0.27121847  0.72346744  0.10897006  1
  O  O302  1  0.20286283  0.75713869  0.61147643  1
  O  O303  1  0.75874733  0.25496161  0.11845002  1
  O  O304  1  0.75729820  0.25437661  0.62223840  1
  O  O305  1  0.75499939  0.74813496  0.11531968  1
  O  O306  1  0.76330782  0.75067571  0.61919450  1
  O  O307  1  0.24600694  0.24617860  0.38019396  1
  O  O308  1  0.23901172  0.26119964  0.87045408  1
  O  O309  1  0.25354486  0.74614922  0.37209913  1
  O  O310  1  0.24146527  0.74271804  0.88098244  1
  O  O311  1  0.74282830  0.24495218  0.37977045  1
  O  O312  1  0.75381374  0.24349698  0.88283753  1
  O  O313  1  0.74429264  0.74134701  0.38313956  1
  O  O314  1  0.74556461  0.74656512  0.87983468  1
  O  O315  1  0.02212550  0.10418930  0.02234236  1
  O  O316  1  0.01104462  0.13375036  0.49714393  1
  O  O317  1  0.00860079  0.62019660  0.00507861  1
  O  O318  1  0.00442214  0.61903934  0.50506418  1
  O  O319  1  0.51696143  0.13153756  -0.00901623  1
  O  O320  1  0.50866092  0.12361635  0.50888700  1
  O  O321  1  0.50448649  0.62498143  0.01142962  1
  O  O322  1  0.50820481  0.62046260  0.50651140  1
  O  O323  1  0.49466985  0.37949271  0.49603567  1
  O  O324  1  0.50507536  0.37725639  0.98118220  1
  O  O325  1  0.51009814  0.88769122  0.50204768  1
  O  O326  1  0.49282003  0.88089747  0.99820824  1
  O  O327  1  0.99785575  0.38322364  0.48926718  1
  O  O328  1  0.99917569  0.38205453  0.99600733  1
  O  O329  1  1.00566943  0.88519412  0.50945099  1
  O  O330  1  0.98382743  0.88030735  0.99702752  1
  O  O331  1  0.49989680  0.49299715  0.38092924  1
  O  O332  1  0.50901356  0.49037041  0.86621903  1
  O  O333  1  0.49194320  1.00115658  0.38222905  1
  O  O334  1  0.49212315  0.99424371  0.87634617  1
  O  O335  1  1.00425719  0.49291614  0.38267383  1
  O  O336  1  0.99872648  0.49338575  0.87834140  1
  O  O337  1  0.98774274  0.99806178  0.39129632  1
  O  O338  1  0.99500869  1.00391042  0.89210305  1
  O  O339  1  -0.02146476  0.00355460  0.11593145  1
  O  O340  1  0.00343459  0.00924767  0.61476252  1
  O  O341  1  0.00843009  0.50747487  0.11849527  1
  O  O342  1  0.00536304  0.50664833  0.62154230  1
  O  O343  1  0.50897927  -0.00061419  0.12948822  1
  O  O344  1  0.50817372  0.00797294  0.61878017  1
  O  O345  1  0.50745510  0.50727014  0.12619865  1
  O  O346  1  0.50754838  0.50867157  0.62003193  1
  O  O347  1  0.24200537  0.38675725  0.24980733  1
  O  O348  1  0.26000673  0.39086411  0.74609313  1
  O  O349  1  0.21999156  0.82033814  0.22426208  1
  O  O350  1  0.25625235  0.88996784  0.74335978  1
  O  O351  1  0.74051019  0.37243893  0.24119973  1
  O  O352  1  0.74781318  0.38477770  0.74584866  1
  O  O353  1  0.73704848  0.88003442  0.24772773  1
  O  O354  1  0.73812850  0.87650583  0.74511313  1
  O  O355  1  0.25268986  0.13373403  0.26658664  1
  O  O356  1  0.26388172  0.12313241  0.74940854  1
  O  O357  1  0.24196477  0.62157549  0.26747637  1
  O  O358  1  0.25706300  0.62164173  0.75360192  1
  O  O359  1  0.75068674  0.11776662  0.25469471  1
  O  O360  1  0.75571957  0.12601831  0.76671568  1
  O  O361  1  0.76583918  0.62578142  0.24717747  1
  O  O362  1  0.75485898  0.61257643  0.74798529  1
  O  O363  1  0.36529101  0.12368236  0.37262586  1
  O  O364  1  0.37856102  0.12945849  0.86376286  1
  O  O365  1  0.35780055  0.62275884  0.38221245  1
  O  O366  1  0.36336454  0.62915267  0.86538345  1
  O  O367  1  0.86634637  0.11828752  0.36778801  1
  O  O368  1  0.87412900  0.11557335  0.88317596  1
  O  O369  1  0.87606091  0.62802703  0.36034618  1
  O  O370  1  0.87687509  0.61055278  0.87360048  1
  O  O371  1  0.12555691  0.38513757  0.14393308  1
  O  O372  1  0.12515765  0.39023805  0.61819623  1
  O  O373  1  0.09700645  0.90726508  0.08798594  1
  O  O374  1  0.11813694  0.90224264  0.62955972  1
  O  O375  1  0.62970178  0.37929496  0.12831281  1
  O  O376  1  0.63174355  0.38168565  0.63006954  1
  O  O377  1  0.62509284  0.88208551  0.13014081  1
  O  O378  1  0.62883908  0.89305348  0.63302467  1
  O  O379  1  0.11299818  0.26398736  0.25699812  1
  O  O380  1  0.11855463  0.24580421  0.76165380  1
  O  O381  1  0.09557445  0.73276221  0.25376741  1
  O  O382  1  0.11907755  0.74754434  0.76778537  1
  O  O383  1  0.61789799  0.25989904  0.25159437  1
  O  O384  1  0.62042812  0.25604097  0.74916464  1
  O  O385  1  0.62265553  0.75277647  0.25402461  1
  O  O386  1  0.62106097  0.75682825  0.75473211  1
  O  O387  1  0.39157893  0.25321166  0.25392126  1
  O  O388  1  0.38280544  0.23965872  0.74677747  1
  O  O389  1  0.39184259  0.74124201  0.23986035  1
  O  O390  1  0.38135641  0.73882665  0.74945401  1
  O  O391  1  0.87945531  0.24774833  0.24221748  1
  O  O392  1  0.88323162  0.25001313  0.74249722  1
  O  O393  1  0.87923570  0.74380979  0.24078485  1
  O  O394  1  0.88453746  0.74856665  0.74447883  1
  O  O395  1  0.38172310  0.49298631  0.49973480  1
  O  O396  1  0.33107069  0.47966843  0.98475892  1
  O  O397  1  0.39082743  1.00698574  0.48290833  1
  O  O398  1  0.35242591  0.98124193  0.97954404  1
  O  O399  1  0.88990774  0.49966689  0.50666773  1
  O  O400  1  0.88255948  0.49490976  0.99357140  1
  O  O401  1  0.88754421  1.00286297  0.49566962  1
  O  O402  1  0.86448131  0.98723919  0.99281226  1
  O  O403  1  0.13678701  0.01452971  -0.01352970  1
  O  O404  1  0.11162884  0.01273887  0.50931440  1
  O  O405  1  0.12612974  0.51215829  0.00706953  1
  O  O406  1  0.11350561  0.50825974  0.50589150  1
  O  O407  1  0.63185773  0.01171004  0.00826215  1
  O  O408  1  0.62156087  0.00656180  0.50599269  1
  O  O409  1  0.63474782  0.49801950  0.00994050  1
  O  O410  1  0.62102022  0.50998361  0.50544050  1
  O  O411  1  0.35818059  0.38215893  0.12437242  1
  O  O412  1  0.37522269  0.37326948  0.61221193  1
  O  O413  1  0.37622786  0.85661876  0.13491101  1
  O  O414  1  0.37638104  0.88930680  0.62709656  1
  O  O415  1  0.87183622  0.36588417  0.11934297  1
  O  O416  1  0.86983175  0.36536647  0.62329622  1
  O  O417  1  0.86604022  0.86014517  0.11579606  1
  O  O418  1  0.87604996  0.86574146  0.62998298  1
  O  O419  1  0.13921144  0.13272880  0.38419752  1
  O  O420  1  0.12417642  0.13726541  0.89004247  1
  O  O421  1  0.13670466  0.62215387  0.38449209  1
  O  O422  1  0.13232590  0.63070500  0.88396642  1
  O  O423  1  0.62988803  0.13012143  0.38078537  1
  O  O424  1  0.63632226  0.12409728  0.88536159  1
  O  O425  1  0.62761694  0.63062318  0.38263385  1
  O  O426  1  0.63146813  0.63711553  0.87442452  1
