# generated using pymatgen
data_V85Zn86O256
_symmetry_space_group_name_H-M   'P 1'
_cell_length_a   16.97054752
_cell_length_b   16.98467923
_cell_length_c   16.95951852
_cell_angle_alpha   89.96065345
_cell_angle_beta   90.01529947
_cell_angle_gamma   89.85225236
_symmetry_Int_Tables_number   1
_chemical_formula_structural   V85Zn86O256
_chemical_formula_sum   'V85 Zn86 O256'
_cell_volume   4888.38226341
_cell_formula_units_Z   1
loop_
 _symmetry_equiv_pos_site_id
 _symmetry_equiv_pos_as_xyz
  1  'x, y, z'
loop_
 _atom_site_type_symbol
 _atom_site_label
 _atom_site_symmetry_multiplicity
 _atom_site_fract_x
 _atom_site_fract_y
 _atom_site_fract_z
 _atom_site_occupancy
  V  V0  1  0.87679056  0.00099901  0.37501306  1
  V  V1  1  0.00268193  0.49798325  -0.00367773  1
  V  V2  1  0.13241786  0.12719383  -0.01310822  1
  V  V3  1  0.74715085  0.00094583  0.24614407  1
  V  V4  1  0.49930902  0.24513773  0.24935324  1
  V  V5  1  0.14006116  0.12909179  0.49554480  1
  V  V6  1  0.62030602  0.37598076  0.75292025  1
  V  V7  1  0.87489045  0.74850679  0.62242455  1
  V  V8  1  0.87588677  0.00269755  0.87229732  1
  V  V9  1  0.13086604  0.73996950  0.87465375  1
  V  V10  1  0.60689264  0.25099693  0.87477998  1
  V  V11  1  0.38399938  -0.03042959  0.91037484  1
  V  V12  1  0.50166409  0.37665247  0.37858788  1
  V  V13  1  0.00212700  0.00176247  0.50014058  1
  V  V14  1  0.00473739  0.12588253  0.12442482  1
  V  V15  1  0.63203678  0.12871335  0.49715069  1
  V  V16  1  0.63111976  0.25131280  0.38003425  1
  V  V17  1  0.37463514  0.62378257  0.25190851  1
  V  V18  1  0.87135367  0.61950483  0.24953367  1
  V  V19  1  0.23474379  0.49286980  0.75646796  1
  V  V20  1  0.49874850  0.49791559  -0.01463401  1
  V  V21  1  0.87110864  0.35972613  0.50124651  1
  V  V22  1  0.50161435  0.13175006  0.62365450  1
  V  V23  1  0.87516646  0.37405349  -0.00662467  1
  V  V24  1  0.50749440  0.86950201  0.37324315  1
  V  V25  1  0.37737618  0.25452581  0.12239211  1
  V  V26  1  0.12947453  0.87497724  0.75148314  1
  V  V27  1  0.00243783  0.75317266  0.24980169  1
  V  V28  1  0.37151815  0.00694158  0.37421019  1
  V  V29  1  0.00243593  0.37062932  0.36685325  1
  V  V30  1  0.23918919  0.49503804  0.25044535  1
  V  V31  1  0.62563772  0.50876969  0.62341416  1
  V  V32  1  0.36778648  0.12428476  0.24554220  1
  V  V33  1  0.74598097  0.63080760  0.37706798  1
  V  V34  1  0.74481648  0.12743183  0.87437479  1
  V  V35  1  0.13980998  0.25120567  0.37091632  1
  V  V36  1  0.62818943  0.62245057  -0.01189480  1
  V  V37  1  0.36888191  0.12140918  0.75216908  1
  V  V38  1  0.24833465  0.62566891  0.37861627  1
  V  V39  1  0.74762501  0.24851848  0.00153996  1
  V  V40  1  0.12562900  0.75550308  0.37247886  1
  V  V41  1  0.75027083  0.37655441  0.12926463  1
  V  V42  1  0.62762373  0.37707283  0.25104241  1
  V  V43  1  0.50053775  0.61945635  0.12381707  1
  V  V44  1  0.60788523  0.12621773  0.01038911  1
  V  V45  1  0.61423310  0.87722520  0.75803470  1
  V  V46  1  -0.00136982  0.61785419  0.62646337  1
  V  V47  1  0.50286255  0.00069536  0.49388790  1
  V  V48  1  0.37530860  0.38125243  -0.01337922  1
  V  V49  1  0.25198743  0.74945073  0.50344693  1
  V  V50  1  0.00512009  -0.00156479  0.00097639  1
  V  V51  1  0.75209723  0.74523853  -0.00919259  1
  V  V52  1  0.75125633  0.36572115  0.62211208  1
  V  V53  1  0.87431170  0.13687035  0.74774235  1
  V  V54  1  0.35956663  0.25081669  0.61793528  1
  V  V55  1  0.00387473  0.87500142  0.87407486  1
  V  V56  1  0.74945915  0.87717300  0.62762876  1
  V  V57  1  0.12782079  0.00072469  0.62683188  1
  V  V58  1  0.00312347  0.87623081  0.37136149  1
  V  V59  1  0.48359994  0.73903948  0.74528526  1
  V  V60  1  0.24471250  -0.00648308  0.25404371  1
  V  V61  1  0.36438538  0.60853783  0.74830766  1
  V  V62  1  0.86953660  0.49742558  0.37369630  1
  V  V63  1  0.75126905  0.12824925  0.37576959  1
  V  V64  1  0.51140544  0.74526474  0.25403707  1
  V  V65  1  0.87559975  0.87538244  -0.00128057  1
  V  V66  1  0.74769268  0.87807356  0.12361730  1
  V  V67  1  -0.00366165  0.13505157  0.62312050  1
  V  V68  1  0.00036729  0.49411958  0.50202655  1
  V  V69  1  0.00260624  0.75008349  0.74820854  1
  V  V70  1  0.25443283  0.74526989  -0.00273941  1
  V  V71  1  0.87665462  0.87701769  0.50121019  1
  V  V72  1  0.00435151  0.62282069  0.12402929  1
  V  V73  1  0.62558115  0.00239715  0.62588540  1
  V  V74  1  0.75026868  0.50884377  0.75532440  1
  V  V75  1  0.87609458  0.74911140  0.12362079  1
  V  V76  1  0.37590135  0.74985943  0.12063283  1
  V  V77  1  0.62842530  0.50016152  0.12815830  1
  V  V78  1  0.23924319  0.86905816  0.12967422  1
  V  V79  1  0.12357273  0.62234349  0.50532618  1
  V  V80  1  0.49917012  0.50795833  0.50538547  1
  V  V81  1  0.37376436  0.49985030  0.37966788  1
  V  V82  1  0.37773043  0.86944070  0.50040753  1
  V  V83  1  0.87821399  0.12790356  0.24820679  1
  V  V84  1  0.25658554  0.87144142  0.62835188  1
  Zn  Zn85  1  0.13174512  0.61968865  -0.00143445  1
  Zn  Zn86  1  0.87740941  0.25153068  0.12525647  1
  Zn  Zn87  1  0.87150674  0.50770461  0.87761438  1
  Zn  Zn88  1  0.36937898  0.36870304  0.50020224  1
  Zn  Zn89  1  0.23956709  0.25529874  -0.00169956  1
  Zn  Zn90  1  0.25385906  0.00284686  0.76825112  1
  Zn  Zn91  1  0.23173787  0.39090361  0.61513518  1
  Zn  Zn92  1  0.10826464  0.38325594  0.73225919  1
  Zn  Zn93  1  0.24532730  0.37140677  0.12772688  1
  Zn  Zn94  1  0.01299255  0.25026802  0.75929278  1
  Zn  Zn95  1  0.61880909  0.63539562  0.50012536  1
  Zn  Zn96  1  0.01160573  0.25454425  0.24489610  1
  Zn  Zn97  1  0.74057702  0.75671061  0.49455639  1
  Zn  Zn98  1  0.49517139  0.25500566  0.74590949  1
  Zn  Zn99  1  0.86875166  0.63115982  0.75707804  1
  Zn  Zn100  1  0.62368097  0.75208924  0.87148963  1
  Zn  Zn101  1  0.12024199  0.48576588  0.12697207  1
  Zn  Zn102  1  0.12483081  -0.00442607  0.13144368  1
  Zn  Zn103  1  0.62880637  0.87047475  0.25107130  1
  Zn  Zn104  1  0.56341912  -0.02216647  0.08045154  1
  Zn  Zn105  1  0.74896771  0.00225065  0.75096926  1
  Zn  Zn106  1  0.01961666  0.36336229  0.87817805  1
  Zn  Zn107  1  0.19153107  0.18704838  0.18294319  1
  Zn  Zn108  1  0.18694175  0.18677679  0.68501645  1
  Zn  Zn109  1  0.18756961  0.68375607  0.18948883  1
  Zn  Zn110  1  0.19338701  0.68210772  0.68731597  1
  Zn  Zn111  1  0.68637952  0.18945294  0.18880960  1
  Zn  Zn112  1  0.68520184  0.18906567  0.69015472  1
  Zn  Zn113  1  0.69183168  0.68410415  0.18232852  1
  Zn  Zn114  1  0.68433203  0.69285998  0.68336270  1
  Zn  Zn115  1  0.31576120  0.31470949  0.31444808  1
  Zn  Zn116  1  0.21054466  0.29875276  0.82351163  1
  Zn  Zn117  1  0.31767543  0.81422241  0.31184536  1
  Zn  Zn118  1  0.31727945  0.81596214  0.81993666  1
  Zn  Zn119  1  0.81447786  0.31168316  0.31160128  1
  Zn  Zn120  1  0.80788592  0.31424313  0.81200182  1
  Zn  Zn121  1  0.81713768  0.81135932  0.31064229  1
  Zn  Zn122  1  0.81294996  0.81458597  0.81000744  1
  Zn  Zn123  1  0.18491946  0.43463245  0.43998056  1
  Zn  Zn124  1  0.19234100  0.44393181  0.93427516  1
  Zn  Zn125  1  0.18916699  0.93762099  0.43922440  1
  Zn  Zn126  1  0.19698045  0.93390724  0.94129180  1
  Zn  Zn127  1  0.68935565  0.44200225  0.44033845  1
  Zn  Zn128  1  0.68389715  0.43405312  0.93659800  1
  Zn  Zn129  1  0.68852734  0.93930842  0.43632379  1
  Zn  Zn130  1  0.68739196  0.94266525  0.93850019  1
  Zn  Zn131  1  0.31446977  0.06273836  0.06918963  1
  Zn  Zn132  1  0.31630217  0.05702950  0.56610801  1
  Zn  Zn133  1  0.31294055  0.56165288  0.06270748  1
  Zn  Zn134  1  0.31725880  0.56309996  0.57278275  1
  Zn  Zn135  1  0.81348190  0.06399137  0.06136573  1
  Zn  Zn136  1  0.81306588  0.06441893  0.56367236  1
  Zn  Zn137  1  0.81333436  0.56137504  0.06083904  1
  Zn  Zn138  1  0.81209397  0.55864322  0.56232532  1
  Zn  Zn139  1  0.43820439  0.43649951  0.18907814  1
  Zn  Zn140  1  0.43483480  0.43628542  0.68640865  1
  Zn  Zn141  1  0.44109042  0.92365397  0.15877621  1
  Zn  Zn142  1  0.44027423  0.94051207  0.68392457  1
  Zn  Zn143  1  0.93486970  0.43854650  0.18483562  1
  Zn  Zn144  1  0.93365545  0.43224828  0.68863863  1
  Zn  Zn145  1  0.93607317  0.93817678  0.18710989  1
  Zn  Zn146  1  0.93888849  0.94166556  0.68876006  1
  Zn  Zn147  1  0.06558133  0.06701830  0.31437245  1
  Zn  Zn148  1  0.06141474  0.06403437  0.80937440  1
  Zn  Zn149  1  0.05824617  0.56536175  0.31790530  1
  Zn  Zn150  1  0.05652403  0.56043526  0.81408510  1
  Zn  Zn151  1  0.53943666  0.03956760  0.27474784  1
  Zn  Zn152  1  0.55105726  0.06053832  0.81853441  1
  Zn  Zn153  1  0.56433025  0.55905085  0.31223688  1
  Zn  Zn154  1  0.55950806  0.56713808  0.80622321  1
  Zn  Zn155  1  0.44002764  0.18628417  0.43645273  1
  Zn  Zn156  1  0.38953531  0.22731600  0.90172912  1
  Zn  Zn157  1  0.43766820  0.68860981  0.43849428  1
  Zn  Zn158  1  0.43896477  0.69281555  0.92696890  1
  Zn  Zn159  1  0.94422287  0.18731882  0.43437946  1
  Zn  Zn160  1  0.93708508  0.18629205  0.93936446  1
  Zn  Zn161  1  0.93577230  0.68706113  0.43804979  1
  Zn  Zn162  1  0.93920629  0.68452862  0.93451606  1
  Zn  Zn163  1  0.06560565  0.31134678  0.06263726  1
  Zn  Zn164  1  0.06568363  0.30975782  0.55821484  1
  Zn  Zn165  1  0.06655105  0.80969757  0.06046665  1
  Zn  Zn166  1  0.06423821  0.81183941  0.56207051  1
  Zn  Zn167  1  0.55857725  0.31236048  0.06182324  1
  Zn  Zn168  1  0.56615360  0.31826375  0.56155333  1
  Zn  Zn169  1  0.56261299  0.80342218  0.06016520  1
  Zn  Zn170  1  0.56412352  0.81042177  0.56536612  1
  O  O171  1  0.11325093  0.11932157  0.12162752  1
  O  O172  1  0.11936686  0.11834905  0.61411384  1
  O  O173  1  0.11020424  0.62350079  0.12758150  1
  O  O174  1  0.11480041  0.63184755  0.61210215  1
  O  O175  1  0.62623243  0.13502313  0.11047733  1
  O  O176  1  0.62323081  0.12040500  0.61801988  1
  O  O177  1  0.62160712  0.61598216  0.11749544  1
  O  O178  1  0.63011518  0.61239706  0.62246307  1
  O  O179  1  0.38637287  0.38197187  0.37729985  1
  O  O180  1  0.38402682  0.37406106  0.89151891  1
  O  O181  1  0.38541636  0.88120527  0.38229318  1
  O  O182  1  0.38232198  0.86960748  0.89699253  1
  O  O183  1  0.87752019  0.38111964  0.38078645  1
  O  O184  1  0.86165828  0.38024365  0.89032309  1
  O  O185  1  0.88149652  0.88047602  0.38218800  1
  O  O186  1  0.88156555  0.88172708  0.87953560  1
  O  O187  1  0.26177392  -0.00960862  0.36926394  1
  O  O188  1  0.27761132  -0.01216753  0.88049852  1
  O  O189  1  0.25251059  0.50793914  0.36723047  1
  O  O190  1  0.25341207  0.50237610  0.85644348  1
  O  O191  1  0.76015499  0.00686616  0.36983343  1
  O  O192  1  0.75630801  0.01407684  0.87675103  1
  O  O193  1  0.76392536  0.50874905  0.37811746  1
  O  O194  1  0.74461471  0.49553677  0.85785794  1
  O  O195  1  0.24821309  0.50486054  0.14298311  1
  O  O196  1  0.25756252  0.50141274  0.64515204  1
  O  O197  1  0.24933404  0.98598509  0.13512999  1
  O  O198  1  0.23758886  0.98795084  0.61947607  1
  O  O199  1  0.73702423  0.49141765  0.11672419  1
  O  O200  1  0.74280475  0.49339825  0.63184495  1
  O  O201  1  0.76049943  0.99138487  0.13347479  1
  O  O202  1  0.74306985  0.99402872  0.62611788  1
  O  O203  1  -0.00867591  0.37413247  0.26305240  1
  O  O204  1  -0.00537246  0.37077931  0.75739966  1
  O  O205  1  -0.00685138  0.86685755  0.25913783  1
  O  O206  1  0.00850044  0.86957799  0.75304849  1
  O  O207  1  0.50596259  0.36981302  0.26296599  1
  O  O208  1  0.51696862  0.37357174  0.74106781  1
  O  O209  1  0.50175023  0.86006163  0.25709592  1
  O  O210  1  0.51365694  0.87824405  0.74787453  1
  O  O211  1  0.48629790  0.14248666  0.26509509  1
  O  O212  1  0.49626310  0.12410769  0.73564022  1
  O  O213  1  0.49378936  0.62700363  0.24775672  1
  O  O214  1  0.49184033  0.63308052  0.74406225  1
  O  O215  1  0.99315313  0.12289376  0.24205380  1
  O  O216  1  0.99207363  0.12676261  0.74119403  1
  O  O217  1  0.99052954  0.63082744  0.24537565  1
  O  O218  1  0.99815460  0.63171213  0.73969065  1
  O  O219  1  0.39241935  0.27215423  0.01137044  1
  O  O220  1  0.38370259  0.24839085  0.51379064  1
  O  O221  1  0.37108112  0.73797190  0.01184118  1
  O  O222  1  0.36902708  0.76181114  0.49592087  1
  O  O223  1  0.86369794  0.25605838  0.00399309  1
  O  O224  1  0.87668125  0.26087573  0.49265441  1
  O  O225  1  0.87014917  0.75447760  0.00459600  1
  O  O226  1  0.87610546  0.75788862  0.51081917  1
  O  O227  1  0.12171364  0.23486106  0.48911080  1
  O  O228  1  0.12254613  0.23141371  0.99940082  1
  O  O229  1  0.13001207  0.74326653  0.49188359  1
  O  O230  1  0.13225960  0.74576339  0.99057248  1
  O  O231  1  0.62215058  0.24478383  0.48774830  1
  O  O232  1  0.62884060  0.24595195  0.99243177  1
  O  O233  1  0.62808601  0.74739948  0.50138884  1
  O  O234  1  0.63288324  0.74043507  0.99882810  1
  O  O235  1  0.49493795  0.25966291  0.14163275  1
  O  O236  1  0.51034303  0.23756919  0.62270458  1
  O  O237  1  0.49171517  0.73638618  0.13475215  1
  O  O238  1  0.50951806  0.75795370  0.64913292  1
  O  O239  1  0.99708986  0.23967329  0.12781067  1
  O  O240  1  1.00145136  0.23606096  0.62396261  1
  O  O241  1  0.99545490  0.74254481  0.12780136  1
  O  O242  1  0.99403101  0.74243698  0.62731471  1
  O  O243  1  0.00834811  0.25729391  0.36969107  1
  O  O244  1  -0.01305977  0.25426660  0.87084049  1
  O  O245  1  0.00627894  0.75504039  0.37196831  1
  O  O246  1  0.00851770  0.75837373  0.86921861  1
  O  O247  1  0.50773711  0.26007882  0.37153306  1
  O  O248  1  0.50504006  0.24733156  0.86888229  1
  O  O249  1  0.49501674  0.75650654  0.36515768  1
  O  O250  1  0.50898409  0.74945984  0.85350297  1
  O  O251  1  0.23744579  0.11829969  0.50322351  1
  O  O252  1  0.23152304  0.11762660  1.00925060  1
  O  O253  1  0.24230375  0.62791280  0.49864673  1
  O  O254  1  0.24731527  0.63795936  1.00778409  1
  O  O255  1  0.73937799  0.12128292  0.49503773  1
  O  O256  1  0.74935076  0.13703003  0.99426309  1
  O  O257  1  0.75456928  0.62644762  0.48488462  1
  O  O258  1  0.74140158  0.63446600  1.00702983  1
  O  O259  1  0.26821194  0.38420338  0.00485879  1
  O  O260  1  0.25834809  0.38600725  0.50437681  1
  O  O261  1  0.24553915  0.85732532  0.01596903  1
  O  O262  1  0.25831473  0.86972958  0.50638897  1
  O  O263  1  0.75042911  0.36523857  0.00855592  1
  O  O264  1  0.75678867  0.38010560  0.51205989  1
  O  O265  1  0.75625264  0.87127339  0.00568474  1
  O  O266  1  0.75678744  0.87755638  0.51054763  1
  O  O267  1  0.13687193  0.50847215  0.25372455  1
  O  O268  1  0.13061984  0.50358357  0.75031408  1
  O  O269  1  0.14061430  1.00643524  0.25311626  1
  O  O270  1  0.13080307  0.99612812  0.74213664  1
  O  O271  1  0.62322277  0.49072901  0.23978064  1
  O  O272  1  0.63161630  0.49550006  0.74354236  1
  O  O273  1  0.64575045  0.99567076  0.25995241  1
  O  O274  1  0.62530908  0.99268484  0.74598737  1
  O  O275  1  0.36471425  0.00863715  0.25800953  1
  O  O276  1  0.37133384  0.01608118  0.73243556  1
  O  O277  1  0.37096751  0.51040029  0.25755757  1
  O  O278  1  0.37649674  0.50580499  0.75291820  1
  O  O279  1  0.86914932  0.01011112  0.25488662  1
  O  O280  1  0.87418759  0.00790209  0.75920780  1
  O  O281  1  0.87949610  0.50933298  0.25862842  1
  O  O282  1  0.85723377  0.50038631  0.74950460  1
  O  O283  1  0.11601712  0.35991099  0.38023535  1
  O  O284  1  0.13320730  0.37468588  0.86820790  1
  O  O285  1  0.11781524  0.86439243  0.38288238  1
  O  O286  1  0.12196230  0.87114156  0.86835510  1
  O  O287  1  0.62362101  0.37106470  0.37177383  1
  O  O288  1  0.62990503  0.36262868  0.86559082  1
  O  O289  1  0.61178454  0.87922284  0.37361051  1
  O  O290  1  0.63219898  0.87892546  0.86068219  1
  O  O291  1  0.37417173  0.14045655  0.13441826  1
  O  O292  1  0.38526064  0.13258097  0.61941855  1
  O  O293  1  0.37994572  0.62835008  0.13537433  1
  O  O294  1  0.37103559  0.63192383  0.64658185  1
  O  O295  1  0.88661794  0.12390771  0.13111897  1
  O  O296  1  0.88479382  0.11639794  0.63510511  1
  O  O297  1  0.88292246  0.62706455  0.13206469  1
  O  O298  1  0.88063385  0.63446231  0.62530896  1
  O  O299  1  0.26067403  0.25152317  0.11607510  1
  O  O300  1  0.25977127  0.25028515  0.61838016  1
  O  O301  1  0.25451003  0.75069213  0.12342642  1
  O  O302  1  0.24111759  0.76491579  0.61868349  1
  O  O303  1  0.75093836  0.25732707  0.11731964  1
  O  O304  1  0.74271976  0.26700994  0.62690452  1
  O  O305  1  0.75807737  0.75695536  0.11604325  1
  O  O306  1  0.75956588  0.75998043  0.62266860  1
  O  O307  1  0.23860773  0.25535434  0.37528983  1
  O  O308  1  0.27729435  0.24637928  0.89316471  1
  O  O309  1  0.24340200  0.74579145  0.38109129  1
  O  O310  1  0.24143120  0.75676811  0.88484718  1
  O  O311  1  0.74100388  0.24280786  0.36799845  1
  O  O312  1  0.74195132  0.24066578  0.88149222  1
  O  O313  1  0.76045557  0.73532491  0.37640676  1
  O  O314  1  0.74934092  0.75726156  0.88821255  1
  O  O315  1  0.00561693  0.11520106  0.00657866  1
  O  O316  1  0.00381560  0.11700407  0.50638195  1
  O  O317  1  0.00094240  0.61673821  0.00966660  1
  O  O318  1  0.00398673  0.61872545  0.50584713  1
  O  O319  1  0.51248346  0.13090518  0.00130423  1
  O  O320  1  0.51409095  0.11990915  0.50174947  1
  O  O321  1  0.50689609  0.61566304  0.00336354  1
  O  O322  1  0.50226952  0.61235248  0.49219962  1
  O  O323  1  0.50197144  0.38457273  0.48885767  1
  O  O324  1  0.49580271  0.39306443  1.00649221  1
  O  O325  1  0.49406488  0.87903103  0.49443460  1
  O  O326  1  0.49649436  0.88902623  1.05753535  1
  O  O327  1  0.99025918  0.38012943  0.49020640  1
  O  O328  1  0.99063164  0.38069194  0.99985479  1
  O  O329  1  0.99660860  0.88237054  0.49445881  1
  O  O330  1  0.99626247  0.88087721  0.99591958  1
  O  O331  1  0.49625426  0.49321712  0.38042281  1
  O  O332  1  0.50665652  0.50206375  0.88744915  1
  O  O333  1  0.49176321  0.99077562  0.37400460  1
  O  O334  1  0.47542327  0.99690555  0.87299069  1
  O  O335  1  0.99062291  0.49298401  0.38120656  1
  O  O336  1  0.99629076  0.49603675  0.88854320  1
  O  O337  1  0.99622923  0.99613057  0.37906489  1
  O  O338  1  0.99589718  0.99441766  0.88103194  1
  O  O339  1  0.00195429  0.00352846  0.11697000  1
  O  O340  1  0.01317327  0.00426071  0.62065704  1
  O  O341  1  -0.00022336  0.50653060  0.11662988  1
  O  O342  1  -0.01137011  0.51173287  0.61687958  1
  O  O343  1  0.50544167  0.01303890  0.16980708  1
  O  O344  1  0.50840577  0.01004445  0.61366054  1
  O  O345  1  0.51114209  0.50358784  0.12269762  1
  O  O346  1  0.51071054  0.49167049  0.61393408  1
  O  O347  1  0.25491713  0.39389506  0.25488671  1
  O  O348  1  0.24275850  0.38727789  0.74171973  1
  O  O349  1  0.25082044  0.88204417  0.24691647  1
  O  O350  1  0.24728464  0.87881996  0.74312233  1
  O  O351  1  0.74707128  0.36967810  0.23584826  1
  O  O352  1  0.74205661  0.38275563  0.73921421  1
  O  O353  1  0.75506559  0.88176660  0.24271450  1
  O  O354  1  0.74778083  0.88045047  0.73795655  1
  O  O355  1  0.26177343  0.11686944  0.24628914  1
  O  O356  1  0.26372913  0.11934299  0.74040214  1
  O  O357  1  0.25766133  0.61926370  0.25858445  1
  O  O358  1  0.25550945  0.61355875  0.75058563  1
  O  O359  1  0.75787042  0.11912874  0.25249229  1
  O  O360  1  0.75371006  0.12323991  0.75812318  1
  O  O361  1  0.76379242  0.63046305  0.25813108  1
  O  O362  1  0.74750827  0.61176421  0.74285659  1
  O  O363  1  0.37750482  0.11236197  0.37181668  1
  O  O364  1  0.38375607  0.12292467  0.85089909  1
  O  O365  1  0.36824187  0.62010649  0.37035295  1
  O  O366  1  0.37766624  0.64144380  0.84639693  1
  O  O367  1  0.87285649  0.12087199  0.36731793  1
  O  O368  1  0.86537565  0.12005901  0.86907414  1
  O  O369  1  0.87125566  0.61750449  0.36802443  1
  O  O370  1  0.87650619  0.62177062  0.86966448  1
  O  O371  1  0.13088643  0.37299527  0.12772819  1
  O  O372  1  0.11682110  0.38480410  0.61738504  1
  O  O373  1  0.13406784  0.87255895  0.12966650  1
  O  O374  1  0.12970109  0.88220007  0.63129157  1
  O  O375  1  0.63120771  0.38043057  0.12914324  1
  O  O376  1  0.63620963  0.38506464  0.62786877  1
  O  O377  1  0.64348760  0.87378035  0.12861552  1
  O  O378  1  0.63345366  0.88434343  0.63250620  1
  O  O379  1  0.12726954  0.23762679  0.26671586  1
  O  O380  1  0.13043092  0.25716445  0.74923944  1
  O  O381  1  0.11827322  0.74104279  0.26500996  1
  O  O382  1  0.12284971  0.75469793  0.75588782  1
  O  O383  1  0.61730653  0.25545903  0.25972340  1
  O  O384  1  0.62366201  0.25736794  0.75967372  1
  O  O385  1  0.61482318  0.74655442  0.24429741  1
  O  O386  1  0.63190194  0.76873828  0.75123057  1
  O  O387  1  0.37939734  0.24515310  0.24649762  1
  O  O388  1  0.38068302  0.23268679  0.72858806  1
  O  O389  1  0.38112400  0.73566160  0.24765957  1
  O  O390  1  0.38506339  0.76314291  0.74465054  1
  O  O391  1  0.87666459  0.23611151  0.24776387  1
  O  O392  1  0.86773857  0.23739380  0.74996989  1
  O  O393  1  0.88317202  0.74213533  0.24244238  1
  O  O394  1  0.88142509  0.75290442  0.73727224  1
  O  O395  1  0.38414232  0.50234042  0.49517891  1
  O  O396  1  0.38978368  0.49455063  1.00628885  1
  O  O397  1  0.38217113  0.99262177  0.49182239  1
  O  O398  1  0.38014998  0.99466038  1.00838754  1
  O  O399  1  0.88466567  0.49495217  0.49204441  1
  O  O400  1  0.88189137  0.49163975  1.00051893  1
  O  O401  1  0.88234768  0.99612366  0.49525987  1
  O  O402  1  0.88665093  0.99721217  0.99302051  1
  O  O403  1  0.11493234  0.00174042  0.00173052  1
  O  O404  1  0.12057887  0.00924256  0.50375107  1
  O  O405  1  0.11695640  0.50279651  0.00428989  1
  O  O406  1  0.10761278  0.50965980  0.49001428  1
  O  O407  1  0.62945875  0.01855931  0.00037953  1
  O  O408  1  0.62085886  0.00809785  0.50329962  1
  O  O409  1  0.61699296  0.50434808  0.00466807  1
  O  O410  1  0.61871418  0.50533386  0.50677591  1
  O  O411  1  0.37059446  0.36542003  0.12993786  1
  O  O412  1  0.38160523  0.35458674  0.62400904  1
  O  O413  1  0.35739460  0.85180526  0.14075373  1
  O  O414  1  0.36695070  0.88353360  0.61270058  1
  O  O415  1  0.86572592  0.37505206  0.11505391  1
  O  O416  1  0.86024289  0.37858708  0.61547627  1
  O  O417  1  0.86947980  0.86943338  0.11735860  1
  O  O418  1  0.87019311  0.87201704  0.62100691  1
  O  O419  1  0.12349544  0.13413023  0.38825603  1
  O  O420  1  0.12547578  0.11538948  0.88821774  1
  O  O421  1  0.12661161  0.63328822  0.38741828  1
  O  O422  1  0.11733843  0.63826072  0.87618143  1
  O  O423  1  0.63204214  0.13487662  0.38211026  1
  O  O424  1  0.62881676  0.13179975  0.88113247  1
  O  O425  1  0.64484546  0.61721809  0.37116578  1
  O  O426  1  0.62502504  0.62551986  0.88566927  1
