# generated using pymatgen
data_V85Zn86O256
_symmetry_space_group_name_H-M   'P 1'
_cell_length_a   16.93224110
_cell_length_b   16.95641610
_cell_length_c   16.96432404
_cell_angle_alpha   90.07336659
_cell_angle_beta   90.06316884
_cell_angle_gamma   89.93091291
_symmetry_Int_Tables_number   1
_chemical_formula_structural   V85Zn86O256
_chemical_formula_sum   'V85 Zn86 O256'
_cell_volume   4870.61872049
_cell_formula_units_Z   1
loop_
 _symmetry_equiv_pos_site_id
 _symmetry_equiv_pos_as_xyz
  1  'x, y, z'
loop_
 _atom_site_type_symbol
 _atom_site_label
 _atom_site_symmetry_multiplicity
 _atom_site_fract_x
 _atom_site_fract_y
 _atom_site_fract_z
 _atom_site_occupancy
  V  V0  1  0.88451588  0.62180828  0.74868095  1
  V  V1  1  0.87769589  0.37760173  0.50033931  1
  V  V2  1  0.62343173  0.37537056  0.74896845  1
  V  V3  1  0.37637943  0.39072270  0.49540625  1
  V  V4  1  0.11981838  0.12702191  0.50487912  1
  V  V5  1  0.87734696  0.37474311  0.00033441  1
  V  V6  1  0.37959321  0.24326216  0.12472791  1
  V  V7  1  0.12863778  0.37713574  0.74815953  1
  V  V8  1  0.23608046  0.86966794  0.62865883  1
  V  V9  1  0.24632796  0.63037943  0.87192410  1
  V  V10  1  0.50173199  0.24355575  0.24688717  1
  V  V11  1  0.12619774  0.37618941  0.25119866  1
  V  V12  1  0.50015969  0.61967807  0.62389981  1
  V  V13  1  0.74354042  0.88151312  0.12818137  1
  V  V14  1  0.75237536  0.00132893  0.75739188  1
  V  V15  1  0.00125116  0.12261643  0.12819255  1
  V  V16  1  0.74917569  0.37542838  0.62200826  1
  V  V17  1  0.49854814  0.74965293  0.74719653  1
  V  V18  1  0.26767627  0.50172296  0.26023028  1
  V  V19  1  0.36190880  0.87541299  0.50263307  1
  V  V20  1  0.12700502  0.50250124  0.12581116  1
  V  V21  1  0.51987047  0.78456146  0.27794403  1
  V  V22  1  0.13075782  0.25170544  0.38094969  1
  V  V23  1  0.00143076  0.37620280  0.87599250  1
  V  V24  1  0.62634944  0.24715103  0.37077108  1
  V  V25  1  0.74949130  0.50699220  0.24516090  1
  V  V26  1  0.26595525  0.63095539  0.37971413  1
  V  V27  1  0.61825437  0.62464973  0.49253573  1
  V  V28  1  0.87809102  0.24481994  0.62312128  1
  V  V29  1  0.12526984  0.86018538  0.24038143  1
  V  V30  1  0.00279132  0.24582720  0.74459825  1
  V  V31  1  0.74633674  0.74879730  0.49220476  1
  V  V32  1  0.62645715  0.12974496  0.49807988  1
  V  V33  1  0.51978413  -0.02766796  0.48711129  1
  V  V34  1  0.62630813  0.00555561  0.62679372  1
  V  V35  1  0.24663368  -0.00625365  0.24416934  1
  V  V36  1  0.00273946  0.38470213  0.37954478  1
  V  V37  1  0.11017819  0.75739293  0.86275388  1
  V  V38  1  0.25577620  0.11838025  0.87599094  1
  V  V39  1  0.36785686  0.75014308  0.62194978  1
  V  V40  1  0.50947286  0.51657361  0.00947243  1
  V  V41  1  0.86994420  0.50202042  0.37830879  1
  V  V42  1  0.75046022  0.87371218  0.62405829  1
  V  V43  1  0.88335776  0.75418946  0.12544297  1
  V  V44  1  0.12860600  0.24895777  0.87502959  1
  V  V45  1  0.87180471  0.88222172  -0.00213287  1
  V  V46  1  0.37456132  -0.00632242  0.37790355  1
  V  V47  1  0.37726158  0.12088867  0.75023836  1
  V  V48  1  0.62364414  0.25054950  0.87495056  1
  V  V49  1  0.12625581  0.12254857  0.00199125  1
  V  V50  1  -0.00222708  0.61803271  0.61025985  1
  V  V51  1  0.61178749  0.00216778  0.13144922  1
  V  V52  1  0.75327242  0.12427616  0.87754140  1
  V  V53  1  0.62586540  0.87638360  0.74950476  1
  V  V54  1  0.74926321  0.25035567  0.00005914  1
  V  V55  1  0.37640640  0.11925220  0.24800959  1
  V  V56  1  0.37624547  0.37508628  -0.00069138  1
  V  V57  1  0.49911226  0.37733029  0.87428394  1
  V  V58  1  0.74613818  0.38009578  0.12355498  1
  V  V59  1  0.62213961  0.38466546  0.24612168  1
  V  V60  1  0.74775649  0.62619318  0.86806020  1
  V  V61  1  0.88290076  0.63002461  0.24974270  1
  V  V62  1  0.87886051  0.12253038  0.75371966  1
  V  V63  1  0.00084375  0.86959041  0.36794207  1
  V  V64  1  0.25213473  0.37423733  0.12658306  1
  V  V65  1  0.63555443  0.75102194  0.87182793  1
  V  V66  1  0.12061935  0.62935427  -0.00171243  1
  V  V67  1  0.37061659  0.87509274  0.00773966  1
  V  V68  1  0.61969359  0.12478446  0.00479926  1
  V  V69  1  0.24829279  -0.00478174  0.74960228  1
  V  V70  1  0.37377350  0.50329231  0.87339648  1
  V  V71  1  0.74665559  0.00503595  0.25593471  1
  V  V72  1  0.11643009  0.00197384  0.62712458  1
  V  V73  1  0.37028522  0.24527723  0.61104833  1
  V  V74  1  0.12360580  0.49764114  0.61273376  1
  V  V75  1  0.49356118  0.00265752  -0.00302513  1
  V  V76  1  0.70925871  0.70202069  0.04699611  1
  V  V77  1  0.87695225  0.87619486  0.49575430  1
  V  V78  1  0.24938067  0.12437185  0.38051723  1
  V  V79  1  0.88169127  0.74904801  0.62546021  1
  V  V80  1  0.87698709  0.25062248  0.12735025  1
  V  V81  1  0.49087045  0.87769139  0.87250980  1
  V  V82  1  0.24927752  0.75842779  0.00621653  1
  V  V83  1  0.75268688  0.24920500  0.49044956  1
  V  V84  1  0.87285525  0.12729154  0.25987795  1
  Zn  Zn85  1  0.49795581  0.12271477  0.62138468  1
  Zn  Zn86  1  0.00224986  0.50120435  0.00189323  1
  Zn  Zn87  1  0.24829889  0.50020765  0.74848176  1
  Zn  Zn88  1  0.00869957  0.63273377  0.13277028  1
  Zn  Zn89  1  0.24914700  0.37127294  0.61837788  1
  Zn  Zn90  1  0.37291160  0.62466461  0.74859401  1
  Zn  Zn91  1  0.99902688  -0.11298877  0.86018285  1
  Zn  Zn92  1  0.49777070  0.24763569  0.74638113  1
  Zn  Zn93  1  -0.00440777  0.00419470  0.50083242  1
  Zn  Zn94  1  0.00214845  0.25038055  0.25206717  1
  Zn  Zn95  1  0.61960502  0.49881097  0.62396923  1
  Zn  Zn96  1  -0.00668746  0.00331407  -0.00833986  1
  Zn  Zn97  1  0.87483198  0.50113245  0.87485793  1
  Zn  Zn98  1  0.13134691  0.63154687  0.49684818  1
  Zn  Zn99  1  0.75091214  0.49751331  0.75003550  1
  Zn  Zn100  1  0.12960955  0.74799206  0.37914156  1
  Zn  Zn101  1  0.74091986  0.63431390  0.36607323  1
  Zn  Zn102  1  0.25300453  0.24742214  0.00044858  1
  Zn  Zn103  1  0.87362852  0.00298859  0.37692967  1
  Zn  Zn104  1  0.42136570  0.69334501  0.17022101  1
  Zn  Zn105  1  0.49068295  0.37852220  0.37525613  1
  Zn  Zn106  1  0.12643365  -0.00422693  0.12482495  1
  Zn  Zn107  1  0.19178230  0.18686813  0.19079711  1
  Zn  Zn108  1  0.19134438  0.18510552  0.68658774  1
  Zn  Zn109  1  0.22652374  0.67377321  0.17298801  1
  Zn  Zn110  1  0.18087911  0.68488085  0.68693806  1
  Zn  Zn111  1  0.68929930  0.18638683  0.18514393  1
  Zn  Zn112  1  0.68968649  0.19045611  0.68681984  1
  Zn  Zn113  1  0.59611339  0.67537310  0.18694405  1
  Zn  Zn114  1  0.68970254  0.68783199  0.68421193  1
  Zn  Zn115  1  0.31360913  0.31137478  0.31525796  1
  Zn  Zn116  1  0.31372013  0.30653653  0.80957877  1
  Zn  Zn117  1  0.31586810  0.81034969  0.30794568  1
  Zn  Zn118  1  0.30867730  0.81172444  0.81318253  1
  Zn  Zn119  1  0.81185371  0.31607161  0.31144501  1
  Zn  Zn120  1  0.81254534  0.31135413  0.81180287  1
  Zn  Zn121  1  0.80837315  0.81484997  0.30804538  1
  Zn  Zn122  1  0.83815021  0.82114420  0.79926519  1
  Zn  Zn123  1  0.19758958  0.43672570  0.43882513  1
  Zn  Zn124  1  0.18975271  0.43947320  0.93800337  1
  Zn  Zn125  1  0.18250266  0.93633834  0.43629438  1
  Zn  Zn126  1  0.18142404  0.93789245  0.93332625  1
  Zn  Zn127  1  0.64859831  0.46177259  0.41151239  1
  Zn  Zn128  1  0.68700925  0.44229231  0.93650089  1
  Zn  Zn129  1  0.69012556  0.93730646  0.43726596  1
  Zn  Zn130  1  0.68610318  0.93601727  0.94046109  1
  Zn  Zn131  1  0.31523292  0.05924808  0.06308629  1
  Zn  Zn132  1  0.30831366  0.05918908  0.56230100  1
  Zn  Zn133  1  0.31405415  0.56303458  0.05820855  1
  Zn  Zn134  1  0.31076141  0.56126814  0.56436599  1
  Zn  Zn135  1  0.81045762  0.06241556  0.06878177  1
  Zn  Zn136  1  0.81095707  0.06449238  0.56415537  1
  Zn  Zn137  1  0.82044487  0.56025056  0.06342921  1
  Zn  Zn138  1  0.80581024  0.56213127  0.55933235  1
  Zn  Zn139  1  0.44274993  0.43531825  0.18298277  1
  Zn  Zn140  1  0.43423372  0.43403866  0.68513961  1
  Zn  Zn141  1  0.43084954  0.90697594  0.20246834  1
  Zn  Zn142  1  0.43590567  0.93752714  0.68028155  1
  Zn  Zn143  1  0.94060888  0.44025856  0.18990873  1
  Zn  Zn144  1  0.93925107  0.43762172  0.68703973  1
  Zn  Zn145  1  0.93794718  0.93996623  0.18843731  1
  Zn  Zn146  1  0.93939160  0.93583902  0.68906462  1
  Zn  Zn147  1  0.06094583  0.05703960  0.31487791  1
  Zn  Zn148  1  0.06508818  0.06100272  0.81415274  1
  Zn  Zn149  1  0.06814146  0.56466754  0.31663605  1
  Zn  Zn150  1  0.06141939  0.56227774  0.80927915  1
  Zn  Zn151  1  0.56052226  0.06170993  0.31518296  1
  Zn  Zn152  1  0.56181233  0.06351392  0.81562724  1
  Zn  Zn153  1  0.52248754  0.57054602  0.32041921  1
  Zn  Zn154  1  0.56265182  0.56294254  0.81382731  1
  Zn  Zn155  1  0.44359184  0.18212893  0.43453770  1
  Zn  Zn156  1  0.43761291  0.18758857  0.93444366  1
  Zn  Zn157  1  0.43518250  0.69462836  0.43780144  1
  Zn  Zn158  1  0.43661068  0.69214536  0.93739516  1
  Zn  Zn159  1  0.94511987  0.19290778  0.43571182  1
  Zn  Zn160  1  0.94071253  0.18754296  0.93625713  1
  Zn  Zn161  1  0.93612100  0.68949861  0.43443742  1
  Zn  Zn162  1  0.93055085  0.69288146  0.94326439  1
  Zn  Zn163  1  0.06458640  0.30831894  0.06388831  1
  Zn  Zn164  1  0.06327295  0.31176588  0.56073207  1
  Zn  Zn165  1  0.05944415  0.81430323  0.05734081  1
  Zn  Zn166  1  0.06121904  0.80898049  0.55755221  1
  Zn  Zn167  1  0.55960697  0.31489715  0.06212139  1
  Zn  Zn168  1  0.55677085  0.31126378  0.56264632  1
  Zn  Zn169  1  0.55919411  0.81867665  0.06331383  1
  Zn  Zn170  1  0.56273848  0.81458020  0.55000088  1
  O  O171  1  0.11954762  0.12746927  0.11912964  1
  O  O172  1  0.13241018  0.11725674  0.61479990  1
  O  O173  1  0.12983649  0.61821737  0.11779532  1
  O  O174  1  0.11567927  0.61527198  0.62143214  1
  O  O175  1  0.62768604  0.12028199  0.11096220  1
  O  O176  1  0.62425252  0.12095832  0.62085464  1
  O  O177  1  0.65872734  0.63690638  0.10137905  1
  O  O178  1  0.61550950  0.62407536  0.62099634  1
  O  O179  1  0.37462425  0.37160629  0.38938261  1
  O  O180  1  0.37655506  0.38055397  0.88068968  1
  O  O181  1  0.36363847  0.88598268  0.38811973  1
  O  O182  1  0.38840886  0.87182689  0.87576470  1
  O  O183  1  0.88292808  0.38153582  0.37842768  1
  O  O184  1  0.88350105  0.37271363  0.88223602  1
  O  O185  1  0.87888261  0.87743104  0.38004937  1
  O  O186  1  0.85254810  0.87272386  0.90050500  1
  O  O187  1  0.25484839  0.00635337  0.36794508  1
  O  O188  1  0.24278050  0.01091468  0.86530376  1
  O  O189  1  0.25335166  0.50278804  0.36317188  1
  O  O190  1  0.25660461  0.50991112  0.87463061  1
  O  O191  1  0.74890009  -0.00462211  0.36102884  1
  O  O192  1  0.74321167  0.00483551  0.86286843  1
  O  O193  1  0.75304580  0.49995195  0.36184205  1
  O  O194  1  0.75355893  0.51139076  0.87391058  1
  O  O195  1  0.24192704  0.49302860  0.13374532  1
  O  O196  1  0.23990701  0.49604148  0.63036541  1
  O  O197  1  0.24947638  1.00569362  0.14086057  1
  O  O198  1  0.23983477  0.99191582  0.63163738  1
  O  O199  1  0.75888394  0.48685927  0.12848366  1
  O  O200  1  0.75057777  0.48391974  0.62622524  1
  O  O201  1  0.73987005  0.99819399  0.13583100  1
  O  O202  1  0.74145096  0.99761309  0.63459371  1
  O  O203  1  0.01027860  0.37406028  0.25765804  1
  O  O204  1  0.00891724  0.36617797  0.75651636  1
  O  O205  1  0.01324364  0.88086242  0.25587230  1
  O  O206  1  -0.05558240  0.85864470  0.76599580  1
  O  O207  1  0.50778225  0.36304194  0.24823103  1
  O  O208  1  0.50668039  0.37302936  0.75526088  1
  O  O209  1  0.52376414  0.88604849  0.26515522  1
  O  O210  1  0.50437770  0.87059322  0.75307743  1
  O  O211  1  0.49252690  0.13623888  0.25415748  1
  O  O212  1  0.49126145  0.12303183  0.74762469  1
  O  O213  1  0.50190882  0.64163843  0.24339140  1
  O  O214  1  0.49826513  0.63553778  0.74547328  1
  O  O215  1  0.99483668  0.12743903  0.24412354  1
  O  O216  1  0.99354675  0.13851164  0.75623449  1
  O  O217  1  0.98708286  0.61780289  0.25026502  1
  O  O218  1  0.98811755  0.62102195  0.73956346  1
  O  O219  1  0.37576670  0.25653303  0.00686699  1
  O  O220  1  0.37521179  0.23948944  0.51038056  1
  O  O221  1  0.36342334  0.76222604  -0.00817863  1
  O  O222  1  0.37226496  0.75810949  0.51489460  1
  O  O223  1  0.87150410  0.25929179  0.00461344  1
  O  O224  1  0.87094147  0.25199330  0.50580756  1
  O  O225  1  0.86842066  0.76190402  0.01410632  1
  O  O226  1  0.86708874  0.75559446  0.50599341  1
  O  O227  1  0.12581400  0.24267548  0.49214650  1
  O  O228  1  0.13027062  0.23942917  0.99585093  1
  O  O229  1  0.12561784  0.74625861  0.49487452  1
  O  O230  1  0.12710011  0.74437508  0.98998543  1
  O  O231  1  0.63155145  0.24909277  0.49175444  1
  O  O232  1  0.62768680  0.24376824  0.99625589  1
  O  O233  1  0.63568142  0.73681412  0.50951629  1
  O  O234  1  0.63881963  0.75740521  0.99154797  1
  O  O235  1  0.48839554  0.25323730  0.13120322  1
  O  O236  1  0.48628353  0.24370126  0.62709861  1
  O  O237  1  0.51627877  0.75158997  0.13884600  1
  O  O238  1  0.49218809  0.74428758  0.63327329  1
  O  O239  1  0.99551910  0.24075991  0.12891694  1
  O  O240  1  0.99175590  0.25540514  0.63440355  1
  O  O241  1  0.98775558  0.75028466  0.12379105  1
  O  O242  1  0.98667755  0.74032474  0.62040019  1
  O  O243  1  0.01426947  0.26187426  0.37152168  1
  O  O244  1  0.00725933  0.25973542  0.86802729  1
  O  O245  1  -0.00233556  0.76535669  0.37560742  1
  O  O246  1  0.00944154  0.74885141  0.87994792  1
  O  O247  1  0.50940465  0.25265628  0.36530161  1
  O  O248  1  0.50644670  0.25886534  0.87250677  1
  O  O249  1  0.50015765  0.76252233  0.37495806  1
  O  O250  1  0.51020417  0.75628659  0.86599264  1
  O  O251  1  0.24025668  0.11759606  0.48599862  1
  O  O252  1  0.24589436  0.12378284  0.99267854  1
  O  O253  1  0.25198947  0.61578392  0.48283057  1
  O  O254  1  0.23838049  0.63413371  0.98739654  1
  O  O255  1  0.73984079  0.13836085  0.50790046  1
  O  O256  1  0.74436392  0.13047562  0.99667808  1
  O  O257  1  0.74126640  0.63486799  0.49662422  1
  O  O258  1  0.76566784  0.63501161  0.98820754  1
  O  O259  1  0.26201959  0.37367728  0.00421687  1
  O  O260  1  0.26792221  0.37396289  0.50252332  1
  O  O261  1  0.25968457  0.87085681  -0.01531720  1
  O  O262  1  0.25429552  0.88177355  0.51275849  1
  O  O263  1  0.75680867  0.37199231  0.00444921  1
  O  O264  1  0.75935306  0.36289577  0.50851801  1
  O  O265  1  0.75627081  0.88842557  0.01915226  1
  O  O266  1  0.75962481  0.86957033  0.50412150  1
  O  O267  1  0.13163696  0.48930061  0.24477862  1
  O  O268  1  0.12451214  0.48981382  0.74306639  1
  O  O269  1  0.13391419  0.99506760  0.24905492  1
  O  O270  1  0.13588873  1.01008049  0.73882889  1
  O  O271  1  0.63474270  0.48679238  0.24111236  1
  O  O272  1  0.62615060  0.48641196  0.74832935  1
  O  O273  1  0.63232110  1.01682880  0.24017815  1
  O  O274  1  0.63166506  0.99821628  0.74392760  1
  O  O275  1  0.36886742  -0.00356384  0.25988338  1
  O  O276  1  0.36596367  0.01230220  0.73903642  1
  O  O277  1  0.36593782  0.49219677  0.24727219  1
  O  O278  1  0.37216676  0.49911644  0.76262016  1
  O  O279  1  0.86694890  0.01140894  0.25040827  1
  O  O280  1  0.86616542  0.01739625  0.73910789  1
  O  O281  1  0.86867491  0.50283533  0.25866369  1
  O  O282  1  0.87268121  0.50662940  0.75265527  1
  O  O283  1  0.12234124  0.37239274  0.37137805  1
  O  O284  1  0.12052383  0.36983473  0.86999354  1
  O  O285  1  0.11769503  0.87183518  0.36489524  1
  O  O286  1  0.11695949  0.86216973  0.87417377  1
  O  O287  1  0.63595722  0.35720106  0.35904427  1
  O  O288  1  0.62145367  0.37071220  0.86753240  1
  O  O289  1  0.58667191  0.89465535  0.45189513  1
  O  O290  1  0.62008013  0.86838553  0.86804954  1
  O  O291  1  0.37081825  0.13377979  0.13287345  1
  O  O292  1  0.37394077  0.13064546  0.62883389  1
  O  O293  1  0.33330016  0.64200027  0.13125781  1
  O  O294  1  0.37867735  0.63361937  0.62731135  1
  O  O295  1  0.88289029  0.13232510  0.13227944  1
  O  O296  1  0.86998948  0.13910373  0.63308430  1
  O  O297  1  0.87815548  0.63395286  0.13192112  1
  O  O298  1  0.87997446  0.62575083  0.62649062  1
  O  O299  1  0.26224765  0.25627222  0.12583512  1
  O  O300  1  0.26586913  0.25142059  0.62936460  1
  O  O301  1  0.23368766  0.76508110  0.10392889  1
  O  O302  1  0.25497413  0.75807961  0.63701709  1
  O  O303  1  0.75745658  0.25954596  0.11846739  1
  O  O304  1  0.75760568  0.25911979  0.61924562  1
  O  O305  1  0.75450621  0.76287275  0.11947967  1
  O  O306  1  0.75691387  0.75582892  0.61444692  1
  O  O307  1  0.23863059  0.24058729  0.36888963  1
  O  O308  1  0.24503734  0.23824310  0.87573602  1
  O  O309  1  0.25450045  0.73381098  0.36622395  1
  O  O310  1  0.23744193  0.74463852  0.87747180  1
  O  O311  1  0.74848414  0.25081919  0.38503822  1
  O  O312  1  0.74318947  0.24688600  0.88236208  1
  O  O313  1  0.75244620  0.75268596  0.38773771  1
  O  O314  1  0.73926593  0.74562418  0.86115488  1
  O  O315  1  0.00874344  0.12742836  0.00824162  1
  O  O316  1  0.01439211  0.12363560  0.49577697  1
  O  O317  1  0.01059038  0.62371982  0.00295110  1
  O  O318  1  -0.00311187  0.62271447  0.50816257  1
  O  O319  1  0.50834905  0.11651042  -0.00801477  1
  O  O320  1  0.51625552  0.11681506  0.50005616  1
  O  O321  1  0.49665962  0.61620846  -0.00319966  1
  O  O322  1  0.51091977  0.63472745  0.50861661  1
  O  O323  1  0.48184843  0.36566712  0.49749265  1
  O  O324  1  0.48836323  0.37984111  0.99410308  1
  O  O325  1  0.46947677  0.88076371  0.52868451  1
  O  O326  1  0.49346054  0.88156135  0.99031349  1
  O  O327  1  0.99156121  0.36988338  0.49031668  1
  O  O328  1  0.99524705  0.37244481  0.99283661  1
  O  O329  1  0.98619636  0.87703371  0.49543034  1
  O  O330  1  0.98226525  0.87807909  0.99775706  1
  O  O331  1  0.53881438  0.48032126  0.37542486  1
  O  O332  1  0.49080164  0.49640302  0.88093185  1
  O  O333  1  0.48825648  1.00592836  0.38583165  1
  O  O334  1  0.50913613  0.98834724  0.88442853  1
  O  O335  1  0.99139887  0.48975079  0.37018344  1
  O  O336  1  1.00058471  0.48582726  0.87605576  1
  O  O337  1  0.99590694  0.98715578  0.37985151  1
  O  O338  1  1.00122442  0.99928178  0.87810869  1
  O  O339  1  0.00175853  0.01476401  0.12279413  1
  O  O340  1  0.01179953  -0.00393384  0.62536221  1
  O  O341  1  0.01630165  0.50068970  0.12482638  1
  O  O342  1  0.00896350  0.50624477  0.62658103  1
  O  O343  1  0.50964461  -0.00507558  0.11609727  1
  O  O344  1  0.51554098  -0.00054569  0.61468456  1
  O  O345  1  0.49528048  0.50129030  0.10856244  1
  O  O346  1  0.49720885  0.51603371  0.63290298  1
  O  O347  1  0.24578708  0.38358012  0.24832056  1
  O  O348  1  0.23651639  0.37312744  0.75184775  1
  O  O349  1  0.23530005  0.88211814  0.25519136  1
  O  O350  1  0.25173040  0.88801710  0.74603881  1
  O  O351  1  0.74638120  0.38175365  0.23996585  1
  O  O352  1  0.74209937  0.37276056  0.74220214  1
  O  O353  1  0.75469258  0.88861678  0.23718161  1
  O  O354  1  0.74878307  0.88519267  0.74400959  1
  O  O355  1  0.25607156  0.11713170  0.26117151  1
  O  O356  1  0.25665115  0.11696284  0.75726321  1
  O  O357  1  0.24742430  0.60637515  0.26398958  1
  O  O358  1  0.24935603  0.62353742  0.76158143  1
  O  O359  1  0.76186743  0.11944357  0.24429004  1
  O  O360  1  0.75622205  0.12136889  0.75650127  1
  O  O361  1  0.75948578  0.61082935  0.24842246  1
  O  O362  1  0.75478293  0.61856626  0.75556146  1
  O  O363  1  0.36740687  0.11602719  0.37073492  1
  O  O364  1  0.36589619  0.12785166  0.86568489  1
  O  O365  1  0.36762462  0.62470599  0.37630194  1
  O  O366  1  0.36527174  0.61959162  0.87377724  1
  O  O367  1  0.88203513  0.12710131  0.36325615  1
  O  O368  1  0.86679627  0.13417559  0.86522656  1
  O  O369  1  0.86963325  0.61844108  0.36782189  1
  O  O370  1  0.86934438  0.62738734  0.86482008  1
  O  O371  1  0.13181227  0.37866694  0.13193210  1
  O  O372  1  0.12579078  0.37949711  0.63185016  1
  O  O373  1  0.11603829  0.87782891  0.13680220  1
  O  O374  1  0.13057028  0.88174063  0.62356300  1
  O  O375  1  0.63643137  0.36513455  0.13219029  1
  O  O376  1  0.63050098  0.37374226  0.63062578  1
  O  O377  1  0.63417644  0.89023364  0.11979312  1
  O  O378  1  0.63149562  0.88365798  0.63023155  1
  O  O379  1  0.12820381  0.26342573  0.25578315  1
  O  O380  1  0.11881479  0.25403375  0.75225962  1
  O  O381  1  0.13217890  0.76137167  0.24775158  1
  O  O382  1  0.11961189  0.74428191  0.76464523  1
  O  O383  1  0.61922852  0.25045603  0.25252570  1
  O  O384  1  0.62319316  0.25946858  0.75474713  1
  O  O385  1  0.61846696  0.75754599  0.26485194  1
  O  O386  1  0.61749840  0.75687024  0.75270953  1
  O  O387  1  0.38228526  0.24456733  0.24391953  1
  O  O388  1  0.37612846  0.23627725  0.74151674  1
  O  O389  1  0.40471583  0.78860172  0.24245873  1
  O  O390  1  0.38378693  0.75109252  0.74305362  1
  O  O391  1  0.87639057  0.24507653  0.24466306  1
  O  O392  1  0.88190242  0.24412713  0.74308959  1
  O  O393  1  0.86501450  0.73959318  0.23992957  1
  O  O394  1  0.85772845  0.73020883  0.73152038  1
  O  O395  1  0.38000239  0.48888721  0.50601681  1
  O  O396  1  0.37860921  0.49426170  0.98976758  1
  O  O397  1  0.37871900  0.99411110  0.49404922  1
  O  O398  1  0.38777577  0.99790356  0.99770220  1
  O  O399  1  0.86584010  0.49498903  0.48470941  1
  O  O400  1  0.88139677  0.48648123  0.99746708  1
  O  O401  1  0.87270831  0.99262175  0.49956426  1
  O  O402  1  0.87514747  0.98810690  1.01081529  1
  O  O403  1  0.12510644  0.01252781  0.00436464  1
  O  O404  1  0.12262399  0.00776069  0.50885751  1
  O  O405  1  0.12659192  0.50831155  0.00809460  1
  O  O406  1  0.12786423  0.49721713  0.51065835  1
  O  O407  1  0.61651278  0.00811099  0.00608816  1
  O  O408  1  0.63404575  0.01615092  0.51055482  1
  O  O409  1  0.60763001  0.49768241  -0.00451799  1
  O  O410  1  0.63531494  0.52145743  0.50971357  1
  O  O411  1  0.37134835  0.36804552  0.11640727  1
  O  O412  1  0.37459753  0.36195679  0.61595309  1
  O  O413  1  0.37461274  0.88424439  0.10652995  1
  O  O414  1  0.35628105  0.86907675  0.62572690  1
  O  O415  1  0.87265566  0.37033224  0.11846823  1
  O  O416  1  0.86987946  0.36577614  0.62223192  1
  O  O417  1  0.86819189  0.87047763  0.12299941  1
  O  O418  1  0.86945781  0.86650225  0.61503696  1
  O  O419  1  0.13010069  0.13317456  0.37873105  1
  O  O420  1  0.13273971  0.13142767  0.88353038  1
  O  O421  1  0.13816273  0.62632745  0.37714740  1
  O  O422  1  0.12750912  0.62945708  0.88044210  1
  O  O423  1  0.62531620  0.13781119  0.38251557  1
  O  O424  1  0.63205793  0.13076511  0.88424800  1
  O  O425  1  0.62300706  0.62476520  0.39025988  1
  O  O426  1  0.63712122  0.63381557  0.86999612  1
