# generated using pymatgen
data_V85Zn86O256
_symmetry_space_group_name_H-M   'P 1'
_cell_length_a   16.94857038
_cell_length_b   16.93451950
_cell_length_c   16.93948564
_cell_angle_alpha   90.05369650
_cell_angle_beta   90.05221734
_cell_angle_gamma   90.01977525
_symmetry_Int_Tables_number   1
_chemical_formula_structural   V85Zn86O256
_chemical_formula_sum   'V85 Zn86 O256'
_cell_volume   4861.89719780
_cell_formula_units_Z   1
loop_
 _symmetry_equiv_pos_site_id
 _symmetry_equiv_pos_as_xyz
  1  'x, y, z'
loop_
 _atom_site_type_symbol
 _atom_site_label
 _atom_site_symmetry_multiplicity
 _atom_site_fract_x
 _atom_site_fract_y
 _atom_site_fract_z
 _atom_site_occupancy
  V  V0  1  0.00228717  0.25078209  0.24939344  1
  V  V1  1  0.00487591  0.11478457  0.12846477  1
  V  V2  1  0.87625227  0.50383668  0.37637342  1
  V  V3  1  0.50116984  0.37500574  0.37477907  1
  V  V4  1  0.37426557  0.37777545  0.49971160  1
  V  V5  1  0.62757674  0.75052323  0.87148964  1
  V  V6  1  0.36386042  0.50134648  0.87391796  1
  V  V7  1  0.87072641  0.37573151  0.00647532  1
  V  V8  1  0.37357319  0.12365289  0.25301586  1
  V  V9  1  0.12413868  0.25173228  0.37822162  1
  V  V10  1  0.36967282  0.49959593  0.36150669  1
  V  V11  1  0.49911244  0.75463004  0.74881828  1
  V  V12  1  0.23966437  0.63536637  0.86964785  1
  V  V13  1  0.49969170  0.25027159  0.74986976  1
  V  V14  1  0.24913932  0.12255274  0.87197906  1
  V  V15  1  0.50473558  -0.00175004  0.49287585  1
  V  V16  1  0.86787207  0.62084914  0.74841518  1
  V  V17  1  0.24867703  -0.01841066  0.74615873  1
  V  V18  1  0.62417940  0.62353948  0.49470966  1
  V  V19  1  0.74789735  0.87679672  0.62425525  1
  V  V20  1  0.12947479  -0.01748908  0.62757244  1
  V  V21  1  0.37447024  0.25067956  0.62615437  1
  V  V22  1  0.87393325  0.11614856  0.25254213  1
  V  V23  1  0.62880713  0.38261080  0.75239408  1
  V  V24  1  0.25069117  0.38524884  0.63022229  1
  V  V25  1  0.49841777  0.50063342  0.49846335  1
  V  V26  1  0.87506175  0.75004085  0.62663796  1
  V  V27  1  0.62701376  0.50031904  0.62607990  1
  V  V28  1  0.75146703  0.00134652  0.74999542  1
  V  V29  1  0.50122339  0.25037548  0.24845485  1
  V  V30  1  0.75568136  0.76000060  0.00359506  1
  V  V31  1  -0.00145902  -0.00053801  0.50031048  1
  V  V32  1  0.38118885  -0.00494604  0.88178551  1
  V  V33  1  -0.00324310  0.51046221  0.00438167  1
  V  V34  1  0.11574565  0.49885735  0.62053170  1
  V  V35  1  0.24350836  0.75451625  0.50303163  1
  V  V36  1  0.24769192  0.89065767  0.12965329  1
  V  V37  1  0.37267928  0.37573102  -0.00061682  1
  V  V38  1  0.00449899  0.86198544  0.37724361  1
  V  V39  1  0.50805388  0.12436094  0.62115276  1
  V  V40  1  0.37708408  0.24977550  0.12415291  1
  V  V41  1  0.01725105  0.87080360  0.87731623  1
  V  V42  1  0.75254528  0.12612397  0.87708849  1
  V  V43  1  0.86936587  0.25208433  0.12827905  1
  V  V44  1  0.87674598  -0.01233877  0.88118923  1
  V  V45  1  0.62071357  0.11177853  0.00291560  1
  V  V46  1  0.60936665  0.76693075  0.37354016  1
  V  V47  1  0.58179887  -0.05411988  0.18726037  1
  V  V48  1  0.49994906  0.50636385  0.00255604  1
  V  V49  1  0.12811531  0.50605483  0.12717971  1
  V  V50  1  0.62629660  0.49514841  0.12073211  1
  V  V51  1  0.49777851  0.62711786  0.62319606  1
  V  V52  1  0.12667581  0.12385966  0.50653388  1
  V  V53  1  0.01152406  0.75312176  0.74986876  1
  V  V54  1  0.75392210  0.49930145  0.24083482  1
  V  V55  1  0.87682412  0.37923123  0.50137159  1
  V  V56  1  0.88458137  0.25136238  0.63115854  1
  V  V57  1  0.49760087  0.37761035  0.87383243  1
  V  V58  1  0.38730744  0.63947054  0.23984011  1
  V  V59  1  0.24997571  0.25074599  0.50331308  1
  V  V60  1  0.87007898  0.49913890  0.87245745  1
  V  V61  1  0.74894715  0.24587440  0.50431732  1
  V  V62  1  0.75096491  0.74964271  0.49596468  1
  V  V63  1  0.74515984  0.62238671  0.87911399  1
  V  V64  1  0.12055217  0.62167711  0.49501755  1
  V  V65  1  -0.00332085  0.37238152  0.87245268  1
  V  V66  1  0.12650009  0.38078675  0.75382128  1
  V  V67  1  0.75968653  0.89291047  0.13763550  1
  V  V68  1  0.74968744  0.11955858  0.37657347  1
  V  V69  1  0.37320958  0.12231670  0.74871806  1
  V  V70  1  0.24597537  0.25234091  -0.00011407  1
  V  V71  1  0.62652528  0.24778335  0.38079811  1
  V  V72  1  0.24602318  0.62764119  0.36556842  1
  V  V73  1  0.11858384  0.24782249  0.87008989  1
  V  V74  1  0.62593214  0.25126577  0.87933227  1
  V  V75  1  0.63506042  0.37103310  0.24607549  1
  V  V76  1  0.75224384  0.37966001  0.62958017  1
  V  V77  1  0.00934964  0.74540578  0.23891806  1
  V  V78  1  0.00000768  0.37962720  0.37984444  1
  V  V79  1  0.24968315  0.74903777  0.01305115  1
  V  V80  1  0.12350463  0.11527516  0.00324880  1
  V  V81  1  0.37582423  0.87399226  0.49779757  1
  V  V82  1  0.88532213  0.12823219  0.75438511  1
  V  V83  1  0.87474688  0.62780606  0.23621868  1
  V  V84  1  0.37046074  0.62064481  0.74696449  1
  Zn  Zn85  1  0.25030794  0.38001613  0.13621623  1
  Zn  Zn86  1  0.88060620  0.75383800  0.11749029  1
  Zn  Zn87  1  0.23703879  0.00936896  0.25337330  1
  Zn  Zn88  1  0.59003678  0.65716575  0.03979316  1
  Zn  Zn89  1  0.74816397  0.62857852  0.36719566  1
  Zn  Zn90  1  0.50235176  0.11322645  0.12163244  1
  Zn  Zn91  1  0.37162207  -0.00820161  0.37218205  1
  Zn  Zn92  1  0.25152366  0.12410082  0.37825996  1
  Zn  Zn93  1  0.50698918  0.87992596  0.88560298  1
  Zn  Zn94  1  0.36948921  0.75649904  0.62650998  1
  Zn  Zn95  1  -0.00061951  -0.01245463  0.00719852  1
  Zn  Zn96  1  0.00318159  0.12439736  0.63068285  1
  Zn  Zn97  1  0.62750725  0.00655454  0.62220054  1
  Zn  Zn98  1  0.74630351  0.25309416  0.00839801  1
  Zn  Zn99  1  0.11818395  0.63096187  -0.00310757  1
  Zn  Zn100  1  0.38207661  0.86701730  0.01059864  1
  Zn  Zn101  1  0.87486573  0.87560925  0.49832188  1
  Zn  Zn102  1  0.87252623  -0.00408295  0.37631620  1
  Zn  Zn103  1  0.12882459  0.38236324  0.25110782  1
  Zn  Zn104  1  -0.00310588  0.62121805  0.62028489  1
  Zn  Zn105  1  0.12172182  0.88434940  0.24637607  1
  Zn  Zn106  1  0.62154370  0.87983783  0.74764541  1
  Zn  Zn107  1  0.18759203  0.19070565  0.18702340  1
  Zn  Zn108  1  0.18693515  0.18856196  0.68907132  1
  Zn  Zn109  1  0.18531191  0.68194315  0.18657338  1
  Zn  Zn110  1  0.18841078  0.68262581  0.68277664  1
  Zn  Zn111  1  0.68799630  0.17863697  0.18952570  1
  Zn  Zn112  1  0.69114661  0.19127613  0.69226016  1
  Zn  Zn113  1  0.66279382  0.70361965  0.17820509  1
  Zn  Zn114  1  0.68738763  0.68709380  0.68660791  1
  Zn  Zn115  1  0.30987695  0.31107929  0.31266269  1
  Zn  Zn116  1  0.30866887  0.31178310  0.81221442  1
  Zn  Zn117  1  0.31181343  0.81078329  0.31237533  1
  Zn  Zn118  1  0.31496070  0.80978866  0.81420301  1
  Zn  Zn119  1  0.81496396  0.30917130  0.31449196  1
  Zn  Zn120  1  0.81144874  0.31200647  0.81355016  1
  Zn  Zn121  1  0.81715169  0.81288976  0.30980491  1
  Zn  Zn122  1  0.81371684  0.81201831  0.80997420  1
  Zn  Zn123  1  0.18890099  0.44046585  0.43618567  1
  Zn  Zn124  1  0.18410394  0.44029322  0.94244689  1
  Zn  Zn125  1  0.18675049  0.93808372  0.43292856  1
  Zn  Zn126  1  0.19368890  0.93366378  0.93795627  1
  Zn  Zn127  1  0.69244431  0.43698674  0.43548266  1
  Zn  Zn128  1  0.68970084  0.43800258  0.93881582  1
  Zn  Zn129  1  0.68494868  0.93870568  0.43964789  1
  Zn  Zn130  1  0.68904614  0.93333976  0.93514855  1
  Zn  Zn131  1  0.31388149  0.06692790  0.06221809  1
  Zn  Zn132  1  0.31463798  0.05816778  0.56399281  1
  Zn  Zn133  1  0.30958088  0.56692789  0.06148633  1
  Zn  Zn134  1  0.30852676  0.56466486  0.55757207  1
  Zn  Zn135  1  0.81560888  0.06759074  0.05926525  1
  Zn  Zn136  1  0.81587107  0.06497121  0.56416288  1
  Zn  Zn137  1  0.80430985  0.56348510  0.06078311  1
  Zn  Zn138  1  0.81156213  0.56252686  0.56086086  1
  Zn  Zn139  1  0.44062983  0.43713968  0.18480892  1
  Zn  Zn140  1  0.43858487  0.44054870  0.68842148  1
  Zn  Zn141  1  0.42289856  0.93080219  0.19062041  1
  Zn  Zn142  1  0.43245377  0.93711357  0.68162689  1
  Zn  Zn143  1  0.94304080  0.43847477  0.18785298  1
  Zn  Zn144  1  0.93939120  0.43728906  0.69215513  1
  Zn  Zn145  1  0.93628737  0.93244298  0.18954447  1
  Zn  Zn146  1  0.93862732  0.93589367  0.68886450  1
  Zn  Zn147  1  0.06398375  0.06070903  0.31855665  1
  Zn  Zn148  1  0.06513212  0.05489583  0.81323841  1
  Zn  Zn149  1  0.05989671  0.56497501  0.31022891  1
  Zn  Zn150  1  0.05606895  0.56093028  0.80922672  1
  Zn  Zn151  1  0.55937000  0.06941205  0.31692382  1
  Zn  Zn152  1  0.56327781  0.06502671  0.81175371  1
  Zn  Zn153  1  0.56279936  0.56108975  0.30926622  1
  Zn  Zn154  1  0.55775191  0.56458978  0.81390377  1
  Zn  Zn155  1  0.43883610  0.18593859  0.43937035  1
  Zn  Zn156  1  0.43848431  0.18416155  0.93713085  1
  Zn  Zn157  1  0.43094388  0.68929530  0.43191880  1
  Zn  Zn158  1  0.43290962  0.69104978  0.93311803  1
  Zn  Zn159  1  0.93750160  0.18774775  0.44077698  1
  Zn  Zn160  1  0.93852103  0.18593639  0.94250613  1
  Zn  Zn161  1  0.93565912  0.68491136  0.43528243  1
  Zn  Zn162  1  0.93420171  0.69112368  0.93104931  1
  Zn  Zn163  1  0.05962591  0.31607021  0.06297134  1
  Zn  Zn164  1  0.06218200  0.31534300  0.56275199  1
  Zn  Zn165  1  0.07128524  0.81016082  0.05933962  1
  Zn  Zn166  1  0.06270629  0.80743387  0.56047153  1
  Zn  Zn167  1  0.56007820  0.31605294  0.06166909  1
  Zn  Zn168  1  0.56341342  0.31247445  0.56310259  1
  Zn  Zn169  1  0.55916742  0.82077731  0.06642544  1
  Zn  Zn170  1  0.56193910  0.81466468  0.55981370  1
  O  O171  1  0.11587289  0.13442115  0.11469888  1
  O  O172  1  0.12214584  0.12506560  0.61668467  1
  O  O173  1  0.12534460  0.61131530  0.11725760  1
  O  O174  1  0.12268676  0.61374733  0.61684248  1
  O  O175  1  0.62412997  0.13109537  0.10748778  1
  O  O176  1  0.61193134  0.13078299  0.63179442  1
  O  O177  1  0.64763480  0.59717972  0.12303537  1
  O  O178  1  0.62085841  0.62064375  0.61475854  1
  O  O179  1  0.37982328  0.38036034  0.38071729  1
  O  O180  1  0.37628759  0.38280550  0.87769987  1
  O  O181  1  0.37066889  0.87413957  0.38949675  1
  O  O182  1  0.37550088  0.88871943  0.87449239  1
  O  O183  1  0.88158277  0.38053651  0.37978148  1
  O  O184  1  0.88062949  0.37873665  0.87917915  1
  O  O185  1  0.88801059  0.87781466  0.37737319  1
  O  O186  1  0.88195673  0.88428021  0.86852657  1
  O  O187  1  0.25377506  0.00699240  0.37388413  1
  O  O188  1  0.25757512  0.00424805  0.86594359  1
  O  O189  1  0.26041406  0.51278807  0.38160294  1
  O  O190  1  0.26038093  0.50713120  0.88191307  1
  O  O191  1  0.75204495  0.01622646  0.38790567  1
  O  O192  1  0.75935783  0.00343698  0.86820511  1
  O  O193  1  0.76147062  0.49767125  0.36293546  1
  O  O194  1  0.75733024  0.50918862  0.87956114  1
  O  O195  1  0.23202119  0.49604209  0.11119626  1
  O  O196  1  0.24200999  0.48897337  0.62128525  1
  O  O197  1  0.25059684  0.99306612  0.12483804  1
  O  O198  1  0.24153788  1.00396561  0.63480121  1
  O  O199  1  0.75182020  0.48828947  0.13593649  1
  O  O200  1  0.74446786  0.48683492  0.62082434  1
  O  O201  1  0.76203670  0.99236326  0.12536885  1
  O  O202  1  0.75002018  0.99485865  0.63079017  1
  O  O203  1  0.00228192  0.36721380  0.26214717  1
  O  O204  1  0.00676989  0.37541189  0.76477155  1
  O  O205  1  -0.00071002  0.86146452  0.25884749  1
  O  O206  1  -0.00311127  0.86034363  0.75618443  1
  O  O207  1  0.51073563  0.36978469  0.25637857  1
  O  O208  1  0.50684621  0.36939846  0.75402508  1
  O  O209  1  0.51945004  0.88552824  0.23773877  1
  O  O210  1  0.49795204  0.86264064  0.74741712  1
  O  O211  1  0.49225066  0.13509790  0.24566897  1
  O  O212  1  0.49354813  0.13223445  0.74411358  1
  O  O213  1  0.48576004  0.62035786  0.25378734  1
  O  O214  1  0.49231090  0.63414142  0.74420795  1
  O  O215  1  0.99438790  0.13264981  0.24648856  1
  O  O216  1  0.98880132  0.11982880  0.75135399  1
  O  O217  1  0.99156960  0.63967950  0.25495370  1
  O  O218  1  0.98730091  0.63640678  0.75026229  1
  O  O219  1  0.36791102  0.25204864  0.00450598  1
  O  O220  1  0.37010525  0.25724869  0.50666348  1
  O  O221  1  0.35501188  0.75194202  -0.01174294  1
  O  O222  1  0.36400337  0.75402330  0.50134156  1
  O  O223  1  0.87545743  0.25669406  0.01128838  1
  O  O224  1  0.86877390  0.25729874  0.51034972  1
  O  O225  1  0.85977543  0.74680380  -0.00163608  1
  O  O226  1  0.86919302  0.74722262  0.51232181  1
  O  O227  1  0.13065511  0.24474520  0.50054485  1
  O  O228  1  0.13092876  0.24653271  0.99074914  1
  O  O229  1  0.13635186  0.74094992  0.50112757  1
  O  O230  1  0.14237873  0.74586567  0.99549927  1
  O  O231  1  0.63543582  0.25719025  0.49251468  1
  O  O232  1  0.62580189  0.25398141  0.98828469  1
  O  O233  1  0.63116782  0.74316661  0.49080844  1
  O  O234  1  0.63896997  0.74904870  0.98011820  1
  O  O235  1  0.48766371  0.25236825  0.12728177  1
  O  O236  1  0.49368777  0.24585693  0.62907525  1
  O  O237  1  0.56381161  0.72852881  0.12393505  1
  O  O238  1  0.49923228  0.74305571  0.63031564  1
  O  O239  1  0.99383951  0.24379737  0.13389717  1
  O  O240  1  0.98761349  0.25135953  0.62436702  1
  O  O241  1  0.99978305  0.75468912  0.13518528  1
  O  O242  1  0.99128626  0.74851958  0.63336444  1
  O  O243  1  0.00393276  0.25648585  0.37025954  1
  O  O244  1  0.00866709  0.25799920  0.88233574  1
  O  O245  1  -0.00381358  0.75910582  0.36858974  1
  O  O246  1  -0.00286734  0.76029792  0.86195130  1
  O  O247  1  0.50892409  0.25509696  0.37253379  1
  O  O248  1  0.50542562  0.25715788  0.87000558  1
  O  O249  1  0.51083599  0.74851670  0.37860355  1
  O  O250  1  0.50977106  0.74843845  0.86497299  1
  O  O251  1  0.24387432  0.13380863  0.50502137  1
  O  O252  1  0.24282822  0.13457339  0.99469348  1
  O  O253  1  0.24148376  0.63180053  0.49086913  1
  O  O254  1  0.24902396  0.63407495  0.98635281  1
  O  O255  1  0.75591397  0.13969575  0.49704795  1
  O  O256  1  0.74032993  0.13119537  0.99396524  1
  O  O257  1  0.74055439  0.63301535  0.50011202  1
  O  O258  1  0.74843476  0.63557274  0.98834977  1
  O  O259  1  0.25415856  0.36279668  -0.00355947  1
  O  O260  1  0.25476085  0.36979812  0.50827402  1
  O  O261  1  0.25125985  0.86552468  0.01032632  1
  O  O262  1  0.25111820  0.85904800  0.49303676  1
  O  O263  1  0.76642768  0.37155985  -0.00515998  1
  O  O264  1  0.75599809  0.36615142  0.50824210  1
  O  O265  1  0.75033630  0.86336889  0.00243632  1
  O  O266  1  0.75241977  0.86874509  0.50781206  1
  O  O267  1  0.11474488  0.50128728  0.23140596  1
  O  O268  1  0.12017291  0.48729591  0.74289592  1
  O  O269  1  0.12336386  1.00012617  0.24901320  1
  O  O270  1  0.13651579  1.00497773  0.73930350  1
  O  O271  1  0.63373998  0.48990711  0.24576044  1
  O  O272  1  0.61759715  0.48894958  0.74505468  1
  O  O273  1  0.62880029  1.01117236  0.24867140  1
  O  O274  1  0.63936626  1.00277679  0.74851283  1
  O  O275  1  0.37091973  0.01280336  0.25253853  1
  O  O276  1  0.36646503  0.00499710  0.75406683  1
  O  O277  1  0.37765009  0.49739467  0.26006739  1
  O  O278  1  0.38055343  0.51201458  0.75877126  1
  O  O279  1  0.88251366  0.01334530  0.25574223  1
  O  O280  1  0.86743957  0.00780032  0.75500489  1
  O  O281  1  0.87147283  0.50506470  0.25298863  1
  O  O282  1  0.87852985  0.50900363  0.75824322  1
  O  O283  1  0.11632733  0.37116226  0.37724550  1
  O  O284  1  0.11921431  0.37097782  0.87034179  1
  O  O285  1  0.10753650  0.87727739  0.37271893  1
  O  O286  1  0.11544729  0.87903550  0.86978158  1
  O  O287  1  0.62278497  0.36601379  0.36913271  1
  O  O288  1  0.62155025  0.37111548  0.86817199  1
  O  O289  1  0.62321759  0.86618772  0.37998510  1
  O  O290  1  0.62441117  0.86668014  0.86609729  1
  O  O291  1  0.37980452  0.13318458  0.13061290  1
  O  O292  1  0.38311412  0.13139868  0.63131510  1
  O  O293  1  0.36980236  0.61814535  0.14214896  1
  O  O294  1  0.37886904  0.62248972  0.63216773  1
  O  O295  1  0.88397630  0.13255031  0.13332564  1
  O  O296  1  0.87711078  0.13478355  0.63552331  1
  O  O297  1  0.87175228  0.62581117  0.13331729  1
  O  O298  1  0.87563513  0.62975975  0.63063599  1
  O  O299  1  0.26049213  0.25096226  0.11497430  1
  O  O300  1  0.25435242  0.26048696  0.62053758  1
  O  O301  1  0.24993488  0.74558518  0.11404129  1
  O  O302  1  0.25204934  0.74133276  0.60729664  1
  O  O303  1  0.76557993  0.24534815  0.12870159  1
  O  O304  1  0.75644425  0.25951887  0.62130056  1
  O  O305  1  0.74816636  0.75436475  0.10986513  1
  O  O306  1  0.75434247  0.75630159  0.61685534  1
  O  O307  1  0.24265675  0.24897722  0.38890860  1
  O  O308  1  0.24276679  0.24291858  0.88168213  1
  O  O309  1  0.25305678  0.73388958  0.38513817  1
  O  O310  1  0.24711726  0.73750949  0.87352978  1
  O  O311  1  0.74565038  0.24573825  0.38576967  1
  O  O312  1  0.74094668  0.24428400  0.87650331  1
  O  O313  1  0.75733525  0.75031656  0.39069687  1
  O  O314  1  0.74624206  0.74532776  0.87739170  1
  O  O315  1  0.00849005  0.12368089  0.01084943  1
  O  O316  1  0.00688681  0.11674946  0.50499727  1
  O  O317  1  -0.00217691  0.61449441  -0.01141329  1
  O  O318  1  0.01567373  0.63173436  0.49876224  1
  O  O319  1  0.51597188  0.12814079  -0.00009641  1
  O  O320  1  0.49308812  0.11351307  0.51077928  1
  O  O321  1  0.50002588  0.61127081  -0.01393195  1
  O  O322  1  0.50496715  0.62069631  0.50333930  1
  O  O323  1  0.49451629  0.37992414  0.49533416  1
  O  O324  1  0.49093939  0.38287820  0.99155058  1
  O  O325  1  0.49342841  0.88980841  0.50415280  1
  O  O326  1  0.49389207  0.87231987  0.99740221  1
  O  O327  1  0.99347396  0.37118060  0.48794126  1
  O  O328  1  0.99005776  0.38183369  0.98964190  1
  O  O329  1  0.99878783  0.87721764  0.49171772  1
  O  O330  1  1.00600065  0.87108771  0.98342108  1
  O  O331  1  0.49346521  0.49290705  0.38042514  1
  O  O332  1  0.48940447  0.49427183  0.87909809  1
  O  O333  1  0.49423470  1.00922376  0.39051163  1
  O  O334  1  0.48465834  0.99978949  0.86496502  1
  O  O335  1  0.98705629  0.49251198  0.36854702  1
  O  O336  1  0.99076818  0.49225510  0.88146424  1
  O  O337  1  0.99836107  0.99369476  0.39036908  1
  O  O338  1  0.99505739  0.98367432  0.87207469  1
  O  O339  1  -0.00533785  0.01089192  0.12419856  1
  O  O340  1  0.00786769  -0.00144203  0.61704947  1
  O  O341  1  0.00757463  0.49630573  0.11186494  1
  O  O342  1  0.01071812  0.49890511  0.62554399  1
  O  O343  1  0.50869578  -0.00303647  0.13247670  1
  O  O344  1  0.50247253  0.00959646  0.61996899  1
  O  O345  1  0.51001725  0.49532069  0.11345499  1
  O  O346  1  0.50687783  0.50576965  0.61826059  1
  O  O347  1  0.24156539  0.36954452  0.24931497  1
  O  O348  1  0.24048035  0.37286018  0.74205920  1
  O  O349  1  0.24699000  0.87612752  0.23923835  1
  O  O350  1  0.25401825  0.88241191  0.74949141  1
  O  O351  1  0.74007933  0.37684385  0.25680601  1
  O  O352  1  0.74024287  0.37149176  0.74238927  1
  O  O353  1  0.75484909  0.87595621  0.23665903  1
  O  O354  1  0.75086019  0.88456518  0.74164402  1
  O  O355  1  0.26026716  0.13074130  0.25149095  1
  O  O356  1  0.25732047  0.12431466  0.75623048  1
  O  O357  1  0.25499717  0.62795697  0.26282534  1
  O  O358  1  0.25692111  0.62715146  0.75868574  1
  O  O359  1  0.76205078  0.13391729  0.26414873  1
  O  O360  1  0.75879785  0.11929515  0.75646276  1
  O  O361  1  0.75934723  0.61330567  0.24982158  1
  O  O362  1  0.76158045  0.63045647  0.75542855  1
  O  O363  1  0.37375652  0.13155228  0.36257035  1
  O  O364  1  0.37083828  0.11675659  0.86840628  1
  O  O365  1  0.36529674  0.61671429  0.36673825  1
  O  O366  1  0.36468866  0.61909872  0.86591783  1
  O  O367  1  0.86810932  0.12701133  0.36950023  1
  O  O368  1  0.87186759  0.12134351  0.86977782  1
  O  O369  1  0.87162501  0.61675359  0.36706023  1
  O  O370  1  0.86463068  0.62014080  0.86710807  1
  O  O371  1  0.12519491  0.38656724  0.12432752  1
  O  O372  1  0.13034028  0.37908678  0.63275995  1
  O  O373  1  0.14269601  0.86953007  0.12657454  1
  O  O374  1  0.12431180  0.88358903  0.62113080  1
  O  O375  1  0.62420375  0.37914817  0.13524358  1
  O  O376  1  0.63216667  0.37782121  0.63354522  1
  O  O377  1  0.64366775  0.88844165  0.12142762  1
  O  O378  1  0.63732264  0.87655291  0.62693607  1
  O  O379  1  0.11240968  0.24774517  0.25718273  1
  O  O380  1  0.12863639  0.25966695  0.76321680  1
  O  O381  1  0.11106077  0.74818285  0.24875862  1
  O  O382  1  0.10926140  0.74246592  0.74229169  1
  O  O383  1  0.62172662  0.25470182  0.25575878  1
  O  O384  1  0.62078127  0.25885227  0.76119958  1
  O  O385  1  0.64379795  0.73828612  0.28328788  1
  O  O386  1  0.61787030  0.75098181  0.75490979  1
  O  O387  1  0.38104864  0.24661764  0.24126787  1
  O  O388  1  0.37968459  0.24518405  0.74538749  1
  O  O389  1  0.37710360  0.73885496  0.25163523  1
  O  O390  1  0.38172289  0.73966406  0.74807983  1
  O  O391  1  0.88632421  0.24505113  0.24688223  1
  O  O392  1  0.86986075  0.24116837  0.74316008  1
  O  O393  1  0.88298900  0.74140878  0.24513098  1
  O  O394  1  0.87794072  0.74384471  0.73851607  1
  O  O395  1  0.38010963  0.49524164  0.49293125  1
  O  O396  1  0.38034370  0.49680568  0.99337529  1
  O  O397  1  0.38344213  0.99261623  0.49944940  1
  O  O398  1  0.36909427  1.00275302  0.98309672  1
  O  O399  1  0.86884844  0.49335273  0.48893700  1
  O  O400  1  0.87926072  0.49416684  0.99626135  1
  O  O401  1  0.88540012  0.99797289  0.50192062  1
  O  O402  1  0.88183732  1.00841170  0.98466421  1
  O  O403  1  0.12378866  0.01270561  -0.00768524  1
  O  O404  1  0.12134638  0.00711111  0.50837208  1
  O  O405  1  0.11160308  0.50231233  0.00518553  1
  O  O406  1  0.12848529  0.50725334  0.50919927  1
  O  O407  1  0.62841445  0.01385121  -0.00933428  1
  O  O408  1  0.60961253  0.00033336  0.50395168  1
  O  O409  1  0.61390059  0.48864839  0.00679735  1
  O  O410  1  0.62136039  0.50432882  0.50501839  1
  O  O411  1  0.37209551  0.36864128  0.11689681  1
  O  O412  1  0.36759974  0.37322117  0.62302376  1
  O  O413  1  0.35447185  0.87148722  0.12413206  1
  O  O414  1  0.37399479  0.87229685  0.60766711  1
  O  O415  1  0.88482615  0.36549128  0.11747578  1
  O  O416  1  0.86900214  0.37092226  0.62539483  1
  O  O417  1  0.86436223  0.87168397  0.12333790  1
  O  O418  1  0.86510024  0.86695782  0.62478623  1
  O  O419  1  0.12379830  0.13369802  0.39220708  1
  O  O420  1  0.12668980  0.13214108  0.88012904  1
  O  O421  1  0.13798591  0.61439853  0.37927116  1
  O  O422  1  0.13854937  0.61419766  0.87221298  1
  O  O423  1  0.63372194  0.14047942  0.37332118  1
  O  O424  1  0.62914120  0.13410649  0.88204488  1
  O  O425  1  0.62814132  0.61750525  0.38837830  1
  O  O426  1  0.63728211  0.63106455  0.86442182  1
