# generated using pymatgen
data_V85Zn86O256
_symmetry_space_group_name_H-M   'P 1'
_cell_length_a   16.93811503
_cell_length_b   16.94631261
_cell_length_c   16.93345177
_cell_angle_alpha   89.96104716
_cell_angle_beta   89.94174905
_cell_angle_gamma   90.02988076
_symmetry_Int_Tables_number   1
_chemical_formula_structural   V85Zn86O256
_chemical_formula_sum   'V85 Zn86 O256'
_cell_volume   4860.54986158
_cell_formula_units_Z   1
loop_
 _symmetry_equiv_pos_site_id
 _symmetry_equiv_pos_as_xyz
  1  'x, y, z'
loop_
 _atom_site_type_symbol
 _atom_site_label
 _atom_site_symmetry_multiplicity
 _atom_site_fract_x
 _atom_site_fract_y
 _atom_site_fract_z
 _atom_site_occupancy
  V  V0  1  0.62621593  0.62514655  0.00058395  1
  V  V1  1  0.50012958  0.62684127  0.12709361  1
  V  V2  1  -0.00488773  0.37082463  0.87401249  1
  V  V3  1  0.24868820  0.50336677  0.25266839  1
  V  V4  1  0.12233079  0.00215603  0.60988322  1
  V  V5  1  0.62394618  0.36959795  0.74808784  1
  V  V6  1  0.87902332  0.62629772  0.25162227  1
  V  V7  1  0.37955505  0.62408219  0.75277149  1
  V  V8  1  0.25248808  0.12835953  0.86487910  1
  V  V9  1  0.25420176  0.49260676  0.74584684  1
  V  V10  1  0.62501310  0.63999330  0.49394632  1
  V  V11  1  0.75184523  0.61981117  0.87006441  1
  V  V12  1  0.37369718  0.87137777  0.49938781  1
  V  V13  1  0.87524441  0.12118188  0.25626804  1
  V  V14  1  0.75533184  0.37226531  0.61997524  1
  V  V15  1  -0.00581312  0.49914744  -0.00515112  1
  V  V16  1  0.50382325  0.24764898  0.26497426  1
  V  V17  1  0.24720387  0.87327057  0.62475806  1
  V  V18  1  -0.01587541  0.88783975  0.88971800  1
  V  V19  1  0.37527775  0.25166669  0.12973293  1
  V  V20  1  0.75718106  -0.00490244  0.75612106  1
  V  V21  1  0.37222391  0.87900917  0.00268263  1
  V  V22  1  0.49261532  0.12298059  0.63359796  1
  V  V23  1  0.87493402  0.24656470  0.61603501  1
  V  V24  1  0.75353091  0.49849268  0.74868088  1
  V  V25  1  0.36921357  0.25255883  0.63386865  1
  V  V26  1  0.24681934  0.38030294  0.12163905  1
  V  V27  1  0.63017750  0.13355322  0.00046101  1
  V  V28  1  0.62588708  0.37129603  0.25687885  1
  V  V29  1  0.62711427  0.00197890  0.62608942  1
  V  V30  1  0.49958835  -0.00072497  0.49850366  1
  V  V31  1  0.76580117  0.75316790  -0.00549188  1
  V  V32  1  0.88501574  0.74016146  0.62432430  1
  V  V33  1  0.86777429  0.37266566  -0.00113663  1
  V  V34  1  0.87383046  0.49630583  0.38714591  1
  V  V35  1  0.75314800  0.86751876  0.60869250  1
  V  V36  1  0.62822440  0.86735320  0.25126843  1
  V  V37  1  0.49963510  0.00245495  0.00108430  1
  V  V38  1  0.49979800  0.12495489  0.12738151  1
  V  V39  1  0.12737041  0.24484070  0.87683464  1
  V  V40  1  0.12043663  0.24956850  0.38282722  1
  V  V41  1  -0.00338147  0.62543653  0.12185842  1
  V  V42  1  0.50258341  0.61983911  0.62097662  1
  V  V43  1  0.74849313  0.63912812  0.37736222  1
  V  V44  1  0.37482107  0.75352168  0.13033942  1
  V  V45  1  0.00350898  0.12165107  0.60619489  1
  V  V46  1  0.12927258  0.37289764  0.74124615  1
  V  V47  1  0.49994638  0.37085813  0.87760632  1
  V  V48  1  0.12285468  0.75937480  0.87116402  1
  V  V49  1  0.37061030  0.37155687  0.00296263  1
  V  V50  1  0.24861878  0.26136304  0.50404478  1
  V  V51  1  0.62688254  0.49993936  0.12675303  1
  V  V52  1  0.24848587  0.75316143  0.00236286  1
  V  V53  1  0.62356911  0.49619844  0.61159734  1
  V  V54  1  0.37435045  0.12091814  0.25495743  1
  V  V55  1  0.75249287  0.50090879  0.25038868  1
  V  V56  1  0.37565415  0.00884330  0.87156835  1
  V  V57  1  0.74249761  0.24899711  0.49078541  1
  V  V58  1  0.25452989  0.62744417  0.87680159  1
  V  V59  1  0.49927479  0.87518874  0.87488926  1
  V  V60  1  0.37591356  0.74792540  0.62639776  1
  V  V61  1  0.24609777  0.12376703  0.38640230  1
  V  V62  1  0.23483622  0.87727770  0.13266278  1
  V  V63  1  0.01267686  0.03486840  0.02554372  1
  V  V64  1  0.24444134  0.73988256  0.50003657  1
  V  V65  1  0.12304746  0.62504451  -0.00362635  1
  V  V66  1  0.23344410  -0.00185188  0.25194038  1
  V  V67  1  0.75958882  0.12990909  0.87691128  1
  V  V68  1  0.00311054  0.76568968  0.25001076  1
  V  V69  1  0.50360456  0.86478450  0.37588419  1
  V  V70  1  0.12162263  0.50002393  0.12480380  1
  V  V71  1  0.37646942  0.49823106  0.87861300  1
  V  V72  1  -0.00004061  0.24373438  0.74633971  1
  V  V73  1  0.62581333  0.75129990  0.87624818  1
  V  V74  1  0.76157692  0.87664817  0.11891288  1
  V  V75  1  0.11060605  0.87690562  0.74844686  1
  V  V76  1  0.11367060  0.75084448  0.38158505  1
  V  V77  1  -0.00129222  0.25179655  0.24465844  1
  V  V78  1  0.01229923  0.50772528  0.50494557  1
  V  V79  1  0.38159385  0.49787059  0.38092528  1
  V  V80  1  0.86966000  0.24274906  0.11888381  1
  V  V81  1  0.62959979  -0.00130795  0.12599988  1
  V  V82  1  -0.06156925  -0.05975267  0.43893314  1
  V  V83  1  0.25241723  -0.00135022  0.74686782  1
  V  V84  1  0.23057801  0.21244774  0.02876248  1
  Zn  Zn85  1  0.50164744  0.74840044  0.75073996  1
  Zn  Zn86  1  0.74040091  0.12028324  0.37183758  1
  Zn  Zn87  1  0.88002761  0.75457346  0.11938903  1
  Zn  Zn88  1  0.62537310  0.87461765  0.74947621  1
  Zn  Zn89  1  0.37440632  0.62591203  0.25400693  1
  Zn  Zn90  1  0.50301729  0.74827572  0.25466944  1
  Zn  Zn91  1  0.87984027  0.11924054  0.74894737  1
  Zn  Zn92  1  0.13184853  0.50857278  0.62046311  1
  Zn  Zn93  1  0.38209211  0.37884296  0.50842050  1
  Zn  Zn94  1  0.37228529  -0.00361407  0.37534542  1
  Zn  Zn95  1  0.49604698  0.24141843  0.75538230  1
  Zn  Zn96  1  0.91661328  0.54108031  0.82127409  1
  Zn  Zn97  1  -0.00710226  0.62708413  0.66266396  1
  Zn  Zn98  1  0.76061030  -0.00575478  0.25484746  1
  Zn  Zn99  1  -0.00496460  0.37490266  0.38127397  1
  Zn  Zn100  1  0.50766961  0.37637745  0.38776192  1
  Zn  Zn101  1  0.74747762  0.37146710  0.12052855  1
  Zn  Zn102  1  0.62806289  0.24992659  0.87795358  1
  Zn  Zn103  1  0.12094200  0.37658322  0.25261460  1
  Zn  Zn104  1  0.50027399  0.49617026  0.00363149  1
  Zn  Zn105  1  0.61793409  0.13011163  0.49050979  1
  Zn  Zn106  1  0.24457674  0.62123727  0.38065161  1
  Zn  Zn107  1  0.18649545  0.18590195  0.19990419  1
  Zn  Zn108  1  0.18629106  0.18320866  0.68461730  1
  Zn  Zn109  1  0.18294210  0.68748951  0.18972010  1
  Zn  Zn110  1  0.18841685  0.68807653  0.68958127  1
  Zn  Zn111  1  0.69053002  0.18845209  0.18866200  1
  Zn  Zn112  1  0.68699249  0.18375502  0.68711400  1
  Zn  Zn113  1  0.69398921  0.69034635  0.18540365  1
  Zn  Zn114  1  0.68891647  0.68761924  0.68899021  1
  Zn  Zn115  1  0.31035799  0.31496743  0.31434705  1
  Zn  Zn116  1  0.31323661  0.31048150  0.81264201  1
  Zn  Zn117  1  0.30751021  0.81236884  0.31573324  1
  Zn  Zn118  1  0.31232962  0.81583742  0.81136910  1
  Zn  Zn119  1  0.81316808  0.31442598  0.30858094  1
  Zn  Zn120  1  0.81430008  0.30808757  0.80781431  1
  Zn  Zn121  1  0.81862852  0.81847073  0.31234610  1
  Zn  Zn122  1  0.81541990  0.81230401  0.80626128  1
  Zn  Zn123  1  0.18648799  0.43513020  0.43676623  1
  Zn  Zn124  1  0.18363320  0.43585379  0.93272008  1
  Zn  Zn125  1  0.18250271  0.92854156  0.43236782  1
  Zn  Zn126  1  0.18409994  0.94287822  0.94035534  1
  Zn  Zn127  1  0.69338980  0.43818539  0.43726228  1
  Zn  Zn128  1  0.68490471  0.43818524  0.93564491  1
  Zn  Zn129  1  0.68733609  0.94134739  0.43247875  1
  Zn  Zn130  1  0.68998828  0.93972053  0.93839037  1
  Zn  Zn131  1  0.30175641  0.06208137  0.06867759  1
  Zn  Zn132  1  0.31403948  0.06393547  0.56348472  1
  Zn  Zn133  1  0.31405179  0.56350400  0.06294229  1
  Zn  Zn134  1  0.31441385  0.56141232  0.56400347  1
  Zn  Zn135  1  0.82068258  0.05969194  0.05857661  1
  Zn  Zn136  1  0.81211748  0.06265119  0.55973898  1
  Zn  Zn137  1  0.81318556  0.56395390  0.05960449  1
  Zn  Zn138  1  0.81056898  0.57136370  0.56338847  1
  Zn  Zn139  1  0.43850394  0.43774913  0.19484251  1
  Zn  Zn140  1  0.44059326  0.43467002  0.68753540  1
  Zn  Zn141  1  0.43713497  0.93732090  0.19083707  1
  Zn  Zn142  1  0.43717421  0.93595155  0.68824395  1
  Zn  Zn143  1  0.93564353  0.43485502  0.18732642  1
  Zn  Zn144  1  0.94163140  0.42940023  0.67636363  1
  Zn  Zn145  1  0.94617112  0.94591878  0.17715410  1
  Zn  Zn146  1  0.93374106  0.93641790  0.67228658  1
  Zn  Zn147  1  0.05653272  0.06828001  0.31644625  1
  Zn  Zn148  1  0.06578108  0.05992262  0.81212786  1
  Zn  Zn149  1  0.06133039  0.56668783  0.31688595  1
  Zn  Zn150  1  0.08496970  0.58005194  0.78928623  1
  Zn  Zn151  1  0.56831518  0.05617536  0.31585824  1
  Zn  Zn152  1  0.56879429  0.06178060  0.81331421  1
  Zn  Zn153  1  0.56363801  0.56384981  0.31240602  1
  Zn  Zn154  1  0.56634171  0.55735346  0.80959899  1
  Zn  Zn155  1  0.43274236  0.18653551  0.44464688  1
  Zn  Zn156  1  0.43215189  0.18848210  0.94287157  1
  Zn  Zn157  1  0.43543675  0.68159937  0.43981576  1
  Zn  Zn158  1  0.43860816  0.68923697  0.94379647  1
  Zn  Zn159  1  0.93350898  0.18825556  0.43450680  1
  Zn  Zn160  1  0.94022618  0.18027615  0.94212583  1
  Zn  Zn161  1  0.93212333  0.69362094  0.44319462  1
  Zn  Zn162  1  0.94932728  0.68269599  0.90285723  1
  Zn  Zn163  1  0.05912805  0.30825831  0.06214458  1
  Zn  Zn164  1  0.05851970  0.31967192  0.55780383  1
  Zn  Zn165  1  0.05808126  0.81421853  0.05837509  1
  Zn  Zn166  1  0.05609086  0.81157592  0.56176317  1
  Zn  Zn167  1  0.56108323  0.31202250  0.06858485  1
  Zn  Zn168  1  0.55794629  0.31013519  0.56318358  1
  Zn  Zn169  1  0.56586592  0.81327121  0.06148497  1
  Zn  Zn170  1  0.56409902  0.81370166  0.56587832  1
  O  O171  1  0.19738402  0.13818065  0.09788701  1
  O  O172  1  0.11621216  0.11405016  0.62746758  1
  O  O173  1  0.11729365  0.62010407  0.11531346  1
  O  O174  1  0.10893330  0.61210567  0.66924605  1
  O  O175  1  0.62332032  0.11734189  0.12011087  1
  O  O176  1  0.61819270  0.11330033  0.62116860  1
  O  O177  1  0.62012773  0.62025586  0.12200649  1
  O  O178  1  0.62125140  0.61871457  0.61521922  1
  O  O179  1  0.37501145  0.38917593  0.37420613  1
  O  O180  1  0.38081848  0.37648577  0.88313538  1
  O  O181  1  0.38039070  0.87546195  0.38398607  1
  O  O182  1  0.38102012  0.88415178  0.88164208  1
  O  O183  1  0.87236288  0.39356437  0.37049765  1
  O  O184  1  0.88712803  0.36212651  0.88124996  1
  O  O185  1  0.87940064  0.88131099  0.37943981  1
  O  O186  1  0.88671702  0.87117989  0.87228594  1
  O  O187  1  0.24975761  0.00591523  0.37122021  1
  O  O188  1  0.25751442  0.00398655  0.86675758  1
  O  O189  1  0.25428544  0.50114889  0.36735198  1
  O  O190  1  0.25899072  0.50477699  0.87092591  1
  O  O191  1  0.74536001  0.00502508  0.36560337  1
  O  O192  1  0.74581851  0.00798308  0.86216000  1
  O  O193  1  0.75968896  0.50888080  0.36996067  1
  O  O194  1  0.74162266  0.50703989  0.86292736  1
  O  O195  1  0.24422702  0.49626045  0.12994264  1
  O  O196  1  0.25067460  0.50397944  0.64146315  1
  O  O197  1  0.25403085  0.98668687  0.13877787  1
  O  O198  1  0.24618997  0.99549817  0.63087025  1
  O  O199  1  0.73902662  0.50147991  0.12882477  1
  O  O200  1  0.74309086  0.49131138  0.62802129  1
  O  O201  1  0.74487744  0.99380175  0.12354693  1
  O  O202  1  0.74280117  0.99390073  0.63180439  1
  O  O203  1  -0.00103201  0.36529915  0.25531506  1
  O  O204  1  0.00558654  0.36337965  0.75510093  1
  O  O205  1  -0.00368932  0.86341778  0.24233309  1
  O  O206  1  0.00922790  0.88099848  0.74873144  1
  O  O207  1  0.50763370  0.36437963  0.25321934  1
  O  O208  1  0.50749113  0.37164853  0.75973788  1
  O  O209  1  0.50647584  0.87276525  0.25857748  1
  O  O210  1  0.50094171  0.87305977  0.76389768  1
  O  O211  1  0.49370859  0.12940313  0.24676379  1
  O  O212  1  0.50528243  0.12203990  0.73815507  1
  O  O213  1  0.49977055  0.62920189  0.23906638  1
  O  O214  1  0.49599908  0.62489870  0.74461412  1
  O  O215  1  0.98738500  0.14109332  0.25443653  1
  O  O216  1  1.00206835  0.13580442  0.74692253  1
  O  O217  1  0.98873245  0.62521570  0.24361830  1
  O  O218  1  0.98305826  0.62654855  0.78694321  1
  O  O219  1  0.35661492  0.24934302  0.01339493  1
  O  O220  1  0.36611044  0.25207300  0.51285665  1
  O  O221  1  0.36854448  0.75678456  0.01115610  1
  O  O222  1  0.36655803  0.75185098  0.50725750  1
  O  O223  1  0.88122339  0.25659259  0.01195275  1
  O  O224  1  0.86495171  0.24770981  0.51023651  1
  O  O225  1  0.86640153  0.74213800  -0.00577224  1
  O  O226  1  0.86764630  0.74400071  0.52098431  1
  O  O227  1  0.13312325  0.25568834  0.49533090  1
  O  O228  1  0.13862527  0.25740081  0.99234909  1
  O  O229  1  0.12834148  0.75093815  0.49068128  1
  O  O230  1  0.13060198  0.74651251  0.99204256  1
  O  O231  1  0.63947199  0.24781688  0.50875349  1
  O  O232  1  0.62349044  0.23661856  1.00418694  1
  O  O233  1  0.62136204  0.73812484  0.49917333  1
  O  O234  1  0.63146894  0.74508882  0.98983062  1
  O  O235  1  0.49211561  0.24288599  0.13395783  1
  O  O236  1  0.48852721  0.23911497  0.62861830  1
  O  O237  1  0.49207263  0.74448521  0.12367651  1
  O  O238  1  0.49692258  0.73815385  0.62813014  1
  O  O239  1  0.98682487  0.25714719  0.13429933  1
  O  O240  1  0.99499660  0.24561591  0.62811279  1
  O  O241  1  0.99927200  0.74393184  0.13275079  1
  O  O242  1  0.99055512  0.74610031  0.62977448  1
  O  O243  1  0.00525511  0.25430012  0.37098252  1
  O  O244  1  0.00805663  0.25073273  0.86735008  1
  O  O245  1  0.00554785  0.74520906  0.36549409  1
  O  O246  1  0.01580815  0.77091483  0.87897803  1
  O  O247  1  0.49315929  0.25105534  0.36672333  1
  O  O248  1  0.49865154  0.25879479  0.87587629  1
  O  O249  1  0.49317017  0.76056526  0.37531274  1
  O  O250  1  0.50650260  0.75837699  0.87842944  1
  O  O251  1  0.25580689  0.13251451  0.48943833  1
  O  O252  1  0.26632602  0.12138455  0.97370892  1
  O  O253  1  0.24833614  0.63648221  0.50648654  1
  O  O254  1  0.24455106  0.63100172  0.99578773  1
  O  O255  1  0.74794729  0.13946478  0.50059697  1
  O  O256  1  0.74437324  0.11488003  0.98500270  1
  O  O257  1  0.73460857  0.62300221  0.49202909  1
  O  O258  1  0.74222631  0.63140060  0.99381003  1
  O  O259  1  0.25371535  0.38173535  0.01152890  1
  O  O260  1  0.25520837  0.36407061  0.49995598  1
  O  O261  1  0.25439581  0.87416802  0.00910389  1
  O  O262  1  0.25467344  0.86349573  0.50632214  1
  O  O263  1  0.76421688  0.38082566  -0.00378646  1
  O  O264  1  0.74528339  0.36354879  0.50980385  1
  O  O265  1  0.74675576  0.86580637  0.00562802  1
  O  O266  1  0.74042872  0.87790343  0.51157540  1
  O  O267  1  0.12967998  0.49948388  0.24419090  1
  O  O268  1  0.14063840  0.48445709  0.76432990  1
  O  O269  1  0.13529612  1.01191075  0.25272563  1
  O  O270  1  0.13752896  0.99222580  0.74489042  1
  O  O271  1  0.63097983  0.49586031  0.24318755  1
  O  O272  1  0.63287783  0.48706563  0.74090965  1
  O  O273  1  0.62247339  0.98915041  0.23471527  1
  O  O274  1  0.63581019  0.99884324  0.74250010  1
  O  O275  1  0.37221033  0.01233832  0.25242563  1
  O  O276  1  0.36241569  -0.00849658  0.75779908  1
  O  O277  1  0.36583932  0.50260115  0.25827015  1
  O  O278  1  0.37172782  0.50160545  0.75857753  1
  O  O279  1  0.87883122  0.01939951  0.23825158  1
  O  O280  1  0.85960918  0.00104565  0.74119711  1
  O  O281  1  0.87093053  0.50840043  0.25530472  1
  O  O282  1  0.85892851  0.48352077  0.74358476  1
  O  O283  1  0.12413389  0.36261609  0.37202669  1
  O  O284  1  0.11546272  0.36166496  0.86983696  1
  O  O285  1  0.13287491  0.84999494  0.36724677  1
  O  O286  1  0.12406186  0.87308714  0.86641829  1
  O  O287  1  0.62519912  0.38389652  0.36084692  1
  O  O288  1  0.61731206  0.37040784  0.86976029  1
  O  O289  1  0.61595364  0.87708407  0.36338265  1
  O  O290  1  0.61663582  0.86861071  0.87695843  1
  O  O291  1  0.37787403  0.13030862  0.13532878  1
  O  O292  1  0.38243793  0.13454153  0.62402952  1
  O  O293  1  0.38407548  0.63340025  0.12513941  1
  O  O294  1  0.38502518  0.62721070  0.63040775  1
  O  O295  1  0.87142088  0.13984180  0.13133713  1
  O  O296  1  0.88466630  0.13077755  0.62725073  1
  O  O297  1  0.87998845  0.62734518  0.13213536  1
  O  O298  1  0.87937338  0.63197563  0.62904598  1
  O  O299  1  0.25561610  0.26750229  0.13119386  1
  O  O300  1  0.26068834  0.24273431  0.61956583  1
  O  O301  1  0.25644673  0.75521584  0.12286069  1
  O  O302  1  0.25342397  0.75346999  0.62043226  1
  O  O303  1  0.76477716  0.25405750  0.12487147  1
  O  O304  1  0.75688947  0.25407337  0.62119772  1
  O  O305  1  0.75531530  0.75792133  0.11227224  1
  O  O306  1  0.73568892  0.76790999  0.62367768  1
  O  O307  1  0.24455676  0.24501989  0.38393619  1
  O  O308  1  0.24445543  0.24144758  0.87662068  1
  O  O309  1  0.24476843  0.74399731  0.38514401  1
  O  O310  1  0.24669759  0.74999290  0.88411851  1
  O  O311  1  0.75421891  0.25503632  0.38962195  1
  O  O312  1  0.74702065  0.23366500  0.86922256  1
  O  O313  1  0.75385209  0.73755795  0.36513846  1
  O  O314  1  0.74315366  0.74428971  0.87733226  1
  O  O315  1  0.01806363  0.13642204  0.00974403  1
  O  O316  1  0.00127746  0.13197319  0.50751575  1
  O  O317  1  0.00362141  0.61670079  -0.00463935  1
  O  O318  1  -0.00656446  0.60735224  0.49508528  1
  O  O319  1  0.50650682  0.12116500  0.00695872  1
  O  O320  1  0.49772667  0.11494768  0.51104957  1
  O  O321  1  0.50655093  0.62300748  0.01233059  1
  O  O322  1  0.51245191  0.62410171  0.50737869  1
  O  O323  1  0.49652198  0.37573547  0.49970710  1
  O  O324  1  0.49222311  0.37236289  0.99506229  1
  O  O325  1  0.49536266  0.87870015  0.49544157  1
  O  O326  1  0.49510879  0.88116088  0.99162668  1
  O  O327  1  0.99779776  0.39690777  0.49816272  1
  O  O328  1  0.99337205  0.37916091  0.99213659  1
  O  O329  1  1.00248677  0.88109254  0.49334569  1
  O  O330  1  0.99610175  0.88063778  0.99117362  1
  O  O331  1  0.48418399  0.49959633  0.36704462  1
  O  O332  1  0.49629780  0.48648728  0.87702213  1
  O  O333  1  0.49655837  0.98822542  0.38422669  1
  O  O334  1  0.49469051  0.99467774  0.87850221  1
  O  O335  1  0.98863752  0.50042840  0.38199806  1
  O  O336  1  0.99994404  0.48408012  0.88164769  1
  O  O337  1  0.99519091  1.00195206  0.38010395  1
  O  O338  1  0.99967806  0.98664218  0.86784008  1
  O  O339  1  0.01768156  0.01451533  0.12522342  1
  O  O340  1  0.01048451  0.01029724  0.62915196  1
  O  O341  1  0.00365111  0.50477736  0.11694348  1
  O  O342  1  0.00005148  0.50563321  0.61444951  1
  O  O343  1  0.50626420  0.00542122  0.12050086  1
  O  O344  1  0.50428687  0.00331178  0.62084908  1
  O  O345  1  0.51009130  0.50767034  0.12797264  1
  O  O346  1  0.50934992  0.51124108  0.63223841  1
  O  O347  1  0.24857502  0.38738165  0.24017727  1
  O  O348  1  0.24284634  0.38119829  0.75653710  1
  O  O349  1  0.25399218  0.88588178  0.24462812  1
  O  O350  1  0.24410269  0.88164248  0.74230785  1
  O  O351  1  0.74292437  0.38245571  0.24507034  1
  O  O352  1  0.74143660  0.37595427  0.74319745  1
  O  O353  1  0.74450700  0.87446249  0.23837944  1
  O  O354  1  0.74549325  0.88797840  0.74810570  1
  O  O355  1  0.25855298  0.11939149  0.26435872  1
  O  O356  1  0.24981636  0.11476933  0.75661046  1
  O  O357  1  0.25141727  0.61228633  0.24573144  1
  O  O358  1  0.26116858  0.61748579  0.75989820  1
  O  O359  1  0.76426670  0.12641888  0.24851364  1
  O  O360  1  0.75036403  0.11471900  0.76004619  1
  O  O361  1  0.75934549  0.62087159  0.25369789  1
  O  O362  1  0.74095135  0.61097040  0.75677010  1
  O  O363  1  0.36767798  0.12221117  0.37034129  1
  O  O364  1  0.37689843  0.11359674  0.86977535  1
  O  O365  1  0.36923208  0.61322422  0.37376728  1
  O  O366  1  0.37432036  0.61958196  0.87437647  1
  O  O367  1  0.86758001  0.13344502  0.35855966  1
  O  O368  1  0.86330734  0.12959976  0.87141961  1
  O  O369  1  0.86848517  0.61875309  0.36835056  1
  O  O370  1  0.85502178  0.62001700  0.88339057  1
  O  O371  1  0.13120625  0.38193323  0.12543073  1
  O  O372  1  0.11983937  0.38185271  0.63918295  1
  O  O373  1  0.13666933  0.86582664  0.12444297  1
  O  O374  1  0.12842951  0.88058564  0.63129964  1
  O  O375  1  0.62587132  0.38437102  0.13241288  1
  O  O376  1  0.63070066  0.37981610  0.63157310  1
  O  O377  1  0.63351497  0.88237496  0.12659801  1
  O  O378  1  0.62774795  0.88717567  0.62882550  1
  O  O379  1  0.11498156  0.25197784  0.25613354  1
  O  O380  1  0.12144966  0.25564530  0.75487039  1
  O  O381  1  0.10736891  0.74536894  0.25465303  1
  O  O382  1  0.13584646  0.76420400  0.76251618  1
  O  O383  1  0.61528105  0.25940700  0.24200744  1
  O  O384  1  0.62138963  0.25964135  0.74929555  1
  O  O385  1  0.62257471  0.76359341  0.23936819  1
  O  O386  1  0.62306469  0.75122759  0.76470934  1
  O  O387  1  0.37966028  0.24087978  0.24865585  1
  O  O388  1  0.37516352  0.24781979  0.73884655  1
  O  O389  1  0.37493049  0.74864582  0.23939623  1
  O  O390  1  0.37662622  0.74283818  0.74493575  1
  O  O391  1  0.87911017  0.24720414  0.23940260  1
  O  O392  1  0.88460723  0.24673563  0.73723901  1
  O  O393  1  0.88741855  0.74303255  0.24812652  1
  O  O394  1  0.85489707  0.74917691  0.72353524  1
  O  O395  1  0.36730379  0.49802289  0.48568639  1
  O  O396  1  0.37862260  0.49348108  0.99472783  1
  O  O397  1  0.38465982  0.99071846  0.50256387  1
  O  O398  1  0.38003854  0.99741925  0.99332888  1
  O  O399  1  0.87160402  0.50361270  0.48826531  1
  O  O400  1  0.88704577  0.49138454  1.00383758  1
  O  O401  1  0.88208109  0.99584913  0.50461916  1
  O  O402  1  0.90980982  1.01952826  1.00444850  1
  O  O403  1  0.10515849  0.00317942  -0.01086505  1
  O  O404  1  0.13565410  -0.00384719  0.51149129  1
  O  O405  1  0.11344962  0.50330610  0.00187835  1
  O  O406  1  0.11842001  0.50371588  0.50256163  1
  O  O407  1  0.61951386  0.00727474  0.00933749  1
  O  O408  1  0.61095089  -0.00083339  0.50797055  1
  O  O409  1  0.62238677  0.50489545  0.00932637  1
  O  O410  1  0.62864001  0.50369664  0.51004323  1
  O  O411  1  0.36982834  0.37293224  0.12180634  1
  O  O412  1  0.37826916  0.35814853  0.62852394  1
  O  O413  1  0.37171253  0.86792010  0.12091885  1
  O  O414  1  0.37021608  0.86649712  0.61995368  1
  O  O415  1  0.87208964  0.36781176  0.11495427  1
  O  O416  1  0.86248301  0.36390668  0.62653430  1
  O  O417  1  0.86509633  0.87664395  0.12679304  1
  O  O418  1  0.85856216  0.86647331  0.62280147  1
  O  O419  1  0.13331833  0.13997822  0.37180769  1
  O  O420  1  0.13525603  0.13732688  0.86768169  1
  O  O421  1  0.12941345  0.64267223  0.36884198  1
  O  O422  1  0.13636558  0.63841037  0.87864277  1
  O  O423  1  0.62424632  0.12891131  0.37647899  1
  O  O424  1  0.63253523  0.12720328  0.88447267  1
  O  O425  1  0.63065007  0.62118166  0.38647250  1
  O  O426  1  0.62991381  0.63055089  0.88030206  1
