# generated using pymatgen
data_V85Zn86O256
_symmetry_space_group_name_H-M   'P 1'
_cell_length_a   16.95187700
_cell_length_b   16.94965112
_cell_length_c   16.93889153
_cell_angle_alpha   90.10236795
_cell_angle_beta   89.94129544
_cell_angle_gamma   89.94170683
_symmetry_Int_Tables_number   1
_chemical_formula_structural   V85Zn86O256
_chemical_formula_sum   'V85 Zn86 O256'
_cell_volume   4867.01176718
_cell_formula_units_Z   1
loop_
 _symmetry_equiv_pos_site_id
 _symmetry_equiv_pos_as_xyz
  1  'x, y, z'
loop_
 _atom_site_type_symbol
 _atom_site_label
 _atom_site_symmetry_multiplicity
 _atom_site_fract_x
 _atom_site_fract_y
 _atom_site_fract_z
 _atom_site_occupancy
  V  V0  1  0.62809607  0.62354118  0.49766029  1
  V  V1  1  -0.00121994  0.24908477  0.74648455  1
  V  V2  1  0.63705227  0.52190522  0.11996398  1
  V  V3  1  0.50186647  0.37040543  0.88498362  1
  V  V4  1  0.75153319  0.48999911  0.74648348  1
  V  V5  1  0.50017601  0.12937236  0.13127925  1
  V  V6  1  0.25239601  0.49311962  0.74432225  1
  V  V7  1  -0.00468923  0.12284882  0.61800701  1
  V  V8  1  0.12275285  0.00569453  0.12581841  1
  V  V9  1  0.49973429  0.62066763  0.62568482  1
  V  V10  1  -0.00217011  0.37262817  0.87506480  1
  V  V11  1  0.74672656  0.12322121  0.38346561  1
  V  V12  1  0.00035710  -0.00048239  -0.01411410  1
  V  V13  1  0.86885714  0.37555382  0.49918965  1
  V  V14  1  0.74817095  0.87648445  0.62561345  1
  V  V15  1  0.85406215  0.50404193  0.37147389  1
  V  V16  1  0.49657252  0.74933272  0.75569245  1
  V  V17  1  0.37726580  0.49084560  0.88058692  1
  V  V18  1  0.87704959  0.75037999  0.62542169  1
  V  V19  1  0.87356784  0.49661302  0.87510761  1
  V  V20  1  0.75627492  0.24914106  0.02298231  1
  V  V21  1  0.62197748  0.74474847  0.37502133  1
  V  V22  1  0.88190168  0.87727491  -0.01642729  1
  V  V23  1  0.49858030  0.87647437  0.37825570  1
  V  V24  1  0.75209862  0.87480613  0.12337710  1
  V  V25  1  0.24831331  0.26242585  0.50563109  1
  V  V26  1  -0.00136064  0.50068666  0.00019678  1
  V  V27  1  0.50144383  -0.00701350  -0.00655299  1
  V  V28  1  0.12340922  0.62568471  0.49978172  1
  V  V29  1  0.11969135  0.75697247  0.37842178  1
  V  V30  1  0.62462421  -0.00284382  0.12452784  1
  V  V31  1  0.23641149  0.77374980  -0.02314830  1
  V  V32  1  0.62521373  0.87467495  0.25192061  1
  V  V33  1  0.24707232  0.62036719  0.87495171  1
  V  V34  1  0.37523349  0.62278523  0.24387988  1
  V  V35  1  0.62813821  0.49097234  0.62491267  1
  V  V36  1  0.61958880  0.87501620  0.75407217  1
  V  V37  1  0.75353208  0.00724946  0.24993909  1
  V  V38  1  0.38120396  0.00250937  0.37930232  1
  V  V39  1  0.60719975  0.12392500  0.50574898  1
  V  V40  1  0.87721163  0.62448238  0.74981792  1
  V  V41  1  0.11976166  0.87901154  0.25367217  1
  V  V42  1  0.24712941  0.87434441  0.63437850  1
  V  V43  1  0.87237369  0.36985190  0.01835861  1
  V  V44  1  0.12540869  0.62934481  -0.00234368  1
  V  V45  1  0.75233676  -0.00030815  0.75427800  1
  V  V46  1  0.49877208  0.49717688  0.49041861  1
  V  V47  1  0.13272951  0.24472856  0.87810918  1
  V  V48  1  0.11956072  0.37663323  0.25170152  1
  V  V49  1  0.37468127  0.62007733  0.74998318  1
  V  V50  1  0.25619102  0.37413062  0.11550219  1
  V  V51  1  -0.00059504  0.49584706  0.48705561  1
  V  V52  1  0.50025154  0.51541606  0.00791118  1
  V  V53  1  0.12350996  0.12343709  0.49919111  1
  V  V54  1  0.12798147  0.37301642  0.74335846  1
  V  V55  1  0.24988069  0.13028266  0.37680092  1
  V  V56  1  0.12407589  0.50039224  0.12562435  1
  V  V57  1  0.86542550  0.25159584  0.61954692  1
  V  V58  1  0.25122882  0.75058524  0.50052578  1
  V  V59  1  -0.00058892  0.75368011  0.25338534  1
  V  V60  1  0.49702393  0.74790583  0.23896362  1
  V  V61  1  0.12328866  -0.00629246  0.62925187  1
  V  V62  1  0.37312392  0.00215951  0.87521979  1
  V  V63  1  0.62045173  0.74643751  0.87857360  1
  V  V64  1  0.60987993  0.00082813  0.62244827  1
  V  V65  1  -0.00084728  -0.00669458  0.49652488  1
  V  V66  1  0.11609767  0.25516555  0.37223525  1
  V  V67  1  0.87902779  -0.00137796  0.37253606  1
  V  V68  1  0.88164573  0.75336499  0.12173859  1
  V  V69  1  0.62766645  0.12257436  0.00290547  1
  V  V70  1  0.50304742  0.24427349  0.74560287  1
  V  V71  1  0.37854989  0.87871240  0.50356203  1
  V  V72  1  0.25970301  0.87483627  0.13049950  1
  V  V73  1  0.74638622  0.74866013  0.50231688  1
  V  V74  1  0.74468997  0.62186915  0.87774891  1
  V  V75  1  0.63263328  0.24962841  0.87759301  1
  V  V76  1  0.75035742  0.75052220  -0.00369661  1
  V  V77  1  0.87554170  0.87117672  0.48901969  1
  V  V78  1  0.87584663  0.12112733  0.75711219  1
  V  V79  1  0.25212006  0.00291002  0.25332694  1
  V  V80  1  0.62397021  0.38201933  0.23010146  1
  V  V81  1  0.61691746  0.25389687  0.36231185  1
  V  V82  1  0.24651464  0.01137141  0.75391054  1
  V  V83  1  0.12614543  0.49558120  0.62121344  1
  V  V84  1  0.01045367  0.76174082  0.76084341  1
  Zn  Zn85  1  0.25019397  0.62719361  0.37150574  1
  Zn  Zn86  1  0.12829141  0.12556356  0.00079412  1
  Zn  Zn87  1  0.74125892  0.25628490  0.50247158  1
  Zn  Zn88  1  0.38467706  0.26034295  0.12483830  1
  Zn  Zn89  1  0.75675484  0.12149721  0.87929233  1
  Zn  Zn90  1  0.38183322  0.87202760  -0.00988270  1
  Zn  Zn91  1  0.37468875  0.24976890  0.62535254  1
  Zn  Zn92  1  0.24837680  0.50154420  0.25073945  1
  Zn  Zn93  1  0.38234828  0.13675062  0.25407139  1
  Zn  Zn94  1  0.36819506  0.49913775  0.37505129  1
  Zn  Zn95  1  0.62824546  0.37202911  0.74999547  1
  Zn  Zn96  1  0.37231920  0.37983773  0.50496305  1
  Zn  Zn97  1  0.37385042  0.74837059  0.62662409  1
  Zn  Zn98  1  0.37222204  0.74512598  0.11390301  1
  Zn  Zn99  1  0.38095490  0.12406466  0.74598862  1
  Zn  Zn100  1  0.00024758  0.62332992  0.62576899  1
  Zn  Zn101  1  0.86780269  0.61961139  0.25308082  1
  Zn  Zn102  1  0.48766207  0.36288045  0.36670782  1
  Zn  Zn103  1  0.26755479  0.24133210  -0.00552543  1
  Zn  Zn104  1  0.00055665  0.62710452  0.12705468  1
  Zn  Zn105  1  -0.01461943  0.25345206  0.23520903  1
  Zn  Zn106  1  -0.01335390  0.12665811  0.13188117  1
  Zn  Zn107  1  0.19024228  0.19093957  0.18836555  1
  Zn  Zn108  1  0.18404251  0.18530877  0.68525093  1
  Zn  Zn109  1  0.19034134  0.69063533  0.18270524  1
  Zn  Zn110  1  0.18645292  0.68314030  0.68712301  1
  Zn  Zn111  1  0.82715030  0.18264392  0.20237851  1
  Zn  Zn112  1  0.68491981  0.18326751  0.68735807  1
  Zn  Zn113  1  0.69403455  0.68642441  0.18987744  1
  Zn  Zn114  1  0.68741432  0.68300839  0.68945052  1
  Zn  Zn115  1  0.31273277  0.31622510  0.30671401  1
  Zn  Zn116  1  0.31539877  0.31307458  0.81050520  1
  Zn  Zn117  1  0.31295172  0.81082989  0.31381147  1
  Zn  Zn118  1  0.30916139  0.81691703  0.81463058  1
  Zn  Zn119  1  0.79858260  0.32632950  0.31790195  1
  Zn  Zn120  1  0.81463868  0.30765045  0.81424172  1
  Zn  Zn121  1  0.79916132  0.78882062  0.30234821  1
  Zn  Zn122  1  0.81072016  0.80941300  0.80867564  1
  Zn  Zn123  1  0.18763429  0.43948153  0.43116853  1
  Zn  Zn124  1  0.18466895  0.43626680  0.93606696  1
  Zn  Zn125  1  0.19072804  0.93700263  0.43995568  1
  Zn  Zn126  1  0.19395487  0.94484938  0.94141295  1
  Zn  Zn127  1  0.68651114  0.43430234  0.43859859  1
  Zn  Zn128  1  0.68692399  0.43458293  0.94749820  1
  Zn  Zn129  1  0.68548079  0.93788423  0.43981610  1
  Zn  Zn130  1  0.68873625  0.93402224  0.93358233  1
  Zn  Zn131  1  0.31327591  0.06773786  0.05980043  1
  Zn  Zn132  1  0.31636023  0.06770887  0.56643377  1
  Zn  Zn133  1  0.31159585  0.56167098  0.06177628  1
  Zn  Zn134  1  0.31084007  0.56154103  0.56228231  1
  Zn  Zn135  1  0.81487247  0.05836740  0.05727963  1
  Zn  Zn136  1  0.80811842  0.06020032  0.56311015  1
  Zn  Zn137  1  0.81652724  0.56699804  0.06004726  1
  Zn  Zn138  1  0.81139731  0.56179517  0.56133476  1
  Zn  Zn139  1  0.44204307  0.44006251  0.18801774  1
  Zn  Zn140  1  0.43886897  0.42600431  0.68768532  1
  Zn  Zn141  1  0.43948614  0.94214275  0.19063460  1
  Zn  Zn142  1  0.43299562  0.93454291  0.69324097  1
  Zn  Zn143  1  0.93894053  0.44082440  0.19407747  1
  Zn  Zn144  1  0.94033482  0.43559596  0.68202503  1
  Zn  Zn145  1  0.93596518  0.94397099  0.18202826  1
  Zn  Zn146  1  0.93603145  0.93482874  0.68802875  1
  Zn  Zn147  1  0.05703502  0.06986722  0.31000340  1
  Zn  Zn148  1  0.06326386  0.06307070  0.80776701  1
  Zn  Zn149  1  0.06066348  0.56995857  0.31105699  1
  Zn  Zn150  1  0.06206291  0.56263449  0.81123144  1
  Zn  Zn151  1  0.56548272  0.06252475  0.31429407  1
  Zn  Zn152  1  0.56316745  0.06181296  0.81712213  1
  Zn  Zn153  1  0.56294044  0.56335135  0.30521802  1
  Zn  Zn154  1  0.56217808  0.55843080  0.81423560  1
  Zn  Zn155  1  0.43438015  0.18867873  0.43984466  1
  Zn  Zn156  1  0.43707159  0.18337390  0.94043635  1
  Zn  Zn157  1  0.43667822  0.68531017  0.43399642  1
  Zn  Zn158  1  0.42799601  0.68625854  0.93555280  1
  Zn  Zn159  1  0.91021689  0.21032245  0.39038275  1
  Zn  Zn160  1  0.94360072  0.18859676  0.94579078  1
  Zn  Zn161  1  0.93939680  0.68401511  0.43624904  1
  Zn  Zn162  1  0.93904352  0.68703938  0.93486867  1
  Zn  Zn163  1  0.06005000  0.31190118  0.06569614  1
  Zn  Zn164  1  0.05604043  0.31271233  0.55712128  1
  Zn  Zn165  1  0.06519762  0.82004381  0.06343801  1
  Zn  Zn166  1  0.05865505  0.81251746  0.56646013  1
  Zn  Zn167  1  0.56316565  0.31122632  0.05881163  1
  Zn  Zn168  1  0.56013956  0.31360373  0.55922057  1
  Zn  Zn169  1  0.56381983  0.81077526  0.06154809  1
  Zn  Zn170  1  0.55819645  0.81108509  0.56770819  1
  O  O171  1  0.12844906  0.11085919  0.12998215  1
  O  O172  1  0.11600686  0.11412315  0.61937078  1
  O  O173  1  0.12567273  0.61475920  0.11850773  1
  O  O174  1  0.12263657  0.61501581  0.61679440  1
  O  O175  1  0.61732298  0.11437190  0.11184748  1
  O  O176  1  0.62551535  0.11573572  0.61373194  1
  O  O177  1  0.62747380  0.62184470  0.12522904  1
  O  O178  1  0.61745053  0.61788558  0.61965395  1
  O  O179  1  0.37390383  0.38044313  0.38085838  1
  O  O180  1  0.38430758  0.38437279  0.87248072  1
  O  O181  1  0.37835381  0.88176011  0.38298848  1
  O  O182  1  0.37410723  0.89251120  0.87273270  1
  O  O183  1  0.86935773  0.39300182  0.38517225  1
  O  O184  1  0.88602009  0.37837504  0.87491527  1
  O  O185  1  0.86451910  0.87755733  0.38700586  1
  O  O186  1  0.86944612  0.86982508  0.88494253  1
  O  O187  1  0.25546522  0.00614934  0.36855260  1
  O  O188  1  0.25950346  0.00137819  0.86633784  1
  O  O189  1  0.24904562  0.50933086  0.36944413  1
  O  O190  1  0.25840918  0.50152782  0.87019196  1
  O  O191  1  0.75399949  0.00267781  0.36988469  1
  O  O192  1  0.74518944  0.00194802  0.85909805  1
  O  O193  1  0.75514129  0.50653881  0.38014013  1
  O  O194  1  0.75273568  0.50521679  0.87050815  1
  O  O195  1  0.24042734  0.49294927  0.12522008  1
  O  O196  1  0.23483657  0.50146369  0.62763886  1
  O  O197  1  0.24862689  0.99598091  0.14017202  1
  O  O198  1  0.24112259  0.99391686  0.63012098  1
  O  O199  1  0.73649548  0.50956859  0.11719726  1
  O  O200  1  0.74097202  0.50765435  0.63577491  1
  O  O201  1  0.74379577  0.99237948  0.13211625  1
  O  O202  1  0.74019480  0.99364510  0.63455092  1
  O  O203  1  0.01439409  0.37040630  0.24398300  1
  O  O204  1  0.00546110  0.36959354  0.75593261  1
  O  O205  1  0.01631591  0.87578902  0.24429056  1
  O  O206  1  -0.00238767  0.86121762  0.74720690  1
  O  O207  1  0.51700788  0.38375878  0.25487601  1
  O  O208  1  0.50756690  0.36579534  0.76546547  1
  O  O209  1  0.50517692  0.86933598  0.25722405  1
  O  O210  1  0.50757489  0.86076304  0.74450193  1
  O  O211  1  0.50448626  0.11825836  0.23464493  1
  O  O212  1  0.50726396  0.14107255  0.75502706  1
  O  O213  1  0.48760579  0.63594472  0.25237694  1
  O  O214  1  0.49561565  0.62690090  0.74364532  1
  O  O215  1  0.99738517  0.13851639  0.24967730  1
  O  O216  1  0.99352141  0.12643110  0.73704688  1
  O  O217  1  0.99189566  0.63954376  0.24724564  1
  O  O218  1  0.98694262  0.62680129  0.74868097  1
  O  O219  1  0.38018128  0.24865896  0.01025557  1
  O  O220  1  0.35567240  0.24945535  0.49715116  1
  O  O221  1  0.35774769  0.75635078  -0.00516060  1
  O  O222  1  0.36644420  0.75554508  0.50203982  1
  O  O223  1  0.86617516  0.25851507  -0.00610886  1
  O  O224  1  0.87188559  0.25889463  0.49950626  1
  O  O225  1  0.87464984  0.75735829  0.00466999  1
  O  O226  1  0.87024853  0.75322151  0.50566813  1
  O  O227  1  0.13126239  0.24653183  0.49170777  1
  O  O228  1  0.12096316  0.25345411  0.98197905  1
  O  O229  1  0.12879792  0.74954379  0.49494404  1
  O  O230  1  0.12761435  0.73560579  1.00872151  1
  O  O231  1  0.62403838  0.23480486  0.50218907  1
  O  O232  1  0.63669999  0.24131705  0.99721610  1
  O  O233  1  0.62304223  0.74178039  0.49692603  1
  O  O234  1  0.62907753  0.75590868  0.98424012  1
  O  O235  1  0.50730641  0.23185338  0.12068146  1
  O  O236  1  0.50819346  0.25495062  0.64436916  1
  O  O237  1  0.49591545  0.75555481  0.13573247  1
  O  O238  1  0.49984525  0.73575452  0.63621360  1
  O  O239  1  0.99529521  0.24283612  0.12037388  1
  O  O240  1  0.99388544  0.23897554  0.62688477  1
  O  O241  1  0.99659608  0.75221044  0.13003081  1
  O  O242  1  0.98693968  0.74658291  0.63071152  1
  O  O243  1  0.01700927  0.24963974  0.38377047  1
  O  O244  1  0.00571266  0.25744450  0.86714737  1
  O  O245  1  0.00699806  0.75169907  0.36781650  1
  O  O246  1  -0.00214775  0.74787100  0.86001920  1
  O  O247  1  0.51184265  0.24523400  0.37714048  1
  O  O248  1  0.51396635  0.25403472  0.87408545  1
  O  O249  1  0.50678687  0.75696199  0.36984216  1
  O  O250  1  0.50540543  0.74052306  0.86438064  1
  O  O251  1  0.24216199  0.12754827  0.48900189  1
  O  O252  1  0.24141171  0.12957635  1.00449570  1
  O  O253  1  0.24389973  0.63872725  0.50207312  1
  O  O254  1  0.24191781  0.62840148  0.99123900  1
  O  O255  1  0.73972185  0.12193419  0.49150712  1
  O  O256  1  0.74511734  0.12922058  0.99813528  1
  O  O257  1  0.73480490  0.63157372  0.50643891  1
  O  O258  1  0.75799337  0.63374224  0.98408760  1
  O  O259  1  0.24478739  0.37631012  0.01289610  1
  O  O260  1  0.24460893  0.36399549  0.49928051  1
  O  O261  1  0.26251268  0.88470333  0.01953201  1
  O  O262  1  0.25737301  0.86633703  0.50864796  1
  O  O263  1  0.76101087  0.36189272  -0.00186968  1
  O  O264  1  0.76174109  0.37527622  0.50353604  1
  O  O265  1  0.75838886  0.87098127  0.00301591  1
  O  O266  1  0.75442498  0.87000075  0.50915025  1
  O  O267  1  0.12157457  0.49681716  0.24190139  1
  O  O268  1  0.12850963  0.49168868  0.74169840  1
  O  O269  1  0.13188039  0.99501337  0.24981767  1
  O  O270  1  0.13149168  1.00001121  0.74052203  1
  O  O271  1  0.61878832  0.49759202  0.22796050  1
  O  O272  1  0.63434943  0.49941772  0.74251531  1
  O  O273  1  0.63409563  0.99346310  0.24676163  1
  O  O274  1  0.62830397  0.99174047  0.74540754  1
  O  O275  1  0.36658665  0.00363797  0.26145132  1
  O  O276  1  0.36609763  0.00190695  0.75699519  1
  O  O277  1  0.37578412  0.51400342  0.24987990  1
  O  O278  1  0.37109945  0.50029675  0.75534961  1
  O  O279  1  0.86395963  -0.01694614  0.26337967  1
  O  O280  1  0.86540785  0.00882872  0.74100968  1
  O  O281  1  0.87343810  0.50172119  0.26591915  1
  O  O282  1  0.86996189  0.50509913  0.75186148  1
  O  O283  1  0.12800906  0.36365541  0.36707677  1
  O  O284  1  0.11391880  0.37060706  0.86522355  1
  O  O285  1  0.12997549  0.86548510  0.36936894  1
  O  O286  1  0.19135337  0.83519646  0.90609573  1
  O  O287  1  0.62011773  0.35665720  0.38629714  1
  O  O288  1  0.62200741  0.36555600  0.87671837  1
  O  O289  1  0.61468842  0.87172622  0.37326127  1
  O  O290  1  0.62868925  0.86476035  0.86061765  1
  O  O291  1  0.39489915  0.11545650  0.12794438  1
  O  O292  1  0.37181667  0.13584637  0.63234323  1
  O  O293  1  0.36979057  0.62924713  0.13729114  1
  O  O294  1  0.38322264  0.62446636  0.63147299  1
  O  O295  1  0.87288164  0.10414701  0.13866540  1
  O  O296  1  0.88087492  0.12946691  0.62717511  1
  O  O297  1  0.87695931  0.64299238  0.12518196  1
  O  O298  1  0.87416849  0.63260260  0.63219319  1
  O  O299  1  0.24180957  0.26811513  0.12034730  1
  O  O300  1  0.23964936  0.24653725  0.60659332  1
  O  O301  1  0.24744355  0.76373810  0.11248175  1
  O  O302  1  0.24903627  0.75735112  0.61974808  1
  O  O303  1  0.75728589  0.24185786  0.12142440  1
  O  O304  1  0.76219154  0.24217520  0.62260581  1
  O  O305  1  0.75794623  0.75829737  0.11312785  1
  O  O306  1  0.75794802  0.75392024  0.62320165  1
  O  O307  1  0.24017451  0.24413931  0.38318896  1
  O  O308  1  0.23578388  0.25955906  0.87584809  1
  O  O309  1  0.24163889  0.75161160  0.38555755  1
  O  O310  1  0.26731412  0.72265947  0.86992638  1
  O  O311  1  0.73408173  0.23890263  0.38013446  1
  O  O312  1  0.74030877  0.24464355  0.87572870  1
  O  O313  1  0.72740017  0.76414161  0.39088344  1
  O  O314  1  0.74163022  0.74152247  0.87566706  1
  O  O315  1  0.00643621  0.11074778  0.00224501  1
  O  O316  1  0.00392427  0.11425389  0.51043295  1
  O  O317  1  0.00666575  0.61837126  0.00014847  1
  O  O318  1  0.00709361  0.61675529  0.50353557  1
  O  O319  1  0.50964496  0.11184700  0.00666133  1
  O  O320  1  0.50852777  0.12240589  0.50012839  1
  O  O321  1  0.49895761  0.61389819  -0.00626298  1
  O  O322  1  0.50797983  0.62130017  0.50804675  1
  O  O323  1  0.49862686  0.38613380  0.49582317  1
  O  O324  1  0.50633697  0.38429888  0.98877617  1
  O  O325  1  0.48494963  0.86887208  0.49855789  1
  O  O326  1  0.49877200  0.88808615  1.00682239  1
  O  O327  1  0.98639395  0.38564466  0.50297416  1
  O  O328  1  0.99321828  0.38097235  0.99115943  1
  O  O329  1  0.98731308  0.88088973  0.50527957  1
  O  O330  1  0.99523960  0.88680589  1.00053481  1
  O  O331  1  0.50279408  0.50401207  0.38617772  1
  O  O332  1  0.49622051  0.49247118  0.88316751  1
  O  O333  1  0.48768660  0.99574606  0.37162393  1
  O  O334  1  0.49313239  0.99844643  0.88277153  1
  O  O335  1  1.00137454  0.50249153  0.38564812  1
  O  O336  1  0.99457803  0.49191069  0.87858618  1
  O  O337  1  0.98712974  1.00231345  0.38046424  1
  O  O338  1  1.01155734  0.99879384  0.88696341  1
  O  O339  1  0.01079860  0.00026511  0.11649350  1
  O  O340  1  0.00533905  0.00312826  0.62037493  1
  O  O341  1  0.00599990  0.50407349  0.11868337  1
  O  O342  1  0.01127396  0.50179737  0.61773365  1
  O  O343  1  0.50891173  0.00394906  0.11907837  1
  O  O344  1  0.51119604  -0.00803329  0.63112755  1
  O  O345  1  0.50486076  0.50172884  0.11050055  1
  O  O346  1  0.50820523  0.50828848  0.62142060  1
  O  O347  1  0.23520462  0.38030245  0.23831251  1
  O  O348  1  0.23827189  0.38020528  0.75351803  1
  O  O349  1  0.24226623  0.88210257  0.24983792  1
  O  O350  1  0.25207918  0.88292116  0.73736708  1
  O  O351  1  0.71996651  0.38372573  0.26118940  1
  O  O352  1  0.75138456  0.38698215  0.75494531  1
  O  O353  1  0.74165941  0.87800823  0.24335738  1
  O  O354  1  0.74297770  0.87963958  0.74390719  1
  O  O355  1  0.24873682  0.11836841  0.26244581  1
  O  O356  1  0.24757366  0.11378961  0.74795160  1
  O  O357  1  0.26138126  0.62858267  0.24946232  1
  O  O358  1  0.25386242  0.61244986  0.75367156  1
  O  O359  1  0.74657545  0.11048813  0.26449222  1
  O  O360  1  0.75838454  0.11664342  0.75037303  1
  O  O361  1  0.77374421  0.67981184  0.26379434  1
  O  O362  1  0.76073556  0.61856727  0.75843556  1
  O  O363  1  0.36724594  0.11827818  0.37527898  1
  O  O364  1  0.38371294  0.10859855  0.86752481  1
  O  O365  1  0.37174013  0.62536163  0.36117539  1
  O  O366  1  0.37133102  0.60730494  0.86779862  1
  O  O367  1  0.85979307  0.10866926  0.38403289  1
  O  O368  1  0.87906396  0.13149499  0.85977316  1
  O  O369  1  0.87766703  0.60656063  0.38045389  1
  O  O370  1  0.86896430  0.61681861  0.86732189  1
  O  O371  1  0.12915689  0.38727347  0.12710542  1
  O  O372  1  0.11629062  0.37874502  0.63576176  1
  O  O373  1  0.13697808  0.88674735  0.13408429  1
  O  O374  1  0.13205534  0.88619128  0.61730616  1
  O  O375  1  0.62583493  0.37963542  0.12799235  1
  O  O376  1  0.62300205  0.38801373  0.62611402  1
  O  O377  1  0.63204561  0.87805657  0.13008542  1
  O  O378  1  0.62914376  0.87795858  0.63372332  1
  O  O379  1  0.12782860  0.25735413  0.26267103  1
  O  O380  1  0.11953289  0.25627819  0.75520458  1
  O  O381  1  0.11783054  0.75760191  0.25550121  1
  O  O382  1  0.10837614  0.74371221  0.74344922  1
  O  O383  1  0.62202064  0.26309648  0.26323973  1
  O  O384  1  0.62167531  0.25047053  0.75929493  1
  O  O385  1  0.61481506  0.75409705  0.25812065  1
  O  O386  1  0.61879725  0.75418451  0.75675737  1
  O  O387  1  0.36813959  0.24727960  0.23772456  1
  O  O388  1  0.39324671  0.24841345  0.75746116  1
  O  O389  1  0.38167464  0.74318433  0.24885476  1
  O  O390  1  0.38241865  0.74228318  0.74954108  1
  O  O391  1  0.87410367  0.25067684  0.28154459  1
  O  O392  1  0.88044237  0.24276377  0.73884142  1
  O  O393  1  0.89556963  0.77453234  0.23830041  1
  O  O394  1  0.87870590  0.74174703  0.74239489  1
  O  O395  1  0.38577175  0.50382484  0.49856257  1
  O  O396  1  0.38769799  0.50360916  0.99291671  1
  O  O397  1  0.36440544  0.99029467  0.49111923  1
  O  O398  1  0.38384838  1.00051585  0.98980118  1
  O  O399  1  0.88030145  0.49593244  0.49561185  1
  O  O400  1  0.87893286  0.49186360  0.99353305  1
  O  O401  1  0.87733969  0.98988997  0.49456168  1
  O  O402  1  0.89074458  0.99229436  0.99583666  1
  O  O403  1  0.11746438  -0.00217493  0.00844654  1
  O  O404  1  0.11917827  0.00321013  0.50459006  1
  O  O405  1  0.11884782  0.50768160  0.00570880  1
  O  O406  1  0.11829094  0.50139605  0.50421318  1
  O  O407  1  0.62175258  0.00324373  0.00128258  1
  O  O408  1  0.62573673  0.01122430  0.50866429  1
  O  O409  1  0.61563913  0.50170413  0.01112286  1
  O  O410  1  0.61945401  0.50655422  0.50642789  1
  O  O411  1  0.35874427  0.38245031  0.12953442  1
  O  O412  1  0.37759647  0.36368671  0.61965585  1
  O  O413  1  0.36603722  0.87258181  0.13439394  1
  O  O414  1  0.36606629  0.87259858  0.61899654  1
  O  O415  1  0.87767432  0.38053308  0.11684254  1
  O  O416  1  0.88036437  0.36153607  0.61730875  1
  O  O417  1  0.87105215  0.86910183  0.11340411  1
  O  O418  1  0.86749092  0.86617797  0.61813447  1
  O  O419  1  0.13139989  0.13369315  0.38025742  1
  O  O420  1  0.11951071  0.14343701  0.87059967  1
  O  O421  1  0.12565313  0.64045577  0.38075043  1
  O  O422  1  0.13485100  0.61521182  0.88404624  1
  O  O423  1  0.62640656  0.13039604  0.38557038  1
  O  O424  1  0.62713931  0.13030314  0.88842932  1
  O  O425  1  0.61804917  0.63376987  0.38364151  1
  O  O426  1  0.63480130  0.63282402  0.86643579  1
