# generated using pymatgen
data_V85Zn86O256
_symmetry_space_group_name_H-M   'P 1'
_cell_length_a   16.96710327
_cell_length_b   16.96274216
_cell_length_c   16.95663078
_cell_angle_alpha   90.01464397
_cell_angle_beta   89.97988848
_cell_angle_gamma   89.92633671
_symmetry_Int_Tables_number   1
_chemical_formula_structural   V85Zn86O256
_chemical_formula_sum   'V85 Zn86 O256'
_cell_volume   4880.25963611
_cell_formula_units_Z   1
loop_
 _symmetry_equiv_pos_site_id
 _symmetry_equiv_pos_as_xyz
  1  'x, y, z'
loop_
 _atom_site_type_symbol
 _atom_site_label
 _atom_site_symmetry_multiplicity
 _atom_site_fract_x
 _atom_site_fract_y
 _atom_site_fract_z
 _atom_site_occupancy
  V  V0  1  0.74958126  0.12409776  0.37480129  1
  V  V1  1  0.25160536  0.87463533  0.12134761  1
  V  V2  1  -0.00120498  0.75070122  0.75204320  1
  V  V3  1  0.87313192  0.75595374  0.12678046  1
  V  V4  1  0.62498351  0.62517488  -0.00093795  1
  V  V5  1  0.12323053  0.12030536  0.51818567  1
  V  V6  1  0.75148801  0.37236073  0.12259160  1
  V  V7  1  0.49730601  0.24624197  0.73359179  1
  V  V8  1  0.25163007  0.75427405  0.50040558  1
  V  V9  1  0.63059760  0.62375583  0.50396883  1
  V  V10  1  0.62633985  0.37330009  0.25015462  1
  V  V11  1  0.24482206  0.00026952  0.73835312  1
  V  V12  1  0.50358109  0.36230630  0.87650869  1
  V  V13  1  0.37312813  0.13083138  0.73361194  1
  V  V14  1  0.88090581  0.49732661  0.87674898  1
  V  V15  1  0.50191047  0.76446564  0.75490581  1
  V  V16  1  0.38130825  0.49786477  0.38029478  1
  V  V17  1  0.50190132  0.00444989  0.50677512  1
  V  V18  1  0.12611481  0.00235389  0.12152940  1
  V  V19  1  0.62716045  0.75091833  0.37507098  1
  V  V20  1  0.00114452  0.25093099  0.25257039  1
  V  V21  1  0.37801918  -0.00130232  0.37128721  1
  V  V22  1  0.11832166  0.37664473  0.24656685  1
  V  V23  1  0.63094275  -0.00232663  0.12475721  1
  V  V24  1  0.87106773  0.36929581  0.51122403  1
  V  V25  1  0.00002193  0.00166881  -0.00419279  1
  V  V26  1  0.37186700  0.01349019  0.87323631  1
  V  V27  1  0.49854456  0.24971646  0.24618141  1
  V  V28  1  0.49929937  0.37280708  0.38154640  1
  V  V29  1  0.75073377  0.49913464  0.24833555  1
  V  V30  1  0.50151436  0.75358401  0.24947991  1
  V  V31  1  0.61981211  0.76485842  0.87431481  1
  V  V32  1  0.87541281  0.12356741  0.25046767  1
  V  V33  1  0.37657065  0.87347684  -0.01379097  1
  V  V34  1  0.12126120  0.24256137  0.37820543  1
  V  V35  1  0.37275341  0.13215398  0.24349100  1
  V  V36  1  0.74586233  0.76168452  0.50657967  1
  V  V37  1  0.87423166  0.62601589  0.75161731  1
  V  V38  1  0.62438600  0.12662951  0.51139548  1
  V  V39  1  0.37740901  0.36680505  0.01261621  1
  V  V40  1  0.62765305  0.24749937  0.37560876  1
  V  V41  1  0.13519518  0.37607546  0.76524268  1
  V  V42  1  0.37195746  0.75516762  0.62888698  1
  V  V43  1  0.49822347  0.12610061  0.12054787  1
  V  V44  1  0.74653054  0.62651121  0.87757231  1
  V  V45  1  0.04887819  0.42974010  0.43045421  1
  V  V46  1  0.50129365  0.49748102  -0.00115026  1
  V  V47  1  0.50473482  0.62608826  0.63017333  1
  V  V48  1  0.12972884  0.12808519  -0.02134936  1
  V  V49  1  0.63084998  0.36205505  0.75502746  1
  V  V50  1  0.00265082  -0.00021057  0.51622557  1
  V  V51  1  0.87944917  0.12803597  0.74359578  1
  V  V52  1  0.86402919  0.75992972  0.63058571  1
  V  V53  1  0.36733472  0.62207711  0.75266006  1
  V  V54  1  0.75360600  -0.01152648  0.75571298  1
  V  V55  1  0.25183598  0.00024200  0.24882161  1
  V  V56  1  0.87739827  0.62625281  0.25199904  1
  V  V57  1  0.74982641  0.49637842  0.75145649  1
  V  V58  1  0.74853067  0.75610735  0.00500897  1
  V  V59  1  0.62296316  0.12827291  -0.01135749  1
  V  V60  1  0.75150617  0.24942635  0.51473492  1
  V  V61  1  0.25154774  0.62967364  0.37622653  1
  V  V62  1  0.88780306  0.37348831  -0.00381524  1
  V  V63  1  0.50146197  0.62481500  0.12444944  1
  V  V64  1  0.63225690  0.49104233  0.62892554  1
  V  V65  1  0.87612266  0.24878937  0.12041881  1
  V  V66  1  0.24761578  0.74063921  -0.00052038  1
  V  V67  1  0.12584605  0.74546820  0.87782424  1
  V  V68  1  0.62989457  -0.01509146  0.63207174  1
  V  V69  1  0.00207972  0.88160532  0.87471897  1
  V  V70  1  0.37369460  0.87871834  0.50391457  1
  V  V71  1  0.12746083  0.87505513  0.73019303  1
  V  V72  1  0.87398107  0.48747283  0.37533415  1
  V  V73  1  0.00304648  0.12610865  0.12166817  1
  V  V74  1  0.00599956  0.62447072  0.11617173  1
  V  V75  1  0.87290476  0.88272784  -0.00131940  1
  V  V76  1  -0.00035243  0.26176435  0.75014586  1
  V  V77  1  0.12425046  0.87628194  0.25158135  1
  V  V78  1  0.25200527  0.24569137  -0.00471393  1
  V  V79  1  -0.00283857  0.87824259  0.37783971  1
  V  V80  1  0.24991846  0.49726599  0.25170749  1
  V  V81  1  0.37145205  0.49633754  0.87334925  1
  V  V82  1  0.37705042  0.62704616  0.25065952  1
  V  V83  1  0.25912378  0.25147623  0.50594436  1
  V  V84  1  0.74796160  0.25152901  -0.01392569  1
  Zn  Zn85  1  0.27589570  0.37851460  0.63527097  1
  Zn  Zn86  1  0.50066168  0.49140593  0.50891039  1
  Zn  Zn87  1  0.75519197  -0.00763908  0.24667424  1
  Zn  Zn88  1  0.12182925  0.75095625  0.37607156  1
  Zn  Zn89  1  -0.00016990  0.75329806  0.24990819  1
  Zn  Zn90  1  0.37683308  0.75388206  0.12253498  1
  Zn  Zn91  1  0.63530692  0.87075862  0.24135792  1
  Zn  Zn92  1  0.00601119  0.62387411  0.62021840  1
  Zn  Zn93  1  0.14398197  0.50137230  0.63989836  1
  Zn  Zn94  1  0.11965832  0.61837207  0.49872389  1
  Zn  Zn95  1  0.24804626  0.12224944  0.37607190  1
  Zn  Zn96  1  0.62627446  0.49831293  0.12391257  1
  Zn  Zn97  1  0.75493056  0.62476724  0.37990952  1
  Zn  Zn98  1  0.24192226  0.61540340  0.87589186  1
  Zn  Zn99  1  0.13369882  0.50318701  0.11652296  1
  Zn  Zn100  1  0.50235492  -0.00447083  -0.00875872  1
  Zn  Zn101  1  0.87568361  0.00112412  0.38067365  1
  Zn  Zn102  1  0.25396702  0.36370397  0.13065420  1
  Zn  Zn103  1  0.01435413  0.49856683  -0.00691897  1
  Zn  Zn104  1  0.50329854  0.87723748  0.37214062  1
  Zn  Zn105  1  0.87150969  0.88057184  0.50444359  1
  Zn  Zn106  1  0.75287380  0.12096957  0.87114334  1
  Zn  Zn107  1  0.18935107  0.18913910  0.18348946  1
  Zn  Zn108  1  0.19048220  0.19539713  0.69387104  1
  Zn  Zn109  1  0.18816822  0.69055627  0.18825866  1
  Zn  Zn110  1  0.18553576  0.68638902  0.68428540  1
  Zn  Zn111  1  0.68785970  0.18455385  0.18270522  1
  Zn  Zn112  1  0.69021619  0.18123030  0.69045772  1
  Zn  Zn113  1  0.68949674  0.68633435  0.18733681  1
  Zn  Zn114  1  0.68640419  0.69095670  0.69162845  1
  Zn  Zn115  1  0.30836301  0.31202610  0.32150088  1
  Zn  Zn116  1  0.31264628  0.31081889  0.81614449  1
  Zn  Zn117  1  0.31522120  0.81539317  0.31150528  1
  Zn  Zn118  1  0.30636975  0.81443675  0.80954028  1
  Zn  Zn119  1  0.81314759  0.30809100  0.31301949  1
  Zn  Zn120  1  0.82079030  0.31261425  0.80774706  1
  Zn  Zn121  1  0.81033884  0.81567879  0.31542117  1
  Zn  Zn122  1  0.81070524  0.81693453  0.81990852  1
  Zn  Zn123  1  0.22459934  0.45845514  0.47434812  1
  Zn  Zn124  1  0.19131579  0.43410452  0.94279292  1
  Zn  Zn125  1  0.18755456  0.93934815  0.43902555  1
  Zn  Zn126  1  0.19005480  0.93708978  0.92950201  1
  Zn  Zn127  1  0.69041550  0.43542001  0.44034942  1
  Zn  Zn128  1  0.68930942  0.43626224  0.93584909  1
  Zn  Zn129  1  0.68538576  0.93948461  0.43312861  1
  Zn  Zn130  1  0.68770915  0.93990547  0.94068218  1
  Zn  Zn131  1  0.31136964  0.06292993  0.06017157  1
  Zn  Zn132  1  0.30923697  0.06455623  0.56127424  1
  Zn  Zn133  1  0.31674474  0.55885062  0.06330398  1
  Zn  Zn134  1  0.31831955  0.56686702  0.56575231  1
  Zn  Zn135  1  0.81066878  0.06642219  0.05853484  1
  Zn  Zn136  1  0.81112254  0.05956834  0.56690423  1
  Zn  Zn137  1  0.81738335  0.56342413  0.06276534  1
  Zn  Zn138  1  0.85101410  0.53607575  0.58987662  1
  Zn  Zn139  1  0.44001737  0.43977659  0.19176523  1
  Zn  Zn140  1  0.44678776  0.43980711  0.69351044  1
  Zn  Zn141  1  0.44035209  0.93888313  0.18070788  1
  Zn  Zn142  1  0.43656014  0.94300768  0.68645096  1
  Zn  Zn143  1  0.93874221  0.43876295  0.18389818  1
  Zn  Zn144  1  0.98526183  0.42364532  0.66393262  1
  Zn  Zn145  1  0.93841187  0.93916579  0.18550709  1
  Zn  Zn146  1  0.93477340  0.93889616  0.69157227  1
  Zn  Zn147  1  0.06097931  0.06118307  0.31528549  1
  Zn  Zn148  1  0.06042322  0.06299117  0.80420524  1
  Zn  Zn149  1  0.06604898  0.56980376  0.30742249  1
  Zn  Zn150  1  0.06227477  0.56161717  0.81084564  1
  Zn  Zn151  1  0.56268213  0.06192808  0.31093893  1
  Zn  Zn152  1  0.55545840  0.05866157  0.80856784  1
  Zn  Zn153  1  0.56574969  0.56359780  0.31383568  1
  Zn  Zn154  1  0.55948372  0.56380268  0.81411805  1
  Zn  Zn155  1  0.44157897  0.17871354  0.42849430  1
  Zn  Zn156  1  0.43551953  0.18789382  0.93547858  1
  Zn  Zn157  1  0.44143726  0.68651151  0.44024267  1
  Zn  Zn158  1  0.43619901  0.68778074  0.93549409  1
  Zn  Zn159  1  0.94059735  0.18570551  0.44259702  1
  Zn  Zn160  1  0.93747742  0.18404468  0.92397584  1
  Zn  Zn161  1  0.93450136  0.68980313  0.43857641  1
  Zn  Zn162  1  0.93498632  0.69119760  0.93698840  1
  Zn  Zn163  1  0.06969449  0.30999270  0.06212530  1
  Zn  Zn164  1  0.06968410  0.30132946  0.57521297  1
  Zn  Zn165  1  0.06276054  0.81139944  0.06247018  1
  Zn  Zn166  1  0.04876029  0.79028216  0.55285400  1
  Zn  Zn167  1  0.56495249  0.30899884  0.06357161  1
  Zn  Zn168  1  0.43453600  0.30540391  0.55762326  1
  Zn  Zn169  1  0.55988279  0.81466700  0.05975406  1
  Zn  Zn170  1  0.55597597  0.81329180  0.56157022  1
  O  O171  1  0.11722842  0.11708460  0.12386072  1
  O  O172  1  0.13136015  0.12712732  0.61576036  1
  O  O173  1  0.10878228  0.62560053  0.13492300  1
  O  O174  1  0.12561884  0.61370625  0.61966813  1
  O  O175  1  0.61780833  0.11736972  0.11567676  1
  O  O176  1  0.62841934  0.11536375  0.61307986  1
  O  O177  1  0.61541960  0.62369285  0.11977478  1
  O  O178  1  0.62057498  0.62055961  0.62258095  1
  O  O179  1  0.38639707  0.38542699  0.36545049  1
  O  O180  1  0.38543226  0.38034863  0.88173399  1
  O  O181  1  0.37988470  0.88658181  0.37825522  1
  O  O182  1  0.37017962  0.87867597  0.88411730  1
  O  O183  1  0.87695516  0.38428147  0.37114245  1
  O  O184  1  0.86949459  0.38620681  0.88490075  1
  O  O185  1  0.88372602  0.87932533  0.37996570  1
  O  O186  1  0.88823392  0.86892706  0.88849988  1
  O  O187  1  0.25981479  0.00041700  0.36686442  1
  O  O188  1  0.26495706  -0.00713793  0.86009814  1
  O  O189  1  0.26050839  0.50817556  0.37172666  1
  O  O190  1  0.26752738  0.50010099  0.88178071  1
  O  O191  1  0.75208405  0.01318731  0.37306998  1
  O  O192  1  0.73962075  -0.00014923  0.85910731  1
  O  O193  1  0.75668893  0.50110316  0.36402364  1
  O  O194  1  0.75603215  0.50839096  0.87084464  1
  O  O195  1  0.25388146  0.50183802  0.14334982  1
  O  O196  1  0.24610213  0.48333936  0.58795249  1
  O  O197  1  0.24485298  0.99400276  0.12918571  1
  O  O198  1  0.25830355  0.99637226  0.63934291  1
  O  O199  1  0.75260363  0.49534555  0.13558864  1
  O  O200  1  0.74805847  0.50779295  0.64359488  1
  O  O201  1  0.73398961  1.00973122  0.12466780  1
  O  O202  1  0.73556611  0.99750043  0.63323966  1
  O  O203  1  0.01096085  0.36958205  0.24399689  1
  O  O204  1  0.00038714  0.36632918  0.76143809  1
  O  O205  1  0.00859287  0.87811073  0.25587406  1
  O  O206  1  0.00551848  0.87125294  0.75875512  1
  O  O207  1  0.50738878  0.36828221  0.25498492  1
  O  O208  1  0.51002403  0.36557678  0.75925029  1
  O  O209  1  0.50305584  0.86230011  0.24719015  1
  O  O210  1  0.49345228  0.86311899  0.74650569  1
  O  O211  1  0.49269066  0.12994606  0.24284238  1
  O  O212  1  0.48449136  0.13354745  0.75458278  1
  O  O213  1  0.49956754  0.63367564  0.24335211  1
  O  O214  1  0.49398551  0.63293964  0.74139544  1
  O  O215  1  0.99413469  0.12990961  0.24401233  1
  O  O216  1  0.98075773  0.10986511  0.74158346  1
  O  O217  1  0.98877068  0.62791101  0.24289106  1
  O  O218  1  0.98925197  0.63526411  0.75325236  1
  O  O219  1  0.37133787  0.25772779  0.00044204  1
  O  O220  1  0.36467015  0.23684332  0.49375229  1
  O  O221  1  0.36830819  0.76009452  -0.00127495  1
  O  O222  1  0.37185304  0.75810195  0.50612319  1
  O  O223  1  0.87146495  0.25544721  -0.00050262  1
  O  O224  1  0.86727664  0.26096777  0.49074544  1
  O  O225  1  0.86730934  0.75832790  0.00695504  1
  O  O226  1  0.86082566  0.75042632  0.51311642  1
  O  O227  1  0.12980131  0.23818012  0.49579235  1
  O  O228  1  0.12949208  0.23378533  0.99881116  1
  O  O229  1  0.14827579  0.76275712  0.49602164  1
  O  O230  1  0.13526825  0.75555801  0.99146539  1
  O  O231  1  0.63669347  0.23885789  0.48908993  1
  O  O232  1  0.63631097  0.24070781  1.00447148  1
  O  O233  1  0.62636618  0.74606003  0.49471621  1
  O  O234  1  0.63104426  0.74553264  0.99779453  1
  O  O235  1  0.50511559  0.23599736  0.13172175  1
  O  O236  1  0.50207513  0.25036656  0.63464626  1
  O  O237  1  0.50018220  0.74245231  0.13141312  1
  O  O238  1  0.49185140  0.74427010  0.63171173  1
  O  O239  1  0.99612681  0.24442315  0.13072623  1
  O  O240  1  1.00381669  0.24390558  0.64792081  1
  O  O241  1  0.99286146  0.74137459  0.12743066  1
  O  O242  1  0.98620459  0.75003331  0.64464772  1
  O  O243  1  0.01257713  0.24270180  0.36799648  1
  O  O244  1  0.00929335  0.22717900  0.84743282  1
  O  O245  1  0.00075281  0.76508332  0.36999583  1
  O  O246  1  0.00501033  0.75701945  0.86883163  1
  O  O247  1  0.50679624  0.25495216  0.36679853  1
  O  O248  1  0.49732355  0.26030809  0.86919858  1
  O  O249  1  0.50761395  0.74963828  0.36616995  1
  O  O250  1  0.50811732  0.74577017  0.86703963  1
  O  O251  1  0.23953483  0.13150289  0.49851353  1
  O  O252  1  0.23577009  0.12732286  1.00221116  1
  O  O253  1  0.25226989  0.63438495  0.48876928  1
  O  O254  1  0.25950203  0.63774979  0.99970597  1
  O  O255  1  0.74569024  0.12921916  0.49275500  1
  O  O256  1  0.74232027  0.13342906  0.99326491  1
  O  O257  1  0.73463782  0.63613470  0.50114146  1
  O  O258  1  0.74669695  0.63198116  0.99530471  1
  O  O259  1  0.26260252  0.36614762  0.00566979  1
  O  O260  1  0.25376415  0.34996234  0.48513464  1
  O  O261  1  0.25840190  0.86817583  0.00265525  1
  O  O262  1  0.26663336  0.87188072  0.49264014  1
  O  O263  1  0.75593144  0.36821715  0.00561506  1
  O  O264  1  0.76144895  0.36291441  0.49563233  1
  O  O265  1  0.75978708  0.86796948  -0.00274542  1
  O  O266  1  0.74945249  0.86483448  0.49455499  1
  O  O267  1  0.13334047  0.49257514  0.25097521  1
  O  O268  1  0.12221893  0.48537549  0.75374671  1
  O  O269  1  0.12997825  0.99185876  0.24432647  1
  O  O270  1  0.13811765  0.99285970  0.75044458  1
  O  O271  1  0.63570176  0.49543802  0.24898094  1
  O  O272  1  0.63300935  0.49768648  0.74845286  1
  O  O273  1  0.62400946  1.00119592  0.23465446  1
  O  O274  1  0.62808168  1.00243915  0.73690956  1
  O  O275  1  0.37397466  0.00457750  0.25511349  1
  O  O276  1  0.36976899  0.01041417  0.75492579  1
  O  O277  1  0.37036594  0.50732211  0.25964437  1
  O  O278  1  0.38488974  0.51057795  0.76129150  1
  O  O279  1  0.87635957  0.01416019  0.24825227  1
  O  O280  1  0.85797914  0.00390783  0.74541668  1
  O  O281  1  0.87004341  0.50522316  0.25486194  1
  O  O282  1  0.86411535  0.51139241  0.76163863  1
  O  O283  1  0.11186096  0.37047193  0.37308202  1
  O  O284  1  0.13167381  0.37403510  0.86417547  1
  O  O285  1  0.11979096  0.87670827  0.36607148  1
  O  O286  1  0.11731526  0.86410694  0.86880517  1
  O  O287  1  0.62004192  0.36939526  0.36921948  1
  O  O288  1  0.61589917  0.38042218  0.86585536  1
  O  O289  1  0.62184671  0.86183320  0.37277457  1
  O  O290  1  0.62130755  0.86344104  0.88635771  1
  O  O291  1  0.38394570  0.11667247  0.13320723  1
  O  O292  1  0.37754072  0.12302111  0.63509154  1
  O  O293  1  0.38768063  0.62676013  0.13079712  1
  O  O294  1  0.38523251  0.63127851  0.63239184  1
  O  O295  1  0.88156290  0.13047463  0.12870424  1
  O  O296  1  0.85892494  0.12720123  0.64337069  1
  O  O297  1  0.88223885  0.63505870  0.13179200  1
  O  O298  1  0.86323895  0.64160419  0.64572179  1
  O  O299  1  0.24708895  0.25001211  0.10939420  1
  O  O300  1  0.24706862  0.25861939  0.60919326  1
  O  O301  1  0.25218847  0.75614170  0.11717121  1
  O  O302  1  0.26517429  0.74354201  0.61677878  1
  O  O303  1  0.75896224  0.25288394  0.11588452  1
  O  O304  1  0.74331325  0.24901714  0.61320756  1
  O  O305  1  0.75741021  0.74437475  0.11290367  1
  O  O306  1  0.75083515  0.75185180  0.61929540  1
  O  O307  1  0.23654048  0.24295175  0.38031396  1
  O  O308  1  0.25507843  0.25104162  0.89370237  1
  O  O309  1  0.25564956  0.74323620  0.38031500  1
  O  O310  1  0.24204854  0.74820253  0.88203715  1
  O  O311  1  0.74613841  0.23790830  0.37632697  1
  O  O312  1  0.75184946  0.25292385  0.88444257  1
  O  O313  1  0.74246350  0.74493694  0.38408393  1
  O  O314  1  0.74202568  0.74589859  0.88651778  1
  O  O315  1  0.01095459  0.12027063  -0.00069482  1
  O  O316  1  0.01446704  0.11647146  0.49988190  1
  O  O317  1  -0.00597004  0.62777175  0.01416483  1
  O  O318  1  0.01715324  0.67228065  0.51207183  1
  O  O319  1  0.50531277  0.12480232  0.00529266  1
  O  O320  1  0.51216387  0.11570756  0.49350903  1
  O  O321  1  0.50302755  0.62069195  0.00772889  1
  O  O322  1  0.51148427  0.62669709  0.51393240  1
  O  O323  1  0.50184183  0.37220273  0.48462898  1
  O  O324  1  0.49691345  0.37599420  0.99551762  1
  O  O325  1  0.48894509  0.88274673  0.49526349  1
  O  O326  1  0.47996971  0.87757064  1.00569758  1
  O  O327  1  0.99426386  0.36945358  0.49350672  1
  O  O328  1  0.99045930  0.37492428  1.00538556  1
  O  O329  1  1.00012964  0.88023768  0.49280544  1
  O  O330  1  0.99566993  0.88112445  0.99420648  1
  O  O331  1  0.49770106  0.49061073  0.37361536  1
  O  O332  1  0.49354770  0.49177137  0.88257893  1
  O  O333  1  0.49473154  0.99892983  0.38319351  1
  O  O334  1  0.47920378  0.99899784  0.87371715  1
  O  O335  1  0.99463677  0.49694461  0.37242437  1
  O  O336  1  0.98391281  0.51131036  0.87903051  1
  O  O337  1  0.99969715  0.98983742  0.38252388  1
  O  O338  1  1.00686840  0.98842612  0.87961598  1
  O  O339  1  0.00648889  0.00553833  0.11529597  1
  O  O340  1  0.00251106  -0.00977379  0.61499357  1
  O  O341  1  -0.00249996  0.51653366  0.12246178  1
  O  O342  1  -0.03834388  0.52044071  0.61784210  1
  O  O343  1  0.50845467  0.01218794  0.12034155  1
  O  O344  1  0.50971586  -0.00155457  0.61374607  1
  O  O345  1  0.50274801  0.50829121  0.11972358  1
  O  O346  1  0.51454031  0.51072912  0.62675265  1
  O  O347  1  0.24021086  0.38226146  0.25369777  1
  O  O348  1  0.24074022  0.37080969  0.74642517  1
  O  O349  1  0.24485221  0.88052491  0.24295921  1
  O  O350  1  0.24000679  0.88538820  0.74797357  1
  O  O351  1  0.74738571  0.38017640  0.24418919  1
  O  O352  1  0.74233386  0.38402680  0.75922714  1
  O  O353  1  0.74810321  0.87923837  0.24935621  1
  O  O354  1  0.75140185  0.88816541  0.75326571  1
  O  O355  1  0.25763257  0.11789187  0.24822585  1
  O  O356  1  0.26103703  0.11624415  0.74461435  1
  O  O357  1  0.25425684  0.62083516  0.25980965  1
  O  O358  1  0.26420590  0.62865731  0.75113466  1
  O  O359  1  0.75920992  0.12436760  0.25584143  1
  O  O360  1  0.75327778  0.11345575  0.75399537  1
  O  O361  1  0.76178238  0.61716910  0.25044333  1
  O  O362  1  0.75228454  0.62149290  0.76242762  1
  O  O363  1  0.37334947  0.11174035  0.36362483  1
  O  O364  1  0.37052439  0.11503617  0.87138317  1
  O  O365  1  0.37272093  0.62168971  0.36835379  1
  O  O366  1  0.37573423  0.61638403  0.86770277  1
  O  O367  1  0.86924561  0.12527652  0.36654977  1
  O  O368  1  0.86812111  0.12420387  0.85694755  1
  O  O369  1  0.87647722  0.61510691  0.36886662  1
  O  O370  1  0.86577543  0.62416051  0.86992675  1
  O  O371  1  0.13048237  0.37866367  0.13510808  1
  O  O372  1  0.10116333  0.39170183  0.63693959  1
  O  O373  1  0.13090660  0.88146908  0.13019267  1
  O  O374  1  0.11532447  0.85950292  0.63385316  1
  O  O375  1  0.63300867  0.37629116  0.13181582  1
  O  O376  1  0.62537672  0.39137086  0.63988366  1
  O  O377  1  0.61802838  0.89350614  0.12094614  1
  O  O378  1  0.62125970  0.88700769  0.62111797  1
  O  O379  1  0.12340037  0.25853792  0.25856076  1
  O  O380  1  0.11935409  0.26821611  0.74518855  1
  O  O381  1  0.12522512  0.76554340  0.25116747  1
  O  O382  1  0.11683843  0.75552857  0.75433712  1
  O  O383  1  0.62165762  0.25316293  0.25495225  1
  O  O384  1  0.61975438  0.25815006  0.74548736  1
  O  O385  1  0.61974308  0.74779264  0.25711386  1
  O  O386  1  0.61485595  0.74762400  0.76211901  1
  O  O387  1  0.37708862  0.23713873  0.25754839  1
  O  O388  1  0.37889385  0.23734767  0.75201294  1
  O  O389  1  0.38439131  0.74518914  0.24739602  1
  O  O390  1  0.37935236  0.74546724  0.74463064  1
  O  O391  1  0.88041779  0.24012523  0.24391728  1
  O  O392  1  0.88635969  0.24118324  0.75086050  1
  O  O393  1  0.87398613  0.74241774  0.24343682  1
  O  O394  1  0.87790271  0.74734737  0.75247579  1
  O  O395  1  0.38465681  0.51115941  0.48389426  1
  O  O396  1  0.38373590  0.49048797  0.99558093  1
  O  O397  1  0.38150092  0.99761674  0.49404432  1
  O  O398  1  0.37049414  0.99263952  0.98641839  1
  O  O399  1  0.86373498  0.48019626  0.48759898  1
  O  O400  1  0.87498840  0.49032576  0.99384342  1
  O  O401  1  0.88548189  1.00041692  0.50143164  1
  O  O402  1  0.87964757  0.98918034  1.00707132  1
  O  O403  1  0.12340733  0.00901037  0.00126722  1
  O  O404  1  0.12185439  0.01352112  0.49853488  1
  O  O405  1  0.12666419  0.50035491  0.00379555  1
  O  O406  1  0.11165665  0.49284761  0.48190019  1
  O  O407  1  0.62201134  0.00845602  0.00787586  1
  O  O408  1  0.61983905  0.00457760  0.50658920  1
  O  O409  1  0.61972717  0.50633363  0.00145199  1
  O  O410  1  0.62727495  0.50617977  0.50984987  1
  O  O411  1  0.37754855  0.37948207  0.11581400  1
  O  O412  1  0.38684946  0.38292261  0.62057194  1
  O  O413  1  0.36569928  0.87635664  0.11524322  1
  O  O414  1  0.38020086  0.86691902  0.61631372  1
  O  O415  1  0.87063109  0.36892472  0.11704122  1
  O  O416  1  0.88107133  0.37417295  0.60861494  1
  O  O417  1  0.88356825  0.86156344  0.11768867  1
  O  O418  1  0.87546574  0.86308844  0.62633445  1
  O  O419  1  0.12771057  0.13121612  0.37847762  1
  O  O420  1  0.12930338  0.11719495  0.88134343  1
  O  O421  1  0.13570679  0.63093896  0.37752614  1
  O  O422  1  0.12603028  0.64016530  0.86744981  1
  O  O423  1  0.63294763  0.12734271  0.37945543  1
  O  O424  1  0.62088955  0.11915534  0.88669730  1
  O  O425  1  0.62546480  0.63450324  0.38427929  1
  O  O426  1  0.62948081  0.63071272  0.88300407  1
