# generated using pymatgen
data_V85Zn86O256
_symmetry_space_group_name_H-M   'P 1'
_cell_length_a   16.93952438
_cell_length_b   16.95032046
_cell_length_c   16.94236534
_cell_angle_alpha   90.00485001
_cell_angle_beta   89.95616403
_cell_angle_gamma   89.92711387
_symmetry_Int_Tables_number   1
_chemical_formula_structural   V85Zn86O256
_chemical_formula_sum   'V85 Zn86 O256'
_cell_volume   4864.66219357
_cell_formula_units_Z   1
loop_
 _symmetry_equiv_pos_site_id
 _symmetry_equiv_pos_as_xyz
  1  'x, y, z'
loop_
 _atom_site_type_symbol
 _atom_site_label
 _atom_site_symmetry_multiplicity
 _atom_site_fract_x
 _atom_site_fract_y
 _atom_site_fract_z
 _atom_site_occupancy
  V  V0  1  0.25434245  0.87627806  0.12898501  1
  V  V1  1  0.74142189  0.37225721  0.62824198  1
  V  V2  1  0.25530482  0.75447096  0.49848060  1
  V  V3  1  0.12824799  0.37208653  0.24451271  1
  V  V4  1  0.37188829  0.49051631  0.37878904  1
  V  V5  1  0.25035124  0.25197887  0.00873585  1
  V  V6  1  0.60874682  -0.00089636  0.62458057  1
  V  V7  1  0.86956962  0.87459541  0.50966997  1
  V  V8  1  0.87260149  0.25054566  0.12478175  1
  V  V9  1  0.37408149  0.00077955  0.87160560  1
  V  V10  1  0.50089694  0.50062953  0.00322831  1
  V  V11  1  0.51129221  0.24932357  0.74263461  1
  V  V12  1  0.62099223  0.38088024  0.25261538  1
  V  V13  1  -0.00119154  0.62092310  0.12095113  1
  V  V14  1  0.12305765  0.49697188  0.11908509  1
  V  V15  1  -0.00013126  0.37891629  0.87799398  1
  V  V16  1  0.74431011  0.63328434  0.37660532  1
  V  V17  1  0.37636625  0.62474742  0.24684508  1
  V  V18  1  0.75056425  0.24727789  -0.00560644  1
  V  V19  1  0.88613219  0.12607156  0.74784582  1
  V  V20  1  0.24026054  0.88099393  0.62301589  1
  V  V21  1  0.12610934  0.75061278  0.37404817  1
  V  V22  1  0.89044095  0.25032092  0.62304042  1
  V  V23  1  0.00044088  0.75084332  0.24901821  1
  V  V24  1  0.13747839  0.38240761  0.75044458  1
  V  V25  1  0.87137545  0.50134670  0.37519809  1
  V  V26  1  0.87706298  0.49935093  0.87838183  1
  V  V27  1  0.62091419  0.61838130  0.50487073  1
  V  V28  1  0.87589090  0.37490670  0.50387218  1
  V  V29  1  0.24841369  0.62417499  0.37319161  1
  V  V30  1  0.74311689  0.49505134  0.75103032  1
  V  V31  1  -0.00027151  0.50144086  0.50348999  1
  V  V32  1  0.62620919  0.62134882  0.00810139  1
  V  V33  1  -0.00146424  0.37522388  0.37312457  1
  V  V34  1  0.87384139  -0.00294820  0.88008641  1
  V  V35  1  0.12320041  0.87482116  0.76629865  1
  V  V36  1  0.13070434  -0.00051063  0.12936342  1
  V  V37  1  0.24679705  0.62545497  0.86932497  1
  V  V38  1  0.12255875  0.62796868  -0.00343646  1
  V  V39  1  0.12829319  0.12129549  0.51453560  1
  V  V40  1  0.87389096  0.62643404  0.24954300  1
  V  V41  1  0.56718120  0.80638915  0.42075325  1
  V  V42  1  0.25210058  0.74990888  -0.00406899  1
  V  V43  1  -0.00367154  -0.00926732  0.00256713  1
  V  V44  1  0.62000856  0.24790660  0.37208398  1
  V  V45  1  0.12379075  0.24986442  0.87399017  1
  V  V46  1  0.37271064  0.62196452  0.74490189  1
  V  V47  1  0.50545435  0.74987892  0.24585935  1
  V  V48  1  0.62525466  0.74942605  0.87475755  1
  V  V49  1  0.75077135  0.12674365  0.38066277  1
  V  V50  1  -0.00058844  0.25027222  0.24802025  1
  V  V51  1  0.56726586  0.17465612  0.05636857  1
  V  V52  1  0.62238732  0.87353276  0.24927309  1
  V  V53  1  0.12986306  0.24205034  0.37425398  1
  V  V54  1  0.75443626  -0.00203285  0.73754718  1
  V  V55  1  0.37635673  0.75403575  0.62297438  1
  V  V56  1  0.50094670  0.87428364  0.86960732  1
  V  V57  1  0.74684769  0.38186847  0.12622271  1
  V  V58  1  0.74892528  0.62404114  0.87339987  1
  V  V59  1  0.50646395  -0.00040888  -0.00406537  1
  V  V60  1  0.62005467  0.00039796  0.12208929  1
  V  V61  1  0.25088503  0.49444543  0.24281543  1
  V  V62  1  0.73929155  0.12798680  0.87309800  1
  V  V63  1  0.38586241  -0.01400385  0.38581159  1
  V  V64  1  0.37665824  0.12719626  0.73659934  1
  V  V65  1  0.50002927  0.74160991  0.74876660  1
  V  V66  1  0.87676974  0.00103233  0.37553040  1
  V  V67  1  0.75723123  0.87788903  0.11926344  1
  V  V68  1  0.00135086  0.87763750  0.37530668  1
  V  V69  1  0.38364996  0.12063346  0.24647918  1
  V  V70  1  0.36959068  0.49657720  0.87064596  1
  V  V71  1  0.51045743  0.37188546  0.86696809  1
  V  V72  1  0.74810475  0.00145467  0.24982909  1
  V  V73  1  0.00580854  0.00176954  0.51565687  1
  V  V74  1  0.25059445  0.12550745  0.87487708  1
  V  V75  1  0.12453992  0.62518446  0.50077082  1
  V  V76  1  0.49326628  0.36832510  0.37676368  1
  V  V77  1  0.75551540  0.75516380  -0.00215070  1
  V  V78  1  0.49500475  0.49699715  0.50636999  1
  V  V79  1  0.36900802  0.26849986  0.62009043  1
  V  V80  1  0.37102755  0.37415586  0.00632214  1
  V  V81  1  0.61017793  0.12433512  0.50632015  1
  V  V82  1  0.13695188  0.50029909  0.62916187  1
  V  V83  1  -0.00315523  0.63084836  0.62752042  1
  V  V84  1  0.00059591  0.12497992  0.12246659  1
  Zn  Zn85  1  0.00409607  0.74529206  0.76527541  1
  Zn  Zn86  1  0.25779759  0.25879363  0.49943133  1
  Zn  Zn87  1  0.13084482  0.87866995  0.25230846  1
  Zn  Zn88  1  0.87494029  0.62719106  0.75028971  1
  Zn  Zn89  1  0.74458180  0.50435571  0.24577606  1
  Zn  Zn90  1  0.38436785  0.24433081  0.12979048  1
  Zn  Zn91  1  0.61609997  0.49695612  0.63225638  1
  Zn  Zn92  1  0.24384579  0.00387570  0.74223117  1
  Zn  Zn93  1  0.25088719  0.10688501  0.36456386  1
  Zn  Zn94  1  0.74674034  0.75185928  0.50428667  1
  Zn  Zn95  1  0.37818151  0.75106076  0.12304180  1
  Zn  Zn96  1  -0.00500812  0.86446097  0.88550995  1
  Zn  Zn97  1  0.00672121  0.24990631  0.74381703  1
  Zn  Zn98  1  0.86344626  0.75384336  0.63415400  1
  Zn  Zn99  1  0.87385322  0.12610865  0.25270153  1
  Zn  Zn100  1  0.87854550  0.75529611  0.12147281  1
  Zn  Zn101  1  0.63562942  0.86996841  0.74489308  1
  Zn  Zn102  1  0.50504312  0.61831729  0.12802436  1
  Zn  Zn103  1  0.75131164  0.24915061  0.50302007  1
  Zn  Zn104  1  0.88079298  0.37723559  0.00161062  1
  Zn  Zn105  1  0.37695673  0.87423988  0.00034233  1
  Zn  Zn106  1  0.12540135  0.12404137  -0.00125330  1
  Zn  Zn107  1  0.19257848  0.18064235  0.18938196  1
  Zn  Zn108  1  0.19153710  0.19154348  0.68962581  1
  Zn  Zn109  1  0.18835648  0.68923568  0.18466013  1
  Zn  Zn110  1  0.18494275  0.69202538  0.68798704  1
  Zn  Zn111  1  0.69057644  0.19335426  0.19493468  1
  Zn  Zn112  1  0.69549663  0.18409636  0.68370569  1
  Zn  Zn113  1  0.68961623  0.69039708  0.18639135  1
  Zn  Zn114  1  0.68962041  0.68425320  0.68419191  1
  Zn  Zn115  1  0.31255775  0.30399436  0.30480139  1
  Zn  Zn116  1  0.31567085  0.31002419  0.81315550  1
  Zn  Zn117  1  0.31787692  0.81708663  0.31236515  1
  Zn  Zn118  1  0.30976335  0.81232608  0.81091147  1
  Zn  Zn119  1  0.80929292  0.31278762  0.31277117  1
  Zn  Zn120  1  0.81423836  0.31169121  0.80939473  1
  Zn  Zn121  1  0.81265689  0.81427509  0.31358643  1
  Zn  Zn122  1  0.81749853  0.81339689  0.81134881  1
  Zn  Zn123  1  0.18783044  0.43401182  0.43601171  1
  Zn  Zn124  1  0.18921439  0.43860556  0.93688138  1
  Zn  Zn125  1  0.19282473  0.93932645  0.43589847  1
  Zn  Zn126  1  0.18897664  0.94070310  0.94466086  1
  Zn  Zn127  1  0.68712327  0.43687050  0.43993185  1
  Zn  Zn128  1  0.68888522  0.43687684  0.93913687  1
  Zn  Zn129  1  0.68846553  0.94720850  0.44341050  1
  Zn  Zn130  1  0.68798050  0.93914069  0.93195551  1
  Zn  Zn131  1  0.31729669  0.06369886  0.06348080  1
  Zn  Zn132  1  0.31413171  0.06179803  0.55221898  1
  Zn  Zn133  1  0.31154275  0.56161188  0.06138789  1
  Zn  Zn134  1  0.31401574  0.56561245  0.56149815  1
  Zn  Zn135  1  0.81035044  0.06635569  0.06015362  1
  Zn  Zn136  1  0.81896752  0.06638428  0.56239823  1
  Zn  Zn137  1  0.81432932  0.56337128  0.05918546  1
  Zn  Zn138  1  0.80931516  0.56291112  0.56515282  1
  Zn  Zn139  1  0.43859315  0.43314910  0.18882720  1
  Zn  Zn140  1  0.43369582  0.43533089  0.68969679  1
  Zn  Zn141  1  0.43660390  0.94221787  0.19131312  1
  Zn  Zn142  1  0.43180972  0.93275284  0.68841205  1
  Zn  Zn143  1  0.93594129  0.43858754  0.18747267  1
  Zn  Zn144  1  0.93967839  0.43847903  0.69250259  1
  Zn  Zn145  1  0.93817250  0.93975573  0.19042187  1
  Zn  Zn146  1  0.94162698  0.93633143  0.69358274  1
  Zn  Zn147  1  0.06263536  0.06255693  0.30961812  1
  Zn  Zn148  1  0.06407439  0.05600576  0.81206308  1
  Zn  Zn149  1  0.06141838  0.56157938  0.30999663  1
  Zn  Zn150  1  0.06143243  0.56129906  0.81278929  1
  Zn  Zn151  1  0.55643817  0.06347499  0.31254906  1
  Zn  Zn152  1  0.56235173  0.06559611  0.80581230  1
  Zn  Zn153  1  0.56035814  0.56049025  0.31881761  1
  Zn  Zn154  1  0.56148511  0.56118769  0.81632514  1
  Zn  Zn155  1  0.43221945  0.18249144  0.43385708  1
  Zn  Zn156  1  0.43318202  0.19279572  0.92726901  1
  Zn  Zn157  1  0.43291937  0.67893638  0.43801987  1
  Zn  Zn158  1  0.43523730  0.68532176  0.93611445  1
  Zn  Zn159  1  0.94322608  0.18696904  0.43999644  1
  Zn  Zn160  1  0.93554154  0.18482013  0.93563166  1
  Zn  Zn161  1  0.93569627  0.68945791  0.43909458  1
  Zn  Zn162  1  0.93643108  0.68583593  0.93657523  1
  Zn  Zn163  1  0.06365234  0.31210982  0.05967056  1
  Zn  Zn164  1  0.08793609  0.32195843  0.55238243  1
  Zn  Zn165  1  0.06671065  0.80977977  0.06290086  1
  Zn  Zn166  1  0.06364288  0.81242558  0.56286981  1
  Zn  Zn167  1  0.56554412  0.33688647  0.05915986  1
  Zn  Zn168  1  0.55891178  0.30964599  0.55908542  1
  Zn  Zn169  1  0.56453717  0.81262844  0.06190288  1
  Zn  Zn170  1  0.56865881  0.81045235  0.58182201  1
  O  O171  1  0.11716046  0.11910651  0.12259968  1
  O  O172  1  0.12737770  0.12946762  0.61325653  1
  O  O173  1  0.11851291  0.61700056  0.12026693  1
  O  O174  1  0.11920152  0.61942457  0.62098964  1
  O  O175  1  0.62575738  0.12116116  0.12502642  1
  O  O176  1  0.62946126  0.11684772  0.61298107  1
  O  O177  1  0.62632874  0.62619359  0.11228989  1
  O  O178  1  0.62567059  0.61944783  0.60931229  1
  O  O179  1  0.37832011  0.38124418  0.36974349  1
  O  O180  1  0.38127009  0.38171207  0.88028521  1
  O  O181  1  0.38192354  0.88446444  0.37244877  1
  O  O182  1  0.38128173  0.88400426  0.87431670  1
  O  O183  1  0.87852017  0.38204496  0.38026393  1
  O  O184  1  0.88344278  0.37988403  0.87523930  1
  O  O185  1  0.88348241  0.88097430  0.38290118  1
  O  O186  1  0.87579946  0.89287358  0.87340164  1
  O  O187  1  0.26795471  -0.00612677  0.37666160  1
  O  O188  1  0.25911222  0.00811536  0.87755549  1
  O  O189  1  0.25345197  0.50161199  0.36748700  1
  O  O190  1  0.26252059  0.50921467  0.87994212  1
  O  O191  1  0.75509023  0.00801444  0.37057318  1
  O  O192  1  0.75627813  0.00970199  0.86904108  1
  O  O193  1  0.76156689  0.50598754  0.37555992  1
  O  O194  1  0.75350363  0.50253591  0.86917376  1
  O  O195  1  0.24235615  0.50374794  0.13650411  1
  O  O196  1  0.23609222  0.50549437  0.61929652  1
  O  O197  1  0.24130953  0.98970985  0.11206117  1
  O  O198  1  0.25845609  0.98287490  0.62224969  1
  O  O199  1  0.75679677  0.48549420  0.12434344  1
  O  O200  1  0.74892586  0.49063648  0.63471571  1
  O  O201  1  0.73970710  0.99742533  0.12610853  1
  O  O202  1  0.75072446  1.00653378  0.63583068  1
  O  O203  1  0.00426064  0.36938763  0.25365446  1
  O  O204  1  0.00906244  0.37264999  0.76358377  1
  O  O205  1  0.00118485  0.86837583  0.25805180  1
  O  O206  1  0.01342919  0.87617516  0.75745235  1
  O  O207  1  0.50703999  0.37802561  0.26370099  1
  O  O208  1  0.49848803  0.36671036  0.75899450  1
  O  O209  1  0.51460973  0.86731781  0.24351493  1
  O  O210  1  0.50009183  0.86439558  0.75877453  1
  O  O211  1  0.48635690  0.12813641  0.25149017  1
  O  O212  1  0.49040011  0.14178882  0.75662953  1
  O  O213  1  0.49494659  0.62888662  0.24927659  1
  O  O214  1  0.48990728  0.63443840  0.75818750  1
  O  O215  1  0.99692788  0.13030063  0.23745694  1
  O  O216  1  0.99000656  0.12595592  0.75515442  1
  O  O217  1  0.99524244  0.63097179  0.24184873  1
  O  O218  1  0.99971360  0.62527476  0.74084788  1
  O  O219  1  0.36769607  0.25681702  -0.00101958  1
  O  O220  1  0.37559799  0.24653548  0.51574098  1
  O  O221  1  0.36746230  0.75024450  0.00259771  1
  O  O222  1  0.36679292  0.74136341  0.50917476  1
  O  O223  1  0.86720577  0.25288073  0.00705749  1
  O  O224  1  0.87611682  0.25579170  0.50583256  1
  O  O225  1  0.85886894  0.74430132  0.00317636  1
  O  O226  1  0.87824960  0.76785869  0.50108491  1
  O  O227  1  0.10454792  0.22522872  0.48636635  1
  O  O228  1  0.13269468  0.24775896  0.99113747  1
  O  O229  1  0.13227141  0.74381934  0.49329069  1
  O  O230  1  0.13466334  0.73421886  1.00603600  1
  O  O231  1  0.62868723  0.23757774  0.49507573  1
  O  O232  1  0.62761011  0.24230436  1.00679644  1
  O  O233  1  0.62015921  0.74482291  0.49137169  1
  O  O234  1  0.63275524  0.74299489  0.99438742  1
  O  O235  1  0.50874493  0.24080009  0.10606509  1
  O  O236  1  0.48834518  0.25902347  0.63674480  1
  O  O237  1  0.49946492  0.74507001  0.13260398  1
  O  O238  1  0.49051257  0.75112384  0.63673268  1
  O  O239  1  0.99329426  0.24438835  0.12680694  1
  O  O240  1  0.99237456  0.26065030  0.62250973  1
  O  O241  1  0.99890615  0.74264550  0.13108041  1
  O  O242  1  1.00027503  0.73645527  0.62169831  1
  O  O243  1  0.00727981  0.25336545  0.36554799  1
  O  O244  1  0.01306195  0.25286051  0.87504986  1
  O  O245  1  0.00379767  0.76011212  0.37155338  1
  O  O246  1  0.00331496  0.75188638  0.88056795  1
  O  O247  1  0.50819607  0.25675379  0.38305917  1
  O  O248  1  0.49590624  0.26422834  0.86082464  1
  O  O249  1  0.50105301  0.74659980  0.36680097  1
  O  O250  1  0.50329004  0.75654819  0.87027994  1
  O  O251  1  0.23446792  0.12888633  0.49588866  1
  O  O252  1  0.25174625  0.13194737  0.98827477  1
  O  O253  1  0.24517844  0.63454203  0.49241253  1
  O  O254  1  0.24486626  0.63025275  0.99247424  1
  O  O255  1  0.74600146  0.12327657  0.48981719  1
  O  O256  1  0.75185689  0.13825636  0.99124376  1
  O  O257  1  0.74104455  0.62321242  0.49225406  1
  O  O258  1  0.74246983  0.63058188  0.99413990  1
  O  O259  1  0.25970376  0.36582040  -0.00731318  1
  O  O260  1  0.19391092  0.35205251  0.50783266  1
  O  O261  1  0.25214543  0.86517828  0.00661313  1
  O  O262  1  0.24330580  0.86236475  0.51025507  1
  O  O263  1  0.74600741  0.36227977  0.00781064  1
  O  O264  1  0.75995638  0.37462356  0.50795779  1
  O  O265  1  0.74223944  0.86753044  0.00684136  1
  O  O266  1  0.76764068  0.87888591  0.49425481  1
  O  O267  1  0.13134356  0.49318303  0.24215321  1
  O  O268  1  0.12617410  0.49093974  0.74541780  1
  O  O269  1  0.11992369  0.99712222  0.23389867  1
  O  O270  1  0.12874322  0.98393742  0.75052981  1
  O  O271  1  0.62730304  0.48617148  0.25900224  1
  O  O272  1  0.63633605  0.50383501  0.74979169  1
  O  O273  1  0.62831662  0.99410963  0.24237521  1
  O  O274  1  0.63537746  1.00515041  0.73624109  1
  O  O275  1  0.37933883  0.01136319  0.25816089  1
  O  O276  1  0.37333123  0.00705729  0.75902611  1
  O  O277  1  0.36759944  0.50258406  0.25489142  1
  O  O278  1  0.37879452  0.50956791  0.75743743  1
  O  O279  1  0.86629099  0.00291176  0.25692796  1
  O  O280  1  0.86970283  0.00720200  0.75387294  1
  O  O281  1  0.87231534  0.50749875  0.25878343  1
  O  O282  1  0.86368815  0.50089498  0.76125560  1
  O  O283  1  0.11502607  0.37023876  0.35873237  1
  O  O284  1  0.12094377  0.37164517  0.86840229  1
  O  O285  1  0.11773688  0.86984632  0.37395862  1
  O  O286  1  0.12879684  0.87725589  0.86818567  1
  O  O287  1  0.61950114  0.36617353  0.37232643  1
  O  O288  1  0.60857295  0.37821652  0.87799601  1
  O  O289  1  0.63253667  0.87142891  0.36958647  1
  O  O290  1  0.61730338  0.86875426  0.86855862  1
  O  O291  1  0.37692168  0.12464564  0.13603766  1
  O  O292  1  0.36930203  0.12319152  0.63556662  1
  O  O293  1  0.37641676  0.62259359  0.13784094  1
  O  O294  1  0.36671440  0.63464739  0.63870000  1
  O  O295  1  0.87913813  0.13648760  0.12690781  1
  O  O296  1  0.87430181  0.13709378  0.63370155  1
  O  O297  1  0.88268087  0.62486883  0.13039068  1
  O  O298  1  0.88412867  0.62497841  0.62625705  1
  O  O299  1  0.24821286  0.24725472  0.11010146  1
  O  O300  1  0.26653310  0.24833550  0.62540593  1
  O  O301  1  0.25340990  0.75459015  0.11361483  1
  O  O302  1  0.25519495  0.75609385  0.61658801  1
  O  O303  1  0.75714358  0.25614401  0.12036088  1
  O  O304  1  0.76210902  0.25824047  0.62409799  1
  O  O305  1  0.75063568  0.76117877  0.11677000  1
  O  O306  1  0.74979168  0.74996075  0.61775036  1
  O  O307  1  0.23486810  0.25277267  0.37693662  1
  O  O308  1  0.24158449  0.24351607  0.87939543  1
  O  O309  1  0.24801719  0.74680195  0.38072015  1
  O  O310  1  0.25485639  0.74141993  0.88682477  1
  O  O311  1  0.74311353  0.24216620  0.37910660  1
  O  O312  1  0.75532618  0.24336800  0.88243623  1
  O  O313  1  0.75776433  0.73680114  0.38142958  1
  O  O314  1  0.74555025  0.74641941  0.88021968  1
  O  O315  1  -0.00038890  0.12022850  0.01178979  1
  O  O316  1  0.00697832  0.10635482  0.49498050  1
  O  O317  1  0.00767102  0.62629468  0.01287351  1
  O  O318  1  0.00412541  0.61997804  0.50508878  1
  O  O319  1  0.50530424  0.12150622  -0.00904577  1
  O  O320  1  0.51263018  0.12903770  0.50172452  1
  O  O321  1  0.50685749  0.61713599  -0.00055078  1
  O  O322  1  0.50791696  0.61008090  0.49016424  1
  O  O323  1  0.50339633  0.38231787  0.48560894  1
  O  O324  1  0.49218198  0.38143479  0.98569387  1
  O  O325  1  0.51641839  0.85923561  0.48580356  1
  O  O326  1  0.50095526  0.88159415  0.98694893  1
  O  O327  1  0.99715811  0.38300412  0.49214825  1
  O  O328  1  1.00098243  0.37113463  0.98470316  1
  O  O329  1  0.99728662  0.88500530  0.49424881  1
  O  O330  1  1.00149830  0.88699241  1.00565407  1
  O  O331  1  0.48794432  0.49093151  0.38161238  1
  O  O332  1  0.49001012  0.49133456  0.87996467  1
  O  O333  1  0.48844114  0.99913480  0.37344706  1
  O  O334  1  0.49720368  0.99350298  0.87531734  1
  O  O335  1  0.98893006  0.49784221  0.37910400  1
  O  O336  1  0.98951174  0.49235361  0.87183081  1
  O  O337  1  0.99669952  0.98940605  0.37531659  1
  O  O338  1  0.99273208  0.99997002  0.88741227  1
  O  O339  1  0.00281294  0.00779953  0.12058683  1
  O  O340  1  0.00089870  -0.00193481  0.61360283  1
  O  O341  1  0.00948035  0.50912739  0.13123825  1
  O  O342  1  0.00584615  0.50922531  0.62034914  1
  O  O343  1  0.51241468  -0.00536461  0.11360819  1
  O  O344  1  0.51036611  -0.00099160  0.63446788  1
  O  O345  1  0.49606843  0.49742253  0.10841876  1
  O  O346  1  0.49695270  0.49124242  0.61112641  1
  O  O347  1  0.24035436  0.38265926  0.25239167  1
  O  O348  1  0.23623533  0.37476262  0.75878112  1
  O  O349  1  0.24835303  0.86358410  0.23290202  1
  O  O350  1  0.24072758  0.87545665  0.74078072  1
  O  O351  1  0.74281594  0.37710533  0.24300040  1
  O  O352  1  0.75293180  0.38177028  0.74098004  1
  O  O353  1  0.74067303  0.87925862  0.24332508  1
  O  O354  1  0.75098439  0.89423282  0.75754299  1
  O  O355  1  0.26620253  0.12770707  0.25207392  1
  O  O356  1  0.25607744  0.12315617  0.75958477  1
  O  O357  1  0.25613712  0.61824475  0.25446963  1
  O  O358  1  0.25473097  0.63304991  0.76237681  1
  O  O359  1  0.74902854  0.11999656  0.26331657  1
  O  O360  1  0.76111142  0.11769505  0.75567227  1
  O  O361  1  0.75425403  0.62425093  0.25696101  1
  O  O362  1  0.75034732  0.61609810  0.75883106  1
  O  O363  1  0.37094407  0.11841564  0.36635202  1
  O  O364  1  0.36794666  0.12016176  0.86515640  1
  O  O365  1  0.36852505  0.61369478  0.36283454  1
  O  O366  1  0.36777387  0.61766989  0.86649070  1
  O  O367  1  0.86848334  0.12009726  0.37612746  1
  O  O368  1  0.86893071  0.11740539  0.86658033  1
  O  O369  1  0.86995124  0.61818157  0.37137629  1
  O  O370  1  0.86552785  0.61560036  0.87607411  1
  O  O371  1  0.11731832  0.38199240  0.13533407  1
  O  O372  1  0.11614230  0.38662955  0.64499087  1
  O  O373  1  0.13371848  0.88239636  0.12506802  1
  O  O374  1  0.13760890  0.87283063  0.62857248  1
  O  O375  1  0.63440529  0.37142856  0.13897433  1
  O  O376  1  0.63852976  0.37406937  0.61745507  1
  O  O377  1  0.63359336  0.88274836  0.13086672  1
  O  O378  1  0.62835427  0.89376731  0.62818528  1
  O  O379  1  0.12099421  0.25526117  0.25240550  1
  O  O380  1  0.12543362  0.26077120  0.75658063  1
  O  O381  1  0.11712998  0.74947882  0.25664985  1
  O  O382  1  0.12241002  0.76899244  0.74514152  1
  O  O383  1  0.62859864  0.25964884  0.26562158  1
  O  O384  1  0.61010820  0.24328972  0.73867529  1
  O  O385  1  0.61634899  0.75651086  0.24878627  1
  O  O386  1  0.61628548  0.74840273  0.75447690  1
  O  O387  1  0.37727055  0.23733917  0.24467250  1
  O  O388  1  0.38032320  0.24546573  0.73931621  1
  O  O389  1  0.38647476  0.74078663  0.24927543  1
  O  O390  1  0.38060880  0.74286919  0.74566172  1
  O  O391  1  0.87935522  0.24935427  0.24190283  1
  O  O392  1  0.88135042  0.24273123  0.74201539  1
  O  O393  1  0.88231721  0.74440009  0.24804998  1
  O  O394  1  0.88310379  0.74692143  0.74880040  1
  O  O395  1  0.37863581  0.50547540  0.48796473  1
  O  O396  1  0.37966550  0.49403494  0.99243376  1
  O  O397  1  0.38113720  1.00064059  0.48714837  1
  O  O398  1  0.38952377  1.00223778  0.98757604  1
  O  O399  1  0.88022481  0.49576545  0.49378761  1
  O  O400  1  0.86688725  0.49386403  0.98475487  1
  O  O401  1  0.88727187  0.99282337  0.49674202  1
  O  O402  1  0.88301972  1.00773656  0.99269488  1
  O  O403  1  0.11456382  0.00431448  0.00941995  1
  O  O404  1  0.11576875  0.00916964  0.49709048  1
  O  O405  1  0.13303712  0.50771697  0.01376861  1
  O  O406  1  0.11746235  0.50830398  0.50570059  1
  O  O407  1  0.61495770  -0.00062359  0.00319035  1
  O  O408  1  0.62532090  0.01097981  0.51356118  1
  O  O409  1  0.61514257  0.50904067  -0.00679480  1
  O  O410  1  0.61451822  0.50353625  0.50183308  1
  O  O411  1  0.38390718  0.36823350  0.11024123  1
  O  O412  1  0.36860582  0.36743041  0.62429078  1
  O  O413  1  0.36943675  0.87563202  0.12100249  1
  O  O414  1  0.36239461  0.86008580  0.63216685  1
  O  O415  1  0.87007555  0.36505051  0.12350022  1
  O  O416  1  0.87119642  0.37071715  0.62065393  1
  O  O417  1  0.86082533  0.87795398  0.12904277  1
  O  O418  1  0.88245003  0.87642427  0.61239512  1
  O  O419  1  0.12943504  0.12963707  0.37308842  1
  O  O420  1  0.13234623  0.13227054  0.87417751  1
  O  O421  1  0.12977781  0.62911963  0.37876476  1
  O  O422  1  0.13423624  0.61409813  0.88571416  1
  O  O423  1  0.62976795  0.12873867  0.38507949  1
  O  O424  1  0.63987034  0.12239441  0.86827810  1
  O  O425  1  0.63585219  0.61755992  0.38503756  1
  O  O426  1  0.63023833  0.63071993  0.88420853  1
