# generated using pymatgen
data_V85Zn86O256
_symmetry_space_group_name_H-M   'P 1'
_cell_length_a   16.94743272
_cell_length_b   16.94839652
_cell_length_c   16.94175719
_cell_angle_alpha   89.96235120
_cell_angle_beta   90.05176131
_cell_angle_gamma   90.00334949
_symmetry_Int_Tables_number   1
_chemical_formula_structural   V85Zn86O256
_chemical_formula_sum   'V85 Zn86 O256'
_cell_volume   4866.20853453
_cell_formula_units_Z   1
loop_
 _symmetry_equiv_pos_site_id
 _symmetry_equiv_pos_as_xyz
  1  'x, y, z'
loop_
 _atom_site_type_symbol
 _atom_site_label
 _atom_site_symmetry_multiplicity
 _atom_site_fract_x
 _atom_site_fract_y
 _atom_site_fract_z
 _atom_site_occupancy
  V  V0  1  0.75139903  -0.00141711  0.75865394  1
  V  V1  1  0.37839266  0.75430426  0.62829325  1
  V  V2  1  0.74242783  0.88499588  0.12521674  1
  V  V3  1  0.50345741  0.00498580  0.00822318  1
  V  V4  1  0.74866092  0.62845790  0.37557967  1
  V  V5  1  0.24507462  0.12907906  0.87854891  1
  V  V6  1  0.38620727  0.24187299  0.13217427  1
  V  V7  1  0.24489275  0.50194266  0.74152524  1
  V  V8  1  0.88066577  0.24435028  0.12517588  1
  V  V9  1  0.49838862  0.37686597  0.87424381  1
  V  V10  1  0.50236613  0.62789333  0.12177851  1
  V  V11  1  0.75492606  0.37360539  0.12418380  1
  V  V12  1  0.50080974  0.50284458  -0.00037466  1
  V  V13  1  0.37364557  0.50004212  0.87495908  1
  V  V14  1  0.12001776  0.12101762  0.48717270  1
  V  V15  1  -0.00298314  0.86853180  0.87980898  1
  V  V16  1  0.26469230  0.10794157  0.36575126  1
  V  V17  1  0.49395581  0.86958646  0.37891666  1
  V  V18  1  0.90755355  0.03008995  0.89151461  1
  V  V19  1  0.13868795  0.48601730  0.13628791  1
  V  V20  1  0.37683198  0.00246924  0.87490760  1
  V  V21  1  0.63264059  0.87533864  0.25951463  1
  V  V22  1  0.87400643  0.74946242  0.12590287  1
  V  V23  1  0.87845817  0.62400445  0.25310909  1
  V  V24  1  0.12749372  0.74969211  0.87823718  1
  V  V25  1  0.11261551  0.00098035  0.62195620  1
  V  V26  1  0.37051632  0.25654388  0.62089074  1
  V  V27  1  0.75315321  0.50118673  0.24970302  1
  V  V28  1  -0.00198062  0.24265815  0.25172369  1
  V  V29  1  0.12501869  0.74952346  0.37318062  1
  V  V30  1  0.12298039  0.37687080  0.74052577  1
  V  V31  1  0.24774808  0.00314684  0.74900337  1
  V  V32  1  0.49839201  0.25208749  0.74791505  1
  V  V33  1  0.50183118  0.63006438  0.63049600  1
  V  V34  1  0.74790235  0.62438247  0.88408768  1
  V  V35  1  0.24365313  0.25029075  0.00960763  1
  V  V36  1  0.37155700  0.87738295  0.00023563  1
  V  V37  1  0.37113959  0.37419003  0.00777520  1
  V  V38  1  0.62761791  0.50564278  0.11720442  1
  V  V39  1  0.61940772  0.37747541  0.25075473  1
  V  V40  1  0.00072419  0.49841654  0.00524740  1
  V  V41  1  0.87628093  0.75091498  0.62496840  1
  V  V42  1  0.25188800  0.61096783  0.37223192  1
  V  V43  1  0.61529953  0.74349465  0.87961161  1
  V  V44  1  0.49806404  0.12526737  0.62388089  1
  V  V45  1  0.75054308  0.87468690  0.62861429  1
  V  V46  1  0.00337417  0.61736713  0.62402204  1
  V  V47  1  0.62510970  0.63132211  0.49758306  1
  V  V48  1  0.61582810  0.86995950  0.75185813  1
  V  V49  1  0.37281094  0.12876539  0.74844431  1
  V  V50  1  0.37658573  0.62852795  0.75073075  1
  V  V51  1  0.75004227  0.25235700  0.48859667  1
  V  V52  1  0.86057582  0.11467690  0.24653497  1
  V  V53  1  0.62622714  0.50032959  0.62360137  1
  V  V54  1  0.76298972  0.36932693  0.61854683  1
  V  V55  1  0.63004856  0.12659078  0.50227468  1
  V  V56  1  0.10295159  0.00508898  0.11010892  1
  V  V57  1  0.00228331  0.37635052  0.87534328  1
  V  V58  1  0.62336353  0.12424809  0.00516013  1
  V  V59  1  0.62594210  0.24983472  0.87484615  1
  V  V60  1  0.24267083  0.24997238  0.49675514  1
  V  V61  1  0.00350882  0.88837262  0.37907398  1
  V  V62  1  0.85653866  0.00157207  0.37797498  1
  V  V63  1  0.25110946  0.62540218  0.87663934  1
  V  V64  1  0.16993590  0.30281105  0.31345470  1
  V  V65  1  0.12381013  0.87642219  0.75060406  1
  V  V66  1  0.62578909  0.37458712  0.74688239  1
  V  V67  1  0.24837659  0.87698792  0.62262822  1
  V  V68  1  0.49246824  0.00077463  0.49757440  1
  V  V69  1  0.87312512  0.87453047  -0.00264934  1
  V  V70  1  0.60234111  0.21182720  0.33730192  1
  V  V71  1  0.12570084  0.62343431  0.00680599  1
  V  V72  1  0.25057744  0.75286816  0.01131656  1
  V  V73  1  0.87153153  0.13380586  0.74383314  1
  V  V74  1  0.30159222  0.93667828  0.18431236  1
  V  V75  1  0.75111186  0.50139054  0.74982100  1
  V  V76  1  0.12539898  0.88258822  0.24329971  1
  V  V77  1  0.12290881  0.61882464  0.50196824  1
  V  V78  1  -0.01755838  0.36622262  0.37711691  1
  V  V79  1  0.37423057  0.61141058  0.25383442  1
  V  V80  1  -0.00346145  0.13293226  0.62041660  1
  V  V81  1  0.50583033  0.74321066  0.25906306  1
  V  V82  1  0.00073075  0.74689088  0.74868069  1
  V  V83  1  0.49509081  0.50010141  0.49316775  1
  V  V84  1  0.75029883  0.75420503  0.49592472  1
  Zn  Zn85  1  0.87283983  0.49627147  0.38670645  1
  Zn  Zn86  1  0.37079152  0.87853662  0.49669677  1
  Zn  Zn87  1  0.51054145  0.12992422  0.15575156  1
  Zn  Zn88  1  0.36383910  0.38436587  0.49049992  1
  Zn  Zn89  1  0.74304021  0.74551856  0.00400608  1
  Zn  Zn90  1  0.87363795  0.62576352  0.75379182  1
  Zn  Zn91  1  0.49717722  0.87183537  0.87401506  1
  Zn  Zn92  1  0.75259410  0.24761741  -0.00167799  1
  Zn  Zn93  1  0.12472381  0.25048608  0.87660644  1
  Zn  Zn94  1  0.74358349  0.12270672  0.87373879  1
  Zn  Zn95  1  0.24315792  0.38084066  0.61936147  1
  Zn  Zn96  1  0.62480186  -0.00138268  0.62890140  1
  Zn  Zn97  1  0.50267436  0.37488321  0.37289206  1
  Zn  Zn98  1  0.87459589  0.50103397  0.87844766  1
  Zn  Zn99  1  0.00214256  0.62301766  0.13056617  1
  Zn  Zn100  1  0.88349791  0.88257300  0.50520307  1
  Zn  Zn101  1  0.00109963  0.75093787  0.25090450  1
  Zn  Zn102  1  0.37467881  0.75178034  0.13202567  1
  Zn  Zn103  1  0.87685425  0.37317385  -0.00005778  1
  Zn  Zn104  1  0.25020758  0.74853069  0.49991722  1
  Zn  Zn105  1  -0.00255479  0.25274426  0.74833509  1
  Zn  Zn106  1  -0.00415983  0.48673124  0.50550198  1
  Zn  Zn107  1  0.19048989  0.17190633  0.18050051  1
  Zn  Zn108  1  0.18272793  0.18984937  0.68588215  1
  Zn  Zn109  1  0.18709988  0.68560726  0.19230954  1
  Zn  Zn110  1  0.18789224  0.68853410  0.68620896  1
  Zn  Zn111  1  0.69170172  0.18669097  0.18178579  1
  Zn  Zn112  1  0.68920053  0.18924784  0.68155344  1
  Zn  Zn113  1  0.68754529  0.69096542  0.18783775  1
  Zn  Zn114  1  0.68699710  0.68918174  0.69139898  1
  Zn  Zn115  1  0.33158512  0.31434498  0.31295713  1
  Zn  Zn116  1  0.30856666  0.31551796  0.81378829  1
  Zn  Zn117  1  0.31516080  0.80176993  0.31500362  1
  Zn  Zn118  1  0.31179792  0.81294128  0.81276058  1
  Zn  Zn119  1  0.80203170  0.30152691  0.31319925  1
  Zn  Zn120  1  0.81348685  0.31567123  0.81192375  1
  Zn  Zn121  1  0.81593313  0.81453074  0.31369212  1
  Zn  Zn122  1  0.80797895  0.80774677  0.81441233  1
  Zn  Zn123  1  0.17895431  0.43832790  0.43841326  1
  Zn  Zn124  1  0.18672367  0.43671744  0.93854538  1
  Zn  Zn125  1  0.18676301  0.94040168  0.43718942  1
  Zn  Zn126  1  0.18862890  0.93830307  0.94043865  1
  Zn  Zn127  1  0.68849157  0.44084200  0.43689520  1
  Zn  Zn128  1  0.68815961  0.43567685  0.93836885  1
  Zn  Zn129  1  0.68100961  0.93641428  0.44245353  1
  Zn  Zn130  1  0.68473144  0.93428486  0.93828967  1
  Zn  Zn131  1  0.31770613  0.07198782  0.06216059  1
  Zn  Zn132  1  0.30781995  0.06559570  0.55826883  1
  Zn  Zn133  1  0.31429934  0.56351078  0.06704069  1
  Zn  Zn134  1  0.31315374  0.56766254  0.56116009  1
  Zn  Zn135  1  0.81109178  0.06287805  0.06098869  1
  Zn  Zn136  1  0.81160043  0.06060158  0.56324715  1
  Zn  Zn137  1  0.81625106  0.56214152  0.06327581  1
  Zn  Zn138  1  0.81634883  0.56294777  0.56355920  1
  Zn  Zn139  1  0.43678003  0.43720447  0.18447540  1
  Zn  Zn140  1  0.43549795  0.44067438  0.68309340  1
  Zn  Zn141  1  0.46540653  0.93742313  0.18863742  1
  Zn  Zn142  1  0.43689253  0.94036300  0.68626889  1
  Zn  Zn143  1  0.94345166  0.43386247  0.19184367  1
  Zn  Zn144  1  0.93461649  0.43810732  0.68887903  1
  Zn  Zn145  1  0.93710133  0.93640865  0.18915772  1
  Zn  Zn146  1  0.93415461  0.94070784  0.69757555  1
  Zn  Zn147  1  0.06273303  0.06361337  0.30296346  1
  Zn  Zn148  1  0.05808496  0.06800102  0.81830949  1
  Zn  Zn149  1  0.06013393  0.55501978  0.31526339  1
  Zn  Zn150  1  0.06443368  0.56111805  0.81607683  1
  Zn  Zn151  1  0.57127541  0.04407745  0.31981260  1
  Zn  Zn152  1  0.56190824  0.06173044  0.81312438  1
  Zn  Zn153  1  0.56861134  0.56317558  0.31096470  1
  Zn  Zn154  1  0.56359617  0.56340461  0.81153420  1
  Zn  Zn155  1  0.43592169  0.19074386  0.43768562  1
  Zn  Zn156  1  0.43592109  0.18990118  0.93919797  1
  Zn  Zn157  1  0.43405625  0.68813808  0.44038630  1
  Zn  Zn158  1  0.43663026  0.68910796  0.94100045  1
  Zn  Zn159  1  0.93598811  0.17935754  0.43215038  1
  Zn  Zn160  1  0.93799393  0.19428097  0.93465187  1
  Zn  Zn161  1  0.93860886  0.69007632  0.43795125  1
  Zn  Zn162  1  0.93481635  0.68552553  0.94097750  1
  Zn  Zn163  1  0.06286625  0.31192114  0.06739199  1
  Zn  Zn164  1  0.06081950  0.30837796  0.55908258  1
  Zn  Zn165  1  0.06011246  0.81538647  0.06603775  1
  Zn  Zn166  1  0.06416974  0.80922185  0.55852402  1
  Zn  Zn167  1  0.56334802  0.31476802  0.06219699  1
  Zn  Zn168  1  0.56536942  0.31326711  0.56226620  1
  Zn  Zn169  1  0.56051793  0.81185575  0.06235989  1
  Zn  Zn170  1  0.56315013  0.81244220  0.56387204  1
  O  O171  1  0.12103086  0.10437265  0.12389380  1
  O  O172  1  0.11652301  0.11710524  0.61930302  1
  O  O173  1  0.12403790  0.62399187  0.11533432  1
  O  O174  1  0.11595222  0.63309744  0.61528438  1
  O  O175  1  0.62216385  0.13278703  0.10898876  1
  O  O176  1  0.61606955  0.12222269  0.61854866  1
  O  O177  1  0.61687005  0.61704886  0.13019016  1
  O  O178  1  0.61883064  0.62278669  0.62049356  1
  O  O179  1  0.39119344  0.37161042  0.38240750  1
  O  O180  1  0.38052627  0.38043743  0.88249711  1
  O  O181  1  0.38861429  0.86528543  0.37901516  1
  O  O182  1  0.37617398  0.88301369  0.88171877  1
  O  O183  1  0.87940483  0.37097784  0.37025173  1
  O  O184  1  0.88748965  0.37847318  0.87587203  1
  O  O185  1  0.88659779  0.88659936  0.37277607  1
  O  O186  1  0.87979185  0.86571934  0.88667370  1
  O  O187  1  0.25761119  0.00795171  0.37953293  1
  O  O188  1  0.25939185  0.00667523  0.87214784  1
  O  O189  1  0.24430712  0.51263810  0.37648301  1
  O  O190  1  0.25586814  0.50646548  0.86900773  1
  O  O191  1  0.75869814  -0.01178570  0.37228892  1
  O  O192  1  0.74801627  -0.00166897  0.86408051  1
  O  O193  1  0.75369291  0.50947588  0.36841676  1
  O  O194  1  0.74779885  0.50557237  0.86775098  1
  O  O195  1  0.23772655  0.50106595  0.12099802  1
  O  O196  1  0.25588779  0.50129257  0.63725322  1
  O  O197  1  0.25046020  1.00016408  0.12353061  1
  O  O198  1  0.24287350  0.99466066  0.63015057  1
  O  O199  1  0.74482591  0.49574228  0.12850045  1
  O  O200  1  0.74437648  0.49615715  0.63131535  1
  O  O201  1  0.75293362  0.98339094  0.12402866  1
  O  O202  1  0.75152818  0.99003802  0.63766257  1
  O  O203  1  -0.00594369  0.35684463  0.26179843  1
  O  O204  1  0.00634166  0.37787652  0.75617995  1
  O  O205  1  0.00754315  0.87240716  0.26098195  1
  O  O206  1  0.00454468  0.85940717  0.75168315  1
  O  O207  1  0.51669200  0.37905292  0.24522980  1
  O  O208  1  0.50393505  0.37178682  0.75277258  1
  O  O209  1  0.50876264  0.86173850  0.26001229  1
  O  O210  1  0.51231997  0.88050952  0.75140330  1
  O  O211  1  0.55362833  0.14203613  0.26482795  1
  O  O212  1  0.49294291  0.13180636  0.74450759  1
  O  O213  1  0.49707949  0.62738798  0.24531618  1
  O  O214  1  0.49491980  0.61983999  0.73728264  1
  O  O215  1  0.98615108  0.13626553  0.25716900  1
  O  O216  1  0.98992368  0.12731719  0.74208629  1
  O  O217  1  0.99118052  0.62798393  0.25207792  1
  O  O218  1  1.00260230  0.63413767  0.74590661  1
  O  O219  1  0.36900881  0.25761751  0.00606946  1
  O  O220  1  0.36123992  0.25046056  0.50651829  1
  O  O221  1  0.36919367  0.75995564  0.00510239  1
  O  O222  1  0.37084895  0.75282182  0.51493341  1
  O  O223  1  0.87445328  0.25053361  0.00895330  1
  O  O224  1  0.84815966  0.23902286  0.48154003  1
  O  O225  1  0.87019217  0.75669391  0.00856736  1
  O  O226  1  0.86865898  0.75539714  0.50890081  1
  O  O227  1  0.13635346  0.23691217  0.50626735  1
  O  O228  1  0.13988754  0.25431333  1.00023110  1
  O  O229  1  0.12744206  0.73947272  0.49104977  1
  O  O230  1  0.13184455  0.74525897  0.99884290  1
  O  O231  1  0.62614904  0.23331746  0.50501566  1
  O  O232  1  0.62456120  0.24515032  0.98989190  1
  O  O233  1  0.63413094  0.73859174  0.50713236  1
  O  O234  1  0.62479618  0.75404054  0.98449860  1
  O  O235  1  0.49049745  0.24788238  0.11978643  1
  O  O236  1  0.49094558  0.24610788  0.62694726  1
  O  O237  1  0.49868452  0.74175295  0.13246746  1
  O  O238  1  0.49190759  0.74218505  0.62307027  1
  O  O239  1  0.98767232  0.25276633  0.13252725  1
  O  O240  1  1.00119771  0.23704677  0.62812144  1
  O  O241  1  0.98607644  0.74888286  0.12820338  1
  O  O242  1  0.99452339  0.74561133  0.63145058  1
  O  O243  1  -0.00419549  0.25634153  0.36864485  1
  O  O244  1  0.00511520  0.26272676  0.87095197  1
  O  O245  1  0.01150484  0.75798046  0.37364841  1
  O  O246  1  0.00471276  0.75233914  0.86856406  1
  O  O247  1  0.51938261  0.25259163  0.38295151  1
  O  O248  1  0.50746233  0.25643725  0.86901761  1
  O  O249  1  0.50162316  0.75221315  0.37083143  1
  O  O250  1  0.51061948  0.74997750  0.87609908  1
  O  O251  1  0.24264821  0.13169354  0.48816824  1
  O  O252  1  0.25794001  0.14005875  0.99106384  1
  O  O253  1  0.24254349  0.62521346  0.49018124  1
  O  O254  1  0.24578142  0.63254454  0.99612953  1
  O  O255  1  0.73586108  0.13238681  0.51058936  1
  O  O256  1  0.73936352  0.12661381  0.99556516  1
  O  O257  1  0.74445350  0.63294090  0.49581590  1
  O  O258  1  0.75054070  0.62216675  0.98828930  1
  O  O259  1  0.25915619  0.36177524  -0.00675055  1
  O  O260  1  0.24519596  0.36778631  0.50099152  1
  O  O261  1  0.26291066  0.86713501  -0.00493121  1
  O  O262  1  0.24958739  0.87510732  0.51233700  1
  O  O263  1  0.75228128  0.37382538  0.01282552  1
  O  O264  1  0.73930040  0.36160077  0.50383990  1
  O  O265  1  0.75420297  0.87192557  0.01013316  1
  O  O266  1  0.74900034  0.86769935  0.50952793  1
  O  O267  1  0.12303993  0.50655490  0.23379554  1
  O  O268  1  0.13524055  0.49370143  0.75509377  1
  O  O269  1  0.12061806  0.98824413  0.23854446  1
  O  O270  1  0.12990655  0.99558808  0.74419896  1
  O  O271  1  0.63232724  0.49397590  0.23805469  1
  O  O272  1  0.63405656  0.49553232  0.74534321  1
  O  O273  1  0.61488340  0.97274338  0.24070733  1
  O  O274  1  0.63251588  0.99115525  0.75081637  1
  O  O275  1  0.36927369  -0.01359377  0.23680234  1
  O  O276  1  0.36824208  0.00621674  0.75670231  1
  O  O277  1  0.38043984  0.51165578  0.24898373  1
  O  O278  1  0.36834625  0.50707868  0.75540035  1
  O  O279  1  0.87659574  0.00876118  0.25729426  1
  O  O280  1  0.86996740  0.01123794  0.76700376  1
  O  O281  1  0.87086554  0.51215160  0.24853711  1
  O  O282  1  0.86142580  0.50305982  0.75273646  1
  O  O283  1  0.11495933  0.36887895  0.36956432  1
  O  O284  1  0.11492772  0.37750486  0.86684816  1
  O  O285  1  0.11829546  0.87219907  0.36945610  1
  O  O286  1  0.11866145  0.86730705  0.87195332  1
  O  O287  1  0.62264685  0.38857963  0.35564462  1
  O  O288  1  0.61792350  0.37024636  0.86819272  1
  O  O289  1  0.61946600  0.87339701  0.36487153  1
  O  O290  1  0.62156252  0.86325353  0.86910124  1
  O  O291  1  0.38884923  0.13676987  0.12482041  1
  O  O292  1  0.37696099  0.13699438  0.62843109  1
  O  O293  1  0.38448454  0.62619890  0.13512513  1
  O  O294  1  0.38208421  0.63369724  0.63003197  1
  O  O295  1  0.87085130  0.12854002  0.13602200  1
  O  O296  1  0.88561231  0.11440149  0.63171061  1
  O  O297  1  0.87594724  0.63257930  0.13375268  1
  O  O298  1  0.88222077  0.63830186  0.62997121  1
  O  O299  1  0.26133066  0.23986863  0.11282401  1
  O  O300  1  0.25555026  0.25157057  0.61614046  1
  O  O301  1  0.25267304  0.74507799  0.11438740  1
  O  O302  1  0.25517684  0.76103026  0.62469632  1
  O  O303  1  0.76266567  0.25814856  0.12272692  1
  O  O304  1  0.74481149  0.25970822  0.60926354  1
  O  O305  1  0.76011650  0.75520091  0.12332161  1
  O  O306  1  0.75852488  0.75347507  0.61972446  1
  O  O307  1  0.23912511  0.24985186  0.37744077  1
  O  O308  1  0.25103276  0.24397699  0.88470392  1
  O  O309  1  0.23680723  0.74544326  0.37851107  1
  O  O310  1  0.24634605  0.74485727  0.88503101  1
  O  O311  1  0.72145970  0.25102867  0.38437417  1
  O  O312  1  0.73493677  0.25502058  0.87463930  1
  O  O313  1  0.75641830  0.74655787  0.38900083  1
  O  O314  1  0.73918216  0.74019578  0.87872302  1
  O  O315  1  -0.01142743  0.09295847  -0.07510434  1
  O  O316  1  0.00781922  0.12780573  0.50626459  1
  O  O317  1  0.00910472  0.61806545  0.00274191  1
  O  O318  1  0.00686974  0.62998853  0.50971110  1
  O  O319  1  0.50802524  0.11702876  -0.00942723  1
  O  O320  1  0.50652903  0.11928500  0.50389454  1
  O  O321  1  0.49345936  0.61923592  0.01354961  1
  O  O322  1  0.50686195  0.62014079  0.50802794  1
  O  O323  1  0.50981017  0.39492729  0.50122637  1
  O  O324  1  0.49298506  0.38256014  0.99348986  1
  O  O325  1  0.50144489  0.88146841  0.49505459  1
  O  O326  1  0.48809367  0.88362812  1.00154852  1
  O  O327  1  1.00243869  0.36870303  0.48284215  1
  O  O328  1  1.00213259  0.38202744  0.99329696  1
  O  O329  1  1.00094408  0.87209093  0.48411928  1
  O  O330  1  0.98853134  0.86763758  0.98991369  1
  O  O331  1  0.50660672  0.50828440  0.39177653  1
  O  O332  1  0.49446017  0.49779538  0.87964152  1
  O  O333  1  0.50134400  0.98515214  0.38613434  1
  O  O334  1  0.48679142  0.99896793  0.87928435  1
  O  O335  1  0.99408022  0.47887102  0.37110721  1
  O  O336  1  1.00027336  0.49590917  0.88746236  1
  O  O337  1  0.99827361  0.98934396  0.37184489  1
  O  O338  1  0.99591539  0.97098774  0.84988066  1
  O  O339  1  0.00262781  -0.00351919  0.11832254  1
  O  O340  1  0.00922823  0.00321901  0.63218845  1
  O  O341  1  0.00747812  0.50018323  0.11613424  1
  O  O342  1  -0.00283404  0.51486659  0.62935323  1
  O  O343  1  0.50011968  0.01250335  0.11271990  1
  O  O344  1  0.50169097  0.00942479  0.62050980  1
  O  O345  1  0.50859789  0.50713546  0.11991120  1
  O  O346  1  0.50725085  0.50937121  0.61756343  1
  O  O347  1  0.23467846  0.35627205  0.26154309  1
  O  O348  1  0.24169421  0.38497602  0.74813310  1
  O  O349  1  0.24615180  0.87365351  0.24780844  1
  O  O350  1  0.24321763  0.88085795  0.74201259  1
  O  O351  1  0.74604587  0.38197192  0.23980503  1
  O  O352  1  0.74490981  0.38133349  0.74191816  1
  O  O353  1  0.73874708  0.86603690  0.24283593  1
  O  O354  1  0.74439215  0.87994065  0.74739013  1
  O  O355  1  0.24523573  0.12430783  0.26810286  1
  O  O356  1  0.25591718  0.12279514  0.75420386  1
  O  O357  1  0.25852473  0.62967930  0.26375657  1
  O  O358  1  0.25319120  0.61981544  0.75632884  1
  O  O359  1  0.76117050  0.12430928  0.24974838  1
  O  O360  1  0.75387974  0.11559838  0.74548264  1
  O  O361  1  0.75491668  0.62319390  0.25861279  1
  O  O362  1  0.74878612  0.61652128  0.75929494  1
  O  O363  1  0.36288756  0.13033537  0.37620593  1
  O  O364  1  0.36787545  0.12019166  0.86865797  1
  O  O365  1  0.35944750  0.62864126  0.37214287  1
  O  O366  1  0.37106526  0.62181421  0.87034504  1
  O  O367  1  0.87190723  0.10784888  0.36492725  1
  O  O368  1  0.86022682  0.12893247  0.86470311  1
  O  O369  1  0.86584994  0.62734699  0.36889780  1
  O  O370  1  0.86449139  0.62325465  0.87305915  1
  O  O371  1  0.12551840  0.38678674  0.12510959  1
  O  O372  1  0.12199631  0.37426962  0.63602882  1
  O  O373  1  0.12230927  0.88358916  0.13280625  1
  O  O374  1  0.12923064  0.88106088  0.62861451  1
  O  O375  1  0.63303473  0.38278602  0.13088795  1
  O  O376  1  0.63104460  0.38185206  0.63118736  1
  O  O377  1  0.63789320  0.86540458  0.13207623  1
  O  O378  1  0.63225892  0.87322861  0.63542532  1
  O  O379  1  0.11688378  0.24219079  0.24567647  1
  O  O380  1  0.12426386  0.26244296  0.75415306  1
  O  O381  1  0.12458141  0.76137567  0.25559123  1
  O  O382  1  0.11951963  0.75497697  0.75677601  1
  O  O383  1  0.63868196  0.26931791  0.24675323  1
  O  O384  1  0.61816772  0.25415311  0.75417831  1
  O  O385  1  0.61336531  0.75644827  0.24812901  1
  O  O386  1  0.62952642  0.75916453  0.76352332  1
  O  O387  1  0.37731389  0.25251561  0.23038217  1
  O  O388  1  0.37838103  0.24949077  0.74248948  1
  O  O389  1  0.38878876  0.73945446  0.24981304  1
  O  O390  1  0.36915509  0.74382627  0.73911972  1
  O  O391  1  0.87549156  0.23619506  0.24563331  1
  O  O392  1  0.87211075  0.23765766  0.74979280  1
  O  O393  1  0.87471898  0.74025017  0.24510967  1
  O  O394  1  0.88300084  0.74888655  0.74378727  1
  O  O395  1  0.39150603  0.50150416  0.50768007  1
  O  O396  1  0.37841480  0.49291082  0.99577414  1
  O  O397  1  0.38822276  0.99846555  0.50903434  1
  O  O398  1  0.37912610  0.99598531  0.99302934  1
  O  O399  1  0.88352048  0.50494625  0.49944492  1
  O  O400  1  0.88669450  0.49651651  1.00031252  1
  O  O401  1  0.86924975  0.99849519  0.48374039  1
  O  O402  1  0.86870326  0.99148979  0.98537219  1
  O  O403  1  0.12175064  -0.00820889  0.01131280  1
  O  O404  1  0.12895922  0.00863591  0.51189019  1
  O  O405  1  0.12068322  0.50763494  0.00663211  1
  O  O406  1  0.11405058  0.51378477  0.49625521  1
  O  O407  1  0.61409545  0.00923479  -0.00968114  1
  O  O408  1  0.61665761  0.00866943  0.50708500  1
  O  O409  1  0.61946510  0.49591921  0.01075997  1
  O  O410  1  0.62178462  0.51426372  0.50521221  1
  O  O411  1  0.37982458  0.36714497  0.11258737  1
  O  O412  1  0.37237502  0.36522726  0.61952914  1
  O  O413  1  0.37059120  0.87844175  0.12293176  1
  O  O414  1  0.36634560  0.86999665  0.62704894  1
  O  O415  1  0.86923631  0.36720719  0.12656021  1
  O  O416  1  0.86208182  0.37588091  0.62644625  1
  O  O417  1  0.86607382  0.86925592  0.11947885  1
  O  O418  1  0.87211820  0.86708234  0.62668483  1
  O  O419  1  0.12853652  0.11420960  0.38509227  1
  O  O420  1  0.14249498  0.12739080  0.86850026  1
  O  O421  1  0.13143775  0.63068969  0.37779157  1
  O  O422  1  0.13009926  0.63005795  0.88817468  1
  O  O423  1  0.62932834  0.11701824  0.39344962  1
  O  O424  1  0.62471489  0.13516220  0.87864908  1
  O  O425  1  0.63946547  0.62433768  0.38242968  1
  O  O426  1  0.62928175  0.63688516  0.87089313  1
