# generated using pymatgen
data_V85Zn86O256
_symmetry_space_group_name_H-M   'P 1'
_cell_length_a   16.92908065
_cell_length_b   16.91568576
_cell_length_c   16.92945539
_cell_angle_alpha   90.02619879
_cell_angle_beta   89.98113580
_cell_angle_gamma   90.04481479
_symmetry_Int_Tables_number   1
_chemical_formula_structural   V85Zn86O256
_chemical_formula_sum   'V85 Zn86 O256'
_cell_volume   4848.03524412
_cell_formula_units_Z   1
loop_
 _symmetry_equiv_pos_site_id
 _symmetry_equiv_pos_as_xyz
  1  'x, y, z'
loop_
 _atom_site_type_symbol
 _atom_site_label
 _atom_site_symmetry_multiplicity
 _atom_site_fract_x
 _atom_site_fract_y
 _atom_site_fract_z
 _atom_site_occupancy
  V  V0  1  0.37923174  0.37424585  -0.00636756  1
  V  V1  1  0.87883770  0.86693551  0.50472647  1
  V  V2  1  0.24596143  0.11545582  0.86828289  1
  V  V3  1  0.12565659  0.61963805  -0.00320295  1
  V  V4  1  0.24446363  0.13516006  0.37902817  1
  V  V5  1  0.24689443  0.00058341  0.23861262  1
  V  V6  1  0.12836158  0.73701499  0.37526069  1
  V  V7  1  0.87463110  -0.01025504  0.88258856  1
  V  V8  1  0.62569199  0.62551516  0.50005086  1
  V  V9  1  0.36997201  0.49541400  0.38007320  1
  V  V10  1  0.62647681  0.00022726  0.62443579  1
  V  V11  1  0.24784497  0.50380453  0.25279835  1
  V  V12  1  0.75054967  -0.00032146  0.75307277  1
  V  V13  1  0.75246802  0.25337854  0.00200795  1
  V  V14  1  0.12619625  0.36636522  0.25340247  1
  V  V15  1  0.74915139  0.61675459  0.87057354  1
  V  V16  1  0.62287790  0.76180905  0.87621222  1
  V  V17  1  0.75071443  0.37706436  0.63660324  1
  V  V18  1  0.00409285  0.36566712  0.37791326  1
  V  V19  1  0.75424308  0.86985688  0.62655285  1
  V  V20  1  0.00121971  -0.00926957  0.00491743  1
  V  V21  1  0.24592114  0.24903887  -0.00876883  1
  V  V22  1  0.36775711  0.00078596  0.37600032  1
  V  V23  1  0.61022428  0.12180223  0.00650516  1
  V  V24  1  0.37524362  0.25169141  0.60035125  1
  V  V25  1  0.49795046  0.50311227  -0.00372839  1
  V  V26  1  0.24712897  0.88103411  0.62751703  1
  V  V27  1  0.87587986  -0.00084239  0.37462757  1
  V  V28  1  0.49694283  0.62628515  0.62505348  1
  V  V29  1  0.24777825  0.49839800  0.74949544  1
  V  V30  1  0.12288360  0.36177352  0.75362239  1
  V  V31  1  0.25308191  0.62531765  0.87487965  1
  V  V32  1  -0.00537142  0.75069847  0.74981106  1
  V  V33  1  0.00532715  0.87487752  0.37279458  1
  V  V34  1  -0.00146585  0.62229552  0.12153279  1
  V  V35  1  0.75747811  0.75592615  -0.00067121  1
  V  V36  1  0.12466944  0.50523356  0.62548508  1
  V  V37  1  0.74939159  0.49611090  0.24938287  1
  V  V38  1  0.75060742  0.62581170  0.37566812  1
  V  V39  1  0.87639995  0.49876156  0.37617238  1
  V  V40  1  0.37865591  0.49800238  0.87199383  1
  V  V41  1  0.62451964  0.49985040  0.12523289  1
  V  V42  1  0.24906464  0.37396565  0.12182431  1
  V  V43  1  0.62859389  0.25593859  0.36976737  1
  V  V44  1  0.49804245  0.75921198  0.74996576  1
  V  V45  1  0.75411711  0.12976887  0.37990619  1
  V  V46  1  0.12392604  0.14389699  0.49821687  1
  V  V47  1  -0.00250835  0.63197146  0.62104386  1
  V  V48  1  0.62624928  0.62675014  -0.00150627  1
  V  V49  1  0.00516496  0.00161922  0.50198880  1
  V  V50  1  0.86913485  0.37095768  0.50201763  1
  V  V51  1  0.24962292  0.76093724  0.00625294  1
  V  V52  1  0.87869572  0.12849529  0.75587643  1
  V  V53  1  0.61805032  0.25503651  0.87645204  1
  V  V54  1  0.49712700  0.49066245  0.50082533  1
  V  V55  1  0.12372860  0.88194838  0.75166952  1
  V  V56  1  0.38917833  -0.00519935  0.87403836  1
  V  V57  1  0.75741626  0.88223045  0.12877708  1
  V  V58  1  0.87556574  0.12399525  0.24802743  1
  V  V59  1  0.25189606  0.37100609  0.61145762  1
  V  V60  1  0.62942193  0.50106518  0.63523868  1
  V  V61  1  0.63200165  0.13355571  0.50275134  1
  V  V62  1  0.74850013  0.12410734  0.88017224  1
  V  V63  1  0.37178406  0.87156076  0.50137374  1
  V  V64  1  -0.00378810  0.35954104  0.87377575  1
  V  V65  1  -0.01019010  0.49405624  -0.00682854  1
  V  V66  1  0.12523817  0.12219595  -0.00376165  1
  V  V67  1  0.37178546  0.62577914  0.25604073  1
  V  V68  1  0.49726118  0.62944494  0.12735773  1
  V  V69  1  0.37169310  0.12400808  0.74636161  1
  V  V70  1  0.38831672  0.24763694  0.12806285  1
  V  V71  1  0.87607140  0.62701807  0.24773918  1
  V  V72  1  0.01055980  0.12198967  0.12624956  1
  V  V73  1  0.24553566  0.73851896  0.49840838  1
  V  V74  1  0.50215347  -0.00095850  0.50091767  1
  V  V75  1  0.00360876  0.50335462  0.50009398  1
  V  V76  1  0.87775487  0.25484078  0.12325137  1
  V  V77  1  0.86888703  0.24721001  0.62536363  1
  V  V78  1  0.49520533  0.25763199  0.75083434  1
  V  V79  1  0.60561791  -0.00135500  0.12996995  1
  V  V80  1  0.50419168  0.87490979  0.37115152  1
  V  V81  1  0.62648949  0.75257353  0.36961983  1
  V  V82  1  0.87130837  0.61887288  0.74499022  1
  V  V83  1  0.12886160  0.87769643  0.23833441  1
  V  V84  1  0.00134648  0.13077285  0.63077620  1
  Zn  Zn85  1  0.61753837  0.36849935  0.24306434  1
  Zn  Zn86  1  0.75566913  0.74752077  0.50368752  1
  Zn  Zn87  1  0.62066310  0.88116478  0.75411880  1
  Zn  Zn88  1  0.75601032  0.37725472  0.12070846  1
  Zn  Zn89  1  0.12270857  0.49541095  0.12327455  1
  Zn  Zn90  1  -0.00173554  0.87070099  0.87952712  1
  Zn  Zn91  1  0.36978497  0.74935412  0.62818793  1
  Zn  Zn92  1  0.49881343  0.75152929  0.25159376  1
  Zn  Zn93  1  0.36178095  0.76000425  0.13176875  1
  Zn  Zn94  1  0.87792291  0.75478176  0.11975377  1
  Zn  Zn95  1  0.12985271  0.00626467  0.62863097  1
  Zn  Zn96  1  0.62278554  0.37990931  0.75778005  1
  Zn  Zn97  1  0.37277601  0.62728731  0.74935304  1
  Zn  Zn98  1  0.49023296  0.37099409  0.36940862  1
  Zn  Zn99  1  0.87000880  0.49167714  0.87031369  1
  Zn  Zn100  1  0.38422432  0.12560027  0.24039084  1
  Zn  Zn101  1  0.00239977  0.75072898  0.24643432  1
  Zn  Zn102  1  0.00585415  0.24622829  0.25250800  1
  Zn  Zn103  1  0.49904956  0.12754614  0.62216499  1
  Zn  Zn104  1  0.12461943  0.75042355  0.87214904  1
  Zn  Zn105  1  0.40974344  0.89683203  0.01415142  1
  Zn  Zn106  1  0.73998069  -0.00334093  0.25351689  1
  Zn  Zn107  1  0.19496675  0.18693266  0.18590098  1
  Zn  Zn108  1  0.19342892  0.18918519  0.68148237  1
  Zn  Zn109  1  0.18252162  0.68511654  0.18721325  1
  Zn  Zn110  1  0.18412431  0.69091815  0.68727073  1
  Zn  Zn111  1  0.68910776  0.18246886  0.18713974  1
  Zn  Zn112  1  0.68893331  0.18886144  0.69161169  1
  Zn  Zn113  1  0.68942113  0.68899096  0.18621936  1
  Zn  Zn114  1  0.68594720  0.69015044  0.68999731  1
  Zn  Zn115  1  0.31290598  0.31494894  0.31085346  1
  Zn  Zn116  1  0.30971443  0.31056216  0.80850310  1
  Zn  Zn117  1  0.30887913  0.81434634  0.31234260  1
  Zn  Zn118  1  0.30976078  0.81318882  0.81348874  1
  Zn  Zn119  1  0.81239126  0.31047948  0.31181811  1
  Zn  Zn120  1  0.81203824  0.30859044  0.81421072  1
  Zn  Zn121  1  0.81249354  0.81293598  0.31042739  1
  Zn  Zn122  1  0.81162633  0.80775055  0.80969398  1
  Zn  Zn123  1  0.18492955  0.44161692  0.43501072  1
  Zn  Zn124  1  0.18429021  0.43681607  0.93420480  1
  Zn  Zn125  1  0.18660195  0.93691645  0.43678545  1
  Zn  Zn126  1  0.18562503  0.94057972  0.93470923  1
  Zn  Zn127  1  0.69032364  0.43955137  0.44486782  1
  Zn  Zn128  1  0.68739622  0.43563372  0.93966582  1
  Zn  Zn129  1  0.69048281  0.93874781  0.43927597  1
  Zn  Zn130  1  0.68523203  0.93976294  0.94672339  1
  Zn  Zn131  1  0.31877438  0.06491257  0.05720491  1
  Zn  Zn132  1  0.31054697  0.06473041  0.55874178  1
  Zn  Zn133  1  0.31331028  0.56427471  0.06426334  1
  Zn  Zn134  1  0.31234500  0.56079062  0.56318266  1
  Zn  Zn135  1  0.81335101  0.06519605  0.06293277  1
  Zn  Zn136  1  0.81530563  0.05710788  0.56285794  1
  Zn  Zn137  1  0.81202887  0.56371002  0.05936605  1
  Zn  Zn138  1  0.81402813  0.56049072  0.56482536  1
  Zn  Zn139  1  0.43744462  0.43569003  0.18785571  1
  Zn  Zn140  1  0.43502501  0.43454231  0.68394944  1
  Zn  Zn141  1  0.42953783  0.93348911  0.19395034  1
  Zn  Zn142  1  0.43430061  0.94036413  0.68716274  1
  Zn  Zn143  1  0.94038405  0.43731541  0.18839648  1
  Zn  Zn144  1  0.94082253  0.43725702  0.69080289  1
  Zn  Zn145  1  0.93827292  0.93909678  0.18771307  1
  Zn  Zn146  1  0.93843996  0.94119741  0.68904536  1
  Zn  Zn147  1  0.06709449  0.06227861  0.31243400  1
  Zn  Zn148  1  0.06081368  0.06195124  0.81635160  1
  Zn  Zn149  1  0.06186852  0.55624036  0.30948718  1
  Zn  Zn150  1  0.06067461  0.55993879  0.81100582  1
  Zn  Zn151  1  0.55925557  0.06790703  0.31115638  1
  Zn  Zn152  1  0.56106352  0.07136263  0.80950967  1
  Zn  Zn153  1  0.55921001  0.55800065  0.31276627  1
  Zn  Zn154  1  0.55952067  0.57107243  0.81255543  1
  Zn  Zn155  1  0.45058989  0.17552327  0.41354491  1
  Zn  Zn156  1  0.43317087  0.18739061  0.93370518  1
  Zn  Zn157  1  0.43609933  0.68497164  0.43712518  1
  Zn  Zn158  1  0.45380452  0.72562189  0.95590141  1
  Zn  Zn159  1  0.93630667  0.18859484  0.44136039  1
  Zn  Zn160  1  0.93719788  0.18327851  0.94158155  1
  Zn  Zn161  1  0.94200698  0.68770779  0.43496929  1
  Zn  Zn162  1  0.93561324  0.68453770  0.93252480  1
  Zn  Zn163  1  0.06326281  0.30911593  0.05937477  1
  Zn  Zn164  1  0.05700827  0.31612333  0.56998085  1
  Zn  Zn165  1  0.06549441  0.80608984  0.06042065  1
  Zn  Zn166  1  0.06701404  0.81141067  0.56184957  1
  Zn  Zn167  1  0.56304225  0.31754874  0.05742855  1
  Zn  Zn168  1  0.56488278  0.31085995  0.56360007  1
  Zn  Zn169  1  0.56780860  0.81600722  0.06653016  1
  Zn  Zn170  1  0.56376190  0.81220923  0.56124201  1
  O  O171  1  0.11596664  0.12920036  0.12024962  1
  O  O172  1  0.11774301  0.12599974  0.61850110  1
  O  O173  1  0.11493780  0.61908187  0.11646306  1
  O  O174  1  0.11635531  0.61202353  0.63065474  1
  O  O175  1  0.62596801  0.11568247  0.11493119  1
  O  O176  1  0.62980750  0.11582078  0.61969149  1
  O  O177  1  0.62144613  0.61604307  0.12088321  1
  O  O178  1  0.62114688  0.61972444  0.61905467  1
  O  O179  1  0.37278457  0.38920703  0.37416069  1
  O  O180  1  0.36666741  0.38216333  0.88525335  1
  O  O181  1  0.37818771  0.88288155  0.38249526  1
  O  O182  1  0.36953249  0.89475379  0.86813632  1
  O  O183  1  0.87895917  0.37911760  0.38344803  1
  O  O184  1  0.89085601  0.37446162  0.86598280  1
  O  O185  1  0.88700482  0.87782976  0.37910484  1
  O  O186  1  0.87462801  0.88658384  0.87063218  1
  O  O187  1  0.25385623  0.00394049  0.36867425  1
  O  O188  1  0.25649085  0.01278972  0.87539479  1
  O  O189  1  0.25514892  0.50032443  0.36530301  1
  O  O190  1  0.25683712  0.50367132  0.86918204  1
  O  O191  1  0.75731267  0.00717128  0.37214701  1
  O  O192  1  0.75533300  0.00456548  0.87553894  1
  O  O193  1  0.75583239  0.50566690  0.36891773  1
  O  O194  1  0.74968242  0.51175321  0.87942960  1
  O  O195  1  0.25018117  0.48720335  0.12918687  1
  O  O196  1  0.24249112  0.49508132  0.63013172  1
  O  O197  1  0.25637337  1.01134101  0.14027725  1
  O  O198  1  0.24812887  0.98617746  0.61856184  1
  O  O199  1  0.74377190  0.50011955  0.13063057  1
  O  O200  1  0.74026761  0.49228416  0.62304073  1
  O  O201  1  0.74968192  0.99068200  0.12676604  1
  O  O202  1  0.74494393  0.99204416  0.63083311  1
  O  O203  1  0.00835620  0.37440000  0.25941570  1
  O  O204  1  0.01241126  0.37614441  0.75988991  1
  O  O205  1  0.00636946  0.87437791  0.25751677  1
  O  O206  1  0.00362078  0.86686233  0.74876010  1
  O  O207  1  0.50727100  0.38683165  0.25822026  1
  O  O208  1  0.50189673  0.36255440  0.74516393  1
  O  O209  1  0.49681266  0.87262082  0.26760629  1
  O  O210  1  0.50172569  0.86352636  0.74236644  1
  O  O211  1  0.47545395  0.13827219  0.30328944  1
  O  O212  1  0.49203430  0.13765335  0.74310560  1
  O  O213  1  0.49007513  0.62353098  0.24430414  1
  O  O214  1  0.49905503  0.63229359  0.73532652  1
  O  O215  1  0.99698858  0.12548020  0.24388753  1
  O  O216  1  0.99160421  0.11962290  0.74265586  1
  O  O217  1  0.99305143  0.62145763  0.23959517  1
  O  O218  1  0.99394721  0.63077830  0.74236456  1
  O  O219  1  0.36979430  0.25787831  0.00514780  1
  O  O220  1  0.38827854  0.24098207  0.50349236  1
  O  O221  1  0.35157670  0.73654887  0.00598036  1
  O  O222  1  0.36695728  0.75901631  0.49810617  1
  O  O223  1  0.86557971  0.24070851  0.01117737  1
  O  O224  1  0.87785852  0.25885961  0.51145269  1
  O  O225  1  0.86176939  0.74457800  -0.00077501  1
  O  O226  1  0.87728884  0.76318059  0.49571219  1
  O  O227  1  0.11546360  0.24304811  0.50309179  1
  O  O228  1  0.13418014  0.23649644  1.00271453  1
  O  O229  1  0.13034025  0.75250541  0.48460021  1
  O  O230  1  0.13232944  0.73621063  0.99539092  1
  O  O231  1  0.63189612  0.23734596  0.50041631  1
  O  O232  1  0.62918412  0.24127605  0.99701798  1
  O  O233  1  0.62682306  0.73757022  0.49360074  1
  O  O234  1  0.63724895  0.74348657  0.99377516  1
  O  O235  1  0.48698072  0.25859095  0.12121715  1
  O  O236  1  0.49085306  0.24971108  0.62933396  1
  O  O237  1  0.50798967  0.73639029  0.13273384  1
  O  O238  1  0.49999684  0.74258752  0.63024524  1
  O  O239  1  0.99413660  0.24077796  0.12563471  1
  O  O240  1  0.98739721  0.23830655  0.62451331  1
  O  O241  1  0.99715120  0.73617118  0.12444521  1
  O  O242  1  1.00583002  0.73748998  0.62822679  1
  O  O243  1  -0.00497654  0.26222623  0.37397651  1
  O  O244  1  -0.00186543  0.26045062  0.87932866  1
  O  O245  1  0.01099255  0.75728876  0.37192838  1
  O  O246  1  0.00213299  0.75105132  0.86599292  1
  O  O247  1  0.52665273  0.26184800  0.39191251  1
  O  O248  1  0.50673654  0.24582070  0.86596281  1
  O  O249  1  0.50777318  0.75636783  0.37773788  1
  O  O250  1  0.51356998  0.73322028  0.85835424  1
  O  O251  1  0.23470409  0.12047173  0.49042244  1
  O  O252  1  0.24389934  0.12999371  0.99273178  1
  O  O253  1  0.25194743  0.63903047  0.50458327  1
  O  O254  1  0.23968930  0.62121365  0.99305017  1
  O  O255  1  0.74568332  0.11584782  0.49126692  1
  O  O256  1  0.74120580  0.13367544  0.99733428  1
  O  O257  1  0.74382122  0.62500360  0.49522868  1
  O  O258  1  0.74479615  0.63161675  0.99227404  1
  O  O259  1  0.25244333  0.36903254  0.00388860  1
  O  O260  1  0.24131467  0.38051029  0.51291361  1
  O  O261  1  0.24387859  0.86030689  -0.00529222  1
  O  O262  1  0.25550005  0.86799311  0.50417043  1
  O  O263  1  0.74811078  0.35926539  0.00148514  1
  O  O264  1  0.76459761  0.38133748  0.51297876  1
  O  O265  1  0.74665900  0.86814403  0.01435457  1
  O  O266  1  0.76246822  0.87604059  0.50710328  1
  O  O267  1  0.13205246  0.48967985  0.24616085  1
  O  O268  1  0.12916359  0.49229378  0.74255252  1
  O  O269  1  0.13804295  0.99390394  0.25143316  1
  O  O270  1  0.11664785  0.98679380  0.74687902  1
  O  O271  1  0.63516623  0.50339073  0.24196395  1
  O  O272  1  0.61730369  0.50004487  0.73875208  1
  O  O273  1  0.62371271  1.01199502  0.23490640  1
  O  O274  1  0.63102023  1.00173158  0.74299042  1
  O  O275  1  0.36433650  0.00433160  0.26040669  1
  O  O276  1  0.37859047  0.01608541  0.75421182  1
  O  O277  1  0.36559542  0.50568836  0.25538864  1
  O  O278  1  0.36800860  0.49929000  0.75624931  1
  O  O279  1  0.87677406  0.01154216  0.25700881  1
  O  O280  1  0.87003618  0.00956718  0.75896234  1
  O  O281  1  0.87004852  0.50813961  0.25384566  1
  O  O282  1  0.87875267  0.51367633  0.75069346  1
  O  O283  1  0.11553589  0.37948236  0.36665907  1
  O  O284  1  0.11803243  0.37502805  0.86078661  1
  O  O285  1  0.11499498  0.87111509  0.36886692  1
  O  O286  1  0.12120825  0.87278224  0.86564420  1
  O  O287  1  0.64296674  0.36007994  0.37743807  1
  O  O288  1  0.62793871  0.36039319  0.87586521  1
  O  O289  1  0.61689928  0.86528368  0.38626709  1
  O  O290  1  0.63097681  0.86531973  0.87524960  1
  O  O291  1  0.37545267  0.14201946  0.12304288  1
  O  O292  1  0.37287826  0.13367763  0.62860085  1
  O  O293  1  0.38240362  0.62651183  0.13600157  1
  O  O294  1  0.38357466  0.62777785  0.62674180  1
  O  O295  1  0.88281078  0.13175629  0.13360066  1
  O  O296  1  0.87892227  0.12956470  0.63178027  1
  O  O297  1  0.88074232  0.62557562  0.13147737  1
  O  O298  1  0.88393736  0.62332548  0.63122624  1
  O  O299  1  0.25643902  0.25957480  0.11334417  1
  O  O300  1  0.26287826  0.25784209  0.62048332  1
  O  O301  1  0.24235389  0.74595952  0.11054665  1
  O  O302  1  0.24696534  0.75947988  0.61504595  1
  O  O303  1  0.75766862  0.24976547  0.11982424  1
  O  O304  1  0.76121808  0.25695704  0.62888124  1
  O  O305  1  0.74974195  0.76097501  0.11827391  1
  O  O306  1  0.74392447  0.76546550  0.62258120  1
  O  O307  1  0.25766537  0.23345770  0.37141773  1
  O  O308  1  0.25753615  0.24108462  0.88680335  1
  O  O309  1  0.23568585  0.75381524  0.38130878  1
  O  O310  1  0.24709285  0.74021734  0.88346151  1
  O  O311  1  0.74759440  0.23781272  0.37673208  1
  O  O312  1  0.74312799  0.24275832  0.88236760  1
  O  O313  1  0.74473120  0.74442356  0.37880562  1
  O  O314  1  0.74287899  0.74382536  0.88075940  1
  O  O315  1  0.00829071  0.11822628  0.00677427  1
  O  O316  1  0.00514003  0.11909116  0.50595671  1
  O  O317  1  0.00470113  0.61717147  0.00246065  1
  O  O318  1  -0.00617062  0.61593563  0.50791313  1
  O  O319  1  0.51235472  0.13123791  -0.00143644  1
  O  O320  1  0.51443304  0.11614730  0.50046847  1
  O  O321  1  0.50525700  0.62470977  0.00829372  1
  O  O322  1  0.50680702  0.62055869  0.50946571  1
  O  O323  1  0.50767399  0.38894172  0.49860963  1
  O  O324  1  0.48964871  0.38763640  1.00047939  1
  O  O325  1  0.49072169  0.87741481  0.49481579  1
  O  O326  1  0.49549068  0.83177266  0.98369954  1
  O  O327  1  0.99115422  0.38138824  0.49612654  1
  O  O328  1  1.00958775  0.38047466  0.98334934  1
  O  O329  1  0.99724448  0.88136686  0.49539382  1
  O  O330  1  1.00635524  0.88634982  1.00174742  1
  O  O331  1  0.49127544  0.50107553  0.38632131  1
  O  O332  1  0.48539341  0.50841139  0.87737367  1
  O  O333  1  0.49271726  0.99089184  0.38337639  1
  O  O334  1  0.48861812  1.00272497  0.86736710  1
  O  O335  1  0.99497564  0.49187036  0.38229773  1
  O  O336  1  0.99745215  0.49092121  0.88002738  1
  O  O337  1  0.99753045  0.99380472  0.38157043  1
  O  O338  1  0.99069110  0.99793216  0.88554118  1
  O  O339  1  -0.00580152  0.01071790  0.11717444  1
  O  O340  1  -0.00082212  0.01352014  0.61751837  1
  O  O341  1  -0.00055832  0.50634075  0.11547845  1
  O  O342  1  0.00579061  0.50653640  0.61900573  1
  O  O343  1  0.50669389  -0.00327825  0.12891755  1
  O  O344  1  0.50990325  0.00198731  0.62008231  1
  O  O345  1  0.50648897  0.51088231  0.11942008  1
  O  O346  1  0.50491597  0.50670139  0.61919860  1
  O  O347  1  0.24440198  0.38244712  0.24236306  1
  O  O348  1  0.23865159  0.37875866  0.74349255  1
  O  O349  1  0.24349461  0.89035300  0.25320562  1
  O  O350  1  0.23679439  0.86632274  0.73968721  1
  O  O351  1  0.75024756  0.38767887  0.24742754  1
  O  O352  1  0.74757053  0.37281513  0.74077630  1
  O  O353  1  0.74965766  0.87632307  0.23556998  1
  O  O354  1  0.74933088  0.88153576  0.74284792  1
  O  O355  1  0.25202239  0.11655665  0.26212196  1
  O  O356  1  0.25728850  0.13178682  0.75714144  1
  O  O357  1  0.25491274  0.61183858  0.24131954  1
  O  O358  1  0.24853139  0.61926035  0.75677973  1
  O  O359  1  0.76023576  0.12102166  0.25854798  1
  O  O360  1  0.75624835  0.11860638  0.75935753  1
  O  O361  1  0.75781233  0.61608699  0.25322497  1
  O  O362  1  0.75830299  0.63206750  0.75772205  1
  O  O363  1  0.35483339  0.10739258  0.39636402  1
  O  O364  1  0.36803882  0.11852484  0.86554042  1
  O  O365  1  0.37801934  0.61539712  0.36295328  1
  O  O366  1  0.36082877  0.61516190  0.87362873  1
  O  O367  1  0.87182223  0.12160618  0.37043225  1
  O  O368  1  0.86997968  0.11845079  0.87009487  1
  O  O369  1  0.87225178  0.61915939  0.36774396  1
  O  O370  1  0.86528920  0.62155112  0.86530531  1
  O  O371  1  0.13239225  0.37502393  0.12959067  1
  O  O372  1  0.12644278  0.38410178  0.63490863  1
  O  O373  1  0.11904382  0.86905307  0.13967046  1
  O  O374  1  0.13020412  0.87859362  0.63070919  1
  O  O375  1  0.62869403  0.38874451  0.12371575  1
  O  O376  1  0.63454847  0.38285652  0.62573791  1
  O  O377  1  0.63248173  0.89373743  0.12275755  1
  O  O378  1  0.63284253  0.88735065  0.62275787  1
  O  O379  1  0.12720036  0.26208639  0.24565145  1
  O  O380  1  0.12689723  0.26359556  0.74204560  1
  O  O381  1  0.12598902  0.75721797  0.26037353  1
  O  O382  1  0.11132006  0.75757360  0.74984174  1
  O  O383  1  0.63300096  0.24996870  0.26504248  1
  O  O384  1  0.61657641  0.24901278  0.75980403  1
  O  O385  1  0.62399215  0.74153585  0.26634268  1
  O  O386  1  0.61871367  0.75577243  0.75774058  1
  O  O387  1  0.36823331  0.25435997  0.22986513  1
  O  O388  1  0.38043596  0.24191403  0.74630458  1
  O  O389  1  0.37358604  0.74109470  0.25056944  1
  O  O390  1  0.38283171  0.74775976  0.74982179  1
  O  O391  1  0.87829067  0.23841043  0.24516977  1
  O  O392  1  0.87100261  0.23517150  0.74488182  1
  O  O393  1  0.87783851  0.73673143  0.24916807  1
  O  O394  1  0.88705873  0.74028590  0.75157203  1
  O  O395  1  0.38387919  0.50667943  0.49199363  1
  O  O396  1  0.37714207  0.49436352  0.99230254  1
  O  O397  1  0.37844192  0.98767122  0.49715260  1
  O  O398  1  0.37843167  1.00335341  0.98204792  1
  O  O399  1  0.88494682  0.49257473  0.49726748  1
  O  O400  1  0.88614568  0.50108894  0.99578159  1
  O  O401  1  0.88773964  0.99212555  0.49403221  1
  O  O402  1  0.88521335  1.00773064  0.99192267  1
  O  O403  1  0.11716006  0.01195745  -0.00274922  1
  O  O404  1  0.11289476  0.00388946  0.50130815  1
  O  O405  1  0.11562063  0.50752522  -0.00093840  1
  O  O406  1  0.11139145  0.49609459  0.50834728  1
  O  O407  1  0.62354498  0.01330830  0.01186441  1
  O  O408  1  0.62392015  0.00714771  0.50786098  1
  O  O409  1  0.61944716  0.50611734  0.00536411  1
  O  O410  1  0.61890850  0.51053975  0.50718799  1
  O  O411  1  0.36789433  0.37134945  0.11299637  1
  O  O412  1  0.36514520  0.36411960  0.62332321  1
  O  O413  1  0.37823050  0.87117077  0.11897461  1
  O  O414  1  0.36693297  0.87216681  0.61792496  1
  O  O415  1  0.87713517  0.35966679  0.13125540  1
  O  O416  1  0.87185538  0.36813370  0.62385054  1
  O  O417  1  0.86280575  0.87344253  0.12729926  1
  O  O418  1  0.86800314  0.88277984  0.61614690  1
  O  O419  1  0.13523735  0.12511481  0.38230683  1
  O  O420  1  0.13293890  0.12348337  0.88154493  1
  O  O421  1  0.11851047  0.63836572  0.36848938  1
  O  O422  1  0.13396396  0.62251895  0.88009276  1
  O  O423  1  0.63631381  0.13418511  0.38276445  1
  O  O424  1  0.62871227  0.13126749  0.88696953  1
  O  O425  1  0.62960054  0.62775217  0.38318635  1
  O  O426  1  0.63355494  0.63210136  0.87838698  1
