# generated using pymatgen
data_V85Zn86O256
_symmetry_space_group_name_H-M   'P 1'
_cell_length_a   16.94555209
_cell_length_b   16.94416845
_cell_length_c   16.96749473
_cell_angle_alpha   90.01587312
_cell_angle_beta   90.11467290
_cell_angle_gamma   89.95942410
_symmetry_Int_Tables_number   1
_chemical_formula_structural   V85Zn86O256
_chemical_formula_sum   'V85 Zn86 O256'
_cell_volume   4871.83656746
_cell_formula_units_Z   1
loop_
 _symmetry_equiv_pos_site_id
 _symmetry_equiv_pos_as_xyz
  1  'x, y, z'
loop_
 _atom_site_type_symbol
 _atom_site_label
 _atom_site_symmetry_multiplicity
 _atom_site_fract_x
 _atom_site_fract_y
 _atom_site_fract_z
 _atom_site_occupancy
  V  V0  1  0.37264424  0.12201690  0.75519571  1
  V  V1  1  0.25439457  0.25847040  -0.00016116  1
  V  V2  1  0.62630232  -0.00919192  0.62634712  1
  V  V3  1  0.00436273  0.25418085  0.26287261  1
  V  V4  1  0.37162703  0.26356438  0.62415998  1
  V  V5  1  -0.00065449  0.75428507  0.26205697  1
  V  V6  1  0.63225208  0.24941137  0.37897977  1
  V  V7  1  0.59057494  0.57468962  0.47017105  1
  V  V8  1  -0.00504972  0.62293010  0.63914636  1
  V  V9  1  0.48371887  0.00056413  -0.00054220  1
  V  V10  1  0.63264728  0.12837889  0.50393257  1
  V  V11  1  0.12529878  0.37439101  0.74189638  1
  V  V12  1  0.12694943  0.12573199  -0.00132281  1
  V  V13  1  0.00010416  0.62595282  0.12676348  1
  V  V14  1  0.62627143  0.24812949  0.87743111  1
  V  V15  1  0.75071170  0.75184595  0.50656322  1
  V  V16  1  0.75090878  0.62495197  0.38026363  1
  V  V17  1  0.87471084  0.50477154  0.86921097  1
  V  V18  1  -0.00096050  0.24761601  0.74766531  1
  V  V19  1  0.87696368  0.12241826  0.25682367  1
  V  V20  1  0.75054500  0.87522088  0.12606111  1
  V  V21  1  0.12312558  0.87736240  0.25526086  1
  V  V22  1  0.87776450  0.25204791  0.12749402  1
  V  V23  1  0.50145446  0.74542641  0.23139962  1
  V  V24  1  0.49957967  0.25070111  0.25698043  1
  V  V25  1  0.62347192  0.37050193  0.75200105  1
  V  V26  1  0.00238312  0.12721068  0.12631013  1
  V  V27  1  0.25048432  0.49859273  0.26409303  1
  V  V28  1  0.25258866  0.49335882  0.74854889  1
  V  V29  1  0.87801099  0.11804702  0.75433275  1
  V  V30  1  0.62331080  0.87807898  0.25244981  1
  V  V31  1  0.11901300  0.75522181  0.87451436  1
  V  V32  1  0.37663183  0.48903296  0.88066608  1
  V  V33  1  0.12688652  -0.00250323  0.12525186  1
  V  V34  1  0.12196462  0.37290815  0.26759884  1
  V  V35  1  0.24894580  -0.00345365  0.75090266  1
  V  V36  1  0.26492040  0.75222147  0.00445654  1
  V  V37  1  0.87672987  0.36826868  0.50211919  1
  V  V38  1  0.12730964  0.62677011  0.00342809  1
  V  V39  1  0.62061085  0.61934074  0.00714955  1
  V  V40  1  0.48251984  0.87939500  0.87934443  1
  V  V41  1  0.36810424  0.61893462  0.24134828  1
  V  V42  1  0.62000530  0.74748220  0.87047870  1
  V  V43  1  0.00064963  0.12134067  0.62287376  1
  V  V44  1  -0.00307574  -0.00396829  0.48609689  1
  V  V45  1  0.75121971  0.24889980  0.00139974  1
  V  V46  1  0.49850097  0.49588821  0.01450151  1
  V  V47  1  0.12621612  0.24853068  0.87342261  1
  V  V48  1  0.75215946  0.49855258  0.74319703  1
  V  V49  1  0.62411781  0.75430195  0.38293096  1
  V  V50  1  0.01182154  0.50114910  0.49758246  1
  V  V51  1  0.37073244  -0.00109873  0.37877194  1
  V  V52  1  0.75377466  -0.00490533  0.75034139  1
  V  V53  1  0.26225650  0.87401449  0.12213183  1
  V  V54  1  0.62422191  0.38142441  0.24840834  1
  V  V55  1  0.14602478  0.74622955  0.37582011  1
  V  V56  1  0.62481808  0.00187288  0.12451815  1
  V  V57  1  0.75499639  0.00150377  0.25914311  1
  V  V58  1  0.37726231  0.25597133  0.12380008  1
  V  V59  1  0.25358744  0.62367540  0.87805324  1
  V  V60  1  0.12653932  -0.00975351  0.62113007  1
  V  V61  1  0.24478167  0.13046901  0.37724564  1
  V  V62  1  0.87513356  0.62419057  0.25116068  1
  V  V63  1  0.87687189  0.75115601  0.12354345  1
  V  V64  1  0.74885720  0.74727493  -0.00031289  1
  V  V65  1  0.38340728  0.37520331  0.48652961  1
  V  V66  1  0.12753295  0.49599910  0.12665606  1
  V  V67  1  0.88217890  0.49415074  0.37717568  1
  V  V68  1  -0.00305455  -0.00565461  -0.00718420  1
  V  V69  1  -0.00171468  0.37439406  0.87364591  1
  V  V70  1  0.49716456  -0.01182030  0.50037111  1
  V  V71  1  0.60862783  0.49820827  0.62735898  1
  V  V72  1  -0.00091573  0.50105085  0.00012252  1
  V  V73  1  0.87221085  0.87765121  0.48619170  1
  V  V74  1  0.62328079  0.87834466  0.75635652  1
  V  V75  1  0.49660101  0.12468436  0.62239678  1
  V  V76  1  0.24106325  0.26207250  0.49892852  1
  V  V77  1  0.74882996  0.62476931  0.86387039  1
  V  V78  1  0.74865955  0.50085912  0.24813493  1
  V  V79  1  0.49966011  0.24915802  0.75206074  1
  V  V80  1  0.62495488  0.12180909  0.00211606  1
  V  V81  1  0.74704160  0.38110269  0.12483958  1
  V  V82  1  0.75594351  0.11636013  0.87887429  1
  V  V83  1  0.87447338  0.37531349  -0.00117793  1
  V  V84  1  0.88160086  0.75470868  0.63211844  1
  Zn  Zn85  1  0.49863125  0.12593337  0.12816695  1
  Zn  Zn86  1  0.12198165  0.13027999  0.49676385  1
  Zn  Zn87  1  0.25380389  0.37883127  0.12506745  1
  Zn  Zn88  1  0.27346165  0.84864628  0.62344009  1
  Zn  Zn89  1  0.75597659  0.12487886  0.38405585  1
  Zn  Zn90  1  0.12187109  0.86751746  0.74283475  1
  Zn  Zn91  1  0.37629332  0.62884794  0.74546824  1
  Zn  Zn92  1  0.49870605  0.37358395  0.88207621  1
  Zn  Zn93  1  0.25220797  0.00348005  0.25128266  1
  Zn  Zn94  1  0.86759358  0.24339474  0.62013678  1
  Zn  Zn95  1  0.49083933  0.87079579  0.37381491  1
  Zn  Zn96  1  0.13037639  0.50373053  0.62456546  1
  Zn  Zn97  1  -0.01739673  0.86965469  0.85784845  1
  Zn  Zn98  1  0.49453600  0.63051033  0.62474397  1
  Zn  Zn99  1  0.48455803  0.75418801  0.74283484  1
  Zn  Zn100  1  0.87065930  0.88201627  -0.00313676  1
  Zn  Zn101  1  0.13272564  0.64453987  0.51355460  1
  Zn  Zn102  1  0.37473355  0.12797252  0.25332273  1
  Zn  Zn103  1  0.31450009  0.82145271  0.46122038  1
  Zn  Zn104  1  0.50864542  0.39685965  0.38087213  1
  Zn  Zn105  1  0.25472588  0.11980774  0.87695271  1
  Zn  Zn106  1  0.74672029  0.36399458  0.61851710  1
  Zn  Zn107  1  0.19000173  0.19054477  0.18915459  1
  Zn  Zn108  1  0.18871377  0.18537737  0.68162867  1
  Zn  Zn109  1  0.19025148  0.68898070  0.18860472  1
  Zn  Zn110  1  0.18748437  0.68394954  0.69288235  1
  Zn  Zn111  1  0.68780946  0.19033580  0.18987038  1
  Zn  Zn112  1  0.68958267  0.18355621  0.68747228  1
  Zn  Zn113  1  0.68394690  0.68829662  0.19056128  1
  Zn  Zn114  1  0.64064888  0.71627547  0.65020220  1
  Zn  Zn115  1  0.30995322  0.31536915  0.31468123  1
  Zn  Zn116  1  0.31275838  0.31064393  0.81394694  1
  Zn  Zn117  1  0.31908774  0.81350188  0.29183238  1
  Zn  Zn118  1  0.30529980  0.81099057  0.80960230  1
  Zn  Zn119  1  0.81398862  0.31201797  0.31506738  1
  Zn  Zn120  1  0.81118882  0.30857673  0.80885516  1
  Zn  Zn121  1  0.81117965  0.81130167  0.31188572  1
  Zn  Zn122  1  0.80980719  0.81190096  0.81333506  1
  Zn  Zn123  1  0.24265466  0.49209424  0.47731829  1
  Zn  Zn124  1  0.18408191  0.43674927  0.93531245  1
  Zn  Zn125  1  0.18388424  0.93930116  0.43852129  1
  Zn  Zn126  1  0.19254274  0.93622976  0.93803512  1
  Zn  Zn127  1  0.69516702  0.43067790  0.43347744  1
  Zn  Zn128  1  0.68577157  0.43958978  0.93738858  1
  Zn  Zn129  1  0.68728011  0.93663745  0.44111074  1
  Zn  Zn130  1  0.68627364  0.93620929  0.93862021  1
  Zn  Zn131  1  0.31042104  0.07121672  0.06922182  1
  Zn  Zn132  1  0.30978922  0.06085971  0.56069167  1
  Zn  Zn133  1  0.31686625  0.56322523  0.06736137  1
  Zn  Zn134  1  0.31096002  0.66412411  0.56131334  1
  Zn  Zn135  1  0.81464586  0.06273038  0.07010083  1
  Zn  Zn136  1  0.81380173  0.05695749  0.56713787  1
  Zn  Zn137  1  0.80972650  0.56448553  0.05891577  1
  Zn  Zn138  1  0.81524487  0.56306565  0.56170330  1
  Zn  Zn139  1  0.43610310  0.43484721  0.18987791  1
  Zn  Zn140  1  0.37985968  0.48785217  0.62524017  1
  Zn  Zn141  1  0.44044730  0.94200542  0.19178111  1
  Zn  Zn142  1  0.43514661  0.93825193  0.69051459  1
  Zn  Zn143  1  0.93930837  0.43706382  0.18950012  1
  Zn  Zn144  1  0.93746014  0.43703704  0.68382105  1
  Zn  Zn145  1  0.93967584  0.93783058  0.18573602  1
  Zn  Zn146  1  0.93936226  0.93313520  0.68174214  1
  Zn  Zn147  1  0.06578030  0.06617171  0.31224021  1
  Zn  Zn148  1  0.06579690  0.05670040  0.81128304  1
  Zn  Zn149  1  0.06601752  0.56521186  0.31507359  1
  Zn  Zn150  1  0.06562605  0.56440620  0.81332313  1
  Zn  Zn151  1  0.56135487  0.06416092  0.31734706  1
  Zn  Zn152  1  0.55976587  0.06205465  0.81584276  1
  Zn  Zn153  1  0.54866396  0.56778879  0.30155983  1
  Zn  Zn154  1  0.55653414  0.56174532  0.81126956  1
  Zn  Zn155  1  0.43756525  0.18585720  0.43833121  1
  Zn  Zn156  1  0.43782808  0.18651287  0.93935614  1
  Zn  Zn157  1  0.43879738  0.67741427  0.41652138  1
  Zn  Zn158  1  0.43974479  0.68279384  0.93350879  1
  Zn  Zn159  1  0.94024084  0.18608599  0.43621266  1
  Zn  Zn160  1  0.93899482  0.18505178  0.93683030  1
  Zn  Zn161  1  0.93935116  0.68277005  0.44414456  1
  Zn  Zn162  1  0.93553437  0.68692072  0.93679479  1
  Zn  Zn163  1  0.06346345  0.31263729  0.06406414  1
  Zn  Zn164  1  0.05647951  0.31492502  0.56038876  1
  Zn  Zn165  1  0.06764195  0.81233106  0.06338410  1
  Zn  Zn166  1  0.05701729  0.81280705  0.55748565  1
  Zn  Zn167  1  0.56282923  0.31322466  0.06583995  1
  Zn  Zn168  1  0.56234814  0.31221789  0.56415116  1
  Zn  Zn169  1  0.56492216  0.81752860  0.05522079  1
  Zn  Zn170  1  0.45687532  0.80097051  0.56532341  1
  O  O171  1  0.12284678  0.11895676  0.11871411  1
  O  O172  1  0.11133455  0.11955739  0.62185294  1
  O  O173  1  0.12074020  0.61604172  0.12443835  1
  O  O174  1  0.10717980  0.62226846  0.63045273  1
  O  O175  1  0.62547083  0.12014173  0.11923918  1
  O  O176  1  0.61366537  0.11833734  0.62251027  1
  O  O177  1  0.63804610  0.62835823  0.10405230  1
  O  O178  1  0.62171792  0.60268554  0.60979098  1
  O  O179  1  0.38465270  0.37452486  0.38304939  1
  O  O180  1  0.37551773  0.38501139  0.87776061  1
  O  O181  1  0.37190808  0.88182747  0.37278852  1
  O  O182  1  0.38460894  0.87473274  0.87390399  1
  O  O183  1  0.87249794  0.38693434  0.38231490  1
  O  O184  1  0.87836974  0.38002414  0.88061894  1
  O  O185  1  0.87405086  0.87164733  0.38694691  1
  O  O186  1  0.87545080  0.86099655  0.88723652  1
  O  O187  1  0.25601443  0.00970333  0.37533493  1
  O  O188  1  0.24142649  0.00191993  0.85792067  1
  O  O189  1  0.24478838  0.49393489  0.36212087  1
  O  O190  1  0.25572973  0.50536921  0.87710137  1
  O  O191  1  0.74509717  0.00283524  0.36176899  1
  O  O192  1  0.74588213  0.01071495  0.87138031  1
  O  O193  1  0.75762293  0.50785197  0.36860172  1
  O  O194  1  0.75636639  0.50370505  0.86794239  1
  O  O195  1  0.24055602  0.49963153  0.13136344  1
  O  O196  1  0.25022991  0.49183685  0.64713192  1
  O  O197  1  0.23928434  0.99623018  0.12469309  1
  O  O198  1  0.23651137  1.01136816  0.63396860  1
  O  O199  1  0.75790107  0.48873780  0.13033385  1
  O  O200  1  0.75271077  0.49900315  0.63832261  1
  O  O201  1  0.74381432  0.99493017  0.13389609  1
  O  O202  1  0.73867680  1.00653680  0.63886103  1
  O  O203  1  0.01213396  0.36840382  0.24627928  1
  O  O204  1  0.00410819  0.36934718  0.75556303  1
  O  O205  1  0.00985691  0.86601904  0.24225341  1
  O  O206  1  0.00987014  0.88409907  0.75163883  1
  O  O207  1  0.50901326  0.37267032  0.25780773  1
  O  O208  1  0.51731591  0.36560068  0.75811863  1
  O  O209  1  0.50953220  0.86918586  0.25240478  1
  O  O210  1  0.50669076  0.87863695  0.76583986  1
  O  O211  1  0.50146540  0.13668118  0.24915383  1
  O  O212  1  0.49386392  0.12829032  0.74317129  1
  O  O213  1  0.53567776  0.64977695  0.22527933  1
  O  O214  1  0.49832032  0.63242627  0.74863209  1
  O  O215  1  0.99602639  0.13168910  0.24484643  1
  O  O216  1  0.99385443  0.12419423  0.74505390  1
  O  O217  1  0.99428712  0.63212843  0.24431481  1
  O  O218  1  0.99357141  0.61668725  0.73837046  1
  O  O219  1  0.36539446  0.24376415  0.00825016  1
  O  O220  1  0.37017632  0.25772200  0.50566116  1
  O  O221  1  0.36384662  0.74228449  -0.00307074  1
  O  O222  1  0.38340720  0.73720074  0.49472690  1
  O  O223  1  0.87047375  0.25467302  0.00519088  1
  O  O224  1  0.88214729  0.26465722  0.49648663  1
  O  O225  1  0.86804957  0.74289516  0.01411591  1
  O  O226  1  0.86945929  0.75891694  0.50263028  1
  O  O227  1  0.13738478  0.25250940  0.50662493  1
  O  O228  1  0.12917276  0.24196292  0.99641922  1
  O  O229  1  0.11758676  0.75642754  0.47693232  1
  O  O230  1  0.13218340  0.74185704  0.99545029  1
  O  O231  1  0.62008597  0.24089650  0.49222262  1
  O  O232  1  0.63169229  0.24222199  0.99788093  1
  O  O233  1  0.63722101  0.75979646  0.48485682  1
  O  O234  1  0.62809203  0.74187413  0.98931846  1
  O  O235  1  0.49516485  0.25133529  0.13631039  1
  O  O236  1  0.49446595  0.24268996  0.63240680  1
  O  O237  1  0.50160641  0.76720539  0.13464876  1
  O  O238  1  0.52864126  0.74399690  0.63187215  1
  O  O239  1  0.99559400  0.24437460  0.13022479  1
  O  O240  1  0.99542126  0.23986798  0.63093398  1
  O  O241  1  0.99381939  0.74515257  0.13041759  1
  O  O242  1  0.98980536  0.74074991  0.62295294  1
  O  O243  1  0.00297989  0.24653646  0.36201977  1
  O  O244  1  0.00561290  0.25333989  0.86832469  1
  O  O245  1  -0.00372886  0.74609099  0.36233970  1
  O  O246  1  0.01540102  0.74834089  0.88419052  1
  O  O247  1  0.51060814  0.24807165  0.36601239  1
  O  O248  1  0.50764948  0.25042914  0.87116836  1
  O  O249  1  0.51326526  0.75262971  0.36091769  1
  O  O250  1  0.50646175  0.76268582  0.87760611  1
  O  O251  1  0.24783242  0.13733630  0.49368800  1
  O  O252  1  0.23853018  0.13173650  0.99871033  1
  O  O253  1  0.23533977  0.60072625  0.50472100  1
  O  O254  1  0.24572081  0.62886158  0.99774862  1
  O  O255  1  0.73705317  0.11572563  0.50229006  1
  O  O256  1  0.74779022  0.12692462  0.99604924  1
  O  O257  1  0.75207990  0.63005960  0.48761855  1
  O  O258  1  0.74010416  0.62673267  0.98783472  1
  O  O259  1  0.24158452  0.36139400  0.00206313  1
  O  O260  1  0.26003481  0.36348747  0.49486643  1
  O  O261  1  0.24701101  0.86638616  0.01040463  1
  O  O262  1  0.24901107  0.89141689  0.51483014  1
  O  O263  1  0.75342451  0.37154656  0.00731418  1
  O  O264  1  0.77137865  0.38155258  0.50197399  1
  O  O265  1  0.74765617  0.86623357  0.00898955  1
  O  O266  1  0.76297382  0.86864808  0.49699698  1
  O  O267  1  0.12748483  0.49212244  0.24491019  1
  O  O268  1  0.13366436  0.49066305  0.75435962  1
  O  O269  1  0.12493123  0.99395262  0.24212175  1
  O  O270  1  0.13232674  1.00136375  0.73738666  1
  O  O271  1  0.63120654  0.48791414  0.25103540  1
  O  O272  1  0.63047154  0.49144314  0.74178059  1
  O  O273  1  0.62950796  0.99344837  0.24633863  1
  O  O274  1  0.63076533  0.99789815  0.74814789  1
  O  O275  1  0.37584594  0.00504008  0.26500308  1
  O  O276  1  0.36395421  0.01153717  0.74308984  1
  O  O277  1  0.36024154  0.50383579  0.24107353  1
  O  O278  1  0.35948311  0.49692464  0.76156262  1
  O  O279  1  0.86753908  0.00953416  0.24201568  1
  O  O280  1  0.86749770  0.00907267  0.74366996  1
  O  O281  1  0.87114713  0.50389265  0.25789441  1
  O  O282  1  0.86698253  0.49074500  0.76182181  1
  O  O283  1  0.12311521  0.37556913  0.36206880  1
  O  O284  1  0.11532998  0.36788235  0.86875580  1
  O  O285  1  0.12936792  0.86815188  0.36085291  1
  O  O286  1  0.12549265  0.85900368  0.88026871  1
  O  O287  1  0.62763533  0.36535335  0.36746938  1
  O  O288  1  0.62935445  0.36384979  0.87036069  1
  O  O289  1  0.62556299  0.87141353  0.36651391  1
  O  O290  1  0.62022873  0.86835439  0.86969044  1
  O  O291  1  0.37744512  0.13927402  0.13298302  1
  O  O292  1  0.38531671  0.13270263  0.62951953  1
  O  O293  1  0.38468031  0.62095432  0.14239495  1
  O  O294  1  0.38173168  0.60361620  0.62924516  1
  O  O295  1  0.88172425  0.13284634  0.13561838  1
  O  O296  1  0.88553600  0.12271058  0.63277399  1
  O  O297  1  0.87745614  0.63074531  0.13199464  1
  O  O298  1  0.88639572  0.63861164  0.61485477  1
  O  O299  1  0.25735127  0.25207885  0.11694057  1
  O  O300  1  0.25982359  0.24568179  0.61069533  1
  O  O301  1  0.24619928  0.76101158  0.11791625  1
  O  O302  1  0.24106502  0.73957911  0.61437668  1
  O  O303  1  0.75742648  0.25934832  0.12081558  1
  O  O304  1  0.75484481  0.25084559  0.63046533  1
  O  O305  1  0.75789281  0.75463487  0.12343215  1
  O  O306  1  0.74894375  0.74126313  0.60888599  1
  O  O307  1  0.25532938  0.24502743  0.38972874  1
  O  O308  1  0.24425731  0.24546194  0.88311504  1
  O  O309  1  0.24792497  0.75774599  0.37262474  1
  O  O310  1  0.24177934  0.74140272  0.88569919  1
  O  O311  1  0.73707177  0.24440364  0.36840906  1
  O  O312  1  0.74690907  0.23819239  0.88202613  1
  O  O313  1  0.74622704  0.74148180  0.37861614  1
  O  O314  1  0.74091879  0.74065983  0.87960320  1
  O  O315  1  0.01001024  0.11814914  0.00495538  1
  O  O316  1  -0.00345841  0.11483988  0.50638875  1
  O  O317  1  0.00529569  0.61880082  0.00713217  1
  O  O318  1  0.00933351  0.61679016  0.50736022  1
  O  O319  1  0.50853725  0.11739922  0.00171601  1
  O  O320  1  0.50902763  0.11853415  0.50797121  1
  O  O321  1  0.51304758  0.61530778  -0.00350786  1
  O  O322  1  0.50676820  0.62380829  0.50019516  1
  O  O323  1  0.48759442  0.36886939  0.49606745  1
  O  O324  1  0.51135325  0.39121817  0.99856998  1
  O  O325  1  0.50538016  0.88633310  0.49505550  1
  O  O326  1  0.50190005  0.88541442  0.98731681  1
  O  O327  1  0.98707609  0.38651468  0.50367959  1
  O  O328  1  0.99503746  0.38109397  0.99415055  1
  O  O329  1  0.98879611  0.88773770  0.49793542  1
  O  O330  1  1.00222238  0.89012033  1.00517217  1
  O  O331  1  0.54729327  0.50651433  0.39635588  1
  O  O332  1  0.49052527  0.49722885  0.88274322  1
  O  O333  1  0.49279501  0.99876283  0.38448695  1
  O  O334  1  0.50176841  0.98859476  0.88447955  1
  O  O335  1  0.99224120  0.50818766  0.38284913  1
  O  O336  1  0.99200565  0.49738764  0.87942091  1
  O  O337  1  1.00045244  1.00709967  0.38761490  1
  O  O338  1  1.00583011  0.99813834  0.89134673  1
  O  O339  1  0.01231525  0.00663396  0.11884331  1
  O  O340  1  0.00561268  0.00633714  0.61446140  1
  O  O341  1  0.00507957  0.50643854  0.12065304  1
  O  O342  1  -0.00440018  0.51208299  0.61770333  1
  O  O343  1  0.50741506  0.00121522  0.11736880  1
  O  O344  1  0.50616053  0.00795862  0.61942037  1
  O  O345  1  0.50039774  0.49571702  0.11336619  1
  O  O346  1  0.50999772  0.49254588  0.62884438  1
  O  O347  1  0.23742111  0.37988014  0.24741229  1
  O  O348  1  0.23857498  0.38452621  0.76373315  1
  O  O349  1  0.24086049  0.87919849  0.23881565  1
  O  O350  1  0.24269374  0.88259197  0.74065696  1
  O  O351  1  0.74601016  0.37906768  0.24292074  1
  O  O352  1  0.73977488  0.38171714  0.75218264  1
  O  O353  1  0.74555155  0.88286244  0.24549685  1
  O  O354  1  0.74068366  0.88935536  0.75941604  1
  O  O355  1  0.25145115  0.12586520  0.26064835  1
  O  O356  1  0.25783049  0.12109562  0.75065252  1
  O  O357  1  0.26206757  0.62015727  0.25158922  1
  O  O358  1  0.24507148  0.60810223  0.76371194  1
  O  O359  1  0.75935851  0.11773401  0.24812291  1
  O  O360  1  0.75706779  0.11529307  0.76058831  1
  O  O361  1  0.75402674  0.62161097  0.25927503  1
  O  O362  1  0.74263052  0.61221068  0.76241901  1
  O  O363  1  0.36472844  0.11987501  0.37523954  1
  O  O364  1  0.37552501  0.13107176  0.85893681  1
  O  O365  1  0.42549431  0.60387856  0.33028656  1
  O  O366  1  0.36270480  0.61337545  0.87727196  1
  O  O367  1  0.87284528  0.12907659  0.36149630  1
  O  O368  1  0.86767576  0.12447874  0.86840431  1
  O  O369  1  0.86874472  0.61775641  0.37049171  1
  O  O370  1  0.86478313  0.61477936  0.87945534  1
  O  O371  1  0.12410367  0.38917110  0.12568714  1
  O  O372  1  0.11682899  0.37743063  0.63999295  1
  O  O373  1  0.13075512  0.88312159  0.13281123  1
  O  O374  1  0.11879124  0.88611343  0.62100078  1
  O  O375  1  0.63759806  0.36919380  0.13488731  1
  O  O376  1  0.62759532  0.38055811  0.63407460  1
  O  O377  1  0.63172196  0.88158127  0.13207738  1
  O  O378  1  0.62098039  0.88926679  0.64359343  1
  O  O379  1  0.11845683  0.26515396  0.24286172  1
  O  O380  1  0.12037401  0.25452841  0.75298932  1
  O  O381  1  0.12001500  0.75716051  0.25868824  1
  O  O382  1  0.12970323  0.74736584  0.77153648  1
  O  O383  1  0.61904228  0.25949566  0.25565582  1
  O  O384  1  0.62234019  0.25215030  0.75802401  1
  O  O385  1  0.62734872  0.76628662  0.25604235  1
  O  O386  1  0.62917100  0.76259081  0.76104207  1
  O  O387  1  0.38477740  0.25312011  0.24713272  1
  O  O388  1  0.37842103  0.24620719  0.74167569  1
  O  O389  1  0.39329761  0.73471237  0.25092087  1
  O  O390  1  0.37140409  0.74312940  0.75327929  1
  O  O391  1  0.88382454  0.24670796  0.24588426  1
  O  O392  1  0.88230480  0.23527270  0.75210093  1
  O  O393  1  0.88060831  0.74721119  0.24068705  1
  O  O394  1  0.86161416  0.75296090  0.72878090  1
  O  O395  1  0.36240779  0.47377931  0.50692947  1
  O  O396  1  0.39048620  0.50524704  0.99661876  1
  O  O397  1  0.38511123  1.00909421  0.48881455  1
  O  O398  1  0.38482275  1.01149949  1.00415880  1
  O  O399  1  0.88465947  0.49550804  0.49261659  1
  O  O400  1  0.87863030  0.49499034  0.99040800  1
  O  O401  1  0.88137936  0.98698138  0.50309445  1
  O  O402  1  0.89340449  1.00273750  1.00932552  1
  O  O403  1  0.11963739  0.00659766  0.00588680  1
  O  O404  1  0.11008550  0.00436717  0.50380640  1
  O  O405  1  0.11945758  0.50620494  0.00735196  1
  O  O406  1  0.11432857  0.48756302  0.50613753  1
  O  O407  1  0.62153154  0.00648694  0.00667574  1
  O  O408  1  0.61909822  0.00412602  0.51021399  1
  O  O409  1  0.61603100  0.51167943  -0.00489377  1
  O  O410  1  0.63666905  0.48656371  0.51899269  1
  O  O411  1  0.37228601  0.36161491  0.12783986  1
  O  O412  1  0.37991777  0.36504427  0.61834852  1
  O  O413  1  0.36086367  0.88300707  0.13321109  1
  O  O414  1  0.38595090  0.87139063  0.61854609  1
  O  O415  1  0.87002629  0.37092773  0.11893191  1
  O  O416  1  0.87393173  0.37150377  0.61306590  1
  O  O417  1  0.86972872  0.86700142  0.12099933  1
  O  O418  1  0.87863931  0.85966873  0.61191454  1
  O  O419  1  0.13922134  0.12414777  0.37799222  1
  O  O420  1  0.12436913  0.13110897  0.88368804  1
  O  O421  1  0.12886638  0.64612292  0.36794140  1
  O  O422  1  0.13410325  0.62937248  0.88403770  1
  O  O423  1  0.62771270  0.13064983  0.38692871  1
  O  O424  1  0.63271244  0.12966780  0.88244051  1
  O  O425  1  0.63282472  0.63376696  0.37991050  1
  O  O426  1  0.62907252  0.63202762  0.88037326  1
