# generated using pymatgen
data_V85Zn86O256
_symmetry_space_group_name_H-M   'P 1'
_cell_length_a   16.94156343
_cell_length_b   16.94556508
_cell_length_c   16.93738237
_cell_angle_alpha   90.01600565
_cell_angle_beta   89.96346086
_cell_angle_gamma   89.99411371
_symmetry_Int_Tables_number   1
_chemical_formula_structural   V85Zn86O256
_chemical_formula_sum   'V85 Zn86 O256'
_cell_volume   4862.45646842
_cell_formula_units_Z   1
loop_
 _symmetry_equiv_pos_site_id
 _symmetry_equiv_pos_as_xyz
  1  'x, y, z'
loop_
 _atom_site_type_symbol
 _atom_site_label
 _atom_site_symmetry_multiplicity
 _atom_site_fract_x
 _atom_site_fract_y
 _atom_site_fract_z
 _atom_site_occupancy
  V  V0  1  0.37508975  0.25026296  0.12253472  1
  V  V1  1  0.86939284  0.36636114  -0.00022351  1
  V  V2  1  -0.00013867  0.37373505  0.37283730  1
  V  V3  1  0.62189297  0.74925028  0.37715137  1
  V  V4  1  0.50024884  0.75165854  0.74743504  1
  V  V5  1  -0.00075863  0.50414322  0.00430552  1
  V  V6  1  0.25103276  0.25182594  -0.00424487  1
  V  V7  1  0.62840075  0.75109647  0.88276112  1
  V  V8  1  0.74558444  0.36790598  0.12253661  1
  V  V9  1  0.38034529  -0.00498224  0.89319176  1
  V  V10  1  0.50491159  -0.00311538  0.50068726  1
  V  V11  1  0.13301324  0.74987518  0.38463527  1
  V  V12  1  0.66147434  0.85144709  0.22681586  1
  V  V13  1  0.74999707  0.74653776  0.49743499  1
  V  V14  1  0.75329028  0.12287190  0.37234782  1
  V  V15  1  0.87058496  0.87975942  0.49079278  1
  V  V16  1  0.00098614  0.24516157  0.74524656  1
  V  V17  1  0.49951856  0.11990229  0.11456054  1
  V  V18  1  0.50882893  0.37777816  0.87219618  1
  V  V19  1  0.62517109  -0.00209344  0.12347142  1
  V  V20  1  0.12594718  0.50226762  0.12854551  1
  V  V21  1  0.75061611  0.49901002  0.24655092  1
  V  V22  1  0.87268405  0.62624891  0.75183592  1
  V  V23  1  0.74338773  0.49449725  0.75188352  1
  V  V24  1  0.12381891  0.62707558  0.00396436  1
  V  V25  1  0.49266133  0.75222820  0.25221775  1
  V  V26  1  -0.00203054  0.75354948  0.75144336  1
  V  V27  1  0.75125122  0.62978874  0.88465272  1
  V  V28  1  0.49098503  0.50284942  0.49917437  1
  V  V29  1  0.75941629  0.00738870  0.24484801  1
  V  V30  1  0.12923054  0.49878283  0.62627775  1
  V  V31  1  0.38095866  0.12289615  0.75176055  1
  V  V32  1  0.88933520  0.62016598  0.24315981  1
  V  V33  1  0.76168805  0.25460103  0.49809461  1
  V  V34  1  0.62465637  0.25243829  0.37512025  1
  V  V35  1  0.87239958  0.74975583  0.62292544  1
  V  V36  1  0.36673332  0.61328594  0.25551709  1
  V  V37  1  0.12313014  0.24886010  0.87625969  1
  V  V38  1  0.13030939  0.87318934  0.24426160  1
  V  V39  1  0.74890567  0.87501529  0.62496157  1
  V  V40  1  0.25116618  0.12301387  0.87758233  1
  V  V41  1  0.63003693  0.12946513  -0.00166193  1
  V  V42  1  -0.00635192  0.87396124  0.36841048  1
  V  V43  1  0.88526968  0.24625624  0.13383401  1
  V  V44  1  0.76021426  0.12766172  0.87891108  1
  V  V45  1  0.50287681  0.62064148  0.12814871  1
  V  V46  1  0.87470499  0.50104801  0.87620053  1
  V  V47  1  0.00008114  0.62628998  0.62244504  1
  V  V48  1  0.62739927  0.00014199  0.62673913  1
  V  V49  1  0.37850822  -0.00376456  0.37401208  1
  V  V50  1  -0.00020344  0.37375400  0.87369323  1
  V  V51  1  0.87602069  0.49825141  0.37884433  1
  V  V52  1  0.25171188  0.13161612  0.39056872  1
  V  V53  1  0.25436842  0.49270964  0.75176645  1
  V  V54  1  0.50225873  0.13351726  0.62650404  1
  V  V55  1  0.48823507  0.37938434  0.37464645  1
  V  V56  1  -0.00929605  0.88972989  0.88683362  1
  V  V57  1  0.35708707  0.75536323  0.62280692  1
  V  V58  1  0.49830339  0.87636662  0.88931476  1
  V  V59  1  0.85583769  0.87705867  0.00997709  1
  V  V60  1  0.25105964  0.38004382  0.12978915  1
  V  V61  1  0.12375934  0.36423373  0.25141415  1
  V  V62  1  0.62270135  0.38271675  0.24749682  1
  V  V63  1  -0.00516785  0.00190546  0.49593330  1
  V  V64  1  0.37198583  0.36173393  0.51132323  1
  V  V65  1  0.01172490  0.11734295  0.61827041  1
  V  V66  1  0.12289953  0.88284667  0.75181495  1
  V  V67  1  0.00426509  0.74378916  0.23845900  1
  V  V68  1  0.10969648  0.12301168  0.00341246  1
  V  V69  1  0.37115673  0.75561988  0.11930139  1
  V  V70  1  0.50973701  0.50142033  0.00408345  1
  V  V71  1  0.50101775  0.87525674  0.37385102  1
  V  V72  1  0.12423265  0.75078546  0.87558110  1
  V  V73  1  0.50716868  0.25286699  0.75244049  1
  V  V74  1  0.50187023  0.25011163  0.24826460  1
  V  V75  1  0.75607469  0.37499198  0.62225367  1
  V  V76  1  -0.00288694  0.49403725  0.50438582  1
  V  V77  1  0.37565749  0.12332904  0.24890089  1
  V  V78  1  0.11383791  0.00508649  0.12272810  1
  V  V79  1  0.25400855  -0.00485421  0.75486246  1
  V  V80  1  0.62717011  0.12684369  0.49834920  1
  V  V81  1  0.37657555  0.38050792  -0.00593415  1
  V  V82  1  0.75734145  0.00039761  0.75518849  1
  V  V83  1  0.62065186  0.49595705  0.62733335  1
  V  V84  1  0.16865801  -0.03159614  0.58448540  1
  Zn  Zn85  1  0.12026679  0.24023322  0.38186997  1
  Zn  Zn86  1  0.12359017  0.37451453  0.74691015  1
  Zn  Zn87  1  0.87973063  0.11998878  0.74683368  1
  Zn  Zn88  1  0.63259106  0.25336387  0.87696020  1
  Zn  Zn89  1  0.26302332  0.60841061  0.38633134  1
  Zn  Zn90  1  0.25167854  0.00182203  0.24640888  1
  Zn  Zn91  1  0.49859051  0.62750439  0.62586327  1
  Zn  Zn92  1  0.62168154  0.62272196  0.50070203  1
  Zn  Zn93  1  0.85414879  0.75095886  0.12584835  1
  Zn  Zn94  1  0.37313222  0.62697140  0.75134441  1
  Zn  Zn95  1  0.13835465  0.63277631  0.50631673  1
  Zn  Zn96  1  0.37764374  0.50721122  0.87523115  1
  Zn  Zn97  1  0.90881122  0.12020310  0.24114110  1
  Zn  Zn98  1  0.25073017  0.62257236  0.87461296  1
  Zn  Zn99  1  0.63252632  0.62629277  0.00954858  1
  Zn  Zn100  1  0.25595464  0.88456508  0.11062853  1
  Zn  Zn101  1  0.25419013  0.75295964  -0.00606920  1
  Zn  Zn102  1  0.62630951  0.87481111  0.75402132  1
  Zn  Zn103  1  0.75047835  0.62204445  0.37459136  1
  Zn  Zn104  1  0.88142547  0.24829983  0.61905656  1
  Zn  Zn105  1  0.35029674  0.87836582  0.50930831  1
  Zn  Zn106  1  0.23941587  0.35630213  0.61167838  1
  Zn  Zn107  1  0.18870254  0.18698978  0.18653960  1
  Zn  Zn108  1  0.18899953  0.18662101  0.57134225  1
  Zn  Zn109  1  0.18906753  0.68575196  0.18799785  1
  Zn  Zn110  1  0.18645882  0.68459178  0.69371632  1
  Zn  Zn111  1  0.68820678  0.19080529  0.18427966  1
  Zn  Zn112  1  0.68985578  0.18830332  0.68965746  1
  Zn  Zn113  1  0.68526980  0.67774776  0.19531923  1
  Zn  Zn114  1  0.68330836  0.68327283  0.69142196  1
  Zn  Zn115  1  0.31201990  0.31262076  0.31018547  1
  Zn  Zn116  1  0.27633874  0.26889596  0.75416828  1
  Zn  Zn117  1  0.31128723  0.81151090  0.31115640  1
  Zn  Zn118  1  0.31431586  0.81325175  0.81327058  1
  Zn  Zn119  1  0.81416740  0.31357093  0.31272495  1
  Zn  Zn120  1  0.81412888  0.31020544  0.80866365  1
  Zn  Zn121  1  0.81256001  0.80439955  0.30349804  1
  Zn  Zn122  1  0.81294265  0.81530050  0.81630788  1
  Zn  Zn123  1  0.19020895  0.43892019  0.43852595  1
  Zn  Zn124  1  0.18786751  0.43809617  0.93702820  1
  Zn  Zn125  1  0.18578030  0.94102556  0.41908514  1
  Zn  Zn126  1  0.18499757  0.93564315  0.94117472  1
  Zn  Zn127  1  0.68386288  0.43696582  0.43812713  1
  Zn  Zn128  1  0.68752755  0.44063295  0.93914249  1
  Zn  Zn129  1  0.68717495  0.93547497  0.42961402  1
  Zn  Zn130  1  0.68697303  0.94224410  0.93879422  1
  Zn  Zn131  1  0.30607828  0.06219010  0.06406447  1
  Zn  Zn132  1  0.32589289  0.05946522  0.56535659  1
  Zn  Zn133  1  0.31281904  0.56664752  0.06286493  1
  Zn  Zn134  1  0.31398564  0.56415749  0.56725234  1
  Zn  Zn135  1  0.81875450  0.06057921  0.06181557  1
  Zn  Zn136  1  0.81704349  0.06657072  0.56258302  1
  Zn  Zn137  1  0.81443536  0.55739050  0.06698366  1
  Zn  Zn138  1  0.81109537  0.56248539  0.56283307  1
  Zn  Zn139  1  0.43618531  0.43907196  0.18548265  1
  Zn  Zn140  1  0.43461734  0.43381386  0.68720142  1
  Zn  Zn141  1  0.44210322  0.93628252  0.18525873  1
  Zn  Zn142  1  0.43912722  0.93372983  0.69200439  1
  Zn  Zn143  1  0.93955728  0.43219527  0.18757333  1
  Zn  Zn144  1  0.93399300  0.43730364  0.68859775  1
  Zn  Zn145  1  0.93564863  0.93296941  0.18157484  1
  Zn  Zn146  1  0.93753331  0.93575073  0.68384067  1
  Zn  Zn147  1  0.06692554  0.05616506  0.31294803  1
  Zn  Zn148  1  0.06377911  0.06364280  0.81276908  1
  Zn  Zn149  1  0.09401694  0.54631214  0.32916881  1
  Zn  Zn150  1  0.06308148  0.56377262  0.81223226  1
  Zn  Zn151  1  0.56823068  0.05973298  0.30536636  1
  Zn  Zn152  1  0.56739888  0.05876902  0.81572905  1
  Zn  Zn153  1  0.55877907  0.56317858  0.31483113  1
  Zn  Zn154  1  0.56335578  0.56616147  0.81402004  1
  Zn  Zn155  1  0.44008001  0.18689756  0.43641780  1
  Zn  Zn156  1  0.43920333  0.18986144  0.93493522  1
  Zn  Zn157  1  0.42912437  0.68970583  0.44436134  1
  Zn  Zn158  1  0.44083814  0.68509592  0.93623810  1
  Zn  Zn159  1  0.95223469  0.17153622  0.40890594  1
  Zn  Zn160  1  0.93142150  0.18950963  0.93807103  1
  Zn  Zn161  1  0.94177044  0.68608225  0.43184314  1
  Zn  Zn162  1  0.93727627  0.69494735  0.94470066  1
  Zn  Zn163  1  0.06194534  0.31368709  0.06031559  1
  Zn  Zn164  1  0.06286726  0.31122442  0.55627362  1
  Zn  Zn165  1  0.06363265  0.81565938  0.06091920  1
  Zn  Zn166  1  0.05800582  0.81694766  0.56220315  1
  Zn  Zn167  1  0.56398537  0.31108237  0.06181919  1
  Zn  Zn168  1  0.56673055  0.31622939  0.56203365  1
  Zn  Zn169  1  0.56182428  0.80688316  0.06322676  1
  Zn  Zn170  1  0.56151707  0.81361279  0.56300068  1
  O  O171  1  0.12828515  0.11580910  0.11819885  1
  O  O172  1  0.11307084  0.10162705  0.61318156  1
  O  O173  1  0.12925214  0.61584493  0.11657795  1
  O  O174  1  0.11495612  0.62122019  0.62605877  1
  O  O175  1  0.61838226  0.11947861  0.12112579  1
  O  O176  1  0.62187477  0.11767688  0.62010821  1
  O  O177  1  0.60988347  0.63066964  0.12671498  1
  O  O178  1  0.62462952  0.61049553  0.62224872  1
  O  O179  1  0.38493515  0.37254320  0.37838140  1
  O  O180  1  0.38915253  0.37769769  0.89113853  1
  O  O181  1  0.37675259  0.88412994  0.37846884  1
  O  O182  1  0.38964746  0.88017162  0.87316395  1
  O  O183  1  0.88280927  0.39058605  0.36689196  1
  O  O184  1  0.87837161  0.37885626  0.88199221  1
  O  O185  1  0.88110656  0.86531515  0.38002078  1
  O  O186  1  0.88562265  0.86963606  0.88631688  1
  O  O187  1  0.26388042  0.01118007  0.36831418  1
  O  O188  1  0.25885132  0.00458296  0.87430356  1
  O  O189  1  0.20206060  0.51674694  0.36172947  1
  O  O190  1  0.25323633  0.49924377  0.86726324  1
  O  O191  1  0.73869366  0.01452977  0.36351820  1
  O  O192  1  0.74376136  0.01257974  0.86503715  1
  O  O193  1  0.75851694  0.49730241  0.36747982  1
  O  O194  1  0.75465431  0.50573483  0.86830954  1
  O  O195  1  0.24022152  0.48996206  0.11519621  1
  O  O196  1  0.24144117  0.49550941  0.63237538  1
  O  O197  1  0.23934653  0.99940254  0.12983646  1
  O  O198  1  0.24936017  1.01320776  0.64132349  1
  O  O199  1  0.75533135  0.48685807  0.13984591  1
  O  O200  1  0.74560919  0.49445084  0.63175284  1
  O  O201  1  0.74354279  1.00792455  0.13857586  1
  O  O202  1  0.74216911  0.99728934  0.62787230  1
  O  O203  1  0.00993006  0.37682720  0.25987937  1
  O  O204  1  -0.00248930  0.37025262  0.76117141  1
  O  O205  1  0.00757886  0.86754079  0.25278139  1
  O  O206  1  0.00420926  0.87209132  0.75670316  1
  O  O207  1  0.50490787  0.37386549  0.25543975  1
  O  O208  1  0.49368107  0.36539398  0.76071860  1
  O  O209  1  0.49855571  0.86399600  0.25750331  1
  O  O210  1  0.50541925  0.86448930  0.75896202  1
  O  O211  1  0.49243966  0.12897217  0.24198247  1
  O  O212  1  0.49889328  0.12649308  0.74583159  1
  O  O213  1  0.49229798  0.63179046  0.24615080  1
  O  O214  1  0.49908498  0.63956130  0.75157686  1
  O  O215  1  0.99799341  0.14061042  0.30402758  1
  O  O216  1  1.00348944  0.12861341  0.73894485  1
  O  O217  1  0.99304810  0.62731305  0.25373009  1
  O  O218  1  0.99365069  0.63109317  0.74069769  1
  O  O219  1  0.37094435  0.25795460  0.00389083  1
  O  O220  1  0.38122117  0.26317825  0.49805301  1
  O  O221  1  0.37722581  0.74214898  0.01726521  1
  O  O222  1  0.37387028  0.76068599  0.51642225  1
  O  O223  1  0.87393283  0.26214326  0.00777370  1
  O  O224  1  0.86184439  0.24506863  0.49707111  1
  O  O225  1  0.87822320  0.76457409  0.00947448  1
  O  O226  1  0.86741776  0.75526773  0.50142257  1
  O  O227  1  0.12945301  0.24605826  0.49619799  1
  O  O228  1  0.13153184  0.24420382  0.99519757  1
  O  O229  1  0.12229446  0.75846465  0.48824875  1
  O  O230  1  0.12112536  0.74167060  0.99191785  1
  O  O231  1  0.63083825  0.24505375  0.49344931  1
  O  O232  1  0.62558888  0.23440030  1.00156327  1
  O  O233  1  0.63235684  0.74965233  0.49291676  1
  O  O234  1  0.62302189  0.74526468  0.98815769  1
  O  O235  1  0.49433354  0.24232292  0.12930246  1
  O  O236  1  0.50921706  0.23926033  0.63124532  1
  O  O237  1  0.49047464  0.74449061  0.13432883  1
  O  O238  1  0.50315163  0.74916524  0.63560620  1
  O  O239  1  0.98427937  0.25710925  0.12263869  1
  O  O240  1  1.00382384  0.23926876  0.63008083  1
  O  O241  1  1.00686587  0.75044166  0.13781342  1
  O  O242  1  0.99353829  0.74513637  0.62998767  1
  O  O243  1  -0.00036186  0.27384272  0.39307234  1
  O  O244  1  0.00134041  0.25644262  0.87096567  1
  O  O245  1  0.00671728  0.76036690  0.36650430  1
  O  O246  1  0.00825312  0.75657165  0.86834928  1
  O  O247  1  0.50502439  0.25725420  0.36739521  1
  O  O248  1  0.50488894  0.25875443  0.86972263  1
  O  O249  1  0.50324370  0.75473878  0.37243742  1
  O  O250  1  0.50612923  0.75969098  0.87111285  1
  O  O251  1  0.25921346  0.12150752  0.49432869  1
  O  O252  1  0.24686960  0.13261828  0.99005358  1
  O  O253  1  0.25094723  0.62354826  0.49789496  1
  O  O254  1  0.23758643  0.63020718  0.99690259  1
  O  O255  1  0.74387372  0.13093374  0.49212474  1
  O  O256  1  0.74759246  0.11989026  0.98620410  1
  O  O257  1  0.74843144  0.63621974  0.49707453  1
  O  O258  1  0.75139419  0.61583502  0.98925194  1
  O  O259  1  0.25831363  0.37033639  0.00512842  1
  O  O260  1  0.26722478  0.37990445  0.49829357  1
  O  O261  1  0.24755437  0.86580291  -0.00078870  1
  O  O262  1  0.23698225  0.91449784  0.51882295  1
  O  O263  1  0.75794822  0.38385742  0.00988277  1
  O  O264  1  0.74539295  0.36675066  0.50825741  1
  O  O265  1  0.75664825  0.87197591  -0.00378043  1
  O  O266  1  0.75333177  0.86557243  0.50035175  1
  O  O267  1  0.11449458  0.48791014  0.23000017  1
  O  O268  1  0.12724109  0.49861813  0.74013900  1
  O  O269  1  0.12864703  0.99133657  0.24232021  1
  O  O270  1  0.13511368  0.99039174  0.75729011  1
  O  O271  1  0.63322246  0.49000804  0.25764440  1
  O  O272  1  0.63404413  0.50433023  0.74399539  1
  O  O273  1  0.63502073  0.99018390  0.23751729  1
  O  O274  1  0.63533675  0.99883264  0.74053431  1
  O  O275  1  0.37860994  0.00652668  0.25700817  1
  O  O276  1  0.37205465  0.00483851  0.76037702  1
  O  O277  1  0.37739950  0.51429026  0.24854718  1
  O  O278  1  0.36683286  0.50119010  0.75087226  1
  O  O279  1  0.86405497  0.00879001  0.24071603  1
  O  O280  1  0.86105170  -0.00118893  0.74286049  1
  O  O281  1  0.87160962  0.50463321  0.25355230  1
  O  O282  1  0.86827624  0.50690553  0.75778111  1
  O  O283  1  0.11818392  0.37452976  0.36537201  1
  O  O284  1  0.11383936  0.36857626  0.87789731  1
  O  O285  1  0.11787247  0.86610422  0.36351895  1
  O  O286  1  0.11265366  0.87072277  0.86931540  1
  O  O287  1  0.61547864  0.36898977  0.36782216  1
  O  O288  1  0.61361593  0.37224523  0.88321934  1
  O  O289  1  0.62422421  0.86117674  0.36094309  1
  O  O290  1  0.61646264  0.87006913  0.87639295  1
  O  O291  1  0.38220211  0.12748096  0.12946161  1
  O  O292  1  0.39280401  0.11609094  0.63784394  1
  O  O293  1  0.38232808  0.63326488  0.13600558  1
  O  O294  1  0.37807390  0.64203609  0.63023189  1
  O  O295  1  0.87319710  0.14083325  0.12703418  1
  O  O296  1  0.88842155  0.12795665  0.62681555  1
  O  O297  1  0.86543794  0.63142632  0.13818688  1
  O  O298  1  0.87929881  0.63098146  0.63094173  1
  O  O299  1  0.25679985  0.25732876  0.11681002  1
  O  O300  1  0.24306398  0.24817296  0.64783297  1
  O  O301  1  0.26496921  0.75012239  0.12636739  1
  O  O302  1  0.25857694  0.75302318  0.63369541  1
  O  O303  1  0.75831532  0.26304274  0.12701879  1
  O  O304  1  0.74975631  0.25758526  0.61743308  1
  O  O305  1  0.73892465  0.77783239  0.18982896  1
  O  O306  1  0.75111086  0.75390929  0.61722137  1
  O  O307  1  0.25831097  0.23214031  0.37305217  1
  O  O308  1  0.24262135  0.24035810  0.87032790  1
  O  O309  1  0.23448131  0.75098760  0.37291614  1
  O  O310  1  0.23416820  0.74984649  0.87008935  1
  O  O311  1  0.74278426  0.24816508  0.37995103  1
  O  O312  1  0.74907816  0.23341016  0.86716599  1
  O  O313  1  0.74145249  0.74745306  0.38111680  1
  O  O314  1  0.74226566  0.73959341  0.86827492  1
  O  O315  1  0.01105897  0.12966324  -0.00650052  1
  O  O316  1  -0.01013672  0.10798677  0.49896959  1
  O  O317  1  0.00968146  0.61474021  -0.00603185  1
  O  O318  1  -0.00097533  0.62197050  0.51360936  1
  O  O319  1  0.50685163  0.12787055  0.01003453  1
  O  O320  1  0.50614501  0.11943926  0.50840019  1
  O  O321  1  0.50134755  0.61763203  0.01052051  1
  O  O322  1  0.49924413  0.61637844  0.50242188  1
  O  O323  1  0.49118753  0.37870450  0.49348002  1
  O  O324  1  0.49601368  0.38308054  0.99928838  1
  O  O325  1  0.50863518  0.88363044  0.48863135  1
  O  O326  1  0.50124493  0.87163789  0.98821706  1
  O  O327  1  0.99804975  0.39071963  0.49934807  1
  O  O328  1  0.99202060  0.37995250  0.98889729  1
  O  O329  1  0.98772584  0.87975442  0.49159502  1
  O  O330  1  1.00085826  0.87713677  0.98777909  1
  O  O331  1  0.50470116  0.48998532  0.38565337  1
  O  O332  1  0.50017854  0.49450512  0.88265540  1
  O  O333  1  0.49660809  0.99611944  0.37643125  1
  O  O334  1  0.49613428  0.98499518  0.87259349  1
  O  O335  1  0.99769450  0.49554052  0.38589494  1
  O  O336  1  0.99518924  0.49259430  0.88106592  1
  O  O337  1  1.00304290  0.98135809  0.37975263  1
  O  O338  1  0.99843180  0.98742090  0.87010491  1
  O  O339  1  0.01435712  0.00331438  0.13494627  1
  O  O340  1  -0.00777286  0.00247492  0.60940153  1
  O  O341  1  0.00573888  0.49061565  0.10921177  1
  O  O342  1  0.00200249  0.50811616  0.62297283  1
  O  O343  1  0.51030799  0.00962174  0.13025964  1
  O  O344  1  0.51283886  0.00467781  0.62384310  1
  O  O345  1  0.49676131  0.50974218  0.11856433  1
  O  O346  1  0.50635431  0.49954472  0.62075848  1
  O  O347  1  0.24574135  0.37262819  0.23641351  1
  O  O348  1  0.24470500  0.38486058  0.75023384  1
  O  O349  1  0.23817861  0.87603209  0.24741835  1
  O  O350  1  0.24239326  0.88836027  0.75801260  1
  O  O351  1  0.74113653  0.37925909  0.24562330  1
  O  O352  1  0.75376906  0.38739211  0.74506761  1
  O  O353  1  0.75305753  0.90010913  0.26825662  1
  O  O354  1  0.74815498  0.88189020  0.74448146  1
  O  O355  1  0.26787296  0.12645110  0.25032404  1
  O  O356  1  0.26246540  0.11391085  0.76747826  1
  O  O357  1  0.26526936  0.62790054  0.25176644  1
  O  O358  1  0.24816111  0.60813077  0.75284379  1
  O  O359  1  0.73993034  0.11610998  0.25650317  1
  O  O360  1  0.75238213  0.11754795  0.75860674  1
  O  O361  1  0.75754967  0.61134329  0.25513759  1
  O  O362  1  0.75546861  0.61529048  0.75837636  1
  O  O363  1  0.37378675  0.11596064  0.36921897  1
  O  O364  1  0.37309602  0.11507148  0.87368058  1
  O  O365  1  0.37630025  0.62963276  0.36088328  1
  O  O366  1  0.37027390  0.62573257  0.87118435  1
  O  O367  1  0.85340975  0.12802756  0.36954363  1
  O  O368  1  0.86384909  0.12406210  0.87125285  1
  O  O369  1  0.87579526  0.61384251  0.36468426  1
  O  O370  1  0.87015242  0.62260399  0.87217940  1
  O  O371  1  0.13323314  0.37765093  0.12792494  1
  O  O372  1  0.12241476  0.38580723  0.62638637  1
  O  O373  1  0.12556494  0.88615306  0.12979256  1
  O  O374  1  0.11847638  0.88639225  0.63503436  1
  O  O375  1  0.63122030  0.37041831  0.13559233  1
  O  O376  1  0.63585792  0.38793323  0.62347773  1
  O  O377  1  0.62014330  0.87968092  0.13135055  1
  O  O378  1  0.63259926  0.88410317  0.62550767  1
  O  O379  1  0.13144178  0.26066495  0.25515298  1
  O  O380  1  0.10865818  0.25440771  0.76248426  1
  O  O381  1  0.12125242  0.75491888  0.25552812  1
  O  O382  1  0.11898537  0.76235303  0.75473075  1
  O  O383  1  0.61970490  0.25999014  0.25433219  1
  O  O384  1  0.61132981  0.24441318  0.75394595  1
  O  O385  1  0.60913725  0.75075254  0.25740781  1
  O  O386  1  0.61877299  0.75100225  0.76201301  1
  O  O387  1  0.38280939  0.24393765  0.24269706  1
  O  O388  1  0.38860262  0.22911909  0.75868669  1
  O  O389  1  0.38105314  0.74442524  0.24415169  1
  O  O390  1  0.38283161  0.75263797  0.74098654  1
  O  O391  1  0.87355870  0.25074175  0.23652918  1
  O  O392  1  0.89052512  0.24713629  0.74761085  1
  O  O393  1  0.88824957  0.73766394  0.24854818  1
  O  O394  1  0.87831928  0.74652467  0.74364725  1
  O  O395  1  0.38797076  0.48901352  0.50924777  1
  O  O396  1  0.38486511  0.49459152  1.00164579  1
  O  O397  1  0.38724006  0.99498224  0.49158436  1
  O  O398  1  0.37540330  1.00444715  0.99217509  1
  O  O399  1  0.88299718  0.50823030  0.49072054  1
  O  O400  1  0.88249382  0.49237464  0.99545020  1
  O  O401  1  0.87417063  0.98562827  0.49749263  1
  O  O402  1  0.87408042  0.97867730  1.00712902  1
  O  O403  1  0.12573660  0.00918051  0.01315393  1
  O  O404  1  0.10981468  -0.00826683  0.49655039  1
  O  O405  1  0.11774331  0.50572256  0.00519918  1
  O  O406  1  0.11450250  0.50469778  0.51511519  1
  O  O407  1  0.63214568  0.01055592  0.01562296  1
  O  O408  1  0.62444494  0.00595023  0.50577802  1
  O  O409  1  0.61365307  0.50406633  0.00104609  1
  O  O410  1  0.61307888  0.49962202  0.50742583  1
  O  O411  1  0.36904121  0.37147826  0.11723108  1
  O  O412  1  0.37356169  0.36759057  0.61376097  1
  O  O413  1  0.37560252  0.85976876  0.13089385  1
  O  O414  1  0.37784458  0.86231802  0.62599301  1
  O  O415  1  0.86780441  0.36809641  0.11871201  1
  O  O416  1  0.86146309  0.37164123  0.62729152  1
  O  O417  1  0.86973088  0.86757359  0.11719649  1
  O  O418  1  0.86760998  0.86722113  0.61370674  1
  O  O419  1  0.15102556  0.12112418  0.37100474  1
  O  O420  1  0.13324314  0.12723518  0.88280850  1
  O  O421  1  0.11031938  0.64806384  0.38436903  1
  O  O422  1  0.12366998  0.63458826  0.88143190  1
  O  O423  1  0.62731427  0.13421552  0.37805886  1
  O  O424  1  0.63325667  0.12498550  0.88431517  1
  O  O425  1  0.62539821  0.63752948  0.37617139  1
  O  O426  1  0.63475054  0.63270417  0.87899439  1
