# generated using pymatgen
data_V85Zn86O256
_symmetry_space_group_name_H-M   'P 1'
_cell_length_a   16.94273324
_cell_length_b   16.93827106
_cell_length_c   16.93304355
_cell_angle_alpha   89.97889875
_cell_angle_beta   89.90486519
_cell_angle_gamma   89.98852654
_symmetry_Int_Tables_number   1
_chemical_formula_structural   V85Zn86O256
_chemical_formula_sum   'V85 Zn86 O256'
_cell_volume   4859.44800920
_cell_formula_units_Z   1
loop_
 _symmetry_equiv_pos_site_id
 _symmetry_equiv_pos_as_xyz
  1  'x, y, z'
loop_
 _atom_site_type_symbol
 _atom_site_label
 _atom_site_symmetry_multiplicity
 _atom_site_fract_x
 _atom_site_fract_y
 _atom_site_fract_z
 _atom_site_occupancy
  V  V0  1  0.37516501  0.87624755  0.00091421  1
  V  V1  1  0.25692164  -0.00414899  0.73950963  1
  V  V2  1  0.50116839  0.00814150  0.50134727  1
  V  V3  1  0.49470918  0.75243973  0.74603879  1
  V  V4  1  0.62357706  0.62802977  0.49593201  1
  V  V5  1  0.37220653  0.00117463  0.36945773  1
  V  V6  1  0.36786453  0.49685870  0.37134456  1
  V  V7  1  0.48447430  0.25004505  0.75181949  1
  V  V8  1  0.88803844  0.88031053  0.49346799  1
  V  V9  1  0.62399374  0.37158332  0.25228933  1
  V  V10  1  0.24911387  0.62723590  0.87300026  1
  V  V11  1  0.24672286  0.12226923  0.86765107  1
  V  V12  1  0.62719903  0.00168665  0.13060415  1
  V  V13  1  0.62347153  0.24167526  0.37844251  1
  V  V14  1  0.75106710  0.87905126  0.12858100  1
  V  V15  1  0.24987979  0.50086729  0.75147530  1
  V  V16  1  0.62383036  0.49420492  0.63081224  1
  V  V17  1  0.00269748  0.74859941  0.74584613  1
  V  V18  1  0.88431151  0.24881773  0.12556494  1
  V  V19  1  0.63098883  0.74717033  0.87044954  1
  V  V20  1  0.75213476  0.37215792  0.12661870  1
  V  V21  1  0.12347229  0.62482167  0.00042665  1
  V  V22  1  0.62760177  0.12315089  -0.00776686  1
  V  V23  1  0.63564997  0.87653931  0.74357595  1
  V  V24  1  0.12565477  0.50392583  0.62174739  1
  V  V25  1  0.62727605  0.50031415  0.12627403  1
  V  V26  1  0.49483000  0.62837570  0.62357476  1
  V  V27  1  0.12968704  0.39311859  0.22870118  1
  V  V28  1  0.87469885  0.74941757  0.12546157  1
  V  V29  1  0.00096472  0.62474332  0.61878507  1
  V  V30  1  0.00209250  0.49463066  0.49670462  1
  V  V31  1  0.25204967  0.13802820  0.37619299  1
  V  V32  1  0.75001415  0.49875210  0.25282546  1
  V  V33  1  0.75084707  0.74872920  -0.00218105  1
  V  V34  1  0.12391505  0.75893788  0.87012287  1
  V  V35  1  0.36922752  0.62112212  0.24988938  1
  V  V36  1  0.74721244  0.37283862  0.63153700  1
  V  V37  1  0.88089266  0.11833544  0.24500065  1
  V  V38  1  0.75036804  0.24496252  -0.00066726  1
  V  V39  1  0.00338162  0.62115722  0.12677437  1
  V  V40  1  0.33881813  0.40024376  0.01809725  1
  V  V41  1  0.50338225  0.74805791  0.25178236  1
  V  V42  1  0.23788737  0.87556146  0.13320572  1
  V  V43  1  0.49559401  0.12446628  0.13323305  1
  V  V44  1  0.37901888  0.50278100  0.87319350  1
  V  V45  1  0.37825312  0.86731149  0.51163362  1
  V  V46  1  0.12382969  0.10659840  0.50173851  1
  V  V47  1  0.24906742  0.73766962  0.50816394  1
  V  V48  1  0.86826847  0.50578863  0.87110621  1
  V  V49  1  0.25017149  0.36602774  0.62500972  1
  V  V50  1  0.50758013  0.49410832  -0.00045756  1
  V  V51  1  0.63144448  0.62454724  -0.00466054  1
  V  V52  1  -0.00133596  0.49950513  -0.00194694  1
  V  V53  1  0.00337676  0.24782307  0.74851198  1
  V  V54  1  0.74677289  0.24468325  0.49939887  1
  V  V55  1  0.24936734  0.75404611  -0.00074440  1
  V  V56  1  0.12216234  0.01888190  0.13123007  1
  V  V57  1  0.37667500  0.00963349  0.87224220  1
  V  V58  1  0.74664924  0.62765775  0.37605410  1
  V  V59  1  0.12570488  0.37468294  0.75261014  1
  V  V60  1  0.50242751  0.87604640  0.87460469  1
  V  V61  1  0.11276089  0.26380783  0.38354233  1
  V  V62  1  0.00681911  0.01445361  0.00147770  1
  V  V63  1  0.62921544  0.87327597  0.25585410  1
  V  V64  1  0.37161366  0.36631183  0.50150161  1
  V  V65  1  0.37144591  0.24690500  0.12717917  1
  V  V66  1  0.37536559  0.75257795  0.12573915  1
  V  V67  1  0.87477060  0.62332011  0.25007163  1
  V  V68  1  0.63104471  0.25671084  0.86540545  1
  V  V69  1  0.86750112  0.75065536  0.62134791  1
  V  V70  1  0.00629631  0.75487670  0.25597106  1
  V  V71  1  0.07380494  0.93573986  0.69079051  1
  V  V72  1  0.49942116  0.87022538  0.37650059  1
  V  V73  1  0.49952468  0.00111878  0.00119231  1
  V  V74  1  0.86662378  0.12789023  0.75634601  1
  V  V75  1  0.87990991  0.87723594  -0.00180706  1
  V  V76  1  0.74552391  0.75814738  0.49900108  1
  V  V77  1  0.87828936  0.49212536  0.37626760  1
  V  V78  1  0.12490976  0.24776048  0.88326839  1
  V  V79  1  0.25006826  0.23706192  0.00391779  1
  V  V80  1  0.50000354  0.37239305  0.37597462  1
  V  V81  1  0.87880080  0.24806429  0.62115019  1
  V  V82  1  0.75130762  0.11736749  0.37036086  1
  V  V83  1  0.63481253  0.00476258  0.61875808  1
  V  V84  1  0.50103021  0.49750747  0.49965906  1
  Zn  Zn85  1  0.24278327  -0.00155413  0.25726943  1
  Zn  Zn86  1  0.00153923  0.88027816  0.87399057  1
  Zn  Zn87  1  0.25017495  0.86805610  0.63108118  1
  Zn  Zn88  1  0.37316258  0.63015820  0.74501589  1
  Zn  Zn89  1  0.04018745  0.90749019  0.35166223  1
  Zn  Zn90  1  0.00485888  0.11543985  0.62117038  1
  Zn  Zn91  1  0.86800767  0.00771160  0.88258742  1
  Zn  Zn92  1  0.12902830  0.74636979  0.37913403  1
  Zn  Zn93  1  0.36721901  0.23658830  0.62522520  1
  Zn  Zn94  1  0.49637904  0.12256827  0.63259270  1
  Zn  Zn95  1  0.86545705  0.62961276  0.75170117  1
  Zn  Zn96  1  0.50142688  0.62504889  0.12422298  1
  Zn  Zn97  1  0.74366919  0.50328348  0.75357085  1
  Zn  Zn98  1  0.00217190  0.25714457  0.25270551  1
  Zn  Zn99  1  0.74487377  0.00645555  0.76214842  1
  Zn  Zn100  1  0.87539522  0.37458456  -0.00181734  1
  Zn  Zn101  1  0.50126091  0.37549234  0.87413750  1
  Zn  Zn102  1  0.87871171  0.36959714  0.49548209  1
  Zn  Zn103  1  0.87994129  -0.00214394  0.37175170  1
  Zn  Zn104  1  0.24311534  0.62128873  0.37585979  1
  Zn  Zn105  1  -0.00076782  0.37733303  0.87414644  1
  Zn  Zn106  1  0.49290120  0.24585634  0.25270578  1
  Zn  Zn107  1  0.18952492  0.19236379  0.19894615  1
  Zn  Zn108  1  0.18617773  0.18050844  0.68770162  1
  Zn  Zn109  1  0.18593376  0.68455463  0.18718726  1
  Zn  Zn110  1  0.18732693  0.68851743  0.68446924  1
  Zn  Zn111  1  0.68980208  0.18596919  0.18955868  1
  Zn  Zn112  1  0.68402835  0.18556141  0.68306774  1
  Zn  Zn113  1  0.68679310  0.68859065  0.18626327  1
  Zn  Zn114  1  0.68575815  0.68259125  0.68474473  1
  Zn  Zn115  1  0.30578634  0.31721756  0.30717263  1
  Zn  Zn116  1  0.31148916  0.31836499  0.82269788  1
  Zn  Zn117  1  0.31054111  0.81180652  0.31758119  1
  Zn  Zn118  1  0.31376749  0.81883152  0.81295243  1
  Zn  Zn119  1  0.81236112  0.30763564  0.31154970  1
  Zn  Zn120  1  0.81412979  0.31624133  0.81365426  1
  Zn  Zn121  1  0.81443888  0.80981845  0.31387652  1
  Zn  Zn122  1  0.81391293  0.81396136  0.81368221  1
  Zn  Zn123  1  0.18813496  0.43670431  0.44065989  1
  Zn  Zn124  1  0.18700804  0.43944838  0.94753471  1
  Zn  Zn125  1  0.19493623  0.92985896  0.44065197  1
  Zn  Zn126  1  0.18727747  0.94146356  0.93981003  1
  Zn  Zn127  1  0.68957183  0.43361380  0.44282977  1
  Zn  Zn128  1  0.69145339  0.43215846  0.93793227  1
  Zn  Zn129  1  0.68785770  0.93823452  0.43672935  1
  Zn  Zn130  1  0.69045385  0.93648935  0.93714062  1
  Zn  Zn131  1  0.30933835  0.06264204  0.06392670  1
  Zn  Zn132  1  0.31375428  0.06379416  0.55538603  1
  Zn  Zn133  1  0.31427031  0.57008482  0.06059580  1
  Zn  Zn134  1  0.31598854  0.55351074  0.56330934  1
  Zn  Zn135  1  0.81331264  0.06226427  0.06414701  1
  Zn  Zn136  1  0.81362635  0.06502194  0.56168533  1
  Zn  Zn137  1  0.81360475  0.56147595  0.06121034  1
  Zn  Zn138  1  0.81189587  0.56282077  0.56361458  1
  Zn  Zn139  1  0.43872807  0.43594433  0.18688459  1
  Zn  Zn140  1  0.44019772  0.43157629  0.68956788  1
  Zn  Zn141  1  0.43632740  0.93618840  0.18896480  1
  Zn  Zn142  1  0.44349381  0.94188057  0.68916795  1
  Zn  Zn143  1  0.94366785  0.43442548  0.18878078  1
  Zn  Zn144  1  0.93662969  0.43396087  0.68697019  1
  Zn  Zn145  1  0.94148886  0.94027717  0.18432292  1
  Zn  Zn146  1  0.90818466  0.93741900  0.68178794  1
  Zn  Zn147  1  0.06220346  0.07610158  0.31208398  1
  Zn  Zn148  1  0.05744997  0.06884335  0.81889153  1
  Zn  Zn149  1  0.06752391  0.56211307  0.31361691  1
  Zn  Zn150  1  0.05900614  0.56622870  0.81067784  1
  Zn  Zn151  1  0.56280439  0.05905928  0.31367130  1
  Zn  Zn152  1  0.56392640  0.06593238  0.81012898  1
  Zn  Zn153  1  0.55890167  0.56118146  0.31349075  1
  Zn  Zn154  1  0.56395080  0.56536336  0.81077156  1
  Zn  Zn155  1  0.43524760  0.18519259  0.43910845  1
  Zn  Zn156  1  0.43935568  0.19067713  0.94173066  1
  Zn  Zn157  1  0.43433299  0.68739750  0.43505470  1
  Zn  Zn158  1  0.44296793  0.68593312  0.93720324  1
  Zn  Zn159  1  0.94142329  0.17819242  0.43734946  1
  Zn  Zn160  1  0.93838470  0.19143484  0.93744243  1
  Zn  Zn161  1  0.93579540  0.68221685  0.43711036  1
  Zn  Zn162  1  0.93777958  0.68832178  0.93453328  1
  Zn  Zn163  1  0.06626977  0.31446277  0.06340799  1
  Zn  Zn164  1  0.06569789  0.31133234  0.56056928  1
  Zn  Zn165  1  0.06066391  0.81131021  0.06372666  1
  Zn  Zn166  1  0.06277661  0.80656989  0.55423247  1
  Zn  Zn167  1  0.56329862  0.30956046  0.06344295  1
  Zn  Zn168  1  0.56122931  0.30856280  0.56469924  1
  Zn  Zn169  1  0.56352038  0.81223707  0.06361859  1
  Zn  Zn170  1  0.56558622  0.81441368  0.56409388  1
  O  O171  1  0.12997682  0.11676031  0.12666565  1
  O  O172  1  0.12592923  0.12723458  0.60733305  1
  O  O173  1  0.11588234  0.62894671  0.11325632  1
  O  O174  1  0.11498445  0.61442093  0.63138947  1
  O  O175  1  0.62118664  0.11716780  0.11958061  1
  O  O176  1  0.61856687  0.10922049  0.62762091  1
  O  O177  1  0.62453629  0.61774474  0.11750537  1
  O  O178  1  0.61498458  0.61579900  0.61321199  1
  O  O179  1  0.37899116  0.37814549  0.37991433  1
  O  O180  1  0.37280835  0.39166200  0.89465380  1
  O  O181  1  0.38353979  0.88040184  0.38369473  1
  O  O182  1  0.38286967  0.88390655  0.88339907  1
  O  O183  1  0.86798407  0.38822554  0.37452041  1
  O  O184  1  0.87971737  0.38605240  0.87852159  1
  O  O185  1  0.86850936  0.87711485  0.38829729  1
  O  O186  1  0.87801925  0.87615902  0.88860382  1
  O  O187  1  0.25970674  0.00304036  0.37620826  1
  O  O188  1  0.25711087  0.00428345  0.86928466  1
  O  O189  1  0.26481630  0.50171051  0.38275739  1
  O  O190  1  0.25687454  0.50805736  0.87129097  1
  O  O191  1  0.75204414  0.01420355  0.37918939  1
  O  O192  1  0.75371038  0.00314410  0.87657599  1
  O  O193  1  0.75441520  0.50790242  0.37301640  1
  O  O194  1  0.76395619  0.49457435  0.87447636  1
  O  O195  1  0.26345516  0.47011837  0.05016378  1
  O  O196  1  0.24240727  0.49431837  0.63243077  1
  O  O197  1  0.23624786  0.99483243  0.12528789  1
  O  O198  1  0.25672858  0.99737890  0.63715822  1
  O  O199  1  0.74657764  0.49296327  0.13137595  1
  O  O200  1  0.74134093  0.48919870  0.61947065  1
  O  O201  1  0.74173625  0.98730065  0.12020002  1
  O  O202  1  0.73743666  1.00514527  0.62779281  1
  O  O203  1  0.01860771  0.37172316  0.24356310  1
  O  O204  1  0.00616547  0.36264095  0.74967771  1
  O  O205  1  -0.00781589  0.85881968  0.24879536  1
  O  O206  1  0.00384655  0.87496170  0.74507599  1
  O  O207  1  0.50793303  0.37249952  0.25772111  1
  O  O208  1  0.49844951  0.35861036  0.75692015  1
  O  O209  1  0.50599646  0.86796456  0.25647888  1
  O  O210  1  0.50980135  0.86911321  0.75560259  1
  O  O211  1  0.50485350  0.12522709  0.23716907  1
  O  O212  1  0.50362568  0.14449841  0.75353390  1
  O  O213  1  0.49388215  0.63327620  0.24886488  1
  O  O214  1  0.50113060  0.63475734  0.74104979  1
  O  O215  1  0.98391141  0.13637089  0.24874498  1
  O  O216  1  0.99364445  0.13539000  0.74503407  1
  O  O217  1  0.99339509  0.62976161  0.24093437  1
  O  O218  1  0.99268868  0.63443604  0.73926082  1
  O  O219  1  0.36625899  0.25416673  0.00935068  1
  O  O220  1  0.38013818  0.26334903  0.50301462  1
  O  O221  1  0.37120377  0.75471069  0.00381222  1
  O  O222  1  0.37528818  0.76223651  0.50047429  1
  O  O223  1  0.86643874  0.25009006  0.00567221  1
  O  O224  1  0.87128314  0.24834760  0.50649506  1
  O  O225  1  0.87201287  0.75650375  0.00474718  1
  O  O226  1  0.86751374  0.75450679  0.50285155  1
  O  O227  1  0.12580250  0.24821983  0.48696549  1
  O  O228  1  0.12873854  0.24924744  0.98879948  1
  O  O229  1  0.14517583  0.74662872  0.50417531  1
  O  O230  1  0.12681613  0.74221413  0.99185987  1
  O  O231  1  0.63217560  0.25135688  0.48974986  1
  O  O232  1  0.63100408  0.24197912  0.99350441  1
  O  O233  1  0.63175746  0.73969345  0.50391175  1
  O  O234  1  0.62855939  0.74370242  0.99249108  1
  O  O235  1  0.49298891  0.24042241  0.12432197  1
  O  O236  1  0.49870291  0.25015787  0.64176261  1
  O  O237  1  0.49294913  0.75003156  0.13235537  1
  O  O238  1  0.50718516  0.74112514  0.63411874  1
  O  O239  1  0.98624967  0.25269524  0.11864521  1
  O  O240  1  0.99361160  0.25008823  0.63191684  1
  O  O241  1  0.99322418  0.74029969  0.13098234  1
  O  O242  1  0.99486257  0.74301340  0.62721941  1
  O  O243  1  0.00926819  0.25218312  0.37743374  1
  O  O244  1  0.00854836  0.25236067  0.86837032  1
  O  O245  1  -0.00304026  0.74198331  0.35896103  1
  O  O246  1  0.00494299  0.75455826  0.86348958  1
  O  O247  1  0.50674730  0.25211492  0.37373450  1
  O  O248  1  0.50944131  0.25206891  0.86955437  1
  O  O249  1  0.49702416  0.76173266  0.36762228  1
  O  O250  1  0.51203419  0.75427042  0.86896882  1
  O  O251  1  0.23804367  0.11984719  0.48706408  1
  O  O252  1  0.25316896  0.13025940  0.98591913  1
  O  O253  1  0.26430964  0.63550647  0.50228421  1
  O  O254  1  0.24132969  0.63532351  0.99383823  1
  O  O255  1  0.75685312  0.13737873  0.49029289  1
  O  O256  1  0.74184393  0.13629510  1.00768080  1
  O  O257  1  0.74204283  0.63001963  0.49367833  1
  O  O258  1  0.73936391  0.63181407  1.00483664  1
  O  O259  1  0.24927791  0.34597624  -0.01885802  1
  O  O260  1  0.25935068  0.38098444  0.51346208  1
  O  O261  1  0.25620171  0.87111735  0.00634538  1
  O  O262  1  0.26648455  0.86527598  0.50844988  1
  O  O263  1  0.75059421  0.36214707  0.00884582  1
  O  O264  1  0.75523466  0.36120326  0.50750568  1
  O  O265  1  0.75656286  0.86788696  0.00919939  1
  O  O266  1  0.75074517  0.86014230  0.49337577  1
  O  O267  1  0.11960308  0.49358952  0.23950395  1
  O  O268  1  0.12715529  0.49489550  0.74304154  1
  O  O269  1  0.12170222  1.00358940  0.23549763  1
  O  O270  1  0.12927177  0.99730704  0.75216791  1
  O  O271  1  0.63039935  0.49331867  0.24725099  1
  O  O272  1  0.62265621  0.50110788  0.73512164  1
  O  O273  1  0.62075157  0.98994827  0.23760238  1
  O  O274  1  0.62524011  0.99364808  0.74109654  1
  O  O275  1  0.37771357  -0.00302548  0.26638125  1
  O  O276  1  0.36995537  -0.00540827  0.76153746  1
  O  O277  1  0.38233510  0.50791519  0.25753983  1
  O  O278  1  0.37189740  0.50044072  0.75949889  1
  O  O279  1  0.87453712  0.01477138  0.24282132  1
  O  O280  1  0.87017208  0.01599278  0.75149923  1
  O  O281  1  0.87004566  0.50416722  0.25584377  1
  O  O282  1  0.87810305  0.49972210  0.76306551  1
  O  O283  1  0.12580117  0.36491507  0.37885600  1
  O  O284  1  0.12396047  0.36832596  0.86853085  1
  O  O285  1  0.13494006  0.86054177  0.37622226  1
  O  O286  1  0.12344451  0.86214743  0.88144868  1
  O  O287  1  0.62095100  0.36584059  0.37177509  1
  O  O288  1  0.62397687  0.35981195  0.87826833  1
  O  O289  1  0.61899279  0.87979543  0.36219735  1
  O  O290  1  0.61903613  0.86780804  0.86963633  1
  O  O291  1  0.38438079  0.13183892  0.11992132  1
  O  O292  1  0.38333690  0.12598428  0.61512993  1
  O  O293  1  0.37847886  0.63186464  0.13051426  1
  O  O294  1  0.39140179  0.61610609  0.62632011  1
  O  O295  1  0.86596146  0.13461849  0.13719846  1
  O  O296  1  0.88005524  0.13423043  0.63229779  1
  O  O297  1  0.87948355  0.63066567  0.12965601  1
  O  O298  1  0.88207256  0.63544937  0.62368750  1
  O  O299  1  0.25686807  0.23781171  0.11566716  1
  O  O300  1  0.25050535  0.26271230  0.63571358  1
  O  O301  1  0.25428860  0.75777727  0.11962520  1
  O  O302  1  0.25544284  0.74955400  0.61554982  1
  O  O303  1  0.75496722  0.25552406  0.11862880  1
  O  O304  1  0.75447770  0.25298586  0.61803740  1
  O  O305  1  0.75445224  0.75914983  0.11942070  1
  O  O306  1  0.75768620  0.74319525  0.61299051  1
  O  O307  1  0.24866791  0.24014555  0.37541264  1
  O  O308  1  0.24387839  0.23793181  0.87458903  1
  O  O309  1  0.25929747  0.74415739  0.39360428  1
  O  O310  1  0.24362464  0.74694594  0.87786027  1
  O  O311  1  0.74250915  0.24406225  0.38180677  1
  O  O312  1  0.73982386  0.25399446  0.88279069  1
  O  O313  1  0.75339318  0.73396602  0.38090612  1
  O  O314  1  0.73847145  0.75537125  0.88056379  1
  O  O315  1  -0.00410974  0.11282321  -0.00029351  1
  O  O316  1  0.01620524  0.12272576  0.50319963  1
  O  O317  1  0.00506475  0.62217695  0.00552080  1
  O  O318  1  -0.00468219  0.61513736  0.51232726  1
  O  O319  1  0.50916730  0.11995094  0.00917096  1
  O  O320  1  0.50319396  0.10946004  0.49376504  1
  O  O321  1  0.51458678  0.61606707  0.00096550  1
  O  O322  1  0.50546314  0.62103202  0.50340000  1
  O  O323  1  0.49458736  0.37806078  0.49441578  1
  O  O324  1  0.50963429  0.38901317  0.99749761  1
  O  O325  1  0.49466718  0.87708329  0.49318255  1
  O  O326  1  0.49699998  0.88158133  0.99539351  1
  O  O327  1  0.99636250  0.39048967  0.50889787  1
  O  O328  1  1.00086595  0.39011897  1.00012058  1
  O  O329  1  0.98809924  0.86798014  0.49248163  1
  O  O330  1  0.99174596  0.88086331  1.00118412  1
  O  O331  1  0.49254511  0.49150728  0.38085233  1
  O  O332  1  0.49588099  0.49933897  0.87937942  1
  O  O333  1  0.49747368  0.98911749  0.38123195  1
  O  O334  1  0.49486844  0.99767097  0.87945179  1
  O  O335  1  0.99053321  0.50733122  0.38535707  1
  O  O336  1  0.99145015  0.50120997  0.88204199  1
  O  O337  1  0.99348740  1.00442658  0.36496642  1
  O  O338  1  0.99663296  0.99860658  0.88874120  1
  O  O339  1  0.01378352  -0.00113917  0.11511754  1
  O  O340  1  0.00682088  -0.00712960  0.63911758  1
  O  O341  1  -0.01105440  0.51451674  0.11347931  1
  O  O342  1  0.00544728  0.50636723  0.62233316  1
  O  O343  1  0.50571407  0.00470292  0.12060620  1
  O  O344  1  0.50985425  0.00075090  0.61665236  1
  O  O345  1  0.50985381  0.50117897  0.11693210  1
  O  O346  1  0.50632721  0.50256488  0.61910579  1
  O  O347  1  0.22845068  0.37851014  0.25536097  1
  O  O348  1  0.24598980  0.38283060  0.74751699  1
  O  O349  1  0.25890516  0.87822296  0.23743213  1
  O  O350  1  0.24963676  0.88511302  0.74773647  1
  O  O351  1  0.74288554  0.37927757  0.24670844  1
  O  O352  1  0.75367068  0.37859256  0.73535009  1
  O  O353  1  0.74081867  0.86549438  0.24204045  1
  O  O354  1  0.73878535  0.87671104  0.75185241  1
  O  O355  1  0.24512225  0.11886887  0.27155583  1
  O  O356  1  0.24820276  0.11341963  0.75981134  1
  O  O357  1  0.26582179  0.63039936  0.24890102  1
  O  O358  1  0.25333850  0.62081292  0.75535736  1
  O  O359  1  0.76323614  0.13285160  0.26034455  1
  O  O360  1  0.76434689  0.13088656  0.74646724  1
  O  O361  1  0.75215186  0.61985858  0.25711596  1
  O  O362  1  0.75305266  0.61682525  0.74284224  1
  O  O363  1  0.36129290  0.11705165  0.38405590  1
  O  O364  1  0.37090830  0.11401326  0.88113008  1
  O  O365  1  0.37713270  0.61389026  0.36608109  1
  O  O366  1  0.37164216  0.61589322  0.87503349  1
  O  O367  1  0.86831046  0.12503564  0.36292137  1
  O  O368  1  0.87996488  0.12904008  0.85945422  1
  O  O369  1  0.86550327  0.61411692  0.36996747  1
  O  O370  1  0.87829393  0.61098347  0.87319314  1
  O  O371  1  0.13279274  0.37634345  0.12866804  1
  O  O372  1  0.13223093  0.38121808  0.63246820  1
  O  O373  1  0.13571562  0.87789635  0.12004442  1
  O  O374  1  0.12550055  0.87705357  0.62472272  1
  O  O375  1  0.63139246  0.37897508  0.13220248  1
  O  O376  1  0.63376027  0.38277783  0.61697973  1
  O  O377  1  0.63145861  0.88076564  0.13206131  1
  O  O378  1  0.62127668  0.88796916  0.63415269  1
  O  O379  1  0.12259309  0.25327666  0.26795489  1
  O  O380  1  0.11880483  0.25267207  0.75729731  1
  O  O381  1  0.10751951  0.74768997  0.24380003  1
  O  O382  1  0.11199074  0.74732695  0.75455970  1
  O  O383  1  0.62366421  0.25701475  0.25830778  1
  O  O384  1  0.62606145  0.24584532  0.76439570  1
  O  O385  1  0.61164053  0.75741891  0.24359449  1
  O  O386  1  0.62017983  0.75683796  0.75438399  1
  O  O387  1  0.37488193  0.26054074  0.23225728  1
  O  O388  1  0.38221703  0.25252728  0.75559290  1
  O  O389  1  0.38564489  0.74492019  0.24627301  1
  O  O390  1  0.39093982  0.75046782  0.75884360  1
  O  O391  1  0.87759587  0.24596079  0.24073477  1
  O  O392  1  0.88160648  0.24380488  0.74491635  1
  O  O393  1  0.88073501  0.74195234  0.24399596  1
  O  O394  1  0.88469326  0.75515217  0.74059247  1
  O  O395  1  0.38365209  0.48890296  0.49256138  1
  O  O396  1  0.39343838  0.50385383  0.99398231  1
  O  O397  1  0.38439300  0.98649259  0.49161914  1
  O  O398  1  0.38005341  0.99501841  0.99462167  1
  O  O399  1  0.88158873  0.49835779  0.49260807  1
  O  O400  1  0.88109205  0.50061063  0.98906190  1
  O  O401  1  0.87167103  0.98264852  0.50368514  1
  O  O402  1  0.88727591  0.99401573  1.00539130  1
  O  O403  1  0.11339432  -0.00045849  0.00803577  1
  O  O404  1  0.12787262  0.00757867  0.49769175  1
  O  O405  1  0.11251975  0.51721481  -0.01111175  1
  O  O406  1  0.11861253  0.49703231  0.51351900  1
  O  O407  1  0.62020411  0.00552122  0.01007907  1
  O  O408  1  0.61854973  -0.00863767  0.51246016  1
  O  O409  1  0.62645787  0.50682840  0.00233664  1
  O  O410  1  0.61919178  0.50566638  0.50637886  1
  O  O411  1  0.38014346  0.36991759  0.11044977  1
  O  O412  1  0.36660706  0.37493145  0.61807567  1
  O  O413  1  0.36943388  0.87180157  0.11740883  1
  O  O414  1  0.38215086  0.87753781  0.61298066  1
  O  O415  1  0.86762847  0.36837025  0.12352787  1
  O  O416  1  0.86855170  0.36130031  0.62392250  1
  O  O417  1  0.86827859  0.87180488  0.11783799  1
  O  O418  1  0.87387045  0.86063600  0.60810061  1
  O  O419  1  0.13283670  0.13484404  0.38543123  1
  O  O420  1  0.13428568  0.13425266  0.87217277  1
  O  O421  1  0.13096663  0.63251192  0.36981820  1
  O  O422  1  0.12739508  0.63748325  0.87855534  1
  O  O423  1  0.63316798  0.13448243  0.36641975  1
  O  O424  1  0.62160608  0.13387097  0.88822280  1
  O  O425  1  0.63058017  0.61781633  0.38690169  1
  O  O426  1  0.62313075  0.63464158  0.88246520  1
