# generated using pymatgen
data_V85Zn86O256
_symmetry_space_group_name_H-M   'P 1'
_cell_length_a   16.94455114
_cell_length_b   16.96504406
_cell_length_c   16.95287974
_cell_angle_alpha   89.94954267
_cell_angle_beta   90.04585706
_cell_angle_gamma   90.07501366
_symmetry_Int_Tables_number   1
_chemical_formula_structural   V85Zn86O256
_chemical_formula_sum   'V85 Zn86 O256'
_cell_volume   4873.35291151
_cell_formula_units_Z   1
loop_
 _symmetry_equiv_pos_site_id
 _symmetry_equiv_pos_as_xyz
  1  'x, y, z'
loop_
 _atom_site_type_symbol
 _atom_site_label
 _atom_site_symmetry_multiplicity
 _atom_site_fract_x
 _atom_site_fract_y
 _atom_site_fract_z
 _atom_site_occupancy
  V  V0  1  0.49208422  0.60738119  0.13085813  1
  V  V1  1  0.50683860  0.11567479  0.62356917  1
  V  V2  1  0.37100740  0.12446278  0.75315716  1
  V  V3  1  0.73412867  0.49370597  0.74775158  1
  V  V4  1  0.12404705  0.24973422  0.87461570  1
  V  V5  1  0.25421209  0.37786375  0.62088448  1
  V  V6  1  -0.00212937  0.37385085  0.37766796  1
  V  V7  1  0.12503623  0.12924538  0.48950197  1
  V  V8  1  0.00602874  -0.00391058  0.49812965  1
  V  V9  1  0.25120530  0.87582888  0.12562282  1
  V  V10  1  0.12570720  0.50034167  0.12704324  1
  V  V11  1  -0.00399118  -0.00456124  0.00233166  1
  V  V12  1  0.12830074  0.75082337  0.37644539  1
  V  V13  1  0.52074683  0.75099094  0.75484122  1
  V  V14  1  0.62829343  0.61813165  0.49651286  1
  V  V15  1  0.37745652  0.50089049  0.87745693  1
  V  V16  1  0.75426044  0.87104971  0.11503771  1
  V  V17  1  0.85970976  0.62819784  0.24797348  1
  V  V18  1  -0.00829074  0.49910495  0.50180966  1
  V  V19  1  0.49494480  0.12257513  0.12562540  1
  V  V20  1  0.12496852  0.62447245  0.00117242  1
  V  V21  1  0.12669334  0.37351819  0.25461294  1
  V  V22  1  0.87272650  0.00788113  0.87460021  1
  V  V23  1  0.50271785  0.38016627  0.87620769  1
  V  V24  1  0.62355367  0.49412160  0.11307799  1
  V  V25  1  0.49708400  0.25852481  0.74943073  1
  V  V26  1  0.25041405  0.12099369  0.87647332  1
  V  V27  1  0.12220205  0.00426462  0.62445602  1
  V  V28  1  0.61682604  0.74267965  0.36554007  1
  V  V29  1  0.24611659  0.25655183  0.49138514  1
  V  V30  1  0.87559158  0.75427566  0.11111943  1
  V  V31  1  0.87182921  0.62072473  0.74712410  1
  V  V32  1  0.50549993  0.87234000  0.87215659  1
  V  V33  1  0.00128259  0.87323462  0.37769393  1
  V  V34  1  0.37385539  0.25362916  0.61910123  1
  V  V35  1  0.12871958  0.88009901  0.25568594  1
  V  V36  1  0.74446936  0.49943309  0.24573578  1
  V  V37  1  0.74895631  0.25314179  0.00465643  1
  V  V38  1  0.86944686  0.50095837  0.37298168  1
  V  V39  1  0.25005760  -0.00301045  0.75358120  1
  V  V40  1  0.00365822  0.25031689  0.25167287  1
  V  V41  1  0.26631917  0.00535292  0.25046906  1
  V  V42  1  0.62948980  0.12292452  -0.00109837  1
  V  V43  1  0.87107832  0.37509522  0.00670608  1
  V  V44  1  0.87771021  0.25640545  0.61958378  1
  V  V45  1  0.26418081  0.12811189  0.36859312  1
  V  V46  1  0.62557147  0.24926624  0.37682076  1
  V  V47  1  0.12345561  0.75110016  0.87336829  1
  V  V48  1  0.25090242  0.62415560  0.87202731  1
  V  V49  1  0.49007070  -0.00130753  -0.00563159  1
  V  V50  1  0.12513473  0.37573398  0.74981377  1
  V  V51  1  0.87978220  0.73581441  0.61273386  1
  V  V52  1  -0.00987988  0.87102521  0.87983864  1
  V  V53  1  0.50097560  0.89277540  0.37598182  1
  V  V54  1  0.62829087  0.25475840  0.87357261  1
  V  V55  1  0.00001493  0.37341610  0.87617520  1
  V  V56  1  0.49294896  0.49378269  0.50304163  1
  V  V57  1  0.76240565  0.26606436  0.49009877  1
  V  V58  1  -0.00027227  0.62598168  0.12748450  1
  V  V59  1  0.25374367  0.75166994  -0.00095474  1
  V  V60  1  0.00022402  0.74953522  0.24977894  1
  V  V61  1  0.87432151  0.49777701  0.87272420  1
  V  V62  1  0.75461137  0.73960917  0.48819937  1
  V  V63  1  0.12142175  0.12539647  0.00066997  1
  V  V64  1  0.82555194  0.92267187  0.55163598  1
  V  V65  1  0.51388212  0.62281868  0.62569924  1
  V  V66  1  0.70994063  0.07922829  0.81936510  1
  V  V67  1  0.37264903  0.24736083  0.12718910  1
  V  V68  1  0.25951653  0.50333101  0.24902279  1
  V  V69  1  0.38013493  0.74491763  0.13975066  1
  V  V70  1  0.49631136  0.24545411  0.25183679  1
  V  V71  1  0.37666344  0.37650380  0.00105712  1
  V  V72  1  0.12061263  0.50235265  0.62417812  1
  V  V73  1  -0.00337338  0.74427995  0.74584639  1
  V  V74  1  0.25457587  0.74954178  0.50330794  1
  V  V75  1  0.87760789  0.12652923  0.24736963  1
  V  V76  1  0.25102739  0.87487092  0.62613834  1
  V  V77  1  0.87541880  -0.00912788  0.36849204  1
  V  V78  1  0.74366368  0.62981610  0.88544236  1
  V  V79  1  0.62554266  -0.00318511  0.12591886  1
  V  V80  1  0.62780753  0.37290990  0.24614096  1
  V  V81  1  0.38028338  0.74904535  0.63002927  1
  V  V82  1  0.75091141  0.12279277  0.37313383  1
  V  V83  1  0.12077873  0.62395483  0.50111483  1
  V  V84  1  0.26118699  0.62622021  0.37198485  1
  Zn  Zn85  1  -0.00147108  0.12601811  0.12381631  1
  Zn  Zn86  1  -0.00514159  0.12428151  0.62266470  1
  Zn  Zn87  1  0.37979634  0.62466468  0.75046196  1
  Zn  Zn88  1  0.37531562  0.49316331  0.37710725  1
  Zn  Zn89  1  0.49424823  0.37180135  0.38003696  1
  Zn  Zn90  1  0.87375967  0.12685044  0.74535951  1
  Zn  Zn91  1  0.75062509  -0.00168062  0.24561283  1
  Zn  Zn92  1  -0.00168566  0.24638272  0.74800569  1
  Zn  Zn93  1  0.62505386  0.86936130  0.24960837  1
  Zn  Zn94  1  0.25125741  0.50036147  0.74816482  1
  Zn  Zn95  1  0.00004084  0.49834896  0.00201513  1
  Zn  Zn96  1  0.11599161  0.87678006  0.74885027  1
  Zn  Zn97  1  0.24896041  0.24973480  0.00122774  1
  Zn  Zn98  1  0.61462571  0.63749057  -0.00197752  1
  Zn  Zn99  1  0.61304068  0.11021470  0.49491256  1
  Zn  Zn100  1  0.68587839  -0.05408424  0.68614286  1
  Zn  Zn101  1  0.12460862  0.00216408  0.12628643  1
  Zn  Zn102  1  0.39603179  0.89645946  0.50624845  1
  Zn  Zn103  1  0.87003146  0.25425294  0.12762594  1
  Zn  Zn104  1  0.24921443  0.37352635  0.12414307  1
  Zn  Zn105  1  0.74205761  0.38434536  0.61942070  1
  Zn  Zn106  1  0.37284553  0.87706684  -0.00553654  1
  Zn  Zn107  1  0.18627847  0.18900247  0.18835261  1
  Zn  Zn108  1  0.18403829  0.18889299  0.68485580  1
  Zn  Zn109  1  0.19044325  0.68913774  0.18939097  1
  Zn  Zn110  1  0.18530248  0.68649789  0.68791111  1
  Zn  Zn111  1  0.68618773  0.18625795  0.18638850  1
  Zn  Zn112  1  0.67565460  0.22448293  0.67454874  1
  Zn  Zn113  1  0.66795574  0.70191914  0.15642294  1
  Zn  Zn114  1  0.70129094  0.78777111  0.68485784  1
  Zn  Zn115  1  0.31438667  0.31506806  0.31306979  1
  Zn  Zn116  1  0.31040855  0.31244549  0.81133331  1
  Zn  Zn117  1  0.31872673  0.81905561  0.31796664  1
  Zn  Zn118  1  0.31918587  0.81516370  0.81353384  1
  Zn  Zn119  1  0.81364695  0.31743157  0.30788317  1
  Zn  Zn120  1  0.81220634  0.30961190  0.81111741  1
  Zn  Zn121  1  0.80579687  0.81241741  0.30420267  1
  Zn  Zn122  1  0.81132734  0.80743193  0.82493200  1
  Zn  Zn123  1  0.18705992  0.43923139  0.43531004  1
  Zn  Zn124  1  0.19042235  0.43749234  0.93976568  1
  Zn  Zn125  1  0.22347608  0.95554349  0.45429336  1
  Zn  Zn126  1  0.18068193  0.93730607  0.93599842  1
  Zn  Zn127  1  0.68124716  0.44124691  0.42918766  1
  Zn  Zn128  1  0.69016525  0.43709909  0.93495637  1
  Zn  Zn129  1  0.67936763  0.94077355  0.44096308  1
  Zn  Zn130  1  0.68287725  0.93149416  0.93893869  1
  Zn  Zn131  1  0.31069008  0.06273031  0.06384544  1
  Zn  Zn132  1  0.31222323  0.06907623  0.56630650  1
  Zn  Zn133  1  0.31427453  0.56299552  0.06040456  1
  Zn  Zn134  1  0.31521483  0.56661551  0.56430363  1
  Zn  Zn135  1  0.81241121  0.06163388  0.06011619  1
  Zn  Zn136  1  0.77837271  0.08510194  0.56961224  1
  Zn  Zn137  1  0.81176987  0.55835120  0.06531550  1
  Zn  Zn138  1  0.80922789  0.56271820  0.56456458  1
  Zn  Zn139  1  0.43831718  0.42990363  0.19170825  1
  Zn  Zn140  1  0.43786866  0.44164079  0.68776328  1
  Zn  Zn141  1  0.44179584  0.92963756  0.18887138  1
  Zn  Zn142  1  0.43687840  0.93440757  0.69361342  1
  Zn  Zn143  1  0.93822122  0.43895355  0.18913438  1
  Zn  Zn144  1  0.93399019  0.43102505  0.68607590  1
  Zn  Zn145  1  0.93855345  0.93586497  0.18562302  1
  Zn  Zn146  1  0.88254128  0.90585189  0.71604862  1
  Zn  Zn147  1  0.06563342  0.06253498  0.31325892  1
  Zn  Zn148  1  0.05663335  0.06241701  0.81025507  1
  Zn  Zn149  1  0.06375156  0.56308162  0.31345232  1
  Zn  Zn150  1  0.06034375  0.56146794  0.81193859  1
  Zn  Zn151  1  0.56138921  0.06378634  0.30860620  1
  Zn  Zn152  1  0.54597420  0.06205104  0.81060697  1
  Zn  Zn153  1  0.55632011  0.56444502  0.31007992  1
  Zn  Zn154  1  0.56320400  0.56553466  0.81467375  1
  Zn  Zn155  1  0.43664060  0.18779299  0.44228142  1
  Zn  Zn156  1  0.43708770  0.18910880  0.93859900  1
  Zn  Zn157  1  0.44094945  0.68998117  0.44118292  1
  Zn  Zn158  1  0.43908079  0.68755477  0.94178541  1
  Zn  Zn159  1  0.93672274  0.18600278  0.43668496  1
  Zn  Zn160  1  0.93480405  0.18659248  0.93612058  1
  Zn  Zn161  1  0.94045746  0.67980194  0.43028992  1
  Zn  Zn162  1  0.93737848  0.68138849  0.93632390  1
  Zn  Zn163  1  0.06025277  0.31145309  0.06518376  1
  Zn  Zn164  1  0.06404480  0.31517619  0.55923503  1
  Zn  Zn165  1  0.06544038  0.81323319  0.06333082  1
  Zn  Zn166  1  0.06249258  0.81350034  0.56571352  1
  Zn  Zn167  1  0.55945673  0.31254340  0.06090439  1
  Zn  Zn168  1  0.56822829  0.31209331  0.56292929  1
  Zn  Zn169  1  0.56022785  0.81267045  0.05905154  1
  Zn  Zn170  1  0.56981503  0.81392733  0.55855176  1
  O  O171  1  0.12476834  0.12491360  0.11157312  1
  O  O172  1  0.12567216  0.11904622  0.61297007  1
  O  O173  1  0.12163528  0.61947829  0.12168727  1
  O  O174  1  0.12996063  0.61066353  0.61747887  1
  O  O175  1  0.61392538  0.12131998  0.11667100  1
  O  O176  1  0.60732625  0.13555978  0.62775333  1
  O  O177  1  0.60823641  0.60459862  0.13158064  1
  O  O178  1  0.61425143  0.63119220  0.61211307  1
  O  O179  1  0.38144729  0.37851950  0.37338396  1
  O  O180  1  0.37921621  0.38050076  0.88024256  1
  O  O181  1  0.39640998  0.87230459  0.38009758  1
  O  O182  1  0.39205311  0.86837269  0.88050279  1
  O  O183  1  0.88496898  0.39054017  0.36512565  1
  O  O184  1  0.88273556  0.37874714  0.88201952  1
  O  O185  1  0.88160170  0.88535124  0.36336343  1
  O  O186  1  0.88460864  0.88164239  0.87931172  1
  O  O187  1  0.24471448  0.01892483  0.36139724  1
  O  O188  1  0.24253391  0.01179052  0.86866567  1
  O  O189  1  0.25061672  0.50934163  0.36778469  1
  O  O190  1  0.25536874  0.50906728  0.87381692  1
  O  O191  1  0.75993781  0.00734147  0.36839455  1
  O  O192  1  0.75633046  0.00535367  0.88379924  1
  O  O193  1  0.75688344  0.49642122  0.35936140  1
  O  O194  1  0.75809533  0.50345333  0.86709972  1
  O  O195  1  0.24299011  0.50080653  0.13146575  1
  O  O196  1  0.24429581  0.49329667  0.62352265  1
  O  O197  1  0.24706014  0.99249211  0.13095495  1
  O  O198  1  0.23835870  0.99807079  0.63675558  1
  O  O199  1  0.73907956  0.50112696  0.13634081  1
  O  O200  1  0.75387357  0.49931784  0.64250909  1
  O  O201  1  0.74376453  0.99219346  0.12278578  1
  O  O202  1  0.78619448  0.98332680  0.62661426  1
  O  O203  1  0.00591195  0.37039100  0.25622205  1
  O  O204  1  0.00527598  0.37332033  0.76215241  1
  O  O205  1  0.01003879  0.87085230  0.25595904  1
  O  O206  1  -0.01002612  0.85842356  0.75919689  1
  O  O207  1  0.50943421  0.35951950  0.25026235  1
  O  O208  1  0.49125882  0.36454182  0.75799825  1
  O  O209  1  0.50869175  0.88007557  0.26679147  1
  O  O210  1  0.49948160  0.85949128  0.75577912  1
  O  O211  1  0.50361007  0.13645843  0.23985245  1
  O  O212  1  0.48723027  0.13634630  0.74472110  1
  O  O213  1  0.49446893  0.62295569  0.23136249  1
  O  O214  1  0.50161640  0.63457078  0.74408986  1
  O  O215  1  0.99611039  0.13328439  0.25008950  1
  O  O216  1  0.99734400  0.12930491  0.74175356  1
  O  O217  1  0.99561160  0.63016340  0.24337102  1
  O  O218  1  0.98853808  0.63586887  0.76036931  1
  O  O219  1  0.37368164  0.25537144  0.01045692  1
  O  O220  1  0.36439845  0.24675160  0.51257598  1
  O  O221  1  0.36135542  0.75009361  0.00774478  1
  O  O222  1  0.36786425  0.74929093  0.51273985  1
  O  O223  1  0.86547390  0.25601282  0.00111633  1
  O  O224  1  0.87435356  0.25824759  0.50208885  1
  O  O225  1  0.88223339  0.74678913  0.01240712  1
  O  O226  1  0.87154391  0.73416190  0.50105113  1
  O  O227  1  0.13566003  0.24285929  0.50355851  1
  O  O228  1  0.12565522  0.24310829  0.99436169  1
  O  O229  1  0.12867320  0.73854362  0.49907558  1
  O  O230  1  0.13538590  0.74537050  0.99525900  1
  O  O231  1  0.63245966  0.24353586  0.48417164  1
  O  O232  1  0.62612647  0.24276092  0.99166255  1
  O  O233  1  0.63500843  0.73822856  0.48893097  1
  O  O234  1  0.63728097  0.73586777  1.04879042  1
  O  O235  1  0.49459933  0.24112373  0.13007462  1
  O  O236  1  0.48867006  0.24654430  0.63232330  1
  O  O237  1  0.48058771  0.75422772  0.12998248  1
  O  O238  1  0.49694882  0.74480785  0.63587530  1
  O  O239  1  0.99532131  0.24847355  0.13813698  1
  O  O240  1  0.98845795  0.25301095  0.62031463  1
  O  O241  1  0.99539224  0.74772721  0.13154398  1
  O  O242  1  0.99213660  0.74887423  0.63279905  1
  O  O243  1  -0.00708173  0.26048480  0.36273460  1
  O  O244  1  0.00540656  0.25804087  0.87432077  1
  O  O245  1  0.00790493  0.75386122  0.36873855  1
  O  O246  1  0.00280451  0.75461364  0.87216950  1
  O  O247  1  0.50716282  0.24424886  0.36838697  1
  O  O248  1  0.50180087  0.25898900  0.86953940  1
  O  O249  1  0.51491048  0.75162711  0.37667417  1
  O  O250  1  0.49712313  0.74934549  0.85998390  1
  O  O251  1  0.24465286  0.13642944  0.48801245  1
  O  O252  1  0.24248936  0.12408831  0.99169944  1
  O  O253  1  0.24181825  0.63235537  0.49533095  1
  O  O254  1  0.24537879  0.63196701  0.99052026  1
  O  O255  1  0.76790143  0.14748161  0.47471947  1
  O  O256  1  0.73549119  0.13114952  1.00443819  1
  O  O257  1  0.74101601  0.62776904  0.49812378  1
  O  O258  1  0.75257054  0.61566442  0.98648902  1
  O  O259  1  0.26212937  0.37078145  0.00108558  1
  O  O260  1  0.24260244  0.36616957  0.50575915  1
  O  O261  1  0.24839351  0.86977325  0.00689472  1
  O  O262  1  0.23634888  0.85372956  0.50914477  1
  O  O263  1  0.75973719  0.36732021  -0.00349809  1
  O  O264  1  0.74316437  0.36859407  0.49459143  1
  O  O265  1  0.74886314  0.87721744  0.01548443  1
  O  O266  1  0.75980665  0.86699183  0.49693625  1
  O  O267  1  0.13075387  0.49581703  0.24084615  1
  O  O268  1  0.12483940  0.49558361  0.74068406  1
  O  O269  1  0.12957062  0.98953295  0.24781643  1
  O  O270  1  0.13235108  1.00005897  0.74395900  1
  O  O271  1  0.62816158  0.49070266  0.24703893  1
  O  O272  1  0.63564188  0.50067667  0.75256289  1
  O  O273  1  0.62712015  1.00634176  0.23323191  1
  O  O274  1  0.64195911  1.01832376  0.76224310  1
  O  O275  1  0.36502792  -0.00185677  0.24270539  1
  O  O276  1  0.35975562  0.00989596  0.74599531  1
  O  O277  1  0.36208226  0.49666022  0.24814588  1
  O  O278  1  0.37165267  0.50306322  0.76296489  1
  O  O279  1  0.87705449  0.00799379  0.25464704  1
  O  O280  1  0.87830080  0.00566754  0.76931826  1
  O  O281  1  0.86547225  0.50589697  0.25082208  1
  O  O282  1  0.88127701  0.50307410  0.76145253  1
  O  O283  1  0.11542621  0.38365611  0.36104747  1
  O  O284  1  0.11908910  0.37197614  0.87242854  1
  O  O285  1  0.12416248  0.86853168  0.36707246  1
  O  O286  1  0.11217671  0.86817277  0.86989398  1
  O  O287  1  0.61701142  0.36541221  0.36523221  1
  O  O288  1  0.61232706  0.36797350  0.88252166  1
  O  O289  1  0.61863800  0.86578928  0.37569634  1
  O  O290  1  0.60808316  0.86947116  0.88266139  1
  O  O291  1  0.38718413  0.13181786  0.11802815  1
  O  O292  1  0.37769247  0.13452481  0.63493984  1
  O  O293  1  0.37978323  0.63408433  0.12306978  1
  O  O294  1  0.38620132  0.63282768  0.62771041  1
  O  O295  1  0.87497679  0.12543754  0.13746017  1
  O  O296  1  0.87461134  0.13904336  0.62160824  1
  O  O297  1  0.88040949  0.63141625  0.13030415  1
  O  O298  1  0.87851544  0.62527629  0.63458232  1
  O  O299  1  0.25920111  0.25087520  0.12355841  1
  O  O300  1  0.25412416  0.25812171  0.61699020  1
  O  O301  1  0.25414469  0.75556722  0.11726740  1
  O  O302  1  0.25767135  0.75075826  0.62138363  1
  O  O303  1  0.74758857  0.24794914  0.11033720  1
  O  O304  1  0.76598767  0.24200084  0.60203607  1
  O  O305  1  0.76482326  0.76439551  0.13499106  1
  O  O306  1  0.77100826  0.74490458  0.60541398  1
  O  O307  1  0.25107326  0.24120560  0.37972657  1
  O  O308  1  0.24284091  0.23789435  0.87530212  1
  O  O309  1  0.24797204  0.74568212  0.38317383  1
  O  O310  1  0.24595393  0.74539152  0.88094229  1
  O  O311  1  0.74424610  0.24882169  0.37224361  1
  O  O312  1  0.73816434  0.25646756  0.88603754  1
  O  O313  1  0.74347549  0.75450103  0.38388050  1
  O  O314  1  0.75454723  0.72859445  0.87847025  1
  O  O315  1  0.00693061  0.11966338  0.00106368  1
  O  O316  1  0.00824008  0.11658524  0.49822519  1
  O  O317  1  0.00860196  0.62180647  0.00773621  1
  O  O318  1  0.01355579  0.61388845  0.49368874  1
  O  O319  1  0.50845569  0.11884991  0.00276248  1
  O  O320  1  0.49780565  0.12431637  0.51700470  1
  O  O321  1  0.49858093  0.63200066  0.02194198  1
  O  O322  1  0.50638634  0.61763513  0.50692707  1
  O  O323  1  0.50969816  0.39077815  0.50362817  1
  O  O324  1  0.48580167  0.36943188  0.98990353  1
  O  O325  1  0.50524470  0.87269490  0.48600528  1
  O  O326  1  0.49691326  0.88310585  0.99643428  1
  O  O327  1  1.00725077  0.38428861  0.48476440  1
  O  O328  1  0.99463481  0.37483403  0.99001144  1
  O  O329  1  1.01135718  0.88124871  0.48713995  1
  O  O330  1  1.00702713  0.88362020  0.99306223  1
  O  O331  1  0.49744811  0.50174100  0.38963559  1
  O  O332  1  0.49250616  0.49014641  0.87035208  1
  O  O333  1  0.51040270  0.99300787  0.38169299  1
  O  O334  1  0.50017448  0.98986405  0.88326876  1
  O  O335  1  0.99404196  0.49407155  0.37973631  1
  O  O336  1  0.99389252  0.49146745  0.87938893  1
  O  O337  1  0.99370414  0.99466268  0.37858150  1
  O  O338  1  0.99406757  0.99130756  0.88196664  1
  O  O339  1  0.00355748  0.00187183  0.11672250  1
  O  O340  1  0.01586047  -0.00098332  0.61561379  1
  O  O341  1  0.00897013  0.50665369  0.12498777  1
  O  O342  1  0.00735635  0.48904203  0.61308893  1
  O  O343  1  0.50522414  0.00508786  0.11911718  1
  O  O344  1  0.49698803  0.01701361  0.63861683  1
  O  O345  1  0.50083704  0.50188857  0.12507585  1
  O  O346  1  0.49821692  0.50859436  0.61567139  1
  O  O347  1  0.24087478  0.38370939  0.24790957  1
  O  O348  1  0.24219565  0.37708693  0.74092374  1
  O  O349  1  0.24658644  0.88363875  0.24688259  1
  O  O350  1  0.24936424  0.88323281  0.74647780  1
  O  O351  1  0.73583679  0.38081295  0.24898324  1
  O  O352  1  0.75419244  0.39289563  0.75579939  1
  O  O353  1  0.74399903  0.88124724  0.23741449  1
  O  O354  1  0.76912902  0.86770822  0.74019154  1
  O  O355  1  0.24638524  0.12154016  0.26025267  1
  O  O356  1  0.25262632  0.12012746  0.75583614  1
  O  O357  1  0.24252827  0.61603017  0.26098245  1
  O  O358  1  0.25013063  0.62478945  0.76331785  1
  O  O359  1  0.75884705  0.12580226  0.25740693  1
  O  O360  1  0.74966372  0.14290952  0.74953301  1
  O  O361  1  0.75824929  0.61901601  0.24166691  1
  O  O362  1  0.76504497  0.60923351  0.76343905  1
  O  O363  1  0.36288757  0.12837148  0.37560627  1
  O  O364  1  0.36595799  0.13192239  0.86287488  1
  O  O365  1  0.36319562  0.62455853  0.38201908  1
  O  O366  1  0.36849909  0.61799517  0.87651060  1
  O  O367  1  0.87461112  0.11458182  0.36256185  1
  O  O368  1  0.87245171  0.11731178  0.87072672  1
  O  O369  1  0.88070816  0.61038100  0.35984727  1
  O  O370  1  0.87060808  0.61329799  0.87150822  1
  O  O371  1  0.12506788  0.38372152  0.13345720  1
  O  O372  1  0.13343642  0.38484036  0.62741940  1
  O  O373  1  0.13835651  0.87335795  0.13415573  1
  O  O374  1  0.13217895  0.88295623  0.63017621  1
  O  O375  1  0.61553852  0.38209859  0.13296447  1
  O  O376  1  0.64347743  0.33188621  0.64041551  1
  O  O377  1  0.63290761  0.88379830  0.12672787  1
  O  O378  1  0.63511707  0.86472103  0.63127570  1
  O  O379  1  0.11698762  0.26154750  0.24633692  1
  O  O380  1  0.12296179  0.25785748  0.75572290  1
  O  O381  1  0.12270791  0.76049117  0.25472485  1
  O  O382  1  0.11451862  0.74940998  0.75514530  1
  O  O383  1  0.62030157  0.25329584  0.25683739  1
  O  O384  1  0.60886556  0.24099041  0.76905755  1
  O  O385  1  0.63350668  0.74675348  0.26312366  1
  O  O386  1  0.61837207  0.74185780  0.75356048  1
  O  O387  1  0.38300651  0.25433363  0.23632078  1
  O  O388  1  0.37671780  0.24462323  0.74096037  1
  O  O389  1  0.36129595  0.74903292  0.23706143  1
  O  O390  1  0.37623938  0.74640684  0.73815135  1
  O  O391  1  0.88094404  0.24359532  0.24765615  1
  O  O392  1  0.87641655  0.25163270  0.73474240  1
  O  O393  1  0.88167271  0.74172796  0.24629825  1
  O  O394  1  0.87852753  0.73733855  0.74036254  1
  O  O395  1  0.38964765  0.50387309  0.50135100  1
  O  O396  1  0.36982745  0.49154009  0.98736940  1
  O  O397  1  0.32742106  0.98303629  0.50081953  1
  O  O398  1  0.38697937  1.00029104  1.00451692  1
  O  O399  1  0.88434981  0.50787851  0.49010229  1
  O  O400  1  0.87558670  0.49193608  0.99004647  1
  O  O401  1  0.88013554  0.99046439  0.49158093  1
  O  O402  1  0.88901048  1.00798629  0.99240315  1
  O  O403  1  0.11364943  0.00802864  0.00021186  1
  O  O404  1  0.12847015  0.00921919  0.50618818  1
  O  O405  1  0.12654737  0.50359777  0.01291678  1
  O  O406  1  0.11773468  0.50555068  0.50501770  1
  O  O407  1  0.61699456  0.00728473  0.00864861  1
  O  O408  1  0.68143454  0.02389805  0.51651070  1
  O  O409  1  0.62934847  0.49876773  0.01181226  1
  O  O410  1  0.61751883  0.51246525  0.49370804  1
  O  O411  1  0.37453742  0.36710316  0.11661416  1
  O  O412  1  0.36185942  0.36958282  0.63013528  1
  O  O413  1  0.36412032  0.86513413  0.12334516  1
  O  O414  1  0.37047506  0.86726453  0.62381339  1
  O  O415  1  0.88144097  0.37608038  0.11049778  1
  O  O416  1  0.86497503  0.36204229  0.62448443  1
  O  O417  1  0.86559081  0.86882898  0.12690948  1
  O  O418  1  0.88761304  0.86221094  0.60638220  1
  O  O419  1  0.13061937  0.12476363  0.38579756  1
  O  O420  1  0.12899675  0.12829151  0.88408406  1
  O  O421  1  0.13334556  0.63106424  0.38297604  1
  O  O422  1  0.13137423  0.62928736  0.88075247  1
  O  O423  1  0.63487807  0.12980020  0.37414346  1
  O  O424  1  0.62747738  0.12842296  0.88033880  1
  O  O425  1  0.62028785  0.63532874  0.37944208  1
  O  O426  1  0.63765603  0.61886431  0.88337816  1
