# generated using pymatgen
data_V85Zn86O256
_symmetry_space_group_name_H-M   'P 1'
_cell_length_a   16.92091932
_cell_length_b   16.91694165
_cell_length_c   16.91569264
_cell_angle_alpha   90.03065388
_cell_angle_beta   90.01268255
_cell_angle_gamma   90.07620651
_symmetry_Int_Tables_number   1
_chemical_formula_structural   V85Zn86O256
_chemical_formula_sum   'V85 Zn86 O256'
_cell_volume   4842.11538791
_cell_formula_units_Z   1
loop_
 _symmetry_equiv_pos_site_id
 _symmetry_equiv_pos_as_xyz
  1  'x, y, z'
loop_
 _atom_site_type_symbol
 _atom_site_label
 _atom_site_symmetry_multiplicity
 _atom_site_fract_x
 _atom_site_fract_y
 _atom_site_fract_z
 _atom_site_occupancy
  V  V0  1  0.87686212  0.25938190  0.62823938  1
  V  V1  1  0.87676012  0.24523571  0.11468264  1
  V  V2  1  -0.00152955  0.50636338  0.00522403  1
  V  V3  1  0.12016848  0.25054501  0.38103836  1
  V  V4  1  0.50811952  0.12657105  0.12074515  1
  V  V5  1  0.12270743  0.49742859  0.13013231  1
  V  V6  1  0.24673076  0.12309380  0.86773889  1
  V  V7  1  0.74716437  0.86922891  0.61917162  1
  V  V8  1  0.25220861  0.37496851  0.61743333  1
  V  V9  1  0.50136378  0.49803807  0.00300742  1
  V  V10  1  0.50541999  0.00357101  -0.00230853  1
  V  V11  1  0.37426042  0.24976510  0.12544883  1
  V  V12  1  0.74906716  0.74947814  0.00073884  1
  V  V13  1  0.87368916  0.00049884  0.87288383  1
  V  V14  1  0.48997682  0.49863144  0.51000740  1
  V  V15  1  0.62921017  0.11749390  0.50106424  1
  V  V16  1  0.01136507  0.00327680  0.50052361  1
  V  V17  1  0.24995498  0.88133294  0.62792755  1
  V  V18  1  0.50139694  0.87432344  0.37556017  1
  V  V19  1  0.62370010  0.74842215  0.87352839  1
  V  V20  1  0.36714524  0.87288449  -0.00162844  1
  V  V21  1  -0.00366420  0.87030807  0.86703286  1
  V  V22  1  0.04988902  0.68532259  0.18273982  1
  V  V23  1  0.87875158  0.63196031  0.75143555  1
  V  V24  1  0.24909186  0.37797745  0.13551349  1
  V  V25  1  0.87790656  0.13071006  0.74777245  1
  V  V26  1  0.87258759  0.49554485  0.88084872  1
  V  V27  1  0.75045450  0.87739179  0.12294846  1
  V  V28  1  0.75137403  0.49622376  0.74226370  1
  V  V29  1  0.37547888  0.62271861  0.74682811  1
  V  V30  1  0.87283396  0.86977134  0.49707575  1
  V  V31  1  0.87590632  0.49743240  0.37271155  1
  V  V32  1  0.74630213  0.00365406  0.73949887  1
  V  V33  1  0.37432752  0.74706738  0.11892850  1
  V  V34  1  0.24534231  0.12398390  0.38165107  1
  V  V35  1  0.87712666  0.00736160  0.37456735  1
  V  V36  1  0.36951750  0.74649116  0.62100258  1
  V  V37  1  0.11904107  0.24953367  0.87213374  1
  V  V38  1  0.62700087  0.87788963  0.24822864  1
  V  V39  1  0.49650330  0.24815337  0.74754186  1
  V  V40  1  0.11093091  0.37379733  0.25539380  1
  V  V41  1  0.62412707  0.62212101  0.00759046  1
  V  V42  1  0.62619569  0.37908780  0.24754191  1
  V  V43  1  0.24977265  0.62917324  0.88268032  1
  V  V44  1  0.74932520  0.62301224  0.87507740  1
  V  V45  1  0.49824830  0.61904041  0.13191369  1
  V  V46  1  0.87420306  0.62661517  0.24742102  1
  V  V47  1  0.87494450  0.74873420  0.12824803  1
  V  V48  1  0.25165043  0.63329266  0.37449026  1
  V  V49  1  0.37370645  -0.00019028  0.37421325  1
  V  V50  1  0.00034855  0.49916533  0.49717339  1
  V  V51  1  0.75539008  0.00915361  0.24840577  1
  V  V52  1  0.00796288  0.86357548  0.37008002  1
  V  V53  1  -0.00361791  0.00271617  0.00433535  1
  V  V54  1  0.12778215  0.88198436  0.75103221  1
  V  V55  1  0.50003626  0.74322602  0.74488390  1
  V  V56  1  0.12411371  0.74969029  0.87445483  1
  V  V57  1  -0.00256857  0.37437014  0.88030847  1
  V  V58  1  0.11875618  0.37234209  0.74884108  1
  V  V59  1  0.62317945  0.87886151  0.74253657  1
  V  V60  1  0.37017884  0.50105542  0.35643239  1
  V  V61  1  0.50200865  0.25140381  0.25397386  1
  V  V62  1  0.49895456  0.74727376  0.24977100  1
  V  V63  1  0.87153492  0.37811712  0.50011335  1
  V  V64  1  0.74513156  0.50050158  0.24549777  1
  V  V65  1  0.12052911  0.12552735  0.01004851  1
  V  V66  1  0.00212133  0.63627196  0.62746068  1
  V  V67  1  0.74550077  0.12364327  0.88252505  1
  V  V68  1  0.24863979  0.50041927  0.75130973  1
  V  V69  1  0.12358611  0.50318128  0.62288360  1
  V  V70  1  0.49659002  0.37533782  0.87401111  1
  V  V71  1  0.37620660  0.25150481  0.61303122  1
  V  V72  1  0.24715577  0.25205305  0.00126983  1
  V  V73  1  0.50475822  0.11712601  0.62444716  1
  V  V74  1  0.62143454  0.24512865  0.88354848  1
  V  V75  1  0.49862227  0.87485959  0.87414674  1
  V  V76  1  0.62793284  0.37332826  0.74333729  1
  V  V77  1  0.74868442  0.25490791  0.50329735  1
  V  V78  1  0.36953647  0.00010361  0.86848942  1
  V  V79  1  0.62826766  0.62685535  0.50604665  1
  V  V80  1  -0.00918992  0.23017588  0.25029747  1
  V  V81  1  0.37548192  0.12462539  0.24933348  1
  V  V82  1  0.24776416  -0.00282815  0.24556028  1
  V  V83  1  0.36867215  0.86860215  0.49714743  1
  V  V84  1  0.00384185  0.12834695  0.62370969  1
  Zn  Zn85  1  0.63379536  0.75179484  0.38333322  1
  Zn  Zn86  1  0.24465225  0.87034247  0.12203715  1
  Zn  Zn87  1  0.36912773  0.12016067  0.74372460  1
  Zn  Zn88  1  0.50534203  -0.00419482  0.50394347  1
  Zn  Zn89  1  0.12656692  0.63110581  0.00414049  1
  Zn  Zn90  1  0.87299104  0.75032632  0.62459563  1
  Zn  Zn91  1  0.63002362  0.00518587  0.11770601  1
  Zn  Zn92  1  0.62747382  0.25289835  0.37703695  1
  Zn  Zn93  1  0.87461500  0.87459721  -0.00153381  1
  Zn  Zn94  1  0.49472521  0.37734430  0.37999388  1
  Zn  Zn95  1  0.75366500  0.37826570  0.11526508  1
  Zn  Zn96  1  0.37318979  0.37554731  0.00036718  1
  Zn  Zn97  1  0.75279492  0.25683475  -0.00253081  1
  Zn  Zn98  1  0.75192585  0.63405976  0.37959872  1
  Zn  Zn99  1  0.62443958  0.49880607  0.62258706  1
  Zn  Zn100  1  0.12286216  0.86831620  0.24766544  1
  Zn  Zn101  1  0.24742961  0.24922982  0.49838298  1
  Zn  Zn102  1  0.12985303  0.63976700  0.49790206  1
  Zn  Zn103  1  0.75241357  0.13022861  0.37232513  1
  Zn  Zn104  1  0.13433755  0.00864991  0.62828707  1
  Zn  Zn105  1  0.11724277  -0.00108107  0.12891514  1
  Zn  Zn106  1  0.37228751  0.49920226  0.87570833  1
  Zn  Zn107  1  0.18589354  0.18887520  0.19382369  1
  Zn  Zn108  1  0.18587199  0.19137688  0.68706350  1
  Zn  Zn109  1  0.21313924  0.68117355  0.19613881  1
  Zn  Zn110  1  0.18678591  0.69327553  0.69128141  1
  Zn  Zn111  1  0.68941300  0.19277582  0.18457442  1
  Zn  Zn112  1  0.68833677  0.19040394  0.68547639  1
  Zn  Zn113  1  0.68715485  0.68884577  0.19250995  1
  Zn  Zn114  1  0.68782807  0.68482868  0.68446733  1
  Zn  Zn115  1  0.31142228  0.31523567  0.31599649  1
  Zn  Zn116  1  0.31012937  0.31100852  0.80780911  1
  Zn  Zn117  1  0.31705074  0.81225659  0.30432810  1
  Zn  Zn118  1  0.30852772  0.81110792  0.81019442  1
  Zn  Zn119  1  0.81527724  0.31514167  0.31330518  1
  Zn  Zn120  1  0.81125479  0.31187749  0.81509914  1
  Zn  Zn121  1  0.81568339  0.81572734  0.31320829  1
  Zn  Zn122  1  0.80915239  0.81327476  0.81046354  1
  Zn  Zn123  1  0.19022959  0.44045849  0.43454345  1
  Zn  Zn124  1  0.18501517  0.43981135  0.94151214  1
  Zn  Zn125  1  0.18695993  0.80693532  0.43667094  1
  Zn  Zn126  1  0.18463082  0.93948175  0.93772997  1
  Zn  Zn127  1  0.68535244  0.44167259  0.43333186  1
  Zn  Zn128  1  0.68375136  0.43557415  0.93619282  1
  Zn  Zn129  1  0.69008431  0.93810643  0.43523950  1
  Zn  Zn130  1  0.68746558  0.93681815  0.93285710  1
  Zn  Zn131  1  0.31506612  0.06330760  0.05883495  1
  Zn  Zn132  1  0.31717892  0.06068442  0.55877494  1
  Zn  Zn133  1  0.31444463  0.55866144  0.06440151  1
  Zn  Zn134  1  0.30967534  0.56551679  0.55858656  1
  Zn  Zn135  1  0.81859549  0.06866039  0.06538682  1
  Zn  Zn136  1  0.81629876  0.06248488  0.55999681  1
  Zn  Zn137  1  0.81429012  0.56181726  0.06462819  1
  Zn  Zn138  1  0.81139053  0.56551628  0.56305751  1
  Zn  Zn139  1  0.43851169  0.43571475  0.18751562  1
  Zn  Zn140  1  0.43628073  0.43713441  0.68510784  1
  Zn  Zn141  1  0.43788787  0.93699850  0.18440302  1
  Zn  Zn142  1  0.43581906  0.93521169  0.68726993  1
  Zn  Zn143  1  0.93426047  0.43256589  0.18569654  1
  Zn  Zn144  1  0.93894201  0.44166569  0.68998110  1
  Zn  Zn145  1  0.93601820  0.93681236  0.18948808  1
  Zn  Zn146  1  0.93559950  0.93939566  0.68555709  1
  Zn  Zn147  1  0.06630968  0.05951967  0.31735160  1
  Zn  Zn148  1  0.05961659  0.06192787  0.81284334  1
  Zn  Zn149  1  0.07109880  0.55894199  0.31959813  1
  Zn  Zn150  1  0.06147945  0.56248580  0.81268470  1
  Zn  Zn151  1  0.56616265  0.06384046  0.31395143  1
  Zn  Zn152  1  0.56152952  0.06208724  0.81029266  1
  Zn  Zn153  1  0.56241157  0.56152029  0.32210838  1
  Zn  Zn154  1  0.56281324  0.56029364  0.81307957  1
  Zn  Zn155  1  0.44038231  0.18476021  0.43765556  1
  Zn  Zn156  1  0.43365577  0.18656799  0.93756485  1
  Zn  Zn157  1  0.44172123  0.67978365  0.43864202  1
  Zn  Zn158  1  0.43706041  0.68568972  0.93593613  1
  Zn  Zn159  1  0.93932535  0.18933572  0.43865710  1
  Zn  Zn160  1  0.93805839  0.18572523  0.93551978  1
  Zn  Zn161  1  0.93940077  0.68528347  0.43907460  1
  Zn  Zn162  1  0.93949863  0.68765390  0.93843666  1
  Zn  Zn163  1  0.05561286  0.31295758  0.06542879  1
  Zn  Zn164  1  0.05801898  0.31484384  0.56057592  1
  Zn  Zn165  1  0.06699523  0.82145251  0.05216180  1
  Zn  Zn166  1  0.05775353  0.81923068  0.56731174  1
  Zn  Zn167  1  0.56637556  0.31537355  0.06548132  1
  Zn  Zn168  1  0.56204815  0.31398720  0.56036167  1
  Zn  Zn169  1  0.56014427  0.81347616  0.06217692  1
  Zn  Zn170  1  0.55787959  0.80940461  0.56369211  1
  O  O171  1  0.13043517  0.12384327  0.11264863  1
  O  O172  1  0.10979376  0.12527602  0.63305674  1
  O  O173  1  0.12175613  0.62367472  0.13069575  1
  O  O174  1  0.11963491  0.61824930  0.62824875  1
  O  O175  1  0.61193168  0.12498292  0.12676946  1
  O  O176  1  0.61572086  0.13118296  0.61693789  1
  O  O177  1  0.61770418  0.63094362  0.11325862  1
  O  O178  1  0.62756640  0.61975660  0.61359564  1
  O  O179  1  0.37506232  0.39240190  0.37004524  1
  O  O180  1  0.38560779  0.37201176  0.87499107  1
  O  O181  1  0.38098052  0.87933711  0.37911853  1
  O  O182  1  0.37789068  0.88014704  0.87883710  1
  O  O183  1  0.87510394  0.39001935  0.38281054  1
  O  O184  1  0.88556116  0.38288107  0.86890221  1
  O  O185  1  0.88409793  0.88522656  0.38027935  1
  O  O186  1  0.87948055  0.88027311  0.87342206  1
  O  O187  1  0.26176524  0.00851032  0.36099341  1
  O  O188  1  0.25702725  0.01137044  0.88234184  1
  O  O189  1  0.26574687  0.50571299  0.38059493  1
  O  O190  1  0.24943200  0.50494782  0.86860031  1
  O  O191  1  0.75943570  0.00022438  0.36553753  1
  O  O192  1  0.75371188  0.00605179  0.86465362  1
  O  O193  1  0.76065489  0.50606481  0.36497100  1
  O  O194  1  0.75643708  0.50531332  0.86989149  1
  O  O195  1  0.23948477  0.48900747  0.11931503  1
  O  O196  1  0.24215314  0.49418326  0.62967288  1
  O  O197  1  0.25532565  1.00177915  0.13676581  1
  O  O198  1  0.25255681  0.98727812  0.61894457  1
  O  O199  1  0.75800227  0.49782600  0.14062579  1
  O  O200  1  0.75163150  0.49966760  0.63953800  1
  O  O201  1  0.75059981  0.99642929  0.12905510  1
  O  O202  1  0.75410022  0.99281253  0.63543012  1
  O  O203  1  0.00904246  0.36804879  0.25058478  1
  O  O204  1  0.01222947  0.38330295  0.76125251  1
  O  O205  1  0.00184456  0.88046695  0.26595176  1
  O  O206  1  0.00447363  0.88138071  0.76033195  1
  O  O207  1  0.50636920  0.36651601  0.25004788  1
  O  O208  1  0.50381341  0.36801912  0.75623215  1
  O  O209  1  0.50757556  0.87099530  0.25472474  1
  O  O210  1  0.50634715  0.86872458  0.75411643  1
  O  O211  1  0.49561051  0.13118914  0.24370129  1
  O  O212  1  0.49824343  0.13252198  0.74221758  1
  O  O213  1  0.51084521  0.63281141  0.24005011  1
  O  O214  1  0.49062015  0.63234947  0.75639476  1
  O  O215  1  1.00375566  0.13192319  0.24891378  1
  O  O216  1  0.98497071  0.11866771  0.74269177  1
  O  O217  1  0.99783418  0.62645668  0.24974520  1
  O  O218  1  0.98949020  0.61596247  0.74079747  1
  O  O219  1  0.36452729  0.25205158  0.00600630  1
  O  O220  1  0.37533383  0.24965866  0.50976209  1
  O  O221  1  0.38475152  0.76088584  0.00554107  1
  O  O222  1  0.38684885  0.75531108  0.51114136  1
  O  O223  1  0.87853034  0.24901236  0.00974899  1
  O  O224  1  0.87153509  0.26009269  0.50580469  1
  O  O225  1  0.86804835  0.74699663  0.01089181  1
  O  O226  1  0.88004286  0.76527165  0.50133502  1
  O  O227  1  0.12284589  0.25558951  0.48559930  1
  O  O228  1  0.12799121  0.24485506  0.99527209  1
  O  O229  1  0.12175001  0.75212824  0.50732867  1
  O  O230  1  0.12264125  0.74804036  0.98295445  1
  O  O231  1  0.63410907  0.24473826  0.50044181  1
  O  O232  1  0.61924504  0.24916384  0.98587933  1
  O  O233  1  0.61302009  0.73275737  0.50127976  1
  O  O234  1  0.62829328  0.74356408  0.99425252  1
  O  O235  1  0.49569672  0.24475840  0.13256733  1
  O  O236  1  0.49382918  0.24427253  0.63014065  1
  O  O237  1  0.49546980  0.74196792  0.12960814  1
  O  O238  1  0.48696817  0.75487703  0.63905240  1
  O  O239  1  0.99058486  0.25172757  0.13850434  1
  O  O240  1  0.98984230  0.24121290  0.61912273  1
  O  O241  1  0.99586845  0.74769622  0.11896919  1
  O  O242  1  0.99594224  0.73927071  0.62836319  1
  O  O243  1  0.00750759  0.24363690  0.36364745  1
  O  O244  1  0.01087329  0.25787434  0.87912463  1
  O  O245  1  -0.00584587  0.76547983  0.37665373  1
  O  O246  1  0.00493419  0.75994465  0.87558576  1
  O  O247  1  0.49756790  0.25232580  0.36302613  1
  O  O248  1  0.50256348  0.25243388  0.86709321  1
  O  O249  1  0.49968125  0.75963796  0.36628148  1
  O  O250  1  0.50349230  0.75536611  0.86516405  1
  O  O251  1  0.25541798  0.12549872  0.48558647  1
  O  O252  1  0.24354089  0.13565618  0.99179389  1
  O  O253  1  0.24715991  0.62424156  0.48736721  1
  O  O254  1  0.24871883  0.61792064  0.98642678  1
  O  O255  1  0.74394462  0.13258934  0.50112783  1
  O  O256  1  0.75249972  0.12577547  0.98493124  1
  O  O257  1  0.73557021  0.62059626  0.49882617  1
  O  O258  1  0.74178995  0.62745141  0.99698227  1
  O  O259  1  0.24686633  0.36371510  0.00730622  1
  O  O260  1  0.24411492  0.37319949  0.51467764  1
  O  O261  1  0.26333946  0.88097701  0.00067907  1
  O  O262  1  0.26432189  0.86952112  0.50413605  1
  O  O263  1  0.74356454  0.37103226  0.00095151  1
  O  O264  1  0.76183891  0.37220815  0.49805900  1
  O  O265  1  0.75040333  0.86866892  0.00455951  1
  O  O266  1  0.75671345  0.88127770  0.50905630  1
  O  O267  1  0.11754853  0.49090144  0.23880263  1
  O  O268  1  0.12809866  0.49451740  0.73978638  1
  O  O269  1  0.13516254  1.00007710  0.24702961  1
  O  O270  1  0.12248471  0.98849538  0.75015839  1
  O  O271  1  0.63401777  0.49431570  0.25644383  1
  O  O272  1  0.63294969  0.49201949  0.75073205  1
  O  O273  1  0.62986737  0.98943850  0.24727253  1
  O  O274  1  0.63248622  0.98999378  0.75336349  1
  O  O275  1  0.37303790  0.00289613  0.25727509  1
  O  O276  1  0.37878262  0.00049812  0.76407590  1
  O  O277  1  0.37786502  0.50394568  0.25726527  1
  O  O278  1  0.36935257  0.50741644  0.75180840  1
  O  O279  1  0.86628032  -0.00349761  0.25924231  1
  O  O280  1  0.86533915  0.00758361  0.75382830  1
  O  O281  1  0.87376190  0.50693759  0.25647848  1
  O  O282  1  0.86834049  0.50572281  0.76075868  1
  O  O283  1  0.13275615  0.36671294  0.36462726  1
  O  O284  1  0.11992532  0.36937919  0.86948429  1
  O  O285  1  0.11260132  0.87227826  0.37135744  1
  O  O286  1  0.11818159  0.87116161  0.87049595  1
  O  O287  1  0.62036696  0.37227173  0.36351652  1
  O  O288  1  0.61124530  0.36632746  0.86554372  1
  O  O289  1  0.61736968  0.87444177  0.36796938  1
  O  O290  1  0.62074365  0.86752789  0.86284554  1
  O  O291  1  0.38348796  0.13078974  0.12977216  1
  O  O292  1  0.38185681  0.13275732  0.62523938  1
  O  O293  1  0.38784123  0.63215408  0.11722315  1
  O  O294  1  0.36707484  0.63204349  0.63805158  1
  O  O295  1  0.87394579  0.14370717  0.13038381  1
  O  O296  1  0.88164981  0.13358625  0.63023180  1
  O  O297  1  0.87624626  0.63090997  0.13750285  1
  O  O298  1  0.88219392  0.62607492  0.63315206  1
  O  O299  1  0.25229964  0.25437146  0.11830218  1
  O  O300  1  0.25729792  0.25555602  0.62245721  1
  O  O301  1  0.26873772  0.74956483  0.12556543  1
  O  O302  1  0.26343933  0.76144343  0.63276890  1
  O  O303  1  0.76138190  0.24977552  0.11906997  1
  O  O304  1  0.76140558  0.24769044  0.61308772  1
  O  O305  1  0.75679377  0.75494363  0.12088513  1
  O  O306  1  0.75254805  0.76502131  0.63177908  1
  O  O307  1  0.24331024  0.24158841  0.37547923  1
  O  O308  1  0.23979685  0.24731495  0.88231004  1
  O  O309  1  0.25766832  0.74157103  0.37168191  1
  O  O310  1  0.24147745  0.73993993  0.87098973  1
  O  O311  1  0.75389512  0.24924324  0.38942200  1
  O  O312  1  0.73930295  0.24084667  0.87370132  1
  O  O313  1  0.74658838  0.74851460  0.36676030  1
  O  O314  1  0.74408123  0.74337335  0.88024743  1
  O  O315  1  0.00948628  0.11606867  -0.00756217  1
  O  O316  1  -0.00635537  0.11216263  0.50858641  1
  O  O317  1  0.00517982  0.61098501  -0.00532941  1
  O  O318  1  0.00221786  0.61744937  0.51077441  1
  O  O319  1  0.49270233  0.11660373  0.00816471  1
  O  O320  1  0.50929001  0.12308152  0.50744270  1
  O  O321  1  0.50598699  0.61805955  0.00559620  1
  O  O322  1  0.51099294  0.60860279  0.49880719  1
  O  O323  1  0.50760154  0.39161898  0.49692406  1
  O  O324  1  0.50044166  0.38117040  0.99370801  1
  O  O325  1  0.49329680  0.87669567  0.49165713  1
  O  O326  1  0.49243329  0.88194661  0.99199220  1
  O  O327  1  0.98512125  0.38681359  0.50574973  1
  O  O328  1  1.00731604  0.38618146  0.98700223  1
  O  O329  1  0.99292055  0.88695775  0.49368045  1
  O  O330  1  0.99582264  0.88428142  0.98472322  1
  O  O331  1  0.48434504  0.50094823  0.38296373  1
  O  O332  1  0.49712416  0.49007884  0.88053678  1
  O  O333  1  0.49368121  0.98860345  0.37241869  1
  O  O334  1  0.49275427  0.99580284  0.87951613  1
  O  O335  1  0.99465983  0.50655227  0.38973472  1
  O  O336  1  0.99277817  0.49361238  0.88070796  1
  O  O337  1  0.99631838  0.99631356  0.38620405  1
  O  O338  1  0.99122319  0.99479521  0.88126903  1
  O  O339  1  -0.00442804  -0.00557942  0.10880509  1
  O  O340  1  -0.00246065  0.00718818  0.61371171  1
  O  O341  1  0.00573136  0.49321997  0.11606169  1
  O  O342  1  0.00647088  0.50789281  0.61844183  1
  O  O343  1  0.50035690  0.00871877  0.11553499  1
  O  O344  1  0.49409392  0.01276661  0.62464081  1
  O  O345  1  0.49747721  0.50795860  0.11712956  1
  O  O346  1  0.50316412  0.49720161  0.61558216  1
  O  O347  1  0.23781808  0.36492719  0.23781441  1
  O  O348  1  0.23845180  0.38045747  0.74388465  1
  O  O349  1  0.24694368  0.88290661  0.24629120  1
  O  O350  1  0.24276663  0.87662441  0.74117092  1
  O  O351  1  0.74316529  0.38376477  0.25268267  1
  O  O352  1  0.73932037  0.38356329  0.76004782  1
  O  O353  1  0.74350835  0.88441946  0.24212186  1
  O  O354  1  0.74171089  0.88306335  0.74392042  1
  O  O355  1  0.25840596  0.12077888  0.25668139  1
  O  O356  1  0.24983732  0.13108574  0.76334413  1
  O  O357  1  0.25722958  0.61608435  0.27244649  1
  O  O358  1  0.25566528  0.61946237  0.75776651  1
  O  O359  1  0.74012339  0.11211139  0.25147088  1
  O  O360  1  0.75630045  0.11895001  0.75254393  1
  O  O361  1  0.75844022  0.61850418  0.25014275  1
  O  O362  1  0.75500398  0.61657712  0.75642496  1
  O  O363  1  0.37316009  0.11654615  0.36929970  1
  O  O364  1  0.36477069  0.11778067  0.87350423  1
  O  O365  1  0.36735569  0.61243825  0.38267076  1
  O  O366  1  0.36694119  0.62510328  0.86504258  1
  O  O367  1  0.87315720  0.11138168  0.38205451  1
  O  O368  1  0.86698302  0.12300538  0.86484141  1
  O  O369  1  0.87750455  0.61800638  0.36401809  1
  O  O370  1  0.87086574  0.61745386  0.86960684  1
  O  O371  1  0.12842008  0.38084713  0.13125424  1
  O  O372  1  0.12699720  0.38070605  0.63245829  1
  O  O373  1  0.12779698  0.87977771  0.12712217  1
  O  O374  1  0.13294034  0.87927995  0.63457737  1
  O  O375  1  0.63001782  0.37058969  0.14163428  1
  O  O376  1  0.62313939  0.37414819  0.63988872  1
  O  O377  1  0.63125121  0.87841707  0.13064219  1
  O  O378  1  0.62885170  0.87174597  0.63434853  1
  O  O379  1  0.11351896  0.25471106  0.25624797  1
  O  O380  1  0.12712549  0.26011159  0.76004918  1
  O  O381  1  0.11617836  0.74215701  0.23516866  1
  O  O382  1  0.12675788  0.76545256  0.76166187  1
  O  O383  1  0.61734420  0.25504575  0.25319803  1
  O  O384  1  0.61426918  0.25491640  0.75499863  1
  O  O385  1  0.61499653  0.76322312  0.24699814  1
  O  O386  1  0.61724691  0.75344405  0.75240693  1
  O  O387  1  0.38186156  0.24587467  0.24472632  1
  O  O388  1  0.38582425  0.24674016  0.74374518  1
  O  O389  1  0.39215075  0.75563908  0.23731928  1
  O  O390  1  0.38141300  0.74280385  0.74577982  1
  O  O391  1  0.88863094  0.24625043  0.25595802  1
  O  O392  1  0.86887799  0.24215444  0.74161608  1
  O  O393  1  0.87493254  0.74407764  0.23665910  1
  O  O394  1  0.86980066  0.73508639  0.75165791  1
  O  O395  1  0.38824797  0.50018930  0.50565409  1
  O  O396  1  0.38722902  0.49639255  0.99610381  1
  O  O397  1  0.37916805  0.99077111  0.48683062  1
  O  O398  1  0.38406750  0.99357045  0.98999851  1
  O  O399  1  0.87917031  0.49767253  0.49473915  1
  O  O400  1  0.88084590  0.50447809  0.98876064  1
  O  O401  1  0.87990176  0.99029586  0.49277963  1
  O  O402  1  0.87917575  1.00102224  0.99098125  1
  O  O403  1  0.11564794  0.00917856  0.00008874  1
  O  O404  1  0.10933857  -0.00073186  0.50509070  1
  O  O405  1  0.11816600  0.50508817  0.01320787  1
  O  O406  1  0.11747338  0.49733224  0.51126003  1
  O  O407  1  0.61028528  -0.00496546  -0.00302618  1
  O  O408  1  0.62510544  0.01263988  0.49719775  1
  O  O409  1  0.61147373  0.50952238  -0.00702757  1
  O  O410  1  0.61863659  0.50800993  0.50114836  1
  O  O411  1  0.36542529  0.36910100  0.12390457  1
  O  O412  1  0.36334851  0.36398479  0.63405153  1
  O  O413  1  0.37763380  0.86721989  0.11363008  1
  O  O414  1  0.37021603  0.86918169  0.61781823  1
  O  O415  1  0.86996892  0.35323705  0.13723741  1
  O  O416  1  0.87984513  0.36625435  0.62248649  1
  O  O417  1  0.86852049  0.86614849  0.12252302  1
  O  O418  1  0.86650411  0.87433036  0.61753876  1
  O  O419  1  0.13571030  0.13491407  0.36996996  1
  O  O420  1  0.12866448  0.13273579  0.88011127  1
  O  O421  1  0.14299433  0.62106768  0.37954628  1
  O  O422  1  0.13215135  0.63259232  0.87124804  1
  O  O423  1  0.62764135  0.13076716  0.38553635  1
  O  O424  1  0.63303802  0.13331803  0.86613971  1
  O  O425  1  0.62729865  0.62861280  0.38833911  1
  O  O426  1  0.62822682  0.63028067  0.88417059  1
