# generated using pymatgen
data_V85Zn86O256
_symmetry_space_group_name_H-M   'P 1'
_cell_length_a   16.92431609
_cell_length_b   16.91697704
_cell_length_c   16.94082019
_cell_angle_alpha   89.99331740
_cell_angle_beta   90.02134222
_cell_angle_gamma   90.02027828
_symmetry_Int_Tables_number   1
_chemical_formula_structural   V85Zn86O256
_chemical_formula_sum   'V85 Zn86 O256'
_cell_volume   4850.29619503
_cell_formula_units_Z   1
loop_
 _symmetry_equiv_pos_site_id
 _symmetry_equiv_pos_as_xyz
  1  'x, y, z'
loop_
 _atom_site_type_symbol
 _atom_site_label
 _atom_site_symmetry_multiplicity
 _atom_site_fract_x
 _atom_site_fract_y
 _atom_site_fract_z
 _atom_site_occupancy
  V  V0  1  0.24760364  0.49612475  0.24878913  1
  V  V1  1  0.24984650  0.62727240  0.87649655  1
  V  V2  1  0.50052591  -0.00134034  0.50775759  1
  V  V3  1  0.12224452  0.61575795  0.49904872  1
  V  V4  1  0.87569633  0.62839732  0.75234259  1
  V  V5  1  0.87645591  0.74949923  0.62614629  1
  V  V6  1  0.50212430  0.62296256  0.62322450  1
  V  V7  1  0.87905355  0.50301210  0.88120521  1
  V  V8  1  0.88195536  0.63113189  0.24935871  1
  V  V9  1  0.25360448  0.37012464  0.12836210  1
  V  V10  1  0.23939018  0.12261985  0.87787966  1
  V  V11  1  0.74754082  0.86716377  0.12265740  1
  V  V12  1  0.38061672  0.62810302  0.25148416  1
  V  V13  1  0.12272047  0.00057759  0.11830318  1
  V  V14  1  0.75115207  0.49954731  0.24903772  1
  V  V15  1  0.24086084  0.00058241  0.25385377  1
  V  V16  1  0.37355914  0.12597753  0.75079690  1
  V  V17  1  0.50002907  0.49449742  0.49415115  1
  V  V18  1  0.01198887  0.87417450  0.87478541  1
  V  V19  1  0.37674252  0.74979102  0.12962255  1
  V  V20  1  0.62930791  0.25117709  0.87394431  1
  V  V21  1  0.42060302  -0.02899247  0.33563009  1
  V  V22  1  0.37527905  0.37035756  0.49100928  1
  V  V23  1  0.12490719  0.24143649  0.37377453  1
  V  V24  1  0.24130502  0.24606814  0.50657554  1
  V  V25  1  0.00246125  0.37935437  0.38417438  1
  V  V26  1  0.49953210  0.25079227  0.75094663  1
  V  V27  1  0.24645190  0.24640050  0.00173606  1
  V  V28  1  0.87601134  0.87567643  0.49920458  1
  V  V29  1  -0.00176842  0.86694397  0.37281806  1
  V  V30  1  0.01084354  0.12347463  0.62108350  1
  V  V31  1  0.62645944  -0.00030213  0.13037078  1
  V  V32  1  -0.00380432  0.00359569  -0.00714818  1
  V  V33  1  0.62390553  0.50163215  0.12141158  1
  V  V34  1  0.12275937  0.74532600  0.37091538  1
  V  V35  1  0.37604238  0.62017473  0.75527275  1
  V  V36  1  0.11823893  0.86627174  0.24628415  1
  V  V37  1  0.62709478  0.12665628  -0.00011661  1
  V  V38  1  0.61684779  0.25307198  0.37704423  1
  V  V39  1  0.63134560  0.12453438  0.50443139  1
  V  V40  1  0.88477441  0.75312059  0.12467543  1
  V  V41  1  0.25092491  0.62081689  0.37468515  1
  V  V42  1  0.87599928  0.12562161  0.24941829  1
  V  V43  1  0.25025122  0.75060347  0.50301517  1
  V  V44  1  0.13159729  0.87179595  0.73118840  1
  V  V45  1  0.49546525  0.13617389  0.12637076  1
  V  V46  1  -0.00625812  0.24835988  0.75320022  1
  V  V47  1  0.01546722  0.00358431  0.50046116  1
  V  V48  1  0.49580324  0.50381425  -0.00283238  1
  V  V49  1  0.37203484  0.13093048  0.25094413  1
  V  V50  1  0.37438439  0.88085802  0.50327178  1
  V  V51  1  0.62902201  0.37660737  0.74183738  1
  V  V52  1  0.87911911  0.38140260  0.00282731  1
  V  V53  1  0.61449598  0.76487578  0.35920446  1
  V  V54  1  0.75467600  0.27012947  0.50377040  1
  V  V55  1  0.87651046  0.00020261  0.37576161  1
  V  V56  1  0.37318433  -0.00031729  0.87410816  1
  V  V57  1  0.00559365  0.74778542  0.75507185  1
  V  V58  1  0.12917999  0.37008964  0.75291540  1
  V  V59  1  0.87254313  0.25123411  0.12521199  1
  V  V60  1  0.75147649  0.49909156  0.74821088  1
  V  V61  1  0.49690121  0.00384254  -0.00087304  1
  V  V62  1  0.00459255  0.12645634  0.12078339  1
  V  V63  1  0.74796227  0.88254955  0.63299560  1
  V  V64  1  0.74768681  0.62867832  0.37299379  1
  V  V65  1  0.25424713  0.49396150  0.75263554  1
  V  V66  1  0.37334012  0.25648968  0.62470565  1
  V  V67  1  0.37406688  0.75334658  0.62516938  1
  V  V68  1  0.74389307  0.75291822  0.49993270  1
  V  V69  1  0.11997373  0.49383350  0.11763307  1
  V  V70  1  0.74670274  0.64394660  0.87815144  1
  V  V71  1  0.00136725  0.61912268  0.62308219  1
  V  V72  1  0.87136454  0.87339301  -0.00973727  1
  V  V73  1  0.37642004  0.37075852  0.00281698  1
  V  V74  1  0.11593160  0.62837371  -0.00439390  1
  V  V75  1  0.49743614  0.38052341  0.87420398  1
  V  V76  1  0.62637174  0.63897663  -0.00311810  1
  V  V77  1  0.36954179  0.87242512  -0.00189621  1
  V  V78  1  0.74936194  -0.00352549  0.25179902  1
  V  V79  1  0.00517573  0.25931593  0.24961680  1
  V  V80  1  0.50777258  0.75323698  0.75550883  1
  V  V81  1  0.12839729  0.49279375  0.62444046  1
  V  V82  1  0.61615066  0.37704687  0.25412165  1
  V  V83  1  0.75606736  0.11074506  0.86780508  1
  V  V84  1  0.24668309  -0.00408584  0.73726891  1
  Zn  Zn85  1  0.12136966  0.24654967  0.87982447  1
  Zn  Zn86  1  0.50350884  0.63320984  0.12852066  1
  Zn  Zn87  1  0.50288644  0.86786624  0.88047627  1
  Zn  Zn88  1  0.75245910  0.25094607  -0.00085688  1
  Zn  Zn89  1  0.00373898  0.37734588  0.88128008  1
  Zn  Zn90  1  0.63760786  0.87778233  0.77070410  1
  Zn  Zn91  1  0.24545899  0.87184460  0.12398379  1
  Zn  Zn92  1  0.87342154  0.25278622  0.62457096  1
  Zn  Zn93  1  0.25153225  0.11866607  0.38003726  1
  Zn  Zn94  1  0.63043781  0.49857551  0.62011121  1
  Zn  Zn95  1  0.75309192  0.12950476  0.37718830  1
  Zn  Zn96  1  0.87419050  0.10949377  0.74453098  1
  Zn  Zn97  1  0.62050799  0.62627468  0.49576339  1
  Zn  Zn98  1  0.50266199  0.12658598  0.62838941  1
  Zn  Zn99  1  -0.10392311  0.41300589  0.53151087  1
  Zn  Zn100  1  0.49196344  0.25760908  0.25306700  1
  Zn  Zn101  1  0.00066560  0.62365950  0.12558124  1
  Zn  Zn102  1  0.63085207  0.00435885  0.63585230  1
  Zn  Zn103  1  0.37819286  0.49457544  0.37149341  1
  Zn  Zn104  1  0.24782650  0.74808226  -0.00250387  1
  Zn  Zn105  1  0.87762629  0.49802046  0.37657637  1
  Zn  Zn106  1  0.74892746  0.37370921  0.12453061  1
  Zn  Zn107  1  0.18617080  0.18857134  0.18723160  1
  Zn  Zn108  1  0.18695575  0.18651276  0.68962207  1
  Zn  Zn109  1  0.19127818  0.68418369  0.18296063  1
  Zn  Zn110  1  0.18875616  0.68509275  0.68675730  1
  Zn  Zn111  1  0.68736889  0.18781840  0.19092271  1
  Zn  Zn112  1  0.69101656  0.18948433  0.68646595  1
  Zn  Zn113  1  0.68767432  0.68838298  0.18751841  1
  Zn  Zn114  1  0.68790044  0.68824146  0.68831284  1
  Zn  Zn115  1  0.30653009  0.31141138  0.31590706  1
  Zn  Zn116  1  0.31247553  0.31262161  0.81739819  1
  Zn  Zn117  1  0.30784399  0.81240468  0.31230539  1
  Zn  Zn118  1  0.31255852  0.80999542  0.81135766  1
  Zn  Zn119  1  0.81137194  0.31495851  0.31654960  1
  Zn  Zn120  1  0.81333432  0.31499186  0.81391362  1
  Zn  Zn121  1  0.80857539  0.81234829  0.30961665  1
  Zn  Zn122  1  0.81709035  0.93369673  0.81202428  1
  Zn  Zn123  1  0.18676549  0.42842347  0.43611186  1
  Zn  Zn124  1  0.19111441  0.44061828  0.93609538  1
  Zn  Zn125  1  0.18904107  0.93053775  0.43689280  1
  Zn  Zn126  1  0.18612323  0.93842830  0.93513370  1
  Zn  Zn127  1  0.68410729  0.44079854  0.43358943  1
  Zn  Zn128  1  0.69225994  0.44063437  0.93626831  1
  Zn  Zn129  1  0.68568959  0.93851045  0.43973399  1
  Zn  Zn130  1  0.68134550  0.93324195  0.94402000  1
  Zn  Zn131  1  0.30940844  0.06384624  0.06521141  1
  Zn  Zn132  1  0.31522988  0.06765055  0.56356166  1
  Zn  Zn133  1  0.31323381  0.56083515  0.06256369  1
  Zn  Zn134  1  0.31258474  0.55899569  0.56514072  1
  Zn  Zn135  1  0.81339329  0.06123856  0.05983043  1
  Zn  Zn136  1  0.82095537  0.06610199  0.56315698  1
  Zn  Zn137  1  0.81019391  0.56755915  0.06182856  1
  Zn  Zn138  1  0.80976699  0.56637734  0.56123970  1
  Zn  Zn139  1  0.43586350  0.44192547  0.18406156  1
  Zn  Zn140  1  0.43794959  0.43624433  0.68210016  1
  Zn  Zn141  1  0.43272908  0.94371853  0.17058075  1
  Zn  Zn142  1  0.43741246  0.93605471  0.68699937  1
  Zn  Zn143  1  0.93729768  0.43812536  0.19090201  1
  Zn  Zn144  1  0.94207330  0.43669453  0.69760554  1
  Zn  Zn145  1  0.93678474  0.93666500  0.18578321  1
  Zn  Zn146  1  0.94451815  0.93620944  0.68211941  1
  Zn  Zn147  1  0.06035982  0.06226216  0.31071400  1
  Zn  Zn148  1  0.05925909  0.05697899  0.80477614  1
  Zn  Zn149  1  0.06607886  0.55831927  0.30580649  1
  Zn  Zn150  1  0.06478820  0.55946055  0.81332699  1
  Zn  Zn151  1  0.56809448  0.07032134  0.31247375  1
  Zn  Zn152  1  0.56379907  0.05874319  0.81088219  1
  Zn  Zn153  1  0.56359176  0.56518055  0.31405451  1
  Zn  Zn154  1  0.56578860  0.56474709  0.81375430  1
  Zn  Zn155  1  0.43620484  0.17624746  0.43558719  1
  Zn  Zn156  1  0.43452894  0.18960863  0.93635138  1
  Zn  Zn157  1  0.43866951  0.68796650  0.43520759  1
  Zn  Zn158  1  0.43380937  0.68434765  0.93755546  1
  Zn  Zn159  1  0.93756243  0.18840109  0.43905331  1
  Zn  Zn160  1  0.93590482  0.18866332  0.93822423  1
  Zn  Zn161  1  0.93467744  0.68241790  0.43964267  1
  Zn  Zn162  1  0.93466881  0.69254471  0.93743377  1
  Zn  Zn163  1  0.06350821  0.31393791  0.06107113  1
  Zn  Zn164  1  0.06312076  0.31055949  0.56773616  1
  Zn  Zn165  1  0.06101069  0.81000089  0.05915211  1
  Zn  Zn166  1  0.06165920  0.80767824  0.55845254  1
  Zn  Zn167  1  0.56438247  0.31452833  0.06307948  1
  Zn  Zn168  1  0.56062293  0.31119949  0.56143156  1
  Zn  Zn169  1  0.55723297  0.81726854  0.06580056  1
  Zn  Zn170  1  0.56171529  0.81321037  0.56105725  1
  O  O171  1  0.11208948  0.11746148  0.12854606  1
  O  O172  1  0.11070705  0.12532584  0.62835655  1
  O  O173  1  0.12524821  0.61479750  0.11307483  1
  O  O174  1  0.12156113  0.61752315  0.61670098  1
  O  O175  1  0.62056811  0.12147397  0.11777597  1
  O  O176  1  0.62381092  0.12457858  0.61904318  1
  O  O177  1  0.62494604  0.61687056  0.11851728  1
  O  O178  1  0.61154117  0.62552408  0.62436608  1
  O  O179  1  0.37511801  0.37361868  0.38620068  1
  O  O180  1  0.39046652  0.37146857  0.88235077  1
  O  O181  1  0.36889693  0.89188980  0.38019086  1
  O  O182  1  0.37704559  0.88165618  0.88068894  1
  O  O183  1  0.89372144  0.37581183  0.36964032  1
  O  O184  1  0.87557990  0.38497215  0.88454085  1
  O  O185  1  0.88158980  0.87806629  0.37727397  1
  O  O186  1  0.88580282  0.87352184  0.88649411  1
  O  O187  1  0.23439236  0.00223588  0.35895594  1
  O  O188  1  0.25825903  0.00448929  0.86974112  1
  O  O189  1  0.24888573  0.50078334  0.36505566  1
  O  O190  1  0.24909861  0.50986139  0.86085287  1
  O  O191  1  0.75644785  0.00003439  0.36709616  1
  O  O192  1  0.74850512  0.00701324  0.87738468  1
  O  O193  1  0.74749860  0.51010278  0.36287321  1
  O  O194  1  0.75953004  0.50702722  0.86523947  1
  O  O195  1  0.24481557  0.48988288  0.12841638  1
  O  O196  1  0.23801788  0.50544845  0.63813949  1
  O  O197  1  0.23829911  0.99875123  0.13321588  1
  O  O198  1  0.25548175  1.00416884  0.63844434  1
  O  O199  1  0.74225894  0.50235639  0.13504361  1
  O  O200  1  0.74765449  0.51227838  0.64260917  1
  O  O201  1  0.74391492  0.99604870  0.13088826  1
  O  O202  1  0.75471735  0.98462356  0.61903984  1
  O  O203  1  -0.00014116  0.36260375  0.25429198  1
  O  O204  1  0.01067156  0.36487552  0.75873465  1
  O  O205  1  0.00988516  0.87858951  0.25758818  1
  O  O206  1  0.01402069  0.86753582  0.75299542  1
  O  O207  1  0.51107404  0.37585512  0.24326791  1
  O  O208  1  0.50572021  0.37214331  0.75780354  1
  O  O209  1  0.47929547  0.91994915  0.27326525  1
  O  O210  1  0.49341953  0.85786044  0.75085799  1
  O  O211  1  0.49199248  0.12463522  0.24192478  1
  O  O212  1  0.49203608  0.13464969  0.75380168  1
  O  O213  1  0.48463883  0.61782681  0.24890089  1
  O  O214  1  0.49426806  0.63107549  0.74469416  1
  O  O215  1  0.99281773  0.13229714  0.24133473  1
  O  O216  1  0.99932956  0.13081802  0.74105131  1
  O  O217  1  0.98585088  0.62058399  0.24993080  1
  O  O218  1  1.00022518  0.63174098  0.74575037  1
  O  O219  1  0.36553410  0.26230304  -0.00400925  1
  O  O220  1  0.37201344  0.25216620  0.50515712  1
  O  O221  1  0.37319893  0.75742037  0.00523684  1
  O  O222  1  0.37002574  0.75587214  0.50437798  1
  O  O223  1  0.87434633  0.25583566  0.01262820  1
  O  O224  1  0.85747015  0.24963562  0.49627304  1
  O  O225  1  0.87737542  0.76114994  0.01004561  1
  O  O226  1  0.86522268  0.75378086  0.50512969  1
  O  O227  1  0.13741467  0.25209137  0.49714480  1
  O  O228  1  0.14056549  0.25550790  0.99788145  1
  O  O229  1  0.13370217  0.74179751  0.49320385  1
  O  O230  1  0.12895070  0.73285692  1.00486696  1
  O  O231  1  0.63357534  0.24668260  0.49553182  1
  O  O232  1  0.62580238  0.24104755  0.99384632  1
  O  O233  1  0.63515186  0.74980050  0.49577394  1
  O  O234  1  0.61731651  0.73743409  1.00901805  1
  O  O235  1  0.50501951  0.23945479  0.12878398  1
  O  O236  1  0.49245823  0.24992150  0.63427948  1
  O  O237  1  0.48381582  0.75154377  0.12562875  1
  O  O238  1  0.49316501  0.74348890  0.63163530  1
  O  O239  1  0.99647978  0.24451437  0.13058728  1
  O  O240  1  1.00096376  0.23875853  0.63281333  1
  O  O241  1  0.98881002  0.74819107  0.12618091  1
  O  O242  1  0.99789493  0.74053713  0.63046929  1
  O  O243  1  0.00435115  0.25458796  0.36802907  1
  O  O244  1  0.00376980  0.24859004  0.86869293  1
  O  O245  1  0.00275719  0.76068660  0.38119182  1
  O  O246  1  -0.00227278  0.75620878  0.86200217  1
  O  O247  1  0.51277097  0.24297892  0.37473262  1
  O  O248  1  0.51066509  0.25591718  0.87101075  1
  O  O249  1  0.51615426  0.74802302  0.37789105  1
  O  O250  1  0.49161522  0.74586114  0.85786204  1
  O  O251  1  0.25854737  0.14035285  0.49553760  1
  O  O252  1  0.25613428  0.13438126  0.99242873  1
  O  O253  1  0.24245735  0.62802376  0.49454577  1
  O  O254  1  0.24374536  0.62144882  0.99137422  1
  O  O255  1  0.73939589  0.12363851  0.49927406  1
  O  O256  1  0.74231914  0.12588579  0.99022953  1
  O  O257  1  0.74583482  0.63576922  0.49046242  1
  O  O258  1  0.74119247  0.62363244  0.98713212  1
  O  O259  1  0.25985027  0.37156811  0.00353456  1
  O  O260  1  0.25944274  0.35705991  0.49716699  1
  O  O261  1  0.25863418  0.87330985  -0.00155518  1
  O  O262  1  0.26231324  0.86466587  0.49571954  1
  O  O263  1  0.76136645  0.37258151  0.00284429  1
  O  O264  1  0.75120370  0.37084162  0.49836042  1
  O  O265  1  0.76228001  0.88528924  0.01066664  1
  O  O266  1  0.75735244  0.86876764  0.50595672  1
  O  O267  1  0.13975965  0.50652095  0.23292341  1
  O  O268  1  0.13318017  0.49193393  0.74534572  1
  O  O269  1  0.12385775  0.99317486  0.23776247  1
  O  O270  1  0.13261990  0.98200132  0.75218437  1
  O  O271  1  0.62906690  0.49650288  0.24312801  1
  O  O272  1  0.63224683  0.49261484  0.75051298  1
  O  O273  1  0.63384256  1.00858430  0.23849229  1
  O  O274  1  0.61894185  0.98858744  0.74663522  1
  O  O275  1  0.35945048  0.00495443  0.24772834  1
  O  O276  1  0.36906183  0.00225054  0.75742355  1
  O  O277  1  0.36458504  0.50670921  0.24981385  1
  O  O278  1  0.36753088  0.50824031  0.73964971  1
  O  O279  1  0.87055079  0.00515404  0.25505055  1
  O  O280  1  0.88747476  -0.00264604  0.75493221  1
  O  O281  1  0.86604410  0.50771306  0.25218440  1
  O  O282  1  0.86949017  0.50920841  0.75788605  1
  O  O283  1  0.11252328  0.35994850  0.37703450  1
  O  O284  1  0.12477455  0.37561411  0.86620472  1
  O  O285  1  0.11701528  0.86571359  0.36725482  1
  O  O286  1  0.11495353  0.87176342  0.87214710  1
  O  O287  1  0.62549252  0.36826389  0.36528682  1
  O  O288  1  0.61755536  0.36773280  0.87165389  1
  O  O289  1  0.62892269  0.86377879  0.37510553  1
  O  O290  1  0.61554927  0.87175447  0.88187567  1
  O  O291  1  0.38428049  0.11854705  0.13573145  1
  O  O292  1  0.37829392  0.13761998  0.63383764  1
  O  O293  1  0.37529927  0.63208313  0.13259558  1
  O  O294  1  0.38423655  0.63249670  0.63083751  1
  O  O295  1  0.88338023  0.13199019  0.12808642  1
  O  O296  1  0.88586316  0.13265484  0.62823216  1
  O  O297  1  0.87580871  0.63414786  0.13015914  1
  O  O298  1  0.88281360  0.62989335  0.63122435  1
  O  O299  1  0.24550433  0.26168805  0.11915372  1
  O  O300  1  0.25543729  0.24501724  0.61431434  1
  O  O301  1  0.26104718  0.75191760  0.11979281  1
  O  O302  1  0.25883371  0.74003675  0.61091301  1
  O  O303  1  0.75981293  0.25009481  0.12433592  1
  O  O304  1  0.74909850  0.25065377  0.60722660  1
  O  O305  1  0.75522908  0.76402237  0.12869044  1
  O  O306  1  0.75558543  0.75517300  0.61750181  1
  O  O307  1  0.24107176  0.24469569  0.38399761  1
  O  O308  1  0.24812123  0.23949247  0.88255546  1
  O  O309  1  0.24519610  0.74237738  0.38488490  1
  O  O310  1  0.25481667  0.73283514  0.87494513  1
  O  O311  1  0.74071691  0.25138670  0.38674282  1
  O  O312  1  0.73827427  0.24534850  0.87618640  1
  O  O313  1  0.74318345  0.74652045  0.38116060  1
  O  O314  1  0.75434637  0.73854263  0.87289483  1
  O  O315  1  -0.00556615  0.11646389  0.00814231  1
  O  O316  1  -0.00138634  0.11890695  0.51049112  1
  O  O317  1  0.01255852  0.62701052  -0.00001169  1
  O  O318  1  0.01523331  0.62896701  0.50484030  1
  O  O319  1  0.50487211  0.12375805  0.00545913  1
  O  O320  1  0.51203016  0.11920994  0.50475014  1
  O  O321  1  0.50616210  0.61774113  -0.00044865  1
  O  O322  1  0.49842146  0.61880413  0.50866340  1
  O  O323  1  0.49054155  0.38271737  0.50501113  1
  O  O324  1  0.49563050  0.37992240  0.99475166  1
  O  O325  1  0.48719167  0.88271922  0.50407320  1
  O  O326  1  0.48485116  0.88523120  1.00239467  1
  O  O327  1  1.00039967  0.36885288  0.48826366  1
  O  O328  1  0.98556324  0.37171003  0.99955400  1
  O  O329  1  0.99538000  0.88033716  0.49309840  1
  O  O330  1  0.99591361  0.87959595  0.99135292  1
  O  O331  1  0.49751152  0.50665398  0.38961713  1
  O  O332  1  0.50744472  0.49148913  0.88358094  1
  O  O333  1  0.50276789  1.00897924  0.39189829  1
  O  O334  1  0.48476580  1.00417722  0.88192319  1
  O  O335  1  1.00671202  0.48182738  0.36777214  1
  O  O336  1  0.98351861  0.50104010  0.87006953  1
  O  O337  1  0.99593148  0.99001820  0.37940873  1
  O  O338  1  1.00743949  0.99285137  0.88624484  1
  O  O339  1  0.00426205  0.00714773  0.11796200  1
  O  O340  1  -0.00103411  0.01196949  0.61311071  1
  O  O341  1  0.01700438  0.49978261  0.13143464  1
  O  O342  1  0.01452228  0.50907286  0.63414162  1
  O  O343  1  0.50908832  0.01166886  0.11773520  1
  O  O344  1  0.50048683  0.00302405  0.61727089  1
  O  O345  1  0.50916052  0.50461397  0.11619385  1
  O  O346  1  0.50127731  0.50777731  0.61537157  1
  O  O347  1  0.25601199  0.38152596  0.23986559  1
  O  O348  1  0.24454397  0.38191599  0.75556416  1
  O  O349  1  0.23513435  0.88201208  0.24885743  1
  O  O350  1  0.23866152  0.87828622  0.75256486  1
  O  O351  1  0.74091594  0.38462128  0.24906675  1
  O  O352  1  0.74035745  0.38512426  0.75734013  1
  O  O353  1  0.75614697  0.88985925  0.23946493  1
  O  O354  1  0.75308017  0.86894588  0.73663344  1
  O  O355  1  0.25501870  0.11838688  0.25036900  1
  O  O356  1  0.25448158  0.11684964  0.75760477  1
  O  O357  1  0.25813071  0.61686820  0.25496506  1
  O  O358  1  0.25720428  0.61867789  0.75474076  1
  O  O359  1  0.75806312  0.11474850  0.25056934  1
  O  O360  1  0.75123914  0.12713253  0.76424938  1
  O  O361  1  0.75721057  0.61969504  0.25447199  1
  O  O362  1  0.75392998  0.62339242  0.76107168  1
  O  O363  1  0.37814165  0.10165493  0.36158717  1
  O  O364  1  0.36630078  0.11842438  0.86971064  1
  O  O365  1  0.36695368  0.62234315  0.36906534  1
  O  O366  1  0.36951788  0.62206747  0.86216461  1
  O  O367  1  0.87499965  0.11894076  0.36770788  1
  O  O368  1  0.85668026  0.12826713  0.87727236  1
  O  O369  1  0.86301634  0.62905280  0.36584108  1
  O  O370  1  0.86582683  0.62236555  0.87314199  1
  O  O371  1  0.13427851  0.38759924  0.11774779  1
  O  O372  1  0.12144744  0.38175611  0.63891007  1
  O  O373  1  0.12242692  0.87946447  0.13096330  1
  O  O374  1  0.12502267  0.87183555  0.63268388  1
  O  O375  1  0.62790210  0.38651526  0.12950674  1
  O  O376  1  0.62024727  0.37648797  0.63910019  1
  O  O377  1  0.63307986  0.88835078  0.11726875  1
  O  O378  1  0.64354283  0.87322045  0.62157386  1
  O  O379  1  0.11573955  0.24644798  0.25788148  1
  O  O380  1  0.11855283  0.25592432  0.75363017  1
  O  O381  1  0.13032405  0.75546556  0.25512822  1
  O  O382  1  0.12083404  0.76013356  0.74429662  1
  O  O383  1  0.62447090  0.25925813  0.25866734  1
  O  O384  1  0.62210776  0.25730318  0.75676265  1
  O  O385  1  0.62653329  0.75235036  0.25927137  1
  O  O386  1  0.60997723  0.75369895  0.74524144  1
  O  O387  1  0.37450909  0.23572051  0.25945971  1
  O  O388  1  0.37753806  0.24835250  0.74388278  1
  O  O389  1  0.36749297  0.74188842  0.24412772  1
  O  O390  1  0.37908169  0.74086392  0.74060551  1
  O  O391  1  0.88014392  0.24678471  0.24111926  1
  O  O392  1  0.88682751  0.24856480  0.75374721  1
  O  O393  1  0.86827970  0.74231887  0.23940215  1
  O  O394  1  0.89011396  0.74236465  0.74016019  1
  O  O395  1  0.37880554  0.48824787  0.50049012  1
  O  O396  1  0.38883169  0.49142576  1.00371876  1
  O  O397  1  0.38274020  0.99302809  0.50529547  1
  O  O398  1  0.37418654  0.99415751  0.99377794  1
  O  O399  1  0.87548573  0.51187359  0.48949400  1
  O  O400  1  0.86969192  0.49497412  0.99423592  1
  O  O401  1  0.88266171  0.99414900  0.49085731  1
  O  O402  1  0.88787865  0.98913816  1.00737628  1
  O  O403  1  0.11674523  -0.00633057  0.01222271  1
  O  O404  1  0.11448998  -0.00539500  0.49454656  1
  O  O405  1  0.12992339  0.50852245  0.01123119  1
  O  O406  1  0.13419164  0.50447931  0.50979507  1
  O  O407  1  0.62021858  0.01343370  0.00871603  1
  O  O408  1  0.61933265  0.00709409  0.50678959  1
  O  O409  1  0.61857445  0.50504186  0.00635497  1
  O  O410  1  0.61688453  0.50351411  0.50227887  1
  O  O411  1  0.36754581  0.37728398  0.11485909  1
  O  O412  1  0.37624580  0.36182709  0.61613213  1
  O  O413  1  0.36822220  0.86968875  0.11631274  1
  O  O414  1  0.37545197  0.86129945  0.61876286  1
  O  O415  1  0.87335729  0.36901538  0.12189822  1
  O  O416  1  0.88561117  0.36753329  0.62981448  1
  O  O417  1  0.86998734  0.86886040  0.11890682  1
  O  O418  1  0.86898775  0.86747776  0.61865627  1
  O  O419  1  0.12223045  0.13656410  0.37340684  1
  O  O420  1  0.13698733  0.12043466  0.87046890  1
  O  O421  1  0.12908029  0.62548096  0.37989676  1
  O  O422  1  0.13157591  0.61721600  0.88878297  1
  O  O423  1  0.63135889  0.13484405  0.38393000  1
  O  O424  1  0.63253450  0.13052819  0.88144572  1
  O  O425  1  0.63659025  0.63443241  0.37282382  1
  O  O426  1  0.63744985  0.62568354  0.88154786  1
