# generated using pymatgen
data_V85Zn86O256
_symmetry_space_group_name_H-M   'P 1'
_cell_length_a   16.94736069
_cell_length_b   16.97241976
_cell_length_c   16.96734171
_cell_angle_alpha   89.96969239
_cell_angle_beta   90.06069444
_cell_angle_gamma   90.04799544
_symmetry_Int_Tables_number   1
_chemical_formula_structural   V85Zn86O256
_chemical_formula_sum   'V85 Zn86 O256'
_cell_volume   4880.44234312
_cell_formula_units_Z   1
loop_
 _symmetry_equiv_pos_site_id
 _symmetry_equiv_pos_as_xyz
  1  'x, y, z'
loop_
 _atom_site_type_symbol
 _atom_site_label
 _atom_site_symmetry_multiplicity
 _atom_site_fract_x
 _atom_site_fract_y
 _atom_site_fract_z
 _atom_site_occupancy
  V  V0  1  0.87796156  0.12840679  0.25089227  1
  V  V1  1  0.00163970  0.12438508  0.12993848  1
  V  V2  1  0.09635022  0.15107538  0.52057053  1
  V  V3  1  0.87524560  0.62696198  0.24839036  1
  V  V4  1  0.12444134  0.49704073  0.12640143  1
  V  V5  1  0.74864914  0.63052779  0.37602868  1
  V  V6  1  0.12773706  0.75032677  0.37433663  1
  V  V7  1  0.37629166  0.62706362  0.24622430  1
  V  V8  1  0.24948971  0.62386091  0.88060819  1
  V  V9  1  0.37206113  0.23983686  0.13026116  1
  V  V10  1  0.38118996  0.50241982  0.87968316  1
  V  V11  1  0.88661004  0.38027055  0.50112649  1
  V  V12  1  0.12260567  0.12710642  0.00111512  1
  V  V13  1  0.50216453  -0.00953912  0.49879106  1
  V  V14  1  0.62455531  0.12171908  0.49955096  1
  V  V15  1  0.38208787  0.87115839  -0.00215911  1
  V  V16  1  0.24407936  0.00395950  0.74680737  1
  V  V17  1  0.24310886  0.49493216  0.75588725  1
  V  V18  1  0.62791330  0.25172511  0.37680343  1
  V  V19  1  -0.00027577  0.62599114  0.12248099  1
  V  V20  1  0.12392328  0.62365650  -0.00609500  1
  V  V21  1  0.38088993  0.75073683  0.12140394  1
  V  V22  1  0.19885510  0.80158324  -0.05648266  1
  V  V23  1  0.50754777  0.12616462  0.11745700  1
  V  V24  1  0.75475245  0.38331045  0.62068004  1
  V  V25  1  0.50304853  0.37731448  0.37596110  1
  V  V26  1  0.87768319  0.00127686  0.37344207  1
  V  V27  1  0.74793113  0.87041205  0.62697705  1
  V  V28  1  0.37487206  0.49888303  0.37500040  1
  V  V29  1  0.25711102  0.87494121  0.62447933  1
  V  V30  1  0.62001996  0.86823150  0.25959817  1
  V  V31  1  0.25203523  0.12494259  0.37218676  1
  V  V32  1  0.75050874  0.61534521  0.86684938  1
  V  V33  1  0.50984122  0.24923314  0.75233078  1
  V  V34  1  0.38096958  0.37388892  0.50342347  1
  V  V35  1  0.74818374  0.23976246  0.01036566  1
  V  V36  1  0.00363938  -0.00333303  0.50792058  1
  V  V37  1  0.62648205  0.24895812  0.88722449  1
  V  V38  1  0.37045403  0.62573223  0.73888930  1
  V  V39  1  0.88758959  0.49820810  0.37851320  1
  V  V40  1  0.76689804  0.23794914  0.51682888  1
  V  V41  1  0.24794265  0.49469868  0.24896163  1
  V  V42  1  0.62935996  -0.00323464  0.63629747  1
  V  V43  1  0.87695854  0.87534082  -0.01520816  1
  V  V44  1  0.74546455  0.50175442  0.24986651  1
  V  V45  1  0.49699851  0.75215384  0.74334839  1
  V  V46  1  0.24979860  0.87316316  0.12885297  1
  V  V47  1  0.50151413  0.37829499  0.87925049  1
  V  V48  1  0.62427550  0.63102153  0.49901589  1
  V  V49  1  0.62290650  0.38677494  0.24863303  1
  V  V50  1  0.00314401  0.26629756  0.25483027  1
  V  V51  1  0.49921758  0.50034591  0.50333147  1
  V  V52  1  0.11768087  0.35188491  0.75600369  1
  V  V53  1  0.74803653  0.12756606  0.36831677  1
  V  V54  1  0.50799584  0.87856914  0.86810517  1
  V  V55  1  0.24256916  0.12978865  0.87025280  1
  V  V56  1  0.75134695  0.87030040  0.12467860  1
  V  V57  1  0.37890704  0.37900449  0.00339229  1
  V  V58  1  0.62153418  0.61184571  0.00199601  1
  V  V59  1  0.38068484  -0.00105356  0.36809114  1
  V  V60  1  0.62454306  0.50525945  0.62925423  1
  V  V61  1  0.88586294  0.74631664  0.62653415  1
  V  V62  1  0.87723628  0.25969810  0.12427251  1
  V  V63  1  0.37544234  0.00087180  0.87424594  1
  V  V64  1  0.49870728  0.60510805  0.11645993  1
  V  V65  1  0.62441004  0.74997796  0.87377462  1
  V  V66  1  0.24961917  0.62694680  0.37147263  1
  V  V67  1  0.77060443  -0.01612875  0.76303541  1
  V  V68  1  0.62971699  0.38350717  0.75238336  1
  V  V69  1  0.87374991  0.87058186  0.49792508  1
  V  V70  1  0.25222527  0.36827313  0.63138068  1
  V  V71  1  0.25766948  0.74856370  0.50741794  1
  V  V72  1  0.24772114  0.37377698  0.12638877  1
  V  V73  1  0.24847521  0.25043737  -0.00384662  1
  V  V74  1  0.25744751  0.24529589  0.50172867  1
  V  V75  1  0.37857864  0.12488897  0.75290147  1
  V  V76  1  0.74865574  0.38207223  0.12072356  1
  V  V77  1  0.12460271  0.26161252  0.37179077  1
  V  V78  1  0.77123842  0.15993280  0.83516754  1
  V  V79  1  0.38412191  0.24878480  0.62780102  1
  V  V80  1  0.00237391  0.87551837  0.37103430  1
  V  V81  1  0.00795169  0.74640494  0.77014712  1
  V  V82  1  0.74697576  -0.00110207  0.24767378  1
  V  V83  1  0.49791960  0.24356965  0.25343453  1
  V  V84  1  -0.00188315  0.35917923  0.88156806  1
  Zn  Zn85  1  0.49984551  0.75681208  0.25812469  1
  Zn  Zn86  1  0.87403910  0.75051855  0.12384503  1
  Zn  Zn87  1  0.25133867  0.00440111  0.24871539  1
  Zn  Zn88  1  0.87568559  0.61303037  0.74603923  1
  Zn  Zn89  1  0.62656508  0.00095667  0.11893077  1
  Zn  Zn90  1  -0.00006627  0.61031581  0.61806084  1
  Zn  Zn91  1  0.50888917  0.12311274  0.62926111  1
  Zn  Zn92  1  0.87773579  0.49134637  0.87733253  1
  Zn  Zn93  1  0.50734662  0.00535924  -0.00633871  1
  Zn  Zn94  1  0.12774151  0.88049233  0.25156361  1
  Zn  Zn95  1  0.12586931  -0.00121491  0.62228434  1
  Zn  Zn96  1  0.12546496  0.86720448  0.74932187  1
  Zn  Zn97  1  -0.01295500  0.00144238  -0.00543992  1
  Zn  Zn98  1  0.00263847  0.75022560  0.24969375  1
  Zn  Zn99  1  0.74636460  0.75076377  0.49788622  1
  Zn  Zn100  1  0.49057321  0.62939519  0.62267142  1
  Zn  Zn101  1  0.12309128  -0.00250580  0.12914041  1
  Zn  Zn102  1  0.74821754  0.74717943  -0.00040851  1
  Zn  Zn103  1  0.37991849  0.87369047  0.49772666  1
  Zn  Zn104  1  0.11794922  0.49672473  0.62115424  1
  Zn  Zn105  1  0.11716750  0.61436355  0.49912197  1
  Zn  Zn106  1  -0.00820979  0.49244632  -0.00208234  1
  Zn  Zn107  1  0.18611335  0.18876207  0.19124519  1
  Zn  Zn108  1  0.04897979  0.18399316  0.68443438  1
  Zn  Zn109  1  0.18956404  0.69071710  0.18431764  1
  Zn  Zn110  1  0.18109740  0.68319360  0.68818503  1
  Zn  Zn111  1  0.68518040  0.19363781  0.18953599  1
  Zn  Zn112  1  0.73107072  0.17594993  0.67129176  1
  Zn  Zn113  1  0.68269000  0.68681854  0.18420127  1
  Zn  Zn114  1  0.68585186  0.69112185  0.68872018  1
  Zn  Zn115  1  0.31364937  0.31305539  0.31285312  1
  Zn  Zn116  1  0.31651642  0.31126762  0.81396462  1
  Zn  Zn117  1  0.31576520  0.81566785  0.31207287  1
  Zn  Zn118  1  0.32025925  0.81638599  0.80453576  1
  Zn  Zn119  1  0.81327206  0.31598634  0.31534286  1
  Zn  Zn120  1  0.81000189  0.32920107  0.81048160  1
  Zn  Zn121  1  0.81075011  0.81145574  0.31057870  1
  Zn  Zn122  1  0.81285759  0.80208216  0.80985542  1
  Zn  Zn123  1  0.19155780  0.43413625  0.43874673  1
  Zn  Zn124  1  0.18129190  0.43506888  0.93666859  1
  Zn  Zn125  1  0.18882137  0.93897258  0.43954977  1
  Zn  Zn126  1  0.14348027  0.97736684  0.90482234  1
  Zn  Zn127  1  0.69179897  0.44207446  0.43917225  1
  Zn  Zn128  1  0.68856966  0.43754905  0.94222193  1
  Zn  Zn129  1  0.68839430  0.93806982  0.43643215  1
  Zn  Zn130  1  0.68536365  0.93673788  0.94427311  1
  Zn  Zn131  1  0.31333295  0.05862709  0.05886915  1
  Zn  Zn132  1  0.31746460  0.06396833  0.56397701  1
  Zn  Zn133  1  0.31080851  0.56331723  0.06097091  1
  Zn  Zn134  1  0.28563181  0.55015638  0.55534418  1
  Zn  Zn135  1  0.81562471  0.05987541  0.06364065  1
  Zn  Zn136  1  0.81251946  0.05740457  0.56060600  1
  Zn  Zn137  1  0.81178433  0.56005489  0.05726786  1
  Zn  Zn138  1  0.81432730  0.56296746  0.56179236  1
  Zn  Zn139  1  0.43517908  0.43451419  0.18878240  1
  Zn  Zn140  1  0.43869484  0.44060944  0.69242085  1
  Zn  Zn141  1  0.43808210  0.93985722  0.18809469  1
  Zn  Zn142  1  0.43703382  0.93905595  0.68531009  1
  Zn  Zn143  1  0.93500705  0.44308273  0.18705441  1
  Zn  Zn144  1  0.93689428  0.43941006  0.69566538  1
  Zn  Zn145  1  0.93706276  0.93948190  0.18579536  1
  Zn  Zn146  1  0.94198731  0.92532034  0.69004816  1
  Zn  Zn147  1  0.07016877  0.06772730  0.31844597  1
  Zn  Zn148  1  0.01690609  0.06299111  0.81191123  1
  Zn  Zn149  1  0.06413530  0.56435104  0.31055513  1
  Zn  Zn150  1  0.05460872  0.55755832  0.81015551  1
  Zn  Zn151  1  0.56123703  0.06083554  0.30804329  1
  Zn  Zn152  1  0.57630144  0.06703682  0.81785797  1
  Zn  Zn153  1  0.54486498  0.59687012  0.32818000  1
  Zn  Zn154  1  0.55929138  0.56754857  0.81261969  1
  Zn  Zn155  1  0.43982497  0.18124168  0.43645518  1
  Zn  Zn156  1  0.43346950  0.19099772  0.93898090  1
  Zn  Zn157  1  0.43535369  0.68862037  0.43772900  1
  Zn  Zn158  1  0.43918741  0.68967756  0.93485785  1
  Zn  Zn159  1  0.93871187  0.19169861  0.43881082  1
  Zn  Zn160  1  0.93453603  0.19175819  0.94063816  1
  Zn  Zn161  1  0.94057553  0.68654037  0.43900578  1
  Zn  Zn162  1  0.93127976  0.68652220  0.94289752  1
  Zn  Zn163  1  0.06512696  0.31106124  0.06459183  1
  Zn  Zn164  1  0.06740840  0.32614848  0.56072086  1
  Zn  Zn165  1  0.05739004  0.81443770  0.06520575  1
  Zn  Zn166  1  0.07045002  0.81114953  0.56049940  1
  Zn  Zn167  1  0.56157007  0.31690568  0.06731726  1
  Zn  Zn168  1  0.57406044  0.31053883  0.56545662  1
  Zn  Zn169  1  0.56518188  0.81200712  0.06232805  1
  Zn  Zn170  1  0.56382657  0.81283576  0.56419841  1
  O  O171  1  0.11275002  0.13124108  0.12260969  1
  O  O172  1  0.13250762  0.11777474  0.60992787  1
  O  O173  1  0.12108315  0.62185622  0.11455042  1
  O  O174  1  0.12524897  0.61703927  0.61929455  1
  O  O175  1  0.60956052  0.12881296  0.13055969  1
  O  O176  1  0.63528124  0.11448416  0.61440827  1
  O  O177  1  0.61369704  0.62756862  0.11067195  1
  O  O178  1  0.62587669  0.61596598  0.61998238  1
  O  O179  1  0.38347503  0.37983071  0.38119065  1
  O  O180  1  0.38055751  0.38201365  0.88337422  1
  O  O181  1  0.37179059  0.89388647  0.37899103  1
  O  O182  1  0.38392523  0.88080998  0.88075752  1
  O  O183  1  0.87079082  0.39192559  0.38017989  1
  O  O184  1  0.89317092  0.36827088  0.87220547  1
  O  O185  1  0.88069795  0.87822883  0.37986929  1
  O  O186  1  0.87224074  0.86685144  0.88684863  1
  O  O187  1  0.26039724  0.00950618  0.37878234  1
  O  O188  1  0.25283059  0.01019369  0.86667947  1
  O  O189  1  0.25459515  0.50407852  0.36418901  1
  O  O190  1  0.25715553  0.50482599  0.87232516  1
  O  O191  1  0.75593820  0.00508511  0.36299137  1
  O  O192  1  0.74772417  -0.01698314  0.85970449  1
  O  O193  1  0.75842082  0.50669680  0.36355922  1
  O  O194  1  0.74458070  0.51327705  0.87751577  1
  O  O195  1  0.24473833  0.49582484  0.13065473  1
  O  O196  1  0.26260193  0.47891100  0.64376720  1
  O  O197  1  0.25686773  0.98486141  0.12641159  1
  O  O198  1  0.25251624  0.99452683  0.63103518  1
  O  O199  1  0.75390672  0.49601935  0.14046701  1
  O  O200  1  0.73873490  0.49199057  0.61775385  1
  O  O201  1  0.75134493  0.99476292  0.13779304  1
  O  O202  1  0.74886205  0.98807553  0.63259049  1
  O  O203  1  -0.00308618  0.36507301  0.24661375  1
  O  O204  1  0.01355706  0.36674625  0.75787959  1
  O  O205  1  0.00022528  0.87334229  0.26053753  1
  O  O206  1  0.00705866  0.85317097  0.74857463  1
  O  O207  1  0.50622752  0.36894720  0.25524717  1
  O  O208  1  0.50726747  0.37004830  0.75963689  1
  O  O209  1  0.51508651  0.87594825  0.24549148  1
  O  O210  1  0.49091525  0.86631453  0.75774812  1
  O  O211  1  0.50186013  0.13938282  0.24277374  1
  O  O212  1  0.50149849  0.13427881  0.75296401  1
  O  O213  1  0.48814274  0.61604081  0.22966772  1
  O  O214  1  0.48712254  0.63145654  0.74691665  1
  O  O215  1  0.99752691  0.13443165  0.24605932  1
  O  O216  1  0.97784413  0.12774393  0.74166215  1
  O  O217  1  0.99175102  0.62519382  0.24160284  1
  O  O218  1  0.99868983  0.63574838  0.74569227  1
  O  O219  1  0.36587213  0.25773620  0.00949895  1
  O  O220  1  0.37730159  0.25412791  0.50615708  1
  O  O221  1  0.38042667  0.76259357  0.00455665  1
  O  O222  1  0.36316728  0.75519534  0.49454921  1
  O  O223  1  0.86691585  0.24954038  0.01837600  1
  O  O224  1  0.86611433  0.26691821  0.48356465  1
  O  O225  1  0.86940998  0.76048796  0.00533334  1
  O  O226  1  0.87264777  0.76092453  0.50248095  1
  O  O227  1  0.14212764  0.25518711  0.49059942  1
  O  O228  1  0.14070796  0.24128474  1.00850263  1
  O  O229  1  0.13937716  0.75006103  0.48689768  1
  O  O230  1  0.13023090  0.74611251  0.99907303  1
  O  O231  1  0.63453007  0.23888993  0.49428827  1
  O  O232  1  0.62894170  0.25577629  0.99357016  1
  O  O233  1  0.62556834  0.73502141  0.50554684  1
  O  O234  1  0.62286045  0.74284649  0.98691459  1
  O  O235  1  0.49329021  0.24280227  0.13181063  1
  O  O236  1  0.50368333  0.24788339  0.63579201  1
  O  O237  1  0.48906423  0.74641510  0.12681999  1
  O  O238  1  0.50361089  0.74905621  0.63833346  1
  O  O239  1  0.99383683  0.24790494  0.13348761  1
  O  O240  1  1.02693450  0.22164856  0.57735175  1
  O  O241  1  0.99932258  0.73696020  0.12962614  1
  O  O242  1  0.98923823  0.75248717  0.61854684  1
  O  O243  1  0.01616702  0.24919490  0.37041582  1
  O  O244  1  0.00380853  0.25842564  0.87986295  1
  O  O245  1  0.00927740  0.75851501  0.37341245  1
  O  O246  1  -0.00059684  0.74287846  0.86814543  1
  O  O247  1  0.50486076  0.25501797  0.36924788  1
  O  O248  1  0.50868899  0.25432992  0.87308465  1
  O  O249  1  0.50861874  0.70554752  0.35826157  1
  O  O250  1  0.50363594  0.75795992  0.86533285  1
  O  O251  1  0.25585935  0.13909047  0.49643226  1
  O  O252  1  0.24951974  0.13391837  0.99438340  1
  O  O253  1  0.25666175  0.64079500  0.48889299  1
  O  O254  1  0.24392765  0.62428115  0.98845516  1
  O  O255  1  0.73672594  0.11863124  0.48102616  1
  O  O256  1  0.74590214  0.14069502  1.02103713  1
  O  O257  1  0.74314210  0.62535310  0.49228836  1
  O  O258  1  0.73450856  0.62677501  0.99473130  1
  O  O259  1  0.25650709  0.36786460  0.00372547  1
  O  O260  1  0.26222728  0.36348360  0.50942513  1
  O  O261  1  0.25756529  0.86413431  0.00285060  1
  O  O262  1  0.25283219  0.86485441  0.50471319  1
  O  O263  1  0.74196894  0.36925522  0.01778095  1
  O  O264  1  0.75771882  0.36985663  0.50596603  1
  O  O265  1  0.75836945  0.87083399  0.00912021  1
  O  O266  1  0.75833196  0.87331921  0.50368828  1
  O  O267  1  0.13409223  0.50796172  0.23618979  1
  O  O268  1  0.13862267  0.49359550  0.75249092  1
  O  O269  1  0.13077816  1.00069148  0.24770149  1
  O  O270  1  0.13950485  0.99472501  0.74822693  1
  O  O271  1  0.63003066  0.49015806  0.25761931  1
  O  O272  1  0.61521191  0.49530312  0.74245896  1
  O  O273  1  0.63231949  0.99300375  0.24453683  1
  O  O274  1  0.62555679  0.99808476  0.73718013  1
  O  O275  1  0.37507570  0.00129449  0.26456268  1
  O  O276  1  0.36793981  0.00509645  0.75554043  1
  O  O277  1  0.36683448  0.50516185  0.25294303  1
  O  O278  1  0.36638816  0.50444609  0.76256081  1
  O  O279  1  0.86849509  0.00782738  0.25553785  1
  O  O280  1  0.87034706  -0.01470277  0.75633411  1
  O  O281  1  0.86808100  0.51028123  0.25797261  1
  O  O282  1  0.87272176  0.50046713  0.76355958  1
  O  O283  1  0.13415689  0.36099404  0.37551224  1
  O  O284  1  0.12335938  0.36875483  0.86162941  1
  O  O285  1  0.11811151  0.86910653  0.37460479  1
  O  O286  1  0.14822503  0.86256898  0.88174044  1
  O  O287  1  0.62074273  0.37210769  0.37181885  1
  O  O288  1  0.62175787  0.37138013  0.87101377  1
  O  O289  1  0.62980280  0.87820078  0.35850162  1
  O  O290  1  0.61345373  0.86632855  0.87774542  1
  O  O291  1  0.38060110  0.13653777  0.12205109  1
  O  O292  1  0.38311586  0.13281410  0.63421411  1
  O  O293  1  0.37987156  0.63266345  0.12343040  1
  O  O294  1  0.36605641  0.61418757  0.63783503  1
  O  O295  1  0.88571230  0.13386246  0.13170025  1
  O  O296  1  0.81694510  0.16709133  0.58906890  1
  O  O297  1  0.88254421  0.62417357  0.13186299  1
  O  O298  1  0.87431885  0.63382264  0.62663302  1
  O  O299  1  0.25672814  0.25346672  0.12283226  1
  O  O300  1  0.26417835  0.25947088  0.61831379  1
  O  O301  1  0.26512736  0.76187130  0.12869246  1
  O  O302  1  0.24668466  0.75433381  0.61172375  1
  O  O303  1  0.75683013  0.26130976  0.12770589  1
  O  O304  1  0.72236713  0.27599846  0.61366459  1
  O  O305  1  0.75069573  0.75658074  0.12288410  1
  O  O306  1  0.75853187  0.75609309  0.62364401  1
  O  O307  1  0.24795102  0.24580395  0.38140601  1
  O  O308  1  0.26008777  0.24223555  0.88591586  1
  O  O309  1  0.24652826  0.74742869  0.37976523  1
  O  O310  1  0.25592347  0.74386394  0.87857110  1
  O  O311  1  0.74609580  0.24335213  0.38131924  1
  O  O312  1  0.74512787  0.25791752  0.89400909  1
  O  O313  1  0.75397693  0.73458408  0.37602089  1
  O  O314  1  0.73837533  0.74057205  0.87584060  1
  O  O315  1  0.00715421  0.12749974  0.00902342  1
  O  O316  1  -0.00169113  0.10699452  0.48708022  1
  O  O317  1  0.00796558  0.62447540  0.00673219  1
  O  O318  1  0.00404762  0.62344326  0.50173765  1
  O  O319  1  0.49643131  0.12951157  0.01441975  1
  O  O320  1  0.51395505  0.11822066  0.50262936  1
  O  O321  1  0.51083178  0.62851981  0.00303506  1
  O  O322  1  0.50562794  0.61755174  0.50559499  1
  O  O323  1  0.49992661  0.37907104  0.49635761  1
  O  O324  1  0.48681839  0.36899708  0.99598196  1
  O  O325  1  0.50238648  0.88627811  0.50031041  1
  O  O326  1  0.49477196  0.87653656  0.99044520  1
  O  O327  1  0.98626386  0.37713284  0.50028968  1
  O  O328  1  1.01298924  0.37323538  0.98527049  1
  O  O329  1  0.99479775  0.87824172  0.48841164  1
  O  O330  1  0.98006452  0.87610897  1.00964786  1
  O  O331  1  0.49308732  0.49818769  0.38313612  1
  O  O332  1  0.48762389  0.49634923  0.87263459  1
  O  O333  1  0.48866192  1.00868067  0.38205448  1
  O  O334  1  0.49841310  0.99478867  0.87087341  1
  O  O335  1  0.98616891  0.50245310  0.36727695  1
  O  O336  1  1.00536188  0.48141677  0.87798620  1
  O  O337  1  0.99514913  0.99131014  0.37842260  1
  O  O338  1  1.03141866  0.99368113  0.89030828  1
  O  O339  1  0.00063186  0.01215663  0.12180757  1
  O  O340  1  -0.00006710  -0.01145669  0.61115849  1
  O  O341  1  0.00780191  0.50932771  0.12375937  1
  O  O342  1  0.00511438  0.49421110  0.62810122  1
  O  O343  1  0.49588949  0.02012131  0.12755117  1
  O  O344  1  0.51105482  0.00149665  0.61741554  1
  O  O345  1  0.48907544  0.50615883  0.11686864  1
  O  O346  1  0.50511158  0.50300954  0.61920862  1
  O  O347  1  0.25595904  0.38785941  0.24423065  1
  O  O348  1  0.24364822  0.37451907  0.74934258  1
  O  O349  1  0.25040858  0.87904752  0.24136858  1
  O  O350  1  0.25093295  0.88241193  0.74168094  1
  O  O351  1  0.74218909  0.38269539  0.24611364  1
  O  O352  1  0.73494421  0.38069234  0.74099399  1
  O  O353  1  0.74283520  0.88180915  0.24621497  1
  O  O354  1  0.75348036  0.87600151  0.73972255  1
  O  O355  1  0.24621056  0.12718843  0.26784123  1
  O  O356  1  0.26136533  0.11849911  0.75876002  1
  O  O357  1  0.25699297  0.61698166  0.25056438  1
  O  O358  1  0.25260760  0.61668020  0.76204627  1
  O  O359  1  0.75358457  0.11957954  0.25127600  1
  O  O360  1  0.74993790  0.09318311  0.75159481  1
  O  O361  1  0.75269968  0.61924763  0.25427400  1
  O  O362  1  0.74629653  0.62709028  0.76479150  1
  O  O363  1  0.36558741  0.11350175  0.38108026  1
  O  O364  1  0.36973444  0.11947919  0.87251858  1
  O  O365  1  0.36597047  0.61607286  0.36676620  1
  O  O366  1  0.36791451  0.61767317  0.87264177  1
  O  O367  1  0.86831977  0.12178568  0.36908423  1
  O  O368  1  0.85064063  0.12878207  0.88709947  1
  O  O369  1  0.86865349  0.61629494  0.36861975  1
  O  O370  1  0.85521574  0.62938807  0.87670901  1
  O  O371  1  0.13363910  0.38562085  0.12171508  1
  O  O372  1  0.13697680  0.37455246  0.63876382  1
  O  O373  1  0.13563272  0.87405587  0.12672912  1
  O  O374  1  0.14027328  0.87835586  0.62455790  1
  O  O375  1  0.63250483  0.37260207  0.13837187  1
  O  O376  1  0.62426788  0.39077515  0.63381804  1
  O  O377  1  0.63701307  0.87677658  0.13167339  1
  O  O378  1  0.63998280  0.88226338  0.61676226  1
  O  O379  1  0.11940532  0.24881598  0.26415488  1
  O  O380  1  0.12637249  0.25480058  0.74294549  1
  O  O381  1  0.12685930  0.75159417  0.26281356  1
  O  O382  1  0.11362944  0.74799906  0.75335188  1
  O  O383  1  0.61757699  0.26113457  0.25864260  1
  O  O384  1  0.61641109  0.26340297  0.76121741  1
  O  O385  1  0.62485934  0.76475906  0.24687409  1
  O  O386  1  0.61217060  0.74150138  0.76358530  1
  O  O387  1  0.38521194  0.25771611  0.24119779  1
  O  O388  1  0.39095729  0.24684793  0.74884308  1
  O  O389  1  0.37822311  0.74393103  0.24196015  1
  O  O390  1  0.38263517  0.73695817  0.75376334  1
  O  O391  1  0.88191642  0.24710475  0.24622871  1
  O  O392  1  0.80564366  0.22510329  0.76185499  1
  O  O393  1  0.87587213  0.73561018  0.25048864  1
  O  O394  1  0.88751392  0.74453362  0.74174039  1
  O  O395  1  0.37735969  0.49196981  0.49605139  1
  O  O396  1  0.36739613  0.48943470  0.99211828  1
  O  O397  1  0.38787269  1.00106421  0.49446918  1
  O  O398  1  0.38075347  0.98860156  0.99204769  1
  O  O399  1  0.86898446  0.49517250  0.48480044  1
  O  O400  1  0.87791928  0.50132492  0.99164114  1
  O  O401  1  0.87950269  0.98838097  0.49407621  1
  O  O402  1  0.87074373  0.98274649  1.00183874  1
  O  O403  1  0.13665351  0.02235485  0.01377322  1
  O  O404  1  0.11370866  0.00507775  0.49826640  1
  O  O405  1  0.12584096  0.50843354  0.01133447  1
  O  O406  1  0.17176928  0.50935490  0.51584386  1
  O  O407  1  0.62000943  0.00079745  0.00566520  1
  O  O408  1  0.62053841  0.00466175  0.50426043  1
  O  O409  1  0.62095521  0.51289074  -0.00165536  1
  O  O410  1  0.61812916  0.50605012  0.50902082  1
  O  O411  1  0.36912661  0.36657695  0.11815006  1
  O  O412  1  0.37520328  0.36639550  0.62556149  1
  O  O413  1  0.37425888  0.87034264  0.11646078  1
  O  O414  1  0.36273088  0.87891380  0.61958587  1
  O  O415  1  0.86378565  0.36952468  0.13423117  1
  O  O416  1  0.86415015  0.37873387  0.61628869  1
  O  O417  1  0.86079452  0.87183616  0.13217354  1
  O  O418  1  0.86762059  0.86756629  0.61539534  1
  O  O419  1  0.13359063  0.13871359  0.39313338  1
  O  O420  1  0.13958260  0.12613010  0.88517913  1
  O  O421  1  0.13352939  0.63149353  0.37533056  1
  O  O422  1  0.13167162  0.61737774  0.88714576  1
  O  O423  1  0.62779576  0.13037978  0.37705846  1
  O  O424  1  0.65440224  0.14511476  0.86138723  1
  O  O425  1  0.63983964  0.60864779  0.38938930  1
  O  O426  1  0.62885945  0.62873454  0.88371519  1
