# generated using pymatgen
data_V85Zn86O256
_symmetry_space_group_name_H-M   'P 1'
_cell_length_a   16.93452242
_cell_length_b   16.93045594
_cell_length_c   16.92909375
_cell_angle_alpha   90.08933264
_cell_angle_beta   89.93806486
_cell_angle_gamma   89.98680616
_symmetry_Int_Tables_number   1
_chemical_formula_structural   V85Zn86O256
_chemical_formula_sum   'V85 Zn86 O256'
_cell_volume   4853.71781845
_cell_formula_units_Z   1
loop_
 _symmetry_equiv_pos_site_id
 _symmetry_equiv_pos_as_xyz
  1  'x, y, z'
loop_
 _atom_site_type_symbol
 _atom_site_label
 _atom_site_symmetry_multiplicity
 _atom_site_fract_x
 _atom_site_fract_y
 _atom_site_fract_z
 _atom_site_occupancy
  V  V0  1  0.38163348  0.62765858  0.23828968  1
  V  V1  1  0.87874893  0.63023534  0.24772451  1
  V  V2  1  0.25275121  0.62384122  0.37532021  1
  V  V3  1  0.37481525  0.12103375  0.23783934  1
  V  V4  1  0.37719308  -0.00032587  0.87599222  1
  V  V5  1  0.87910250  -0.00163478  0.87397451  1
  V  V6  1  0.87975005  0.62328301  0.74526264  1
  V  V7  1  0.62554359  0.00364066  0.62016859  1
  V  V8  1  0.38250227  0.12826967  0.74867971  1
  V  V9  1  0.24341993  0.49319667  0.74882238  1
  V  V10  1  0.13011656  0.13466111  -0.00889823  1
  V  V11  1  0.50424726  0.00507223  0.49586932  1
  V  V12  1  0.25157089  0.12953952  0.37731177  1
  V  V13  1  0.50302678  0.13263259  0.62156019  1
  V  V14  1  0.00088454  0.75071845  0.74859049  1
  V  V15  1  0.75002625  0.62566193  0.87223069  1
  V  V16  1  0.49699900  0.24314971  0.23290800  1
  V  V17  1  0.87560559  0.87790909  0.49921774  1
  V  V18  1  0.05753657  0.30692825  0.18924756  1
  V  V19  1  -0.00072612  0.26851450  0.76712252  1
  V  V20  1  0.49624967  0.49511298  0.49530851  1
  V  V21  1  0.74446540  0.75140189  0.49722674  1
  V  V22  1  0.74223694  0.37413144  0.62510583  1
  V  V23  1  0.61992480  0.12328778  0.00291420  1
  V  V24  1  0.12570937  0.00259187  0.62613162  1
  V  V25  1  0.25592513  0.74790486  0.00462583  1
  V  V26  1  0.00471662  0.13226438  0.62667888  1
  V  V27  1  0.61248786  0.25303790  0.87115674  1
  V  V28  1  0.00221724  0.87746623  0.37294146  1
  V  V29  1  0.61763344  0.75180359  0.87282826  1
  V  V30  1  0.22960324  0.49948140  0.24295928  1
  V  V31  1  0.61545622  0.50408787  0.62619080  1
  V  V32  1  0.87412859  0.25069636  0.62415745  1
  V  V33  1  0.11712571  0.62292462  0.01650284  1
  V  V34  1  0.25047226  0.74732054  0.50229238  1
  V  V35  1  0.63128985  0.86658435  0.25201639  1
  V  V36  1  0.00201413  0.12183909  0.13116819  1
  V  V37  1  0.87097991  0.37430260  0.49753948  1
  V  V38  1  0.00077303  0.36884965  0.37286393  1
  V  V39  1  0.36564684  0.37079409  0.49544602  1
  V  V40  1  0.24878596  0.62555133  0.87478701  1
  V  V41  1  0.74938851  0.12699706  0.87667201  1
  V  V42  1  0.37929423  0.49626921  0.87613755  1
  V  V43  1  0.00532870  -0.00552027  -0.00672439  1
  V  V44  1  0.11346225  0.49831102  0.62707542  1
  V  V45  1  0.74500817  0.12139484  0.36789383  1
  V  V46  1  0.13331113  0.88186696  0.25182267  1
  V  V47  1  0.87751513  0.12612751  0.75044147  1
  V  V48  1  0.36469612  0.24929561  0.62155090  1
  V  V49  1  0.13243551  -0.00057384  0.12508090  1
  V  V50  1  0.12784620  0.75307521  0.37735022  1
  V  V51  1  0.87968403  0.87209525  -0.00597931  1
  V  V52  1  0.12651116  0.25425397  0.38253069  1
  V  V53  1  0.60812651  0.37163784  0.75139730  1
  V  V54  1  0.87089052  0.49802181  0.37500918  1
  V  V55  1  0.61613348  0.50337091  0.12532393  1
  V  V56  1  0.74419542  0.50108464  0.25134112  1
  V  V57  1  0.50464040  0.86426400  0.37318370  1
  V  V58  1  0.12102325  0.75055031  0.87720861  1
  V  V59  1  0.61376132  0.24570083  0.37810218  1
  V  V60  1  0.87360679  0.00126113  0.36437026  1
  V  V61  1  0.38248372  0.62145020  0.75009750  1
  V  V62  1  0.61910061  0.62802978  0.00309035  1
  V  V63  1  0.25924899  0.87440183  0.13068068  1
  V  V64  1  0.74956642  -0.00150093  0.74833739  1
  V  V65  1  0.25144943  0.87217665  0.62610051  1
  V  V66  1  0.36748229  0.36241094  0.00708053  1
  V  V67  1  -0.01350569  0.50524578  0.01213231  1
  V  V68  1  0.50021080  0.49189997  -0.00269990  1
  V  V69  1  0.87328570  0.25136562  0.13237863  1
  V  V70  1  0.88080882  0.74567848  0.62108531  1
  V  V71  1  0.25419364  -0.00072294  0.75163382  1
  V  V72  1  0.74242601  0.24068243  0.49899527  1
  V  V73  1  0.37044790  0.00025290  0.37096588  1
  V  V74  1  0.62415472  0.00438105  0.13416746  1
  V  V75  1  0.61460913  0.63024653  0.50252712  1
  V  V76  1  0.74070435  0.62846559  0.37428479  1
  V  V77  1  0.12237130  0.87394917  0.75478591  1
  V  V78  1  0.37466018  0.48893140  0.36837963  1
  V  V79  1  0.75658892  0.88055947  0.12724284  1
  V  V80  1  0.38022796  0.87116155  0.00226519  1
  V  V81  1  0.61482689  0.37342337  0.25574553  1
  V  V82  1  0.38222198  0.74201252  0.62533104  1
  V  V83  1  0.74773212  0.37374675  0.12515255  1
  V  V84  1  0.37699710  0.87391616  0.49936848  1
  Zn  Zn85  1  0.49904203  0.00298316  0.00403667  1
  Zn  Zn86  1  0.75043498  0.24934351  -0.00006985  1
  Zn  Zn87  1  0.87711647  0.12502221  0.25038498  1
  Zn  Zn88  1  0.25533122  0.14159373  0.88190445  1
  Zn  Zn89  1  0.74768195  0.49972445  0.74914783  1
  Zn  Zn90  1  0.24216015  0.37064457  0.62492749  1
  Zn  Zn91  1  0.75172148  0.75152836  -0.00111406  1
  Zn  Zn92  1  0.50424595  0.74877549  0.74474828  1
  Zn  Zn93  1  0.00851666  0.74451867  0.24421329  1
  Zn  Zn94  1  0.16827870  0.31905323  0.82050215  1
  Zn  Zn95  1  0.62304565  0.87518395  0.74977403  1
  Zn  Zn96  1  0.11509894  0.62759110  0.50862722  1
  Zn  Zn97  1  0.74969910  0.87564925  0.62398921  1
  Zn  Zn98  1  0.87733488  0.36713391  -0.00891072  1
  Zn  Zn99  1  0.88240691  0.74550074  0.11742582  1
  Zn  Zn100  1  0.50178182  0.87631110  0.87169567  1
  Zn  Zn101  1  0.13569564  0.13265658  0.50727269  1
  Zn  Zn102  1  0.23864593  0.36910717  0.12543379  1
  Zn  Zn103  1  0.88101557  0.49515158  0.87050588  1
  Zn  Zn104  1  0.50075992  0.74802015  0.23441759  1
  Zn  Zn105  1  -0.00532553  0.50450393  0.50269578  1
  Zn  Zn106  1  0.00205249  0.00541653  0.50005316  1
  Zn  Zn107  1  0.19466419  0.18082186  0.18410571  1
  Zn  Zn108  1  0.19202543  0.19118672  0.70664898  1
  Zn  Zn109  1  0.19504669  0.69264249  0.19229773  1
  Zn  Zn110  1  0.18769247  0.68030741  0.68835016  1
  Zn  Zn111  1  0.68757124  0.18677571  0.19097432  1
  Zn  Zn112  1  0.68456412  0.18588617  0.68970168  1
  Zn  Zn113  1  0.69162447  0.69246203  0.18212140  1
  Zn  Zn114  1  0.69072896  0.68813089  0.68464296  1
  Zn  Zn115  1  0.29238912  0.29555639  0.27507985  1
  Zn  Zn116  1  0.33591859  0.31196906  0.80973641  1
  Zn  Zn117  1  0.31654942  0.81083258  0.31180085  1
  Zn  Zn118  1  0.31528314  0.81039522  0.81428543  1
  Zn  Zn119  1  0.80741687  0.30955651  0.31083777  1
  Zn  Zn120  1  0.80826153  0.31383315  0.81053174  1
  Zn  Zn121  1  0.80953347  0.81320295  0.31373117  1
  Zn  Zn122  1  0.81107429  0.81120591  0.81354160  1
  Zn  Zn123  1  0.18457217  0.43966816  0.43758469  1
  Zn  Zn124  1  0.19748476  0.45359859  0.95087520  1
  Zn  Zn125  1  0.19119029  0.94188444  0.44123232  1
  Zn  Zn126  1  0.19229220  0.93638216  0.93766955  1
  Zn  Zn127  1  0.68296029  0.43534400  0.43812160  1
  Zn  Zn128  1  0.69529791  0.43551017  0.93423766  1
  Zn  Zn129  1  0.68737922  0.93915254  0.43483884  1
  Zn  Zn130  1  0.69007076  0.93822187  0.93978623  1
  Zn  Zn131  1  0.30959423  0.06172590  0.05902903  1
  Zn  Zn132  1  0.31452738  0.06199065  0.56014824  1
  Zn  Zn133  1  0.30673416  0.55423926  0.06468765  1
  Zn  Zn134  1  0.30807680  0.55934162  0.56377871  1
  Zn  Zn135  1  0.81252709  0.06084723  0.06248527  1
  Zn  Zn136  1  0.81439398  0.06329709  0.55987534  1
  Zn  Zn137  1  0.80259873  0.56551998  0.06584344  1
  Zn  Zn138  1  0.80640828  0.56257847  0.56248153  1
  Zn  Zn139  1  0.43606529  0.43478190  0.18839950  1
  Zn  Zn140  1  0.43393374  0.43783889  0.68196420  1
  Zn  Zn141  1  0.44410607  0.93704095  0.18839010  1
  Zn  Zn142  1  0.44161607  0.93490176  0.68613564  1
  Zn  Zn143  1  0.93307587  0.44748077  0.18199780  1
  Zn  Zn144  1  0.93269847  0.43676862  0.68606036  1
  Zn  Zn145  1  0.94418961  0.93316135  0.18433411  1
  Zn  Zn146  1  0.93949595  0.93586091  0.68658770  1
  Zn  Zn147  1  0.06680894  0.06296698  0.31396410  1
  Zn  Zn148  1  0.06258240  0.06554837  0.81117403  1
  Zn  Zn149  1  0.05638578  0.56654289  0.33238134  1
  Zn  Zn150  1  0.05908236  0.46078411  0.82670909  1
  Zn  Zn151  1  0.56040009  0.06190747  0.31133371  1
  Zn  Zn152  1  0.56219005  0.06229425  0.81176316  1
  Zn  Zn153  1  0.55859120  0.56418327  0.31520156  1
  Zn  Zn154  1  0.56217200  0.56231286  0.81510298  1
  Zn  Zn155  1  0.43417277  0.18743676  0.43659700  1
  Zn  Zn156  1  0.43929262  0.18569405  0.93918598  1
  Zn  Zn157  1  0.43508793  0.68331860  0.43403477  1
  Zn  Zn158  1  0.43922559  0.68454821  1.05947277  1
  Zn  Zn159  1  0.93805022  0.18816461  0.43820434  1
  Zn  Zn160  1  0.93723206  0.18359005  0.94576810  1
  Zn  Zn161  1  0.93555384  0.68922100  0.43090053  1
  Zn  Zn162  1  0.94050772  0.68226595  0.93178542  1
  Zn  Zn163  1  0.08352169  0.33997737  -0.00166279  1
  Zn  Zn164  1  0.06123915  0.31776444  0.56158467  1
  Zn  Zn165  1  0.06369931  0.81037960  0.06522361  1
  Zn  Zn166  1  0.06199626  0.81438609  0.56278939  1
  Zn  Zn167  1  0.56335936  0.31411587  0.05875688  1
  Zn  Zn168  1  0.55686744  0.31537065  0.55761020  1
  Zn  Zn169  1  0.56772304  0.81796350  0.06163755  1
  Zn  Zn170  1  0.56274960  0.81778444  0.56392053  1
  O  O171  1  0.12307116  0.11700627  0.11830712  1
  O  O172  1  0.12141402  0.12141747  0.62973176  1
  O  O173  1  0.13116216  0.63725700  0.11346626  1
  O  O174  1  0.12940294  0.60683365  0.62403110  1
  O  O175  1  0.63559480  0.11201686  0.11931646  1
  O  O176  1  0.61695465  0.11431492  0.62873732  1
  O  O177  1  0.63447367  0.61502076  0.11617993  1
  O  O178  1  0.62973139  0.61559311  0.61492667  1
  O  O179  1  0.36923370  0.38683844  0.37811037  1
  O  O180  1  0.37080226  0.38859184  0.88745852  1
  O  O181  1  0.38278861  0.88184620  0.37773113  1
  O  O182  1  0.37469354  0.88209063  0.88396319  1
  O  O183  1  0.87597930  0.37582547  0.37789157  1
  O  O184  1  0.84627641  0.38702611  0.88409967  1
  O  O185  1  0.88279202  0.88053342  0.37951282  1
  O  O186  1  0.87008674  0.88258478  0.88590821  1
  O  O187  1  0.26483412  0.00369475  0.37692884  1
  O  O188  1  0.26160224  0.00208115  0.86691666  1
  O  O189  1  0.25486912  0.50971305  0.36974446  1
  O  O190  1  0.25515316  0.50847236  0.86911174  1
  O  O191  1  0.76056937  0.01024255  0.38244607  1
  O  O192  1  0.75405325  0.01009276  0.86719049  1
  O  O193  1  0.75032603  0.50589861  0.37081493  1
  O  O194  1  0.74329191  0.51706714  0.86948348  1
  O  O195  1  0.24278441  0.49365413  0.13783685  1
  O  O196  1  0.24284579  0.49537052  0.63537399  1
  O  O197  1  0.23903646  0.99045867  0.11880503  1
  O  O198  1  0.24570943  0.99324673  0.63040806  1
  O  O199  1  0.73754034  0.49251243  0.13267864  1
  O  O200  1  0.73446742  0.48989401  0.62207274  1
  O  O201  1  0.74164900  0.98979123  0.12136935  1
  O  O202  1  0.74374233  1.00278833  0.63016581  1
  O  O203  1  0.00058725  0.37258498  0.24648173  1
  O  O204  1  -0.00574869  0.37353530  0.76202585  1
  O  O205  1  0.01139969  0.87873319  0.26213582  1
  O  O206  1  0.00672563  0.86189973  0.74592035  1
  O  O207  1  0.50379555  0.35882417  0.24730696  1
  O  O208  1  0.50874361  0.37690730  0.74586452  1
  O  O209  1  0.50876968  0.87118433  0.25767400  1
  O  O210  1  0.50342554  0.86906046  0.75328852  1
  O  O211  1  0.49268492  0.13385089  0.24978024  1
  O  O212  1  0.48900294  0.11408095  0.73740150  1
  O  O213  1  0.48574439  0.62751180  0.25336828  1
  O  O214  1  0.48569528  0.62531417  0.75282928  1
  O  O215  1  1.00040095  0.11579976  0.23500980  1
  O  O216  1  0.99467559  0.13226716  0.74164912  1
  O  O217  1  0.98138273  0.62527603  0.26169916  1
  O  O218  1  0.98321881  0.64131337  0.74813405  1
  O  O219  1  0.37653227  0.26358495  -0.00701289  1
  O  O220  1  0.37907238  0.25958307  0.50663671  1
  O  O221  1  0.36439625  0.75533079  -0.00100270  1
  O  O222  1  0.37014335  0.75173368  0.50630973  1
  O  O223  1  0.87197970  0.24958498  0.01450887  1
  O  O224  1  0.86443216  0.25564899  0.50467311  1
  O  O225  1  0.87662002  0.75871570  -0.00382588  1
  O  O226  1  0.87084885  0.75842337  0.50255467  1
  O  O227  1  0.12161487  0.24923115  0.48740653  1
  O  O228  1  0.11885664  0.23267991  0.99898492  1
  O  O229  1  0.13215708  0.74944076  0.49618087  1
  O  O230  1  0.13490784  0.74781560  0.99387156  1
  O  O231  1  0.63128962  0.25601394  0.49125164  1
  O  O232  1  0.62808753  0.24426409  0.98901590  1
  O  O233  1  0.63195963  0.74251801  0.50827892  1
  O  O234  1  0.62805873  0.74274024  0.99220988  1
  O  O235  1  0.50467561  0.24631577  0.13442590  1
  O  O236  1  0.49558824  0.23537232  0.61507237  1
  O  O237  1  0.50015547  0.75357035  0.12134543  1
  O  O238  1  0.48581087  0.75270084  0.62288810  1
  O  O239  1  0.99489818  0.24294000  0.13101452  1
  O  O240  1  0.99281213  0.24839036  0.63137215  1
  O  O241  1  0.99320812  0.76133778  0.13459622  1
  O  O242  1  0.98871529  0.75256176  0.62816787  1
  O  O243  1  0.00379550  0.26009025  0.37461527  1
  O  O244  1  -0.00811581  0.24810440  0.86480554  1
  O  O245  1  0.00827439  0.76224346  0.36930206  1
  O  O246  1  0.01300666  0.74673080  0.86568027  1
  O  O247  1  0.51174153  0.24411352  0.37210056  1
  O  O248  1  0.51394962  0.24706560  0.87399135  1
  O  O249  1  0.49560317  0.76254543  0.37503353  1
  O  O250  1  0.51563415  0.75041644  0.87239730  1
  O  O251  1  0.25247059  0.12205640  0.48440619  1
  O  O252  1  0.23677319  0.12581758  0.99802487  1
  O  O253  1  0.25037545  0.63164008  0.49111030  1
  O  O254  1  0.24590250  0.63081579  0.99666736  1
  O  O255  1  0.75430419  0.13638315  0.49193086  1
  O  O256  1  0.74086568  0.12426567  0.99146528  1
  O  O257  1  0.73888320  0.63182265  0.49361153  1
  O  O258  1  0.73791685  0.62712386  0.99140318  1
  O  O259  1  0.26128486  0.37654889  0.00707616  1
  O  O260  1  0.26249441  0.38150924  0.50187697  1
  O  O261  1  0.26100608  0.86807378  0.00640989  1
  O  O262  1  0.25727514  0.86774977  0.50501095  1
  O  O263  1  0.74456122  0.37276455  0.01721007  1
  O  O264  1  0.74937937  0.36565972  0.50861989  1
  O  O265  1  0.76217775  0.87560196  0.00643951  1
  O  O266  1  0.75772722  0.86823253  0.49812054  1
  O  O267  1  0.13248090  0.51414341  0.25644617  1
  O  O268  1  0.13021154  0.49835052  0.74177911  1
  O  O269  1  0.12555575  0.98988596  0.24209824  1
  O  O270  1  0.13325981  0.99767509  0.74322501  1
  O  O271  1  0.62294657  0.49257998  0.24603429  1
  O  O272  1  0.62342594  0.49307886  0.74194871  1
  O  O273  1  0.62331019  0.99331948  0.23834817  1
  O  O274  1  0.63468268  1.00078009  0.74340182  1
  O  O275  1  0.38725238  0.01228508  0.25824452  1
  O  O276  1  0.37072329  0.00166970  0.75515783  1
  O  O277  1  0.37307722  0.50933293  0.25463224  1
  O  O278  1  0.36862277  0.50328791  0.75471556  1
  O  O279  1  0.88032949  -0.00169378  0.26171196  1
  O  O280  1  0.87058028  0.00553319  0.75307779  1
  O  O281  1  0.86346290  0.50996201  0.25536522  1
  O  O282  1  0.86941799  0.51008275  0.74796308  1
  O  O283  1  0.11424217  0.36805913  0.37805928  1
  O  O284  1  0.12084230  0.38585880  0.89554733  1
  O  O285  1  0.12222198  0.87650206  0.37124565  1
  O  O286  1  0.13546279  0.86242389  0.86784410  1
  O  O287  1  0.62944070  0.36520213  0.36180155  1
  O  O288  1  0.63241896  0.36065258  0.86683183  1
  O  O289  1  0.61744812  0.88212759  0.36377690  1
  O  O290  1  0.62744015  0.86665954  0.87423998  1
  O  O291  1  0.37148100  0.11647974  0.13865120  1
  O  O292  1  0.38174312  0.12949306  0.62815604  1
  O  O293  1  0.37354417  0.61986322  0.13406589  1
  O  O294  1  0.36656868  0.63148172  0.63540781  1
  O  O295  1  0.88468120  0.13003901  0.12463784  1
  O  O296  1  0.88226787  0.13124107  0.63049158  1
  O  O297  1  0.86184277  0.62788642  0.14426337  1
  O  O298  1  0.86796001  0.63488014  0.62916484  1
  O  O299  1  0.26067995  0.26647138  0.16666412  1
  O  O300  1  0.26061490  0.24929283  0.63020809  1
  O  O301  1  0.24913866  0.76290038  0.11699597  1
  O  O302  1  0.25690467  0.75333096  0.62125183  1
  O  O303  1  0.75476400  0.25625195  0.12571606  1
  O  O304  1  0.75040277  0.25284097  0.61750970  1
  O  O305  1  0.75763892  0.76572083  0.12005942  1
  O  O306  1  0.76069377  0.75350210  0.61271827  1
  O  O307  1  0.23844576  0.24255185  0.36550414  1
  O  O308  1  0.24715502  0.24047902  0.82786796  1
  O  O309  1  0.24920573  0.74556761  0.38280884  1
  O  O310  1  0.24715268  0.74363391  0.88267301  1
  O  O311  1  0.73993187  0.24237188  0.38105629  1
  O  O312  1  0.74429217  0.23538722  0.87318738  1
  O  O313  1  0.75224027  0.74316934  0.38860297  1
  O  O314  1  0.74140918  0.74061542  0.87512638  1
  O  O315  1  0.01042899  0.11455791  0.00947744  1
  O  O316  1  0.00187756  0.12660014  0.51612744  1
  O  O317  1  0.01259144  0.62905188  0.00448527  1
  O  O318  1  0.00833406  0.61305736  0.46623778  1
  O  O319  1  0.51515873  0.12329779  -0.00158942  1
  O  O320  1  0.49384396  0.11171266  0.50552976  1
  O  O321  1  0.51308102  0.61190838  0.00242286  1
  O  O322  1  0.50966825  0.61754614  0.49453737  1
  O  O323  1  0.48724340  0.38823218  0.50096138  1
  O  O324  1  0.49253128  0.38560343  1.00163023  1
  O  O325  1  0.49604337  0.88360530  0.49277450  1
  O  O326  1  0.48831177  0.87767631  0.99579519  1
  O  O327  1  0.98778197  0.37728036  0.48978519  1
  O  O328  1  0.98834807  0.39839077  1.00849784  1
  O  O329  1  0.99408776  0.87723195  0.48953806  1
  O  O330  1  0.99650781  0.88716649  1.00182788  1
  O  O331  1  0.48795566  0.50333819  0.38312568  1
  O  O332  1  0.49089315  0.50322428  0.88377243  1
  O  O333  1  0.49269791  0.99414752  0.38101838  1
  O  O334  1  0.48832392  0.99963027  0.87670004  1
  O  O335  1  0.98735586  0.48158592  0.36897593  1
  O  O336  1  0.99305208  0.51719317  0.89725889  1
  O  O337  1  0.99463515  0.99569578  0.37989130  1
  O  O338  1  0.99422963  1.00544512  0.88234838  1
  O  O339  1  0.01284501  0.00375389  0.11694303  1
  O  O340  1  0.00995660  0.00976372  0.62732744  1
  O  O341  1  -0.00575472  0.51489814  0.11339214  1
  O  O342  1  0.00890980  0.49733264  0.62411088  1
  O  O343  1  0.52001401  -0.00483902  0.12174809  1
  O  O344  1  0.50650431  0.00602397  0.61569245  1
  O  O345  1  0.51143988  0.49602342  0.12041173  1
  O  O346  1  0.50861244  0.49933698  0.61554232  1
  O  O347  1  0.24441429  0.39977058  0.25861446  1
  O  O348  1  0.25228668  0.38614717  0.75392109  1
  O  O349  1  0.24755095  0.87342613  0.24226067  1
  O  O350  1  0.24699689  0.88315930  0.74600894  1
  O  O351  1  0.73946612  0.37941127  0.24238694  1
  O  O352  1  0.73926510  0.37355645  0.73413278  1
  O  O353  1  0.74463292  0.87466744  0.24284839  1
  O  O354  1  0.75266618  0.88932713  0.74741940  1
  O  O355  1  0.26746956  0.12168319  0.26079866  1
  O  O356  1  0.26509256  0.10757329  0.74273636  1
  O  O357  1  0.26041759  0.61713431  0.25422567  1
  O  O358  1  0.25518248  0.61464643  0.75856014  1
  O  O359  1  0.75514984  0.12731514  0.26374232  1
  O  O360  1  0.75663837  0.11648066  0.75490680  1
  O  O361  1  0.74923091  0.62201922  0.25894239  1
  O  O362  1  0.75959754  0.62613196  0.75453757  1
  O  O363  1  0.37098997  0.11758051  0.36932597  1
  O  O364  1  0.37511757  0.11927909  0.86647279  1
  O  O365  1  0.36571538  0.61721896  0.36662802  1
  O  O366  1  0.36266364  0.61238695  0.86603559  1
  O  O367  1  0.87055773  0.11712686  0.37439636  1
  O  O368  1  0.86779728  0.11957001  0.87173531  1
  O  O369  1  0.85843498  0.62001164  0.36758165  1
  O  O370  1  0.86501417  0.62687123  0.86375061  1
  O  O371  1  0.11429494  0.35632104  0.11985323  1
  O  O372  1  0.12659542  0.38918847  0.62212504  1
  O  O373  1  0.13509029  0.88129750  0.13296540  1
  O  O374  1  0.13049987  0.88272732  0.63230380  1
  O  O375  1  0.62797355  0.37946520  0.13578747  1
  O  O376  1  0.62554265  0.37929942  0.62975976  1
  O  O377  1  0.63600202  0.88527984  0.13063420  1
  O  O378  1  0.62873224  0.88929099  0.62699972  1
  O  O379  1  0.11277277  0.24942580  0.25305062  1
  O  O380  1  0.10210511  0.25494180  0.74701207  1
  O  O381  1  0.12948274  0.76352501  0.25921807  1
  O  O382  1  0.11878856  0.75043032  0.75502381  1
  O  O383  1  0.61378481  0.25329263  0.25491138  1
  O  O384  1  0.62617921  0.25490294  0.76188148  1
  O  O385  1  0.62425688  0.76271552  0.24579090  1
  O  O386  1  0.62623981  0.75153760  0.75552670  1
  O  O387  1  0.39215410  0.23433271  0.25799664  1
  O  O388  1  0.38659321  0.23918979  0.73502736  1
  O  O389  1  0.37448290  0.73132490  0.25156041  1
  O  O390  1  0.37363038  0.73965204  0.74244634  1
  O  O391  1  0.87177068  0.24640481  0.23780804  1
  O  O392  1  0.88351993  0.24817265  0.74462764  1
  O  O393  1  0.87249403  0.73605362  0.25554411  1
  O  O394  1  0.87941227  0.75015498  0.73964927  1
  O  O395  1  0.37946542  0.49676583  0.49269573  1
  O  O396  1  0.38191406  0.49803553  0.99324075  1
  O  O397  1  0.38272584  0.99205558  0.49292601  1
  O  O398  1  0.37587350  0.99374244  0.99192586  1
  O  O399  1  0.86997564  0.49248159  0.49349749  1
  O  O400  1  0.88040051  0.51095593  1.00258540  1
  O  O401  1  0.87762417  0.98885111  0.49449375  1
  O  O402  1  0.88578618  0.99604964  0.99388293  1
  O  O403  1  0.12146916  0.00333380  0.00505232  1
  O  O404  1  0.12528215  0.00376602  0.51535702  1
  O  O405  1  0.11711698  0.51848989  0.00598350  1
  O  O406  1  0.12237905  0.50266030  0.51335243  1
  O  O407  1  0.62494894  0.00693849  0.00867745  1
  O  O408  1  0.61651704  -0.00257868  0.50696692  1
  O  O409  1  0.61945465  0.50218044  0.00592679  1
  O  O410  1  0.61480598  0.50434733  0.50452812  1
  O  O411  1  0.37622552  0.37893929  0.10835829  1
  O  O412  1  0.37179629  0.36509051  0.61612783  1
  O  O413  1  0.36762536  0.88517213  0.11786411  1
  O  O414  1  0.36932161  0.86745070  0.61899966  1
  O  O415  1  0.86372803  0.36895496  0.12655882  1
  O  O416  1  0.86277745  0.36983817  0.61941261  1
  O  O417  1  0.87090653  0.88130993  0.11272874  1
  O  O418  1  0.87437201  0.86971973  0.61360041  1
  O  O419  1  0.13359021  0.13195703  0.37666336  1
  O  O420  1  0.12910443  0.11919107  0.88779906  1
  O  O421  1  0.14156428  0.63638597  0.37136152  1
  O  O422  1  0.14056600  0.63683042  0.88726602  1
  O  O423  1  0.63243652  0.13128601  0.37162677  1
  O  O424  1  0.63041082  0.13199278  0.87926103  1
  O  O425  1  0.63351035  0.62154662  0.38392985  1
  O  O426  1  0.62930126  0.63245535  0.88074583  1
