# generated using pymatgen
data_V85Zn86O256
_symmetry_space_group_name_H-M   'P 1'
_cell_length_a   16.92744780
_cell_length_b   16.92399289
_cell_length_c   16.93075166
_cell_angle_alpha   89.94459032
_cell_angle_beta   90.02412668
_cell_angle_gamma   89.98334875
_symmetry_Int_Tables_number   1
_chemical_formula_structural   V85Zn86O256
_chemical_formula_sum   'V85 Zn86 O256'
_cell_volume   4850.31893855
_cell_formula_units_Z   1
loop_
 _symmetry_equiv_pos_site_id
 _symmetry_equiv_pos_as_xyz
  1  'x, y, z'
loop_
 _atom_site_type_symbol
 _atom_site_label
 _atom_site_symmetry_multiplicity
 _atom_site_fract_x
 _atom_site_fract_y
 _atom_site_fract_z
 _atom_site_occupancy
  V  V0  1  0.50471678  0.12355504  0.11422614  1
  V  V1  1  0.75184396  0.74903991  -0.00062935  1
  V  V2  1  0.87371538  0.49773523  0.36836918  1
  V  V3  1  0.50188041  0.37888019  0.38453265  1
  V  V4  1  0.11602239  0.74287118  0.37783719  1
  V  V5  1  0.74844877  0.62021246  0.36510060  1
  V  V6  1  0.74944520  0.62203001  0.87966877  1
  V  V7  1  0.62038023  0.75283644  0.37722943  1
  V  V8  1  0.00050083  0.51049246  0.50067209  1
  V  V9  1  0.12696473  0.37584719  0.25049897  1
  V  V10  1  0.11623899  0.86619991  0.24835112  1
  V  V11  1  0.37566510  0.12431320  0.24810403  1
  V  V12  1  0.24518622  0.75159907  -0.01733098  1
  V  V13  1  0.76020099  0.24822738  0.50415217  1
  V  V14  1  0.87836382  0.87498356  -0.00819207  1
  V  V15  1  0.49648067  0.49848684  -0.00104454  1
  V  V16  1  0.87406026  0.00096221  0.37421918  1
  V  V17  1  0.11958564  0.13285646  0.00299620  1
  V  V18  1  0.74967580  0.74516388  0.50089932  1
  V  V19  1  0.11583621  0.87455669  0.76850850  1
  V  V20  1  0.25348266  0.11948487  0.37759554  1
  V  V21  1  0.62242445  0.00516507  0.11280656  1
  V  V22  1  0.48899726  0.62990004  0.61872208  1
  V  V23  1  0.38211106  0.87615858  0.00340804  1
  V  V24  1  0.37647783  0.24920745  0.62383483  1
  V  V25  1  0.25175516  0.50391020  0.75675650  1
  V  V26  1  0.75064620  -0.00317272  0.74791143  1
  V  V27  1  0.24313891  0.12848196  0.87590023  1
  V  V28  1  0.74227891  0.12432471  0.87729594  1
  V  V29  1  0.12162058  0.36147770  0.75031853  1
  V  V30  1  0.50240031  0.63125796  0.12462655  1
  V  V31  1  0.74350969  0.86977860  0.62795044  1
  V  V32  1  0.12840275  0.62817123  -0.01658575  1
  V  V33  1  0.25831196  0.37843857  0.12121127  1
  V  V34  1  0.62435362  0.24784630  0.87926692  1
  V  V35  1  0.89123988  0.74528533  0.62244966  1
  V  V36  1  0.24697611  -0.00147270  0.75102676  1
  V  V37  1  0.49325330  0.75811087  0.25054063  1
  V  V38  1  0.00039118  -0.00426242  0.50249943  1
  V  V39  1  0.25019498  0.25519879  -0.00512733  1
  V  V40  1  0.62113009  0.61290140  0.50013296  1
  V  V41  1  0.12093535  -0.00382476  0.62791880  1
  V  V42  1  0.12151658  0.00457070  0.12729313  1
  V  V43  1  0.11991131  0.51152179  0.62363716  1
  V  V44  1  0.37874520  0.50185858  0.38218398  1
  V  V45  1  0.88109481  0.00075262  0.87214914  1
  V  V46  1  0.12775146  0.24843960  0.37429352  1
  V  V47  1  0.74552772  0.24635455  0.00440259  1
  V  V48  1  0.87857194  0.13973919  0.74777943  1
  V  V49  1  0.00145196  0.00043418  0.00023843  1
  V  V50  1  0.25272240  0.50047564  0.24967512  1
  V  V51  1  0.87952207  0.62522465  0.74461881  1
  V  V52  1  -0.00331046  0.13710006  0.62585360  1
  V  V53  1  0.75290596  0.37933665  0.12990831  1
  V  V54  1  0.87550326  0.37447054  0.00222642  1
  V  V55  1  0.62330528  0.87971561  0.25434176  1
  V  V56  1  0.00401292  0.63446568  0.12830293  1
  V  V57  1  0.50033154  0.25233924  0.24956743  1
  V  V58  1  0.37574540  0.64063840  0.75359577  1
  V  V59  1  0.62714242  0.38287660  0.24982097  1
  V  V60  1  0.48956678  0.37453378  0.87841035  1
  V  V61  1  0.24682518  0.62607208  0.38353362  1
  V  V62  1  0.37316599  0.62927412  0.24485710  1
  V  V63  1  0.58061364  0.68566493  -0.06151682  1
  V  V64  1  0.37637678  0.12221454  0.75016656  1
  V  V65  1  0.00413667  0.49970843  0.00067362  1
  V  V66  1  0.50047772  0.24660723  0.75178498  1
  V  V67  1  0.62807847  0.24866331  0.37614066  1
  V  V68  1  -0.00433081  0.75382649  0.77457781  1
  V  V69  1  0.75233952  0.87705240  0.12645800  1
  V  V70  1  0.25263713  0.24820532  0.49919140  1
  V  V71  1  0.87625090  0.49799862  0.87367579  1
  V  V72  1  0.24975102  0.86293898  0.12612362  1
  V  V73  1  0.24822504  0.37749775  0.62395122  1
  V  V74  1  0.75884749  0.37326288  0.62675454  1
  V  V75  1  0.62990902  0.50750309  0.12140088  1
  V  V76  1  0.50162311  -0.01015845  0.49504755  1
  V  V77  1  0.87603395  0.87361406  0.50053795  1
  V  V78  1  0.38654675  -0.00242244  0.88044179  1
  V  V79  1  0.62424712  0.37648238  0.75010509  1
  V  V80  1  0.24915878  -0.00280227  0.24966432  1
  V  V81  1  0.87824399  0.12398370  0.24316208  1
  V  V82  1  0.37753889  0.25268394  0.11828287  1
  V  V83  1  0.00356505  0.36026161  0.87230583  1
  V  V84  1  0.00311650  0.24489467  0.24286140  1
  Zn  Zn85  1  0.36956028  0.50243941  0.87816899  1
  Zn  Zn86  1  0.74806001  0.00417632  0.25109467  1
  Zn  Zn87  1  0.25578565  0.86076014  0.63059378  1
  Zn  Zn88  1  0.75250249  0.12663471  0.37571473  1
  Zn  Zn89  1  0.55430712  0.82141578  0.80287683  1
  Zn  Zn90  1  0.38095209  0.37968386  0.50467398  1
  Zn  Zn91  1  0.87935386  0.24677216  0.12436416  1
  Zn  Zn92  1  0.12542876  0.12233733  0.50177324  1
  Zn  Zn93  1  0.87801827  0.62949026  0.24941264  1
  Zn  Zn94  1  0.38412381  -0.01427323  0.37196806  1
  Zn  Zn95  1  -0.00069778  0.37361702  0.37714399  1
  Zn  Zn96  1  -0.00440567  0.86797550  0.36871841  1
  Zn  Zn97  1  0.62611224  0.12443553  0.50491773  1
  Zn  Zn98  1  0.50301348  0.12117044  0.62145376  1
  Zn  Zn99  1  0.12911477  0.50307300  0.12291478  1
  Zn  Zn100  1  0.37218328  0.86117311  0.50005085  1
  Zn  Zn101  1  0.88180701  0.37189311  0.50327552  1
  Zn  Zn102  1  0.61966533  0.49584435  0.62005108  1
  Zn  Zn103  1  0.88303650  0.75811893  0.13425697  1
  Zn  Zn104  1  0.74909396  0.50199617  0.74665275  1
  Zn  Zn105  1  0.62543091  0.00073616  0.62437995  1
  Zn  Zn106  1  0.25036052  0.74736711  0.50843823  1
  Zn  Zn107  1  0.19053995  0.18785641  0.18535926  1
  Zn  Zn108  1  0.18715488  0.18401246  0.68408440  1
  Zn  Zn109  1  0.18306880  0.68557204  0.18696241  1
  Zn  Zn110  1  0.18287583  0.68688787  0.70497435  1
  Zn  Zn111  1  0.68944182  0.18878902  0.19054044  1
  Zn  Zn112  1  0.68911511  0.18668168  0.68816534  1
  Zn  Zn113  1  0.68758088  0.69280686  0.18794193  1
  Zn  Zn114  1  0.68440603  0.68633160  0.68574404  1
  Zn  Zn115  1  0.31557412  0.31265458  0.31178837  1
  Zn  Zn116  1  0.30990962  0.31362192  0.80933360  1
  Zn  Zn117  1  0.30873188  0.81165607  0.31898401  1
  Zn  Zn118  1  0.31515512  0.82147375  0.81296040  1
  Zn  Zn119  1  0.81455994  0.31279853  0.31215181  1
  Zn  Zn120  1  0.81065299  0.31399880  0.81508712  1
  Zn  Zn121  1  0.81116629  0.80863212  0.31185153  1
  Zn  Zn122  1  0.71700350  0.81285215  0.81298483  1
  Zn  Zn123  1  0.18733285  0.44020810  0.44002792  1
  Zn  Zn124  1  0.18372133  0.43459786  0.93540297  1
  Zn  Zn125  1  0.18877609  0.92998640  0.43758052  1
  Zn  Zn126  1  0.19096881  0.94238098  0.94034444  1
  Zn  Zn127  1  0.69368818  0.43448976  0.43782077  1
  Zn  Zn128  1  0.68378901  0.43711530  0.94025797  1
  Zn  Zn129  1  0.68757665  0.93684519  0.43938705  1
  Zn  Zn130  1  0.68680735  0.93996451  0.93704334  1
  Zn  Zn131  1  0.30978020  0.06137176  0.06383619  1
  Zn  Zn132  1  0.31663795  0.05161954  0.56392129  1
  Zn  Zn133  1  0.31315265  0.56947498  0.06110278  1
  Zn  Zn134  1  0.31180664  0.56511070  0.56495715  1
  Zn  Zn135  1  0.81114905  0.06164043  0.06326710  1
  Zn  Zn136  1  0.81256634  0.06428118  0.56419684  1
  Zn  Zn137  1  0.81634037  0.56303110  0.06363619  1
  Zn  Zn138  1  0.81101386  0.55896896  0.56033561  1
  Zn  Zn139  1  0.43998837  0.44143621  0.18971808  1
  Zn  Zn140  1  0.43922692  0.44287641  0.68612227  1
  Zn  Zn141  1  0.43681973  0.93989269  0.18350756  1
  Zn  Zn142  1  0.43994109  0.92772237  0.67826255  1
  Zn  Zn143  1  0.94129502  0.43956807  0.18867229  1
  Zn  Zn144  1  0.94111682  0.43535874  0.68830363  1
  Zn  Zn145  1  0.93852332  0.94130995  0.18416524  1
  Zn  Zn146  1  0.93513758  0.93452664  0.68854520  1
  Zn  Zn147  1  0.06191490  0.06122203  0.31406705  1
  Zn  Zn148  1  0.06026649  0.06920385  0.81395054  1
  Zn  Zn149  1  0.06235411  0.55936219  0.31234116  1
  Zn  Zn150  1  0.05995222  0.55676361  0.80812591  1
  Zn  Zn151  1  0.56064928  0.06420606  0.31174641  1
  Zn  Zn152  1  0.54561115  0.01518111  0.79781630  1
  Zn  Zn153  1  0.56160384  0.56392655  0.31110821  1
  Zn  Zn154  1  0.55402793  0.55953650  0.80296425  1
  Zn  Zn155  1  0.44048191  0.18276457  0.43862872  1
  Zn  Zn156  1  0.43448876  0.18429549  0.93561628  1
  Zn  Zn157  1  0.43562557  0.69075367  0.43686175  1
  Zn  Zn158  1  0.41593251  0.68999783  0.93745423  1
  Zn  Zn159  1  0.94108267  0.18499333  0.43421763  1
  Zn  Zn160  1  0.93259666  0.18397508  0.94083179  1
  Zn  Zn161  1  0.93792853  0.68539034  0.43408414  1
  Zn  Zn162  1  0.93136615  0.68329203  0.94507949  1
  Zn  Zn163  1  0.06655420  0.31553642  0.06422888  1
  Zn  Zn164  1  0.06514846  0.31681183  0.55797591  1
  Zn  Zn165  1  0.06660062  0.81546461  0.05492037  1
  Zn  Zn166  1  0.09509055  0.78878135  0.58522537  1
  Zn  Zn167  1  0.56351357  0.31587053  0.06163681  1
  Zn  Zn168  1  0.56745497  0.30798421  0.56413259  1
  Zn  Zn169  1  0.56302971  0.81783881  0.06906560  1
  Zn  Zn170  1  0.56035548  0.80778249  0.56538711  1
  O  O171  1  0.13251117  0.11713345  0.11516531  1
  O  O172  1  0.11502179  0.11380014  0.62628522  1
  O  O173  1  0.11673110  0.62283017  0.11374009  1
  O  O174  1  0.12289103  0.60896538  0.63361482  1
  O  O175  1  0.61706668  0.11680156  0.13556463  1
  O  O176  1  0.62278711  0.12211632  0.62501120  1
  O  O177  1  0.61870140  0.61572271  0.13311940  1
  O  O178  1  0.62275310  0.61984853  0.61374115  1
  O  O179  1  0.38494868  0.38226537  0.37510902  1
  O  O180  1  0.38662253  0.37646600  0.87076253  1
  O  O181  1  0.37171010  0.87420160  0.38340279  1
  O  O182  1  0.37144855  0.88467834  0.89026580  1
  O  O183  1  0.87707282  0.38411421  0.37675987  1
  O  O184  1  0.88005007  0.38368725  0.87926359  1
  O  O185  1  0.87494642  0.87929460  0.38490654  1
  O  O186  1  0.86965135  0.88756137  0.89062077  1
  O  O187  1  0.24727315  0.00710585  0.36777208  1
  O  O188  1  0.25296643  0.01030481  0.86688534  1
  O  O189  1  0.25577768  0.50489643  0.36811507  1
  O  O190  1  0.24941748  0.49270104  0.86070826  1
  O  O191  1  0.76350409  0.00010043  0.37454627  1
  O  O192  1  0.76197663  0.00858349  0.87123105  1
  O  O193  1  0.76077097  0.50734315  0.37936142  1
  O  O194  1  0.75858070  0.50363572  0.87658362  1
  O  O195  1  0.25273080  0.49339860  0.12816280  1
  O  O196  1  0.23973321  0.49357980  0.62805191  1
  O  O197  1  0.23882470  0.99258523  0.13009522  1
  O  O198  1  0.23908109  1.00736096  0.64055976  1
  O  O199  1  0.74161409  0.49316642  0.11854706  1
  O  O200  1  0.74379931  0.48941328  0.62650695  1
  O  O201  1  0.74386575  0.99149434  0.12835201  1
  O  O202  1  0.75471038  0.98927106  0.63152093  1
  O  O203  1  0.01212690  0.36936702  0.25264622  1
  O  O204  1  0.00899795  0.37623608  0.75913828  1
  O  O205  1  0.01250161  0.88117691  0.24899661  1
  O  O206  1  -0.00048708  0.86191892  0.75326060  1
  O  O207  1  0.50812920  0.37057350  0.25600362  1
  O  O208  1  0.50644470  0.36926324  0.75716869  1
  O  O209  1  0.50597127  0.86514834  0.24157631  1
  O  O210  1  0.49843611  0.91244797  0.76970467  1
  O  O211  1  0.49224613  0.13394708  0.24430252  1
  O  O212  1  0.48573883  0.12330615  0.75109355  1
  O  O213  1  0.49357871  0.63304606  0.24260571  1
  O  O214  1  0.48265464  0.62400477  0.74113439  1
  O  O215  1  0.99393800  0.13349275  0.25413276  1
  O  O216  1  0.98708342  0.12480946  0.74335618  1
  O  O217  1  1.00602551  0.61855608  0.23019480  1
  O  O218  1  0.98842332  0.63597351  0.75952772  1
  O  O219  1  0.36715721  0.24726143  0.01152140  1
  O  O220  1  0.37123535  0.25206073  0.50833012  1
  O  O221  1  0.35794008  0.76362248  0.00070465  1
  O  O222  1  0.36446384  0.74260872  0.50103148  1
  O  O223  1  0.86566453  0.25685391  0.00411886  1
  O  O224  1  0.86423782  0.25077957  0.49185898  1
  O  O225  1  0.86946184  0.75931293  0.00864361  1
  O  O226  1  0.87273374  0.75511416  0.50299142  1
  O  O227  1  0.13443780  0.24624046  0.49192101  1
  O  O228  1  0.13438678  0.24108020  1.00711517  1
  O  O229  1  0.12214376  0.74927748  0.47913595  1
  O  O230  1  0.13618321  0.74464449  0.99742452  1
  O  O231  1  0.63580801  0.25025979  0.49014943  1
  O  O232  1  0.63756211  0.25518614  0.99605296  1
  O  O233  1  0.62769888  0.74131540  0.49167278  1
  O  O234  1  0.63379750  0.74800854  1.00659706  1
  O  O235  1  0.49400065  0.24937848  0.12997273  1
  O  O236  1  0.48926447  0.24921607  0.63165948  1
  O  O237  1  0.50673877  0.73873665  0.13461621  1
  O  O238  1  0.50820914  0.72925337  0.62906674  1
  O  O239  1  1.00075038  0.25515400  0.13840425  1
  O  O240  1  1.00579745  0.23588418  0.61515393  1
  O  O241  1  1.00320227  0.73752711  0.11624858  1
  O  O242  1  0.99246031  0.75146515  0.62278193  1
  O  O243  1  0.01264803  0.25066786  0.36641035  1
  O  O244  1  -0.00554503  0.26177187  0.88300196  1
  O  O245  1  0.01059655  0.74820838  0.37081041  1
  O  O246  1  -0.01237255  0.75353925  0.87254416  1
  O  O247  1  0.50665518  0.25841040  0.36916259  1
  O  O248  1  0.50286308  0.25454075  0.87131213  1
  O  O249  1  0.51283182  0.74087988  0.36369782  1
  O  O250  1  0.50933170  0.74009053  0.88540022  1
  O  O251  1  0.25094272  0.12691929  0.49243614  1
  O  O252  1  0.24329549  0.13299184  0.99411888  1
  O  O253  1  0.24688642  0.61933492  0.48577911  1
  O  O254  1  0.24444416  0.64184386  1.00248208  1
  O  O255  1  0.74864893  0.13292918  0.49658154  1
  O  O256  1  0.75812043  0.13503239  0.99119737  1
  O  O257  1  0.74120688  0.62851652  0.49222441  1
  O  O258  1  0.75547086  0.63138634  0.99076579  1
  O  O259  1  0.24515316  0.36770975  0.00857197  1
  O  O260  1  0.25176640  0.36984487  0.51122409  1
  O  O261  1  0.24848136  0.86563080  0.00670888  1
  O  O262  1  0.24561363  0.87040975  0.51095492  1
  O  O263  1  0.75463338  0.36930229  0.01005587  1
  O  O264  1  0.75349060  0.36731148  0.51011050  1
  O  O265  1  0.75821877  0.86907103  0.00836742  1
  O  O266  1  0.75856697  0.86703739  0.50592225  1
  O  O267  1  0.13307922  0.49102109  0.24708590  1
  O  O268  1  0.12983374  0.49210184  0.73890492  1
  O  O269  1  0.12924250  0.99488695  0.24361407  1
  O  O270  1  0.12717062  0.99785472  0.74854898  1
  O  O271  1  0.61971419  0.48905243  0.24088685  1
  O  O272  1  0.62716729  0.48522604  0.75244941  1
  O  O273  1  0.62494546  0.98933937  0.24851655  1
  O  O274  1  0.64717047  1.00552308  0.74829056  1
  O  O275  1  0.36882276  0.00681038  0.25167559  1
  O  O276  1  0.36290490  0.00805527  0.76002421  1
  O  O277  1  0.37112777  0.50755071  0.25811282  1
  O  O278  1  0.36355831  0.50286421  0.75053026  1
  O  O279  1  0.87604358  0.00588096  0.25756378  1
  O  O280  1  0.87057509  0.00658610  0.75772095  1
  O  O281  1  0.88450645  0.50657367  0.26407878  1
  O  O282  1  0.87648295  0.50640316  0.75744489  1
  O  O283  1  0.13132475  0.36856573  0.36334896  1
  O  O284  1  0.11488790  0.37693008  0.86405828  1
  O  O285  1  0.12211745  0.86294986  0.36447462  1
  O  O286  1  0.12209873  0.88660630  0.86734645  1
  O  O287  1  0.62110101  0.37066064  0.36814612  1
  O  O288  1  0.61803905  0.36716205  0.86960182  1
  O  O289  1  0.63110916  0.86495708  0.36645818  1
  O  O290  1  0.63699798  0.86654268  0.87483645  1
  O  O291  1  0.38004719  0.13138711  0.12936682  1
  O  O292  1  0.37266752  0.13224253  0.63472554  1
  O  O293  1  0.38482521  0.62207644  0.13716766  1
  O  O294  1  0.38224781  0.62377930  0.63284899  1
  O  O295  1  0.87329233  0.12486825  0.13840206  1
  O  O296  1  0.88102586  0.12291631  0.63950048  1
  O  O297  1  0.89261539  0.62439566  0.12328625  1
  O  O298  1  0.86945860  0.63096505  0.63451258  1
  O  O299  1  0.25848212  0.25708668  0.11684990  1
  O  O300  1  0.25940458  0.25548244  0.62124730  1
  O  O301  1  0.24451911  0.76100557  0.12137325  1
  O  O302  1  0.20461572  0.75548458  0.61854533  1
  O  O303  1  0.75173662  0.25823578  0.11915542  1
  O  O304  1  0.74627735  0.25879826  0.61542664  1
  O  O305  1  0.74939124  0.76136670  0.11698057  1
  O  O306  1  0.76207460  0.75403413  0.61840309  1
  O  O307  1  0.24679593  0.24295040  0.37830080  1
  O  O308  1  0.25590889  0.24652080  0.88762803  1
  O  O309  1  0.23679088  0.73786597  0.37215543  1
  O  O310  1  0.24837282  0.75531683  0.88423972  1
  O  O311  1  0.74255724  0.25345228  0.38215507  1
  O  O312  1  0.74656329  0.24525199  0.88463705  1
  O  O313  1  0.73877472  0.74132781  0.38085322  1
  O  O314  1  0.75947031  0.73799695  0.89173259  1
  O  O315  1  0.00923034  0.11667766  -0.00265311  1
  O  O316  1  -0.00097088  0.11310754  0.50685041  1
  O  O317  1  0.00725872  0.61749991  0.00498558  1
  O  O318  1  -0.00129951  0.61029646  0.49894408  1
  O  O319  1  0.49978363  0.13619117  0.01564012  1
  O  O320  1  0.50646259  0.11771856  0.50172033  1
  O  O321  1  0.50605616  0.62864751  0.00240537  1
  O  O322  1  0.50619615  0.62568823  0.50947040  1
  O  O323  1  0.50216140  0.37101785  0.48797247  1
  O  O324  1  0.50211022  0.38500157  0.99165518  1
  O  O325  1  0.50387995  0.88641435  0.50276899  1
  O  O326  1  0.48095890  0.87081412  1.01019396  1
  O  O327  1  0.99935690  0.38520582  0.49587851  1
  O  O328  1  0.99770100  0.38150711  0.99596652  1
  O  O329  1  0.99154049  0.88702467  0.49784462  1
  O  O330  1  0.99400639  0.89018079  1.00486285  1
  O  O331  1  0.49111683  0.49126917  0.36784868  1
  O  O332  1  0.50039673  0.49095300  0.88241577  1
  O  O333  1  0.50176637  1.00433425  0.38787369  1
  O  O334  1  0.48216721  1.02340881  0.89280386  1
  O  O335  1  0.99652791  0.49895244  0.38539980  1
  O  O336  1  0.99310936  0.49336518  0.88482317  1
  O  O337  1  0.98999086  0.99755641  0.38312314  1
  O  O338  1  0.98850134  1.00704508  0.88241407  1
  O  O339  1  0.01372216  0.00086980  0.11782835  1
  O  O340  1  0.00202760  0.00645045  0.61973143  1
  O  O341  1  0.00350284  0.50400492  0.11173975  1
  O  O342  1  0.01127666  0.49562367  0.61649603  1
  O  O343  1  0.50923539  0.01118528  0.12803311  1
  O  O344  1  0.50534498  0.00210792  0.61128202  1
  O  O345  1  0.50578184  0.51124238  0.11917860  1
  O  O346  1  0.50505683  0.51749970  0.62971875  1
  O  O347  1  0.24701167  0.37946984  0.24263432  1
  O  O348  1  0.24472226  0.38120552  0.73928315  1
  O  O349  1  0.24091883  0.87906568  0.24260939  1
  O  O350  1  0.23788591  0.88399174  0.75087411  1
  O  O351  1  0.74354364  0.37159823  0.23774107  1
  O  O352  1  0.74212747  0.37435571  0.74454578  1
  O  O353  1  0.74136903  0.87669564  0.24194722  1
  O  O354  1  0.76723126  0.88422428  0.73759777  1
  O  O355  1  0.25629041  0.11919656  0.25497272  1
  O  O356  1  0.25543686  0.12245153  0.75799266  1
  O  O357  1  0.25720930  0.61940126  0.25170868  1
  O  O358  1  0.26298900  0.61566206  0.74268684  1
  O  O359  1  0.76130699  0.12460130  0.25494638  1
  O  O360  1  0.76324904  0.12074517  0.75588552  1
  O  O361  1  0.74600131  0.62569083  0.26237098  1
  O  O362  1  0.76216439  0.62352531  0.76313436  1
  O  O363  1  0.36416144  0.12726114  0.36674615  1
  O  O364  1  0.36104675  0.12227972  0.86989193  1
  O  O365  1  0.36798860  0.61815637  0.36409560  1
  O  O366  1  0.37523781  0.62043870  0.85827560  1
  O  O367  1  0.87589110  0.11609353  0.36563588  1
  O  O368  1  0.86936576  0.12043017  0.86496691  1
  O  O369  1  0.86464504  0.61797440  0.37474342  1
  O  O370  1  0.86974062  0.61302119  0.87215096  1
  O  O371  1  0.13840142  0.37603260  0.13558009  1
  O  O372  1  0.13293399  0.37982693  0.63096805  1
  O  O373  1  0.13077349  0.88157078  0.13031942  1
  O  O374  1  0.11521809  0.89136197  0.64166182  1
  O  O375  1  0.63149146  0.38385878  0.13163704  1
  O  O376  1  0.63097668  0.37463457  0.63455270  1
  O  O377  1  0.63226977  0.88466033  0.13252535  1
  O  O378  1  0.64072936  0.87440886  0.62031538  1
  O  O379  1  0.12310274  0.25505169  0.25364478  1
  O  O380  1  0.13232501  0.26199549  0.74657961  1
  O  O381  1  0.12726650  0.75836633  0.25672341  1
  O  O382  1  0.10374559  0.75717747  0.75682390  1
  O  O383  1  0.62222326  0.26347398  0.25555865  1
  O  O384  1  0.61892857  0.25766010  0.75713583  1
  O  O385  1  0.61825378  0.76131513  0.25554787  1
  O  O386  1  0.63543954  0.75522244  0.75590071  1
  O  O387  1  0.37788138  0.24481492  0.23796985  1
  O  O388  1  0.37870879  0.24282641  0.74384276  1
  O  O389  1  0.38322336  0.74234514  0.25454129  1
  O  O390  1  0.36808006  0.74021833  0.75242125  1
  O  O391  1  0.88579994  0.24255585  0.25052299  1
  O  O392  1  0.87255768  0.23822798  0.75411803  1
  O  O393  1  0.87217972  0.74406296  0.24584738  1
  O  O394  1  0.88791476  0.74204671  0.74012216  1
  O  O395  1  0.37036060  0.49883347  0.48632082  1
  O  O396  1  0.39077024  0.51151523  0.99799765  1
  O  O397  1  0.39140994  1.00330484  0.49392565  1
  O  O398  1  0.36141097  0.98629758  0.99337938  1
  O  O399  1  0.88664488  0.49827710  0.49344708  1
  O  O400  1  0.88337852  0.49381451  0.99309256  1
  O  O401  1  0.87906228  0.99340717  0.49469186  1
  O  O402  1  0.88390111  0.99894401  0.99568014  1
  O  O403  1  0.12005769  0.00923254  0.00643440  1
  O  O404  1  0.11633313  -0.00007886  0.50886254  1
  O  O405  1  0.11969956  0.50669026  0.00062150  1
  O  O406  1  0.11628749  0.49687372  0.51301960  1
  O  O407  1  0.63124969  0.00327524  0.01362983  1
  O  O408  1  0.61765659  0.00245605  0.49980226  1
  O  O409  1  0.61348500  0.49803532  0.01204642  1
  O  O410  1  0.62571630  0.51004461  0.49445237  1
  O  O411  1  0.36660272  0.36895528  0.13033800  1
  O  O412  1  0.36838819  0.36819473  0.62549372  1
  O  O413  1  0.36202595  0.88324273  0.11378669  1
  O  O414  1  0.36560327  0.88114862  0.61591152  1
  O  O415  1  0.86810494  0.37599061  0.12201994  1
  O  O416  1  0.86298619  0.37734204  0.62699380  1
  O  O417  1  0.86705046  0.87964556  0.11665020  1
  O  O418  1  0.87233984  0.86687180  0.61319208  1
  O  O419  1  0.13731604  0.12994560  0.37502569  1
  O  O420  1  0.13569282  0.12411475  0.88420938  1
  O  O421  1  0.13193085  0.63459678  0.36430372  1
  O  O422  1  0.12064963  0.61926068  0.88420693  1
  O  O423  1  0.62801390  0.14142581  0.36883196  1
  O  O424  1  0.64062077  0.13153126  0.86870242  1
  O  O425  1  0.62961401  0.62911925  0.37977264  1
  O  O426  1  0.63197751  0.61708137  0.87444089  1
