# generated using pymatgen
data_V85Zn86O256
_symmetry_space_group_name_H-M   'P 1'
_cell_length_a   16.95545466
_cell_length_b   16.93763943
_cell_length_c   16.96548648
_cell_angle_alpha   89.99198724
_cell_angle_beta   90.00335099
_cell_angle_gamma   90.00931296
_symmetry_Int_Tables_number   1
_chemical_formula_structural   V85Zn86O256
_chemical_formula_sum   'V85 Zn86 O256'
_cell_volume   4872.23951757
_cell_formula_units_Z   1
loop_
 _symmetry_equiv_pos_site_id
 _symmetry_equiv_pos_as_xyz
  1  'x, y, z'
loop_
 _atom_site_type_symbol
 _atom_site_label
 _atom_site_symmetry_multiplicity
 _atom_site_fract_x
 _atom_site_fract_y
 _atom_site_fract_z
 _atom_site_occupancy
  V  V0  1  0.12933779  0.62902549  0.50259852  1
  V  V1  1  0.88718494  0.77858184  0.61738775  1
  V  V2  1  0.12576841  0.25015211  0.87487175  1
  V  V3  1  0.62746521  0.50052750  0.12304420  1
  V  V4  1  0.38277275  0.49625952  0.37290722  1
  V  V5  1  0.49749319  0.24638342  0.75257327  1
  V  V6  1  0.11973318  0.62305673  -0.00094928  1
  V  V7  1  0.62934220  0.89669808  0.23364614  1
  V  V8  1  0.25495245  0.75232094  0.49675185  1
  V  V9  1  -0.00077830  0.61935996  0.62544809  1
  V  V10  1  0.00421309  0.74988130  0.75059303  1
  V  V11  1  0.62420870  0.49879744  0.62061568  1
  V  V12  1  0.87250745  0.50127288  0.87579360  1
  V  V13  1  0.25378281  0.62751405  0.37522563  1
  V  V14  1  0.12095651  0.37428888  0.24427719  1
  V  V15  1  0.87400550  0.37815161  0.50083198  1
  V  V16  1  0.61618766  0.00357065  0.64188182  1
  V  V17  1  0.36825714  0.25652640  0.62752374  1
  V  V18  1  0.00230104  0.50033994  0.00037949  1
  V  V19  1  0.61379024  0.83837746  0.75296706  1
  V  V20  1  0.87628601  0.51278500  0.37711171  1
  V  V21  1  0.24695233  0.25750688  0.50193958  1
  V  V22  1  0.49981321  0.25678616  0.24981792  1
  V  V23  1  0.50120440  0.11824250  0.12535398  1
  V  V24  1  0.87511020  0.36934298  0.00326840  1
  V  V25  1  0.12802846  0.88458858  0.74465680  1
  V  V26  1  0.62531693  0.63869781  0.49427589  1
  V  V27  1  0.25181463  0.75233154  -0.00031087  1
  V  V28  1  0.61999402  0.11474665  0.49994615  1
  V  V29  1  0.37808417  0.37524350  0.00043235  1
  V  V30  1  0.12461309  0.74969457  0.87121574  1
  V  V31  1  0.38067298  0.74922763  0.63178523  1
  V  V32  1  0.74985705  0.37486566  0.62577038  1
  V  V33  1  0.38349740  0.37415096  0.49739769  1
  V  V34  1  0.24622091  0.12814269  0.37505507  1
  V  V35  1  0.50360809  0.50092606  -0.00150083  1
  V  V36  1  0.75685480  0.76518759  -0.01238166  1
  V  V37  1  0.13170231  0.49339881  0.62306619  1
  V  V38  1  0.48976908  0.86661364  0.86528956  1
  V  V39  1  0.50875370  0.87479393  0.37418810  1
  V  V40  1  0.25518620  0.49850165  0.74469947  1
  V  V41  1  0.25023037  0.50226691  0.24622291  1
  V  V42  1  0.24736722  -0.00239766  0.25093252  1
  V  V43  1  -0.00068814  0.12116593  0.61546645  1
  V  V44  1  0.24566532  0.38107191  0.12306582  1
  V  V45  1  0.12179329  0.12511712  0.00595380  1
  V  V46  1  0.36864907  0.11130920  0.75406380  1
  V  V47  1  0.00023194  0.37314482  0.87544435  1
  V  V48  1  0.74763678  0.50134191  0.75510193  1
  V  V49  1  0.13044833  0.37229000  0.74735647  1
  V  V50  1  0.37769047  0.49907563  0.87335965  1
  V  V51  1  0.77778874  0.77259832  0.47587288  1
  V  V52  1  0.49260510  0.12289117  0.62079999  1
  V  V53  1  0.37370199  0.12795720  0.24889047  1
  V  V54  1  0.75186444  0.50931037  0.24699935  1
  V  V55  1  0.62081571  0.25356404  0.37761400  1
  V  V56  1  0.87356128  0.62358929  0.75084223  1
  V  V57  1  0.38165176  0.87969501  0.49990596  1
  V  V58  1  0.75238188  0.36669830  0.12784983  1
  V  V59  1  0.06680695  0.56007637  0.16842270  1
  V  V60  1  0.11493766  0.85841973  0.26047790  1
  V  V61  1  0.38109103  0.00248197  0.37933682  1
  V  V62  1  -0.00728408  0.12694577  0.12744243  1
  V  V63  1  0.51127743  0.75106716  0.25130923  1
  V  V64  1  0.12843434  -0.00179228  0.61048367  1
  V  V65  1  -0.00217019  0.37244940  0.37590200  1
  V  V66  1  0.75264694  0.11359964  0.37418286  1
  V  V67  1  0.87274405  0.11929364  0.75523776  1
  V  V68  1  0.74807738  0.24717204  0.50071976  1
  V  V69  1  0.73921504  0.87251552  0.62790086  1
  V  V70  1  0.87614575  0.24670371  0.62229575  1
  V  V71  1  0.87051424  0.10444659  0.25262363  1
  V  V72  1  0.63789899  0.63052259  -0.01353647  1
  V  V73  1  0.25141324  0.62399432  0.87363869  1
  V  V74  1  0.24925786  0.87591666  0.12526363  1
  V  V75  1  0.25148931  0.25091132  -0.00145180  1
  V  V76  1  0.50196321  0.62810429  0.12236015  1
  V  V77  1  0.62523085  0.37513819  0.25317546  1
  V  V78  1  0.88391978  0.75405353  0.12854262  1
  V  V79  1  -0.01504694  0.24949121  0.25026925  1
  V  V80  1  0.62775262  0.24111378  0.87528414  1
  V  V81  1  0.62659674  0.11690583  0.00471794  1
  V  V82  1  0.24846927  0.10587600  0.87435827  1
  V  V83  1  0.75108791  0.24417424  -0.00229738  1
  V  V84  1  0.37090641  0.88664244  -0.00468484  1
  Zn  Zn85  1  0.37489165  0.25065615  0.12493034  1
  Zn  Zn86  1  0.75497502  0.88445749  0.11879538  1
  Zn  Zn87  1  0.12026591  0.12650828  0.49434312  1
  Zn  Zn88  1  0.37858129  0.62849585  0.24964342  1
  Zn  Zn89  1  -0.00015351  0.25037337  0.74820300  1
  Zn  Zn90  1  0.12322037  0.25071093  0.37386243  1
  Zn  Zn91  1  0.50303307  0.37178318  0.87509049  1
  Zn  Zn92  1  0.62408723  0.37223466  0.75186676  1
  Zn  Zn93  1  0.50577060  0.49964408  0.49504651  1
  Zn  Zn94  1  0.49865295  -0.00441787  0.00034483  1
  Zn  Zn95  1  -0.01864667  0.88785220  0.87451937  1
  Zn  Zn96  1  0.11760927  -0.00267326  0.13076425  1
  Zn  Zn97  1  0.37932490  0.75294865  0.12535319  1
  Zn  Zn98  1  0.25429592  0.88085777  0.62330686  1
  Zn  Zn99  1  0.89384680  0.63352943  0.24671631  1
  Zn  Zn100  1  0.74233642  0.62886736  0.37208384  1
  Zn  Zn101  1  -0.02196523  -0.00685084  0.00077200  1
  Zn  Zn102  1  0.00112291  0.50078054  0.50139682  1
  Zn  Zn103  1  0.75960572  0.00157310  0.75194853  1
  Zn  Zn104  1  0.38228366  0.63309894  0.75477206  1
  Zn  Zn105  1  0.93795344  0.90332067  0.44163697  1
  Zn  Zn106  1  0.50628280  0.63065314  0.62940848  1
  Zn  Zn107  1  0.18395684  0.19214480  0.18852244  1
  Zn  Zn108  1  0.18844304  0.18212545  0.68679874  1
  Zn  Zn109  1  0.19271940  0.69511663  0.19101375  1
  Zn  Zn110  1  0.19360037  0.68759072  0.68334467  1
  Zn  Zn111  1  0.68971616  0.17926844  0.18760758  1
  Zn  Zn112  1  0.68659329  0.18458850  0.68880511  1
  Zn  Zn113  1  0.69090265  0.69543144  0.17561716  1
  Zn  Zn114  1  0.69815896  0.68358688  0.67347120  1
  Zn  Zn115  1  0.31126911  0.31534556  0.31326401  1
  Zn  Zn116  1  0.31210416  0.31124811  0.81376597  1
  Zn  Zn117  1  0.31983360  0.81180994  0.31112060  1
  Zn  Zn118  1  0.30593566  0.81981561  0.81203952  1
  Zn  Zn119  1  0.80782045  0.31389604  0.31906498  1
  Zn  Zn120  1  0.81198790  0.30979320  0.81219860  1
  Zn  Zn121  1  0.80491425  0.80866424  0.30683717  1
  Zn  Zn122  1  0.80727372  0.80841252  0.80509409  1
  Zn  Zn123  1  0.19196021  0.43767598  0.43486234  1
  Zn  Zn124  1  0.18728120  0.43984413  0.93571529  1
  Zn  Zn125  1  0.19136352  0.93679098  0.43500042  1
  Zn  Zn126  1  0.12958581  0.94654359  0.93117411  1
  Zn  Zn127  1  0.69003796  0.43974623  0.43589775  1
  Zn  Zn128  1  0.68592865  0.43227704  0.93588277  1
  Zn  Zn129  1  0.68474443  0.93922510  0.43946924  1
  Zn  Zn130  1  0.80961477  0.94898664  0.92665853  1
  Zn  Zn131  1  0.30985830  0.06391533  0.06443933  1
  Zn  Zn132  1  0.30861638  0.06579213  0.56111799  1
  Zn  Zn133  1  0.31308412  0.56393961  0.06177565  1
  Zn  Zn134  1  0.31754622  0.56231271  0.56237859  1
  Zn  Zn135  1  0.80594078  0.05249635  0.07567344  1
  Zn  Zn136  1  0.80804541  0.05055169  0.56262557  1
  Zn  Zn137  1  0.81876548  0.56635046  0.06619153  1
  Zn  Zn138  1  0.80862911  0.57002990  0.56062092  1
  Zn  Zn139  1  0.43690101  0.43908495  0.18530552  1
  Zn  Zn140  1  0.44074848  0.43564278  0.68553951  1
  Zn  Zn141  1  0.43538243  0.93636920  0.18868293  1
  Zn  Zn142  1  0.43843466  0.93778729  0.68745729  1
  Zn  Zn143  1  0.92836666  0.43486708  0.19055831  1
  Zn  Zn144  1  0.93950694  0.43648101  0.68879319  1
  Zn  Zn145  1  0.93782474  0.93266481  0.18507779  1
  Zn  Zn146  1  0.94145991  0.93737186  0.67254484  1
  Zn  Zn147  1  0.05814523  0.04706257  0.31830881  1
  Zn  Zn148  1  0.05592254  0.06694436  0.80602217  1
  Zn  Zn149  1  0.06712638  0.56211336  0.33125458  1
  Zn  Zn150  1  0.06319288  0.55953946  0.81303961  1
  Zn  Zn151  1  0.56051150  0.06703422  0.31356898  1
  Zn  Zn152  1  0.62393224  -0.01130911  0.87117276  1
  Zn  Zn153  1  0.56275357  0.56337475  0.31034128  1
  Zn  Zn154  1  0.56126467  0.56503919  0.80882779  1
  Zn  Zn155  1  0.43705822  0.18996661  0.43689658  1
  Zn  Zn156  1  0.43679347  0.18114111  0.93477305  1
  Zn  Zn157  1  0.44255365  0.68879716  0.43914063  1
  Zn  Zn158  1  0.43771920  0.68791274  0.93912054  1
  Zn  Zn159  1  0.93265318  0.07160305  0.44059510  1
  Zn  Zn160  1  0.93649326  0.18430681  0.93904607  1
  Zn  Zn161  1  0.95020576  0.70427313  0.43492443  1
  Zn  Zn162  1  0.93309755  0.69183178  0.93580087  1
  Zn  Zn163  1  0.05911779  0.30871998  0.06628597  1
  Zn  Zn164  1  0.06084458  0.31125536  0.56052046  1
  Zn  Zn165  1  0.06291795  0.81431426  0.06362784  1
  Zn  Zn166  1  0.05653768  0.81349605  0.54408147  1
  Zn  Zn167  1  0.56393149  0.30864951  0.06544164  1
  Zn  Zn168  1  0.56091636  0.31023550  0.56460027  1
  Zn  Zn169  1  0.56498594  0.81090079  0.05478316  1
  Zn  Zn170  1  0.55926239  0.81743538  0.56125026  1
  O  O171  1  0.11425226  0.12937154  0.12169684  1
  O  O172  1  0.11945951  0.11536181  0.62167457  1
  O  O173  1  0.13127993  0.62567569  0.11641628  1
  O  O174  1  0.12266478  0.61199437  0.62190793  1
  O  O175  1  0.61241532  0.13455231  0.11713542  1
  O  O176  1  0.61409878  0.12156431  0.61982444  1
  O  O177  1  0.61727012  0.61886286  0.11688368  1
  O  O178  1  0.62760968  0.61544987  0.61136867  1
  O  O179  1  0.37036901  0.38456540  0.38328851  1
  O  O180  1  0.37524975  0.37964321  0.88715801  1
  O  O181  1  0.38266234  0.88474951  0.38033391  1
  O  O182  1  0.37970018  0.87437712  0.87953186  1
  O  O183  1  0.87968807  0.38570067  0.38107098  1
  O  O184  1  0.88040823  0.38010950  0.88182655  1
  O  O185  1  0.84267290  0.83694388  0.41280497  1
  O  O186  1  0.87206532  0.87514955  0.86502808  1
  O  O187  1  0.25980298  0.00913671  0.36953750  1
  O  O188  1  0.23226325  0.00958103  0.88068974  1
  O  O189  1  0.25901691  0.50715612  0.36686121  1
  O  O190  1  0.25559135  0.50440609  0.86523730  1
  O  O191  1  0.74463838  0.01429481  0.37913898  1
  O  O192  1  0.73285352  -0.00397187  0.85917619  1
  O  O193  1  0.76198794  0.50567336  0.36700837  1
  O  O194  1  0.75446582  0.49221973  0.86159817  1
  O  O195  1  0.25477385  0.49336618  0.13280585  1
  O  O196  1  0.24678460  0.50324558  0.63633877  1
  O  O197  1  0.25097642  0.99268962  0.13562517  1
  O  O198  1  0.23370385  1.00159210  0.62261005  1
  O  O199  1  0.74758378  0.49166890  0.13172936  1
  O  O200  1  0.74235464  0.49409867  0.63039810  1
  O  O201  1  0.74219414  0.99378362  0.13983860  1
  O  O202  1  0.73397468  0.99113793  0.63331982  1
  O  O203  1  0.00307047  0.37164744  0.25358039  1
  O  O204  1  0.01312575  0.37504756  0.75614694  1
  O  O205  1  0.01758231  0.88002756  0.24812574  1
  O  O206  1  0.01250639  0.86449293  0.74631045  1
  O  O207  1  0.50483201  0.36319507  0.24327619  1
  O  O208  1  0.50099230  0.35934974  0.74955060  1
  O  O209  1  0.50760856  0.87111644  0.25399247  1
  O  O210  1  0.50126912  0.86956538  0.75546808  1
  O  O211  1  0.49418948  0.13567007  0.24431851  1
  O  O212  1  0.48421135  0.13829128  0.73983297  1
  O  O213  1  0.50159599  0.63192195  0.24067851  1
  O  O214  1  0.49196732  0.61558455  0.74083654  1
  O  O215  1  0.98778701  0.13052112  0.25012604  1
  O  O216  1  0.99320054  0.13108215  0.73500606  1
  O  O217  1  1.01322920  0.61239426  0.24196762  1
  O  O218  1  0.99732166  0.62638917  0.74367073  1
  O  O219  1  0.36779056  0.25793329  -0.00074337  1
  O  O220  1  0.36877332  0.25625053  0.50547039  1
  O  O221  1  0.36123538  0.75438033  0.00063722  1
  O  O222  1  0.37218732  0.75901532  0.50607113  1
  O  O223  1  0.86733198  0.26116413  -0.00544917  1
  O  O224  1  0.86493366  0.25880999  0.51354458  1
  O  O225  1  0.86139668  0.74252039  0.00718110  1
  O  O226  1  0.86927905  0.72567401  0.51993326  1
  O  O227  1  0.13318431  0.25111026  0.49460141  1
  O  O228  1  0.13215795  0.24449815  0.99746981  1
  O  O229  1  0.14062186  0.73535471  0.51323176  1
  O  O230  1  0.13573725  0.74228129  0.99488758  1
  O  O231  1  0.62811553  0.24349952  0.49428816  1
  O  O232  1  0.63290201  0.24846953  0.99445599  1
  O  O233  1  0.62163659  0.73888162  0.50395429  1
  O  O234  1  0.64072296  0.73789256  1.00214454  1
  O  O235  1  0.49627296  0.24265786  0.13414227  1
  O  O236  1  0.49089151  0.24192754  0.63031077  1
  O  O237  1  0.50068141  0.74197933  0.12732009  1
  O  O238  1  0.48383245  0.75204948  0.62026203  1
  O  O239  1  0.99993315  0.23853578  0.13695869  1
  O  O240  1  0.99106434  0.24628994  0.62588467  1
  O  O241  1  0.98367115  0.75093864  0.11359600  1
  O  O242  1  1.00139065  0.72988040  0.63554973  1
  O  O243  1  0.00174706  0.26732785  0.36790039  1
  O  O244  1  0.00842952  0.25647474  0.87374025  1
  O  O245  1  0.00336107  0.80292718  0.44311056  1
  O  O246  1  0.00556085  0.74764993  0.86103309  1
  O  O247  1  0.51270370  0.24499218  0.36662977  1
  O  O248  1  0.50439054  0.24881754  0.86703491  1
  O  O249  1  0.49578335  0.76250015  0.36525011  1
  O  O250  1  0.49595011  0.76612950  0.88292469  1
  O  O251  1  0.24909189  0.13792805  0.48986036  1
  O  O252  1  0.24728199  0.13593234  0.99423168  1
  O  O253  1  0.24928964  0.63022067  0.49458054  1
  O  O254  1  0.24160832  0.62906480  0.99404992  1
  O  O255  1  0.74057809  0.12985548  0.49645231  1
  O  O256  1  0.74204381  0.14153450  1.01434565  1
  O  O257  1  0.73843053  0.63527496  0.49668773  1
  O  O258  1  0.73814931  0.61894135  1.00119792  1
  O  O259  1  0.25513146  0.37142901  0.00371319  1
  O  O260  1  0.25904593  0.36313989  0.49428033  1
  O  O261  1  0.25299871  0.86665365  0.00754664  1
  O  O262  1  0.26141772  0.86766152  0.49944402  1
  O  O263  1  0.75661076  0.36862700  0.00819250  1
  O  O264  1  0.75531780  0.37041053  0.50646970  1
  O  O265  1  0.74774876  0.86638558  -0.00548390  1
  O  O266  1  0.72916834  0.86652717  0.51536678  1
  O  O267  1  0.12639998  0.49915324  0.24231353  1
  O  O268  1  0.13398293  0.49352266  0.74353843  1
  O  O269  1  0.13929757  1.00034879  0.24879449  1
  O  O270  1  0.12155833  0.98707489  0.73799858  1
  O  O271  1  0.63188954  0.49344245  0.24545116  1
  O  O272  1  0.63413980  0.49716383  0.74216783  1
  O  O273  1  0.61670641  0.99478057  0.24634465  1
  O  O274  1  0.61561210  1.00843901  0.74135478  1
  O  O275  1  0.36497596  0.00578806  0.25769042  1
  O  O276  1  0.37140540  0.01225343  0.74309458  1
  O  O277  1  0.36968901  0.50162424  0.25664543  1
  O  O278  1  0.36705221  0.49258812  0.75496119  1
  O  O279  1  0.87669360  0.00649098  0.25375977  1
  O  O280  1  0.88038158  0.01584877  0.74036512  1
  O  O281  1  0.86764789  0.50758193  0.25789256  1
  O  O282  1  0.86911278  0.50319249  0.75578080  1
  O  O283  1  0.11597185  0.38262122  0.36188498  1
  O  O284  1  0.12072385  0.37001538  0.86817349  1
  O  O285  1  0.13844337  0.87713107  0.35666443  1
  O  O286  1  0.13242281  0.86283832  0.85270665  1
  O  O287  1  0.63214896  0.36568129  0.36718611  1
  O  O288  1  0.62178313  0.36052018  0.87218341  1
  O  O289  1  0.61054551  0.88665140  0.36747398  1
  O  O290  1  0.61036828  0.86004400  0.85411328  1
  O  O291  1  0.37878521  0.13012881  0.13236688  1
  O  O292  1  0.37646207  0.13442045  0.62853649  1
  O  O293  1  0.39098692  0.62454741  0.12283287  1
  O  O294  1  0.37634835  0.64046468  0.62303747  1
  O  O295  1  0.87960718  0.12598929  0.14496254  1
  O  O296  1  0.88161761  0.13221528  0.62595919  1
  O  O297  1  0.86995930  0.64089355  0.13201497  1
  O  O298  1  0.88798860  0.61116697  0.63654783  1
  O  O299  1  0.25013502  0.25885283  0.11383175  1
  O  O300  1  0.25707697  0.24515469  0.61526944  1
  O  O301  1  0.25459547  0.75751075  0.11711040  1
  O  O302  1  0.26258302  0.75137762  0.61179552  1
  O  O303  1  0.74390607  0.26284046  0.12104687  1
  O  O304  1  0.75371006  0.25643097  0.62098283  1
  O  O305  1  0.75777116  0.76028911  0.11135098  1
  O  O306  1  0.76378041  0.76007229  0.61306338  1
  O  O307  1  0.24763116  0.24344263  0.37941634  1
  O  O308  1  0.24346701  0.25140936  0.88776280  1
  O  O309  1  0.26175957  0.74187194  0.38694382  1
  O  O310  1  0.24524796  0.74358801  0.88079578  1
  O  O311  1  0.73859711  0.24314676  0.38163111  1
  O  O312  1  0.74230779  0.25404394  0.88587937  1
  O  O313  1  0.73750168  0.74374324  0.38179788  1
  O  O314  1  0.75663984  0.74436545  0.88936046  1
  O  O315  1  0.00743861  0.13051055  0.01171467  1
  O  O316  1  0.00219257  0.13507366  0.51169703  1
  O  O317  1  0.01378279  0.62253659  -0.00670693  1
  O  O318  1  0.01317871  0.62279474  0.50688081  1
  O  O319  1  0.50546464  0.12529290  0.00930093  1
  O  O320  1  0.50722273  0.13336787  0.50882559  1
  O  O321  1  0.51022925  0.62107842  0.00520502  1
  O  O322  1  0.51142808  0.62171276  0.50555774  1
  O  O323  1  0.48746467  0.37367412  0.49994883  1
  O  O324  1  0.49195310  0.37954793  1.00218434  1
  O  O325  1  0.48993306  0.87507242  0.48995806  1
  O  O326  1  0.48467158  0.87272083  0.99811036  1
  O  O327  1  0.99388619  0.37903134  0.49204621  1
  O  O328  1  0.99226662  0.37674576  0.99726600  1
  O  O329  1  0.95258845  0.85514787  0.58247731  1
  O  O330  1  1.03168097  0.88861069  0.98651970  1
  O  O331  1  0.48650264  0.50279740  0.37388302  1
  O  O332  1  0.49438925  0.49425425  0.88144567  1
  O  O333  1  0.48604050  0.99757256  0.37004044  1
  O  O334  1  0.51034326  0.97213655  0.88342567  1
  O  O335  1  0.99017338  0.49122763  0.37773691  1
  O  O336  1  0.99523332  0.49171768  0.88117239  1
  O  O337  1  0.99394425  0.99227899  0.38741409  1
  O  O338  1  1.02696776  0.99714738  0.88577537  1
  O  O339  1  0.00019008  0.01330289  0.12326971  1
  O  O340  1  0.01621353  0.01065090  0.62441362  1
  O  O341  1  -0.00212624  0.49758350  0.11825996  1
  O  O342  1  0.01156177  0.50533836  0.62454253  1
  O  O343  1  0.49081820  0.01453184  0.12339217  1
  O  O344  1  0.49974213  0.01506160  0.62511905  1
  O  O345  1  0.50699646  0.50628143  0.11864693  1
  O  O346  1  0.51616688  0.49428479  0.62053630  1
  O  O347  1  0.23946923  0.38082066  0.24489024  1
  O  O348  1  0.23806126  0.38230615  0.75549074  1
  O  O349  1  0.25186816  0.88144293  0.24281560  1
  O  O350  1  0.23250413  0.86831536  0.73783320  1
  O  O351  1  0.74791479  0.38459036  0.24407626  1
  O  O352  1  0.75022252  0.38204002  0.74048415  1
  O  O353  1  0.72769735  0.87380489  0.25259072  1
  O  O354  1  0.72001389  0.86198771  0.74353561  1
  O  O355  1  0.25476050  0.12212206  0.25534468  1
  O  O356  1  0.25586208  0.13060318  0.76428128  1
  O  O357  1  0.25394723  0.62196171  0.25838922  1
  O  O358  1  0.25569942  0.61612428  0.75589304  1
  O  O359  1  0.76361174  0.13071201  0.25941147  1
  O  O360  1  0.76869395  0.12546677  0.74077997  1
  O  O361  1  0.74140886  0.61419643  0.24885353  1
  O  O362  1  0.76162757  0.61398053  0.74113471  1
  O  O363  1  0.36675520  0.12149964  0.37032696  1
  O  O364  1  0.36148739  0.12510186  0.86727474  1
  O  O365  1  0.36751194  0.61700356  0.37689480  1
  O  O366  1  0.36880706  0.61675962  0.87642097  1
  O  O367  1  0.86577179  0.12879092  0.36268800  1
  O  O368  1  0.88327083  0.13337463  0.85312542  1
  O  O369  1  0.88558926  0.62312105  0.37070067  1
  O  O370  1  0.88316704  0.61700206  0.85907238  1
  O  O371  1  0.12712660  0.37324615  0.13627993  1
  O  O372  1  0.12188750  0.38572099  0.63120375  1
  O  O373  1  0.13805595  0.87487783  0.13663470  1
  O  O374  1  0.12324220  0.88522401  0.62282996  1
  O  O375  1  0.63256094  0.38135468  0.13150313  1
  O  O376  1  0.63358637  0.37904909  0.62585239  1
  O  O377  1  0.61939133  0.87728308  0.13305629  1
  O  O378  1  0.61766980  0.88128625  0.63892915  1
  O  O379  1  0.11433796  0.26032604  0.25393422  1
  O  O380  1  0.12597502  0.25786588  0.75375429  1
  O  O381  1  0.12343263  0.75790833  0.25303832  1
  O  O382  1  0.11935593  0.75192318  0.74797636  1
  O  O383  1  0.61945104  0.25362333  0.25750614  1
  O  O384  1  0.61614330  0.24528051  0.75761614  1
  O  O385  1  0.61358170  0.75386674  0.24295198  1
  O  O386  1  0.61889464  0.74081825  0.73941555  1
  O  O387  1  0.38281093  0.24774131  0.25096842  1
  O  O388  1  0.37708812  0.24788017  0.74260436  1
  O  O389  1  0.38971248  0.74851326  0.24451520  1
  O  O390  1  0.36499578  0.75317889  0.73403482  1
  O  O391  1  0.88428071  0.25559929  0.25481759  1
  O  O392  1  0.87584192  0.24694364  0.73612449  1
  O  O393  1  0.87337378  0.74938353  0.23714124  1
  O  O394  1  0.88428432  0.74062346  0.73457401  1
  O  O395  1  0.37622257  0.49064169  0.49311782  1
  O  O396  1  0.38124881  0.49328306  0.99463356  1
  O  O397  1  0.36766187  0.99249673  0.49156324  1
  O  O398  1  0.37090784  0.98936511  0.99979828  1
  O  O399  1  0.87485337  0.49950341  0.49173525  1
  O  O400  1  0.88024823  0.49290893  0.99458926  1
  O  O401  1  0.87971933  0.99264713  0.50241857  1
  O  O402  1  0.86966170  1.01884361  0.99239535  1
  O  O403  1  0.14047841  0.02264782  0.01606730  1
  O  O404  1  0.12884987  0.00272963  0.50707098  1
  O  O405  1  0.11748715  0.50868376  -0.00265781  1
  O  O406  1  0.13027879  0.50694124  0.50845808  1
  O  O407  1  0.62203188  0.01630070  -0.00298501  1
  O  O408  1  0.62415982  0.01238084  0.51201282  1
  O  O409  1  0.62148888  0.50392639  0.00458175  1
  O  O410  1  0.62713127  0.50408395  0.50668466  1
  O  O411  1  0.36799268  0.37454650  0.11320486  1
  O  O412  1  0.37664202  0.36316468  0.61671371  1
  O  O413  1  0.36429514  0.87525384  0.11710051  1
  O  O414  1  0.37514483  0.86925155  0.61636309  1
  O  O415  1  0.86538595  0.37805940  0.11440128  1
  O  O416  1  0.87023381  0.37141028  0.62049919  1
  O  O417  1  0.87313863  0.86264358  0.12452953  1
  O  O418  1  0.84076373  0.87590260  0.66243712  1
  O  O419  1  0.13680290  0.12472194  0.37309496  1
  O  O420  1  0.13103811  0.13533659  0.88264111  1
  O  O421  1  0.14238487  0.62152581  0.38908382  1
  O  O422  1  0.13177013  0.62925582  0.87978411  1
  O  O423  1  0.62915930  0.13106335  0.38310337  1
  O  O424  1  0.62135676  0.13847610  0.89013584  1
  O  O425  1  0.62335934  0.61654675  0.39121134  1
  O  O426  1  0.62367319  0.61871400  0.88933056  1
