# generated using pymatgen
data_V85Zn86O256
_symmetry_space_group_name_H-M   'P 1'
_cell_length_a   16.93204803
_cell_length_b   16.92107996
_cell_length_c   16.92644428
_cell_angle_alpha   90.01278438
_cell_angle_beta   89.97899701
_cell_angle_gamma   89.98664565
_symmetry_Int_Tables_number   1
_chemical_formula_structural   V85Zn86O256
_chemical_formula_sum   'V85 Zn86 O256'
_cell_volume   4849.57023840
_cell_formula_units_Z   1
loop_
 _symmetry_equiv_pos_site_id
 _symmetry_equiv_pos_as_xyz
  1  'x, y, z'
loop_
 _atom_site_type_symbol
 _atom_site_label
 _atom_site_symmetry_multiplicity
 _atom_site_fract_x
 _atom_site_fract_y
 _atom_site_fract_z
 _atom_site_occupancy
  V  V0  1  0.62589547  0.49569506  0.62696742  1
  V  V1  1  0.37318684  0.36586330  -0.00487009  1
  V  V2  1  0.62826245  0.50019744  0.13206066  1
  V  V3  1  0.12256197  0.50669556  0.62255893  1
  V  V4  1  0.62319968  0.62428026  -0.00131596  1
  V  V5  1  0.26431876  0.12991747  0.87613075  1
  V  V6  1  0.75141236  0.12484394  0.37583289  1
  V  V7  1  0.62560751  0.00916403  0.11612241  1
  V  V8  1  0.49761755  0.62456321  0.12334215  1
  V  V9  1  0.12723549  0.88307131  0.75449805  1
  V  V10  1  0.49852409  0.75255993  0.75065823  1
  V  V11  1  0.87786265  0.12424685  0.25070452  1
  V  V12  1  -0.00275415  0.50348543  0.00293660  1
  V  V13  1  0.75141958  -0.00036365  0.24902254  1
  V  V14  1  0.37451687  0.75104074  0.12362199  1
  V  V15  1  0.12800957  0.13929476  0.50188079  1
  V  V16  1  0.25832830  0.12393200  0.37932930  1
  V  V17  1  0.00141373  0.12676845  0.12791191  1
  V  V18  1  0.25059940  0.87813735  0.12670677  1
  V  V19  1  0.62548407  0.11300173  0.50325453  1
  V  V20  1  -0.00165100  0.25546250  0.25879922  1
  V  V21  1  -0.00114679  0.00281445  -0.00263306  1
  V  V22  1  0.63634020  0.62527595  0.49673706  1
  V  V23  1  0.23879480  0.62934666  0.38361541  1
  V  V24  1  -0.00130721  0.87813313  0.87556160  1
  V  V25  1  0.12284591  0.50131080  0.12506885  1
  V  V26  1  0.75149956  0.87441357  0.12373290  1
  V  V27  1  0.12986262  0.74527659  0.87436232  1
  V  V28  1  0.00675256  0.00258586  0.49746766  1
  V  V29  1  0.48284213  0.88103797  0.37386618  1
  V  V30  1  -0.00303941  0.24248698  0.75111982  1
  V  V31  1  -0.00113973  0.37424135  0.87603746  1
  V  V32  1  0.49816549  0.37260882  0.37317898  1
  V  V33  1  0.11995842  0.87516793  0.24991345  1
  V  V34  1  0.37048887  0.11343175  0.24609517  1
  V  V35  1  0.36718696  0.50087847  0.87606022  1
  V  V36  1  0.49949494  0.50025448  0.50027216  1
  V  V37  1  0.24805676  0.37034985  0.62266574  1
  V  V38  1  0.88069795  -0.00428114  0.37447437  1
  V  V39  1  0.70757569  0.79859110  0.55413878  1
  V  V40  1  0.47886688  0.00094131  0.49775572  1
  V  V41  1  0.25463679  0.88004172  0.61743029  1
  V  V42  1  0.37375941  0.49956832  0.37515961  1
  V  V43  1  0.63448495  0.23828439  0.88427078  1
  V  V44  1  0.00579439  0.49963439  0.48479745  1
  V  V45  1  0.37525177  0.24584332  0.63021483  1
  V  V46  1  0.75737667  -0.00090253  0.73650143  1
  V  V47  1  0.00062807  0.74980443  0.75259276  1
  V  V48  1  0.49431735  0.00563954  -0.00863635  1
  V  V49  1  0.00561623  0.73826404  0.24139033  1
  V  V50  1  0.36719177  0.62547830  0.75357863  1
  V  V51  1  0.85106285  0.49927578  0.37281832  1
  V  V52  1  0.12565557  0.37465203  0.75057968  1
  V  V53  1  0.62456522  0.37309943  0.76021103  1
  V  V54  1  0.87615628  0.75196026  0.62149339  1
  V  V55  1  0.26933626  0.00232109  0.75863582  1
  V  V56  1  0.12330077  0.37580973  0.25644675  1
  V  V57  1  0.87745622  0.62228813  0.74857098  1
  V  V58  1  0.87510845  0.87816897  -0.00289275  1
  V  V59  1  0.50087419  0.24976360  0.75690299  1
  V  V60  1  0.49733336  0.62306855  0.62332863  1
  V  V61  1  0.62464024  0.24791042  0.37607608  1
  V  V62  1  0.62516496  0.75800164  0.87282222  1
  V  V63  1  0.13109129  0.13497004  -0.00016336  1
  V  V64  1  0.62353383  0.87743700  0.25031655  1
  V  V65  1  0.37008917  0.36773002  0.49926304  1
  V  V66  1  0.87582552  0.86987826  0.49376180  1
  V  V67  1  0.37130272  0.75007041  0.61368385  1
  V  V68  1  0.74802511  0.37040386  0.13050301  1
  V  V69  1  0.37127142  0.62424422  0.25162771  1
  V  V70  1  0.50266571  0.12076181  0.63211642  1
  V  V71  1  0.74965088  0.62266330  0.87489110  1
  V  V72  1  0.05879915  0.81598218  0.41676268  1
  V  V73  1  0.87249249  0.24507942  0.62661788  1
  V  V74  1  0.24854691  0.36517018  0.12067981  1
  V  V75  1  0.49799832  0.49556394  -0.00660938  1
  V  V76  1  0.86816405  0.36971779  0.00085466  1
  V  V77  1  0.85710333  0.62142833  0.24846664  1
  V  V78  1  0.12838204  0.00228125  0.12915899  1
  V  V79  1  0.63471012  0.75021036  0.37266788  1
  V  V80  1  0.25138150  0.74622351  -0.00254541  1
  V  V81  1  0.49805400  0.75307964  0.25107406  1
  V  V82  1  0.12381018  0.62434930  0.00120845  1
  V  V83  1  0.76742654  0.11588539  0.88148413  1
  V  V84  1  0.75167769  0.74988710  -0.00111753  1
  Zn  Zn85  1  0.23678007  0.75404673  0.49588296  1
  Zn  Zn86  1  0.00113417  0.12203963  0.62905105  1
  Zn  Zn87  1  0.87901533  0.74048278  0.12149168  1
  Zn  Zn88  1  0.75070465  0.24980340  0.50169347  1
  Zn  Zn89  1  0.86969428  0.24680620  0.12445873  1
  Zn  Zn90  1  0.75194905  0.49647124  0.74959677  1
  Zn  Zn91  1  0.00326509  0.62347502  0.61853938  1
  Zn  Zn92  1  0.63148956  0.88005710  0.72582579  1
  Zn  Zn93  1  0.24965610  0.49879758  0.24897647  1
  Zn  Zn94  1  0.13137824  0.25235793  0.87902216  1
  Zn  Zn95  1  0.49618807  0.24763842  0.24857231  1
  Zn  Zn96  1  0.24754710  0.50317880  0.75180757  1
  Zn  Zn97  1  0.37495448  0.87777885  -0.01010016  1
  Zn  Zn98  1  0.12779195  0.00553489  0.62724159  1
  Zn  Zn99  1  0.12815507  0.25527606  0.37927862  1
  Zn  Zn100  1  0.49639023  0.88525862  0.86749415  1
  Zn  Zn101  1  0.50242968  0.13029040  0.12447880  1
  Zn  Zn102  1  0.37724156  0.24922478  0.12512953  1
  Zn  Zn103  1  0.75102854  0.37239328  0.62486218  1
  Zn  Zn104  1  0.87316292  0.49748279  0.87404801  1
  Zn  Zn105  1  0.87428788  0.37435197  0.49601883  1
  Zn  Zn106  1  0.62669361  0.37908227  0.25480994  1
  Zn  Zn107  1  0.19067045  0.18878086  0.19415204  1
  Zn  Zn108  1  0.18825198  0.18733878  0.69179600  1
  Zn  Zn109  1  0.18644483  0.68719853  0.18630783  1
  Zn  Zn110  1  0.18898958  0.69062487  0.68572849  1
  Zn  Zn111  1  0.68743821  0.19122445  0.19099231  1
  Zn  Zn112  1  0.68988905  0.17888689  0.69299629  1
  Zn  Zn113  1  0.68472478  0.69023506  0.18416555  1
  Zn  Zn114  1  0.68387463  0.67962817  0.69285213  1
  Zn  Zn115  1  0.30906472  0.30497568  0.30876647  1
  Zn  Zn116  1  0.31458297  0.31363988  0.81230985  1
  Zn  Zn117  1  0.30456456  0.81108090  0.31014668  1
  Zn  Zn118  1  0.31367167  0.81427683  0.81096664  1
  Zn  Zn119  1  0.81124970  0.31433216  0.31157739  1
  Zn  Zn120  1  0.81040870  0.30905928  0.81020417  1
  Zn  Zn121  1  0.81804486  0.80969650  0.30956580  1
  Zn  Zn122  1  0.81237672  0.81883800  0.80889206  1
  Zn  Zn123  1  0.18959674  0.44088878  0.43820024  1
  Zn  Zn124  1  0.18967481  0.43768161  0.93728676  1
  Zn  Zn125  1  0.19617447  0.95060141  0.43811690  1
  Zn  Zn126  1  0.18950850  0.94038892  0.93999314  1
  Zn  Zn127  1  0.68661757  0.43229740  0.44340374  1
  Zn  Zn128  1  0.68673470  0.43567578  0.94076703  1
  Zn  Zn129  1  0.68409243  0.93955870  0.43202944  1
  Zn  Zn130  1  0.68894788  0.94310678  0.93275909  1
  Zn  Zn131  1  0.31341799  0.06318518  0.06118839  1
  Zn  Zn132  1  0.30788388  0.06932281  0.56774085  1
  Zn  Zn133  1  0.30840879  0.56058806  0.06151924  1
  Zn  Zn134  1  0.30897233  0.55957082  0.56202455  1
  Zn  Zn135  1  0.81316734  0.06397786  0.05980961  1
  Zn  Zn136  1  0.81715804  0.06361801  0.56223297  1
  Zn  Zn137  1  0.81210968  0.55859247  0.06549583  1
  Zn  Zn138  1  0.81346483  0.56267411  0.56060371  1
  Zn  Zn139  1  0.43666164  0.43673235  0.18435496  1
  Zn  Zn140  1  0.43889585  0.43348307  0.69134798  1
  Zn  Zn141  1  0.43833974  0.94002043  0.18202250  1
  Zn  Zn142  1  0.44034618  0.93565116  0.68380501  1
  Zn  Zn143  1  0.93545450  0.44049070  0.19052870  1
  Zn  Zn144  1  0.93786454  0.43409199  0.68410235  1
  Zn  Zn145  1  0.94128763  0.93320582  0.18556999  1
  Zn  Zn146  1  0.93312387  0.93937321  0.68378854  1
  Zn  Zn147  1  0.06801099  0.06370084  0.31684964  1
  Zn  Zn148  1  0.06615916  0.06440364  0.81854544  1
  Zn  Zn149  1  0.06155493  0.56269132  0.31036939  1
  Zn  Zn150  1  0.06228495  0.56086058  0.81449806  1
  Zn  Zn151  1  0.55798142  0.06232417  0.31153146  1
  Zn  Zn152  1  0.57665791  0.06142113  0.80789858  1
  Zn  Zn153  1  0.56152662  0.56499259  0.31418759  1
  Zn  Zn154  1  0.55867316  0.56368799  0.81240259  1
  Zn  Zn155  1  0.43579380  0.18622940  0.43801146  1
  Zn  Zn156  1  0.44599002  0.18565555  0.93873055  1
  Zn  Zn157  1  0.44034209  0.68749031  0.43387466  1
  Zn  Zn158  1  0.43619061  0.68918234  0.93450479  1
  Zn  Zn159  1  0.93916900  0.18739171  0.44004459  1
  Zn  Zn160  1  0.93826517  0.18943186  0.93876955  1
  Zn  Zn161  1  0.93043535  0.67619090  0.43676655  1
  Zn  Zn162  1  0.93820692  0.68769636  0.93644329  1
  Zn  Zn163  1  0.05741626  0.31401731  0.06862970  1
  Zn  Zn164  1  0.05416039  0.31959464  0.56371818  1
  Zn  Zn165  1  0.06225580  0.81261307  0.06369061  1
  Zn  Zn166  1  0.06059755  0.81797071  0.58018636  1
  Zn  Zn167  1  0.56066368  0.31330279  0.06172076  1
  Zn  Zn168  1  0.56262613  0.30881209  0.56269417  1
  Zn  Zn169  1  0.56236190  0.81800227  0.05993777  1
  Zn  Zn170  1  0.53992573  0.81352208  0.55488121  1
  O  O171  1  0.12476175  0.11838678  0.12204683  1
  O  O172  1  0.12509406  0.12489980  0.61787000  1
  O  O173  1  0.12755821  0.61782167  0.11168412  1
  O  O174  1  0.12680118  0.61089049  0.63052486  1
  O  O175  1  0.62813078  0.11130360  0.13118957  1
  O  O176  1  0.61456957  0.13303372  0.61366636  1
  O  O177  1  0.61958733  0.61864916  0.11827610  1
  O  O178  1  0.61630523  0.61816282  0.61925920  1
  O  O179  1  0.37756539  0.37728433  0.38160708  1
  O  O180  1  0.37168127  0.38538689  0.88332764  1
  O  O181  1  0.38364974  0.87252558  0.36515506  1
  O  O182  1  0.38489014  0.86544038  0.87686903  1
  O  O183  1  0.86800654  0.39425558  0.37187124  1
  O  O184  1  0.88019414  0.37525025  0.88237025  1
  O  O185  1  0.87413063  0.87739632  0.38526326  1
  O  O186  1  0.88379018  0.86604409  0.88905802  1
  O  O187  1  0.24452831  0.02297932  0.36788991  1
  O  O188  1  0.24878883  0.00662737  0.86471773  1
  O  O189  1  0.25763075  0.51123581  0.37304317  1
  O  O190  1  0.26221000  0.50235967  0.87288320  1
  O  O191  1  0.75850340  0.00448562  0.36816124  1
  O  O192  1  0.75338229  0.01104869  0.87148529  1
  O  O193  1  0.75228907  0.50324179  0.37698607  1
  O  O194  1  0.74993343  0.51245946  0.87580733  1
  O  O195  1  0.23680072  0.49360386  0.12502024  1
  O  O196  1  0.24259133  0.48831221  0.62686038  1
  O  O197  1  0.24263915  0.98695693  0.11841195  1
  O  O198  1  0.25161480  0.99644017  0.63977149  1
  O  O199  1  0.73678974  0.48984441  0.11953179  1
  O  O200  1  0.73556313  0.50287445  0.62630530  1
  O  O201  1  0.74188110  0.99483377  0.12756937  1
  O  O202  1  0.75446501  1.00445752  0.63508638  1
  O  O203  1  0.00893222  0.36688150  0.24239484  1
  O  O204  1  0.00612724  0.36998712  0.75896590  1
  O  O205  1  0.01082571  0.86283650  0.24940493  1
  O  O206  1  0.00843810  0.87051033  0.75372668  1
  O  O207  1  0.49884146  0.37666736  0.26414872  1
  O  O208  1  0.51172081  0.36262599  0.74567670  1
  O  O209  1  0.50435244  0.87349173  0.25396530  1
  O  O210  1  0.50883757  0.86385479  0.74511810  1
  O  O211  1  0.48579726  0.12482541  0.24927853  1
  O  O212  1  0.50790659  0.12940964  0.73802562  1
  O  O213  1  0.48809636  0.63087596  0.24549895  1
  O  O214  1  0.49333413  0.63486495  0.74259465  1
  O  O215  1  0.99625616  0.12969346  0.24677211  1
  O  O216  1  1.00878300  0.13897599  0.75207467  1
  O  O217  1  0.99728332  0.63646149  0.25018924  1
  O  O218  1  0.99227477  0.63131140  0.75183111  1
  O  O219  1  0.38222942  0.26289578  -0.00094099  1
  O  O220  1  0.38256664  0.26235009  0.51029989  1
  O  O221  1  0.36618884  0.74794420  0.00623088  1
  O  O222  1  0.37612619  0.74609625  0.51176553  1
  O  O223  1  0.88602569  0.26621507  0.00741677  1
  O  O224  1  0.87667884  0.25220979  0.51157152  1
  O  O225  1  0.86952069  0.75436727  0.00242905  1
  O  O226  1  0.87815177  0.75355357  0.50760840  1
  O  O227  1  0.11580806  0.24279761  0.50134153  1
  O  O228  1  0.11973534  0.23770572  1.00341010  1
  O  O229  1  0.11392397  0.76453063  0.48904661  1
  O  O230  1  0.12822858  0.74332290  0.99479661  1
  O  O231  1  0.62330534  0.23959244  0.48894156  1
  O  O232  1  0.62198509  0.25914096  0.98068379  1
  O  O233  1  0.62567476  0.74705292  0.49332664  1
  O  O234  1  0.62996239  0.74390267  0.99311805  1
  O  O235  1  0.49909112  0.24793540  0.12911787  1
  O  O236  1  0.49448131  0.24207847  0.63262672  1
  O  O237  1  0.49578823  0.74528935  0.12988535  1
  O  O238  1  0.48977412  0.74381982  0.63092850  1
  O  O239  1  0.99739473  0.24105589  0.13662092  1
  O  O240  1  0.99196648  0.25089721  0.63517375  1
  O  O241  1  0.99790078  0.75047202  0.13740099  1
  O  O242  1  0.99273273  0.74354531  0.63373944  1
  O  O243  1  0.00306615  0.24700865  0.36268134  1
  O  O244  1  0.00349004  0.26106536  0.87055451  1
  O  O245  1  -0.00261879  0.74907715  0.36601886  1
  O  O246  1  0.01162704  0.75643657  0.87228210  1
  O  O247  1  0.50567415  0.25741569  0.37618834  1
  O  O248  1  0.51259426  0.24055105  0.86222046  1
  O  O249  1  0.50512585  0.76050046  0.36906047  1
  O  O250  1  0.50947147  0.74630191  0.86444189  1
  O  O251  1  0.24269291  0.12484814  0.49126994  1
  O  O252  1  0.24369831  0.11764626  0.98636169  1
  O  O253  1  0.25052865  0.62743915  0.48821683  1
  O  O254  1  0.24168362  0.63826033  1.00277968  1
  O  O255  1  0.74292031  0.12492028  0.49263785  1
  O  O256  1  0.75557537  0.12302637  0.98338419  1
  O  O257  1  0.73576387  0.63161101  0.50654865  1
  O  O258  1  0.74595480  0.62919309  0.99347189  1
  O  O259  1  0.25969831  0.37989287  0.00753409  1
  O  O260  1  0.25851255  0.37748454  0.50852977  1
  O  O261  1  0.24871772  0.86353722  0.00728122  1
  O  O262  1  0.24533768  0.87823436  0.51343629  1
  O  O263  1  0.75872897  0.37925702  0.01036958  1
  O  O264  1  0.75382504  0.36811007  0.50640873  1
  O  O265  1  0.75781925  0.87167903  0.00165405  1
  O  O266  1  0.75750897  0.87210134  0.49622030  1
  O  O267  1  0.12461914  0.49461102  0.24051754  1
  O  O268  1  0.12400745  0.49031128  0.74394581  1
  O  O269  1  0.11631820  0.99207241  0.23684931  1
  O  O270  1  0.12727423  0.99071147  0.75122823  1
  O  O271  1  0.61576407  0.50058320  0.23622102  1
  O  O272  1  0.62198405  0.49212437  0.74407140  1
  O  O273  1  0.63031875  0.99493918  0.24248971  1
  O  O274  1  0.64084977  0.99216916  0.74882563  1
  O  O275  1  0.37623568  0.01351508  0.24543132  1
  O  O276  1  0.36743118  -0.00206323  0.75169825  1
  O  O277  1  0.37340496  0.50839644  0.25458149  1
  O  O278  1  0.37738305  0.50714847  0.75776765  1
  O  O279  1  0.87309496  0.00193629  0.25435144  1
  O  O280  1  0.86056699  -0.00926993  0.75091307  1
  O  O281  1  0.87545277  0.51160472  0.25970002  1
  O  O282  1  0.87479742  0.50904970  0.75155860  1
  O  O283  1  0.13220734  0.37689350  0.36034153  1
  O  O284  1  0.11918507  0.37399597  0.86885644  1
  O  O285  1  0.12736359  0.87992903  0.36803442  1
  O  O286  1  0.12083717  0.86917073  0.87080749  1
  O  O287  1  0.61568228  0.36769587  0.37636956  1
  O  O288  1  0.63145785  0.36809003  0.86389508  1
  O  O289  1  0.61565221  0.86978398  0.36715014  1
  O  O290  1  0.62220979  0.86176309  0.87953194  1
  O  O291  1  0.37285890  0.12679692  0.13509387  1
  O  O292  1  0.38302416  0.13898362  0.62117903  1
  O  O293  1  0.37640561  0.62919206  0.13200715  1
  O  O294  1  0.37830865  0.62879196  0.63020222  1
  O  O295  1  0.88113384  0.12412896  0.13400619  1
  O  O296  1  0.88326451  0.13951731  0.62076178  1
  O  O297  1  0.87174462  0.62173871  0.14128641  1
  O  O298  1  0.87557443  0.63143166  0.63471552  1
  O  O299  1  0.24963146  0.26207512  0.12434624  1
  O  O300  1  0.25921448  0.26139498  0.63405790  1
  O  O301  1  0.25237447  0.75799673  0.11738220  1
  O  O302  1  0.25381091  0.75874212  0.61799310  1
  O  O303  1  0.74894091  0.26453283  0.12553198  1
  O  O304  1  0.76248796  0.24504633  0.62707305  1
  O  O305  1  0.75033239  0.75810484  0.11644867  1
  O  O306  1  0.76026077  0.74442121  0.62895150  1
  O  O307  1  0.24356706  0.23429233  0.37125621  1
  O  O308  1  0.24872816  0.23444529  0.86642868  1
  O  O309  1  0.25367691  0.73555884  0.37969839  1
  O  O310  1  0.23735244  0.75416554  0.88137957  1
  O  O311  1  0.74264297  0.24273007  0.37560214  1
  O  O312  1  0.74092227  0.23792099  0.86805312  1
  O  O313  1  0.73439509  0.75606952  0.36873679  1
  O  O314  1  0.74380992  0.74072480  0.87744547  1
  O  O315  1  0.00724275  0.11906180  0.00624326  1
  O  O316  1  0.01012326  0.11727554  0.50158144  1
  O  O317  1  0.00467023  0.61148394  -0.00469658  1
  O  O318  1  -0.00511711  0.60640025  0.50251391  1
  O  O319  1  0.50098337  0.11083451  0.00625633  1
  O  O320  1  0.50420594  0.11516673  0.50464303  1
  O  O321  1  0.50399121  0.62039751  0.00543274  1
  O  O322  1  0.50543130  0.61924402  0.50573186  1
  O  O323  1  0.49420379  0.37983117  0.49078409  1
  O  O324  1  0.48859012  0.38817030  1.00567897  1
  O  O325  1  0.49283748  0.89180696  0.49062881  1
  O  O326  1  0.49865518  0.89006383  0.99965565  1
  O  O327  1  0.99169720  0.39443176  0.50312483  1
  O  O328  1  0.99626508  0.38412161  0.99434475  1
  O  O329  1  0.99984293  0.87622793  0.49066586  1
  O  O330  1  0.99489003  0.88202106  0.99811521  1
  O  O331  1  0.49373385  0.49347083  0.38059349  1
  O  O332  1  0.49068024  0.50670531  0.88691293  1
  O  O333  1  0.50074914  0.99440784  0.38770269  1
  O  O334  1  0.51163546  1.00284356  0.88836671  1
  O  O335  1  0.99879487  0.50050297  0.38333911  1
  O  O336  1  0.99840005  0.48826302  0.88191981  1
  O  O337  1  0.99458954  1.00292763  0.38686182  1
  O  O338  1  1.00700923  0.99432531  0.88957036  1
  O  O339  1  0.00789092  0.00555925  0.11696485  1
  O  O340  1  0.00238557  -0.00113254  0.61156160  1
  O  O341  1  0.01240663  0.49338693  0.11615288  1
  O  O342  1  0.00886617  0.50122701  0.61996924  1
  O  O343  1  0.51418162  0.00150747  0.11760010  1
  O  O344  1  0.49417919  0.00746943  0.61086768  1
  O  O345  1  0.50419075  0.50688447  0.11540705  1
  O  O346  1  0.50849418  0.50208945  0.62111438  1
  O  O347  1  0.24249930  0.37770014  0.23985052  1
  O  O348  1  0.24123620  0.37859768  0.74415559  1
  O  O349  1  0.23255443  0.86625783  0.23953107  1
  O  O350  1  0.24494626  0.88675173  0.74692416  1
  O  O351  1  0.74607973  0.37610051  0.23550208  1
  O  O352  1  0.74037001  0.37821915  0.74549661  1
  O  O353  1  0.74696197  0.88058480  0.24377415  1
  O  O354  1  0.74500418  0.88708206  0.75251881  1
  O  O355  1  0.26248784  0.12627094  0.25796691  1
  O  O356  1  0.24669048  0.11086231  0.76210775  1
  O  O357  1  0.25980292  0.62603311  0.25624069  1
  O  O358  1  0.26316792  0.62386524  0.74466324  1
  O  O359  1  0.75768611  0.11907415  0.25529325  1
  O  O360  1  0.74732653  0.10954246  0.76175587  1
  O  O361  1  0.75855577  0.63065321  0.24957630  1
  O  O362  1  0.75760636  0.62131844  0.75906049  1
  O  O363  1  0.36546004  0.12836006  0.36780108  1
  O  O364  1  0.36293623  0.12775628  0.88016582  1
  O  O365  1  0.37145126  0.61948034  0.36761594  1
  O  O366  1  0.37906519  0.61803575  0.86362395  1
  O  O367  1  0.87106404  0.11770438  0.37027212  1
  O  O368  1  0.86695475  0.13054035  0.87386365  1
  O  O369  1  0.87341719  0.61232465  0.36109791  1
  O  O370  1  0.86770884  0.62584343  0.86499765  1
  O  O371  1  0.13148098  0.38159368  0.12981375  1
  O  O372  1  0.13105081  0.38118923  0.63124785  1
  O  O373  1  0.12944436  0.88198004  0.12989800  1
  O  O374  1  0.13576635  0.87909924  0.63900094  1
  O  O375  1  0.63331803  0.38198614  0.12546357  1
  O  O376  1  0.62485028  0.38194297  0.63077042  1
  O  O377  1  0.63215765  0.88262899  0.13173895  1
  O  O378  1  0.63479807  0.85152101  0.60960751  1
  O  O379  1  0.11664349  0.25981961  0.24926202  1
  O  O380  1  0.11797426  0.26270787  0.75036258  1
  O  O381  1  0.11273394  0.75345736  0.24838221  1
  O  O382  1  0.12371527  0.75822449  0.75734826  1
  O  O383  1  0.62054194  0.25173425  0.26467405  1
  O  O384  1  0.62071653  0.25608068  0.75559303  1
  O  O385  1  0.61659520  0.75561859  0.25414859  1
  O  O386  1  0.61711326  0.75018582  0.75652511  1
  O  O387  1  0.37740357  0.23934211  0.24570011  1
  O  O388  1  0.38751435  0.25806486  0.74131604  1
  O  O389  1  0.37832537  0.74333767  0.24352128  1
  O  O390  1  0.38093750  0.74206853  0.74218474  1
  O  O391  1  0.88106545  0.24361873  0.24898984  1
  O  O392  1  0.88447827  0.25422030  0.73924497  1
  O  O393  1  0.88475923  0.73707653  0.24858901  1
  O  O394  1  0.88002677  0.74484115  0.74342115  1
  O  O395  1  0.38042237  0.48939248  0.49684498  1
  O  O396  1  0.37962832  0.49784201  0.99288778  1
  O  O397  1  0.38067748  1.00770712  0.49870239  1
  O  O398  1  0.39075525  0.99775850  1.00424245  1
  O  O399  1  0.87693250  0.50283499  0.48387747  1
  O  O400  1  0.88298751  0.49189647  0.99874048  1
  O  O401  1  0.88371109  0.98953188  0.49554174  1
  O  O402  1  0.88695455  0.99011995  1.00639558  1
  O  O403  1  0.11930963  0.00641417  0.01125697  1
  O  O404  1  0.11970153  0.00927178  0.50367853  1
  O  O405  1  0.11947795  0.50661100  0.00310616  1
  O  O406  1  0.11375945  0.49562734  0.50603113  1
  O  O407  1  0.62078597  -0.00534264  0.01309739  1
  O  O408  1  0.61964338  0.01062744  0.49598090  1
  O  O409  1  0.61515338  0.50472609  0.00509545  1
  O  O410  1  0.61891246  0.50713337  0.50600716  1
  O  O411  1  0.36430259  0.37720318  0.11589588  1
  O  O412  1  0.36820816  0.36976676  0.61908925  1
  O  O413  1  0.36552844  0.86862060  0.12371513  1
  O  O414  1  0.36513496  0.86327940  0.63235107  1
  O  O415  1  0.86183983  0.37843226  0.12104023  1
  O  O416  1  0.87255768  0.36184182  0.62344444  1
  O  O417  1  0.86962910  0.87122725  0.11458345  1
  O  O418  1  0.88228125  0.86165580  0.60947087  1
  O  O419  1  0.13227759  0.12994543  0.38509988  1
  O  O420  1  0.13367645  0.12879932  0.88612426  1
  O  O421  1  0.14115031  0.62122784  0.36981635  1
  O  O422  1  0.12144671  0.63257847  0.88660213  1
  O  O423  1  0.62979662  0.12953277  0.37994784  1
  O  O424  1  0.63369042  0.13539615  0.87685522  1
  O  O425  1  0.61576541  0.63713398  0.38503802  1
  O  O426  1  0.63152421  0.63250615  0.87825070  1
